0
                    3D
 Structure written by MMmdl.
159167  0  0  1  0            999 V2000
  -30.7662  -14.3733   20.6758 C   0  0  0  0  0  0
  -30.4150  -12.2934   19.3964 C   0  0  0  0  0  0
  -29.4816  -12.5296   18.1941 C   0  0  0  0  0  0
  -28.0069  -12.3828   18.6127 C   0  0  0  0  0  0
  -27.6653  -13.2054   19.8828 C   0  0  2  0  0  0
  -28.7044  -12.9504   20.9976 C   0  0  0  0  0  0
  -25.2593  -13.8164   20.5669 C   0  0  0  0  0  0
  -24.1837  -13.0444   20.9153 C   0  0  0  0  0  0
  -24.6391  -11.6908   20.8725 C   0  0  0  0  0  0
  -23.9058  -10.4294   21.0397 C   0  0  0  0  0  0
  -24.3610   -9.4212   21.9181 C   0  0  0  0  0  0
  -23.6289   -8.2246   22.0756 C   0  0  0  0  0  0
  -22.4269   -8.0280   21.3546 C   0  0  0  0  0  0
  -21.9906   -9.0251   20.4644 C   0  0  0  0  0  0
  -22.7233  -10.2130   20.3049 C   0  0  0  0  0  0
  -21.6851   -6.0732   22.5278 C   0  0  0  0  0  0
  -21.4009   -6.5636   23.8209 C   0  0  0  0  0  0
  -21.3660   -5.6792   24.9173 C   0  0  0  0  0  0
  -21.6043   -4.3057   24.7224 C   0  0  0  0  0  0
  -21.8824   -3.8147   23.4348 C   0  0  0  0  0  0
  -21.9190   -4.6961   22.3402 C   0  0  0  0  0  0
  -22.7860  -13.5243   21.1829 C   0  0  0  0  0  0
  -22.1664   -4.2146   21.0981 F   0  0  0  0  0  0
  -21.5630   -3.4542   25.7740 F   0  0  0  0  0  0
  -30.0468  -13.2417   20.4590 N   0  0  0  0  0  0
  -26.3041  -12.9335   20.3405 N   0  0  0  0  0  0
  -25.9321  -11.6490   20.5774 N   0  0  0  0  0  0
  -22.0509  -12.8220   22.0383 N   0  0  0  0  0  0
  -25.4328  -15.1874   20.4074 N   0  0  0  0  0  0
  -31.8046  -14.6389   20.0626 O   0  0  0  0  0  0
  -21.6640   -6.8873   21.4238 O   0  0  0  0  0  0
  -22.3534  -14.5553   20.6696 O   0  0  0  0  0  0
  -24.6095  -31.8702   23.2132 C   0  0  0  0  0  0
  -25.9006  -32.4845   23.8410 C   0  0  1  0  0  0
  -27.2388  -27.4719   20.0922 C   0  0  0  0  0  0
  -25.5876  -33.8640   24.2345 N   0  0  0  0  0  0
  -23.3964  -30.4924   21.5523 C   0  0  2  0  0  0
  -24.8462  -28.9605   20.1188 C   0  0  0  0  0  0
  -22.7378  -29.4660   22.5009 C   0  0  0  0  0  0
  -18.0260  -28.1362   22.8484 C   0  0  0  0  0  0
  -24.1480  -36.7313   23.2638 C   0  0  0  0  0  0
  -25.9208  -30.8459   21.3621 C   0  0  0  0  0  0
  -26.0010  -29.4785   20.7200 C   0  0  0  0  0  0
  -27.2015  -28.7375   20.7137 C   0  0  0  0  0  0
  -26.0762  -26.9627   19.4810 C   0  0  0  0  0  0
  -24.8755  -27.6971   19.5011 C   0  0  0  0  0  0
  -23.6049  -29.8215   20.1671 C   0  0  0  0  0  0
  -25.4103  -36.3129   24.0344 C   0  0  1  0  0  0
  -20.5844  -28.3642   23.1330 C   0  0  2  0  0  0
  -20.6752  -26.9381   22.5423 C   0  0  0  0  0  0
  -19.5743  -26.6372   21.5201 C   0  0  0  0  0  0
  -18.1910  -26.7914   22.1600 C   0  0  0  0  0  0
  -19.1507  -28.8820   23.2906 C   0  0  0  0  0  0
  -18.9444  -30.1423   23.8925 C   0  0  0  0  0  0
  -17.6452  -30.6575   24.0562 C   0  0  0  0  0  0
  -25.9024  -34.9490   23.5144 C   0  0  0  0  0  0
  -16.5341  -29.9085   23.6318 C   0  0  0  0  0  0
  -16.7253  -28.6496   23.0349 C   0  0  0  0  0  0
  -26.4463  -31.6603   25.0707 C   0  0  0  0  0  0
  -25.3750  -31.3676   26.1461 C   0  0  0  0  0  0
  -27.0294  -30.3066   24.6030 C   0  0  0  0  0  0
  -27.6027  -32.4324   25.7480 C   0  0  0  0  0  0
  -27.5586  -37.1817   24.8465 C   0  0  0  0  0  0
  -21.4109  -29.3021   22.3751 N   0  0  0  0  0  0
  -26.4302  -37.3804   23.9408 N   0  0  0  0  0  0
  -24.6600  -31.0828   22.1017 N   0  0  0  0  0  0
  -23.4162  -28.8196   23.3036 O   0  0  0  0  0  0
  -28.3980  -26.7430   20.0259 O   0  0  0  0  0  0
  -26.5586  -34.8935   22.4706 O   0  0  0  0  0  0
  -23.5299  -32.1440   23.7553 O   0  0  0  0  0  0
  -31.7546  -19.0524   22.5667 C   0  0  0  0  0  0
  -32.1027  -16.6680   22.2852 C   0  0  0  0  0  0
  -29.8608  -17.6228   21.9220 C   0  0  0  0  0  0
  -30.3787  -18.9204   22.2474 C   0  0  0  0  0  0
  -30.7454  -16.5018   21.9291 C   0  0  0  0  0  0
  -32.6057  -17.9381   22.5961 C   0  0  0  0  0  0
  -28.3844  -24.6657   21.3013 C   0  0  0  0  0  0
  -29.6749  -21.3016   22.7220 C   0  0  0  0  0  0
  -29.0905  -23.7740   22.3284 C   0  0  0  0  0  0
  -28.8026  -26.1440   21.2586 C   0  0  0  0  0  0
  -28.5758  -22.3116   22.3852 C   0  0  0  0  0  0
  -28.3856  -17.3823   21.5370 C   0  0  0  0  0  0
  -29.5299  -20.0734   22.1909 N   0  0  0  0  0  0
  -30.2698  -15.1932   21.6157 N   0  0  0  0  0  0
  -27.5220  -24.2155   20.5389 O   0  0  0  0  0  0
  -30.6010  -21.6366   23.4639 O   0  0  0  0  0  0
  -33.9135  -18.0905   22.9141 F   0  0  0  0  0  0
  -27.5933  -18.4529   21.6063 F   0  0  0  0  0  0
  -28.3191  -16.9252   20.2852 F   0  0  0  0  0  0
  -27.8640  -16.4540   22.3412 F   0  0  0  0  0  0
  -31.4576  -12.3913   19.0886 H   0  0  0  0  0  0
  -30.3137  -11.2713   19.7642 H   0  0  0  0  0  0
  -29.7143  -11.8272   17.3929 H   0  0  0  0  0  0
  -29.6491  -13.5273   17.7862 H   0  0  0  0  0  0
  -27.8173  -11.3241   18.7940 H   0  0  0  0  0  0
  -27.3515  -12.6731   17.7910 H   0  0  0  0  0  0
  -27.7214  -14.2593   19.6090 H   0  0  0  0  0  0
  -28.6673  -11.9073   21.3150 H   0  0  0  0  0  0
  -28.4528  -13.5261   21.8879 H   0  0  0  0  0  0
  -25.2756   -9.5685   22.4756 H   0  0  0  0  0  0
  -23.9997   -7.4639   22.7477 H   0  0  0  0  0  0
  -21.0838   -8.8762   19.8950 H   0  0  0  0  0  0
  -22.3696  -10.9663   19.6153 H   0  0  0  0  0  0
  -21.2003   -7.6145   23.9711 H   0  0  0  0  0  0
  -21.1478   -6.0524   25.9072 H   0  0  0  0  0  0
  -22.0604   -2.7607   23.2852 H   0  0  0  0  0  0
  -22.4128  -11.9865   22.4735 H   0  0  0  0  0  0
  -21.1130  -13.1237   22.2611 H   0  0  0  0  0  0
  -24.6767  -15.8490   20.5381 H   0  0  0  0  0  0
  -26.3086  -15.6301   20.1601 H   0  0  0  0  0  0
  -26.7070  -32.5587   23.1172 H   0  0  0  0  0  0
  -25.0064  -33.9807   25.0519 H   0  0  0  0  0  0
  -22.6833  -31.3068   21.4117 H   0  0  0  0  0  0
  -23.3756  -35.9634   23.3313 H   0  0  0  0  0  0
  -24.3573  -36.8914   22.2050 H   0  0  0  0  0  0
  -23.7215  -37.6516   23.6640 H   0  0  0  0  0  0
  -26.0212  -31.6081   20.5882 H   0  0  0  0  0  0
  -26.8133  -30.9091   21.9731 H   0  0  0  0  0  0
  -28.0979  -29.1400   21.1647 H   0  0  0  0  0  0
  -26.1038  -25.9985   18.9922 H   0  0  0  0  0  0
  -23.9886  -27.2930   19.0317 H   0  0  0  0  0  0
  -23.7071  -30.5936   19.4036 H   0  0  0  0  0  0
  -22.7318  -29.2338   19.8755 H   0  0  0  0  0  0
  -25.1281  -36.2011   25.0844 H   0  0  0  0  0  0
  -20.9930  -28.3207   24.1451 H   0  0  0  0  0  0
  -20.5622  -26.2253   23.3603 H   0  0  0  0  0  0
  -21.6635  -26.7414   22.1240 H   0  0  0  0  0  0
  -19.6910  -25.6287   21.1213 H   0  0  0  0  0  0
  -19.6699  -27.3197   20.6742 H   0  0  0  0  0  0
  -17.4188  -26.6675   21.3990 H   0  0  0  0  0  0
  -18.0303  -26.0037   22.8978 H   0  0  0  0  0  0
  -19.7922  -30.7217   24.2318 H   0  0  0  0  0  0
  -17.5011  -31.6261   24.5155 H   0  0  0  0  0  0
  -15.5346  -30.3004   23.7628 H   0  0  0  0  0  0
  -15.8646  -28.0822   22.7072 H   0  0  0  0  0  0
  -24.5933  -30.7014   25.7792 H   0  0  0  0  0  0
  -24.8939  -32.2823   26.4931 H   0  0  0  0  0  0
  -25.8129  -30.8828   27.0197 H   0  0  0  0  0  0
  -26.2821  -29.6834   24.1108 H   0  0  0  0  0  0
  -27.4124  -29.7285   25.4447 H   0  0  0  0  0  0
  -27.8622  -30.4412   23.9124 H   0  0  0  0  0  0
  -27.2618  -33.3587   26.2118 H   0  0  0  0  0  0
  -28.3820  -32.6953   25.0313 H   0  0  0  0  0  0
  -28.0719  -31.8420   26.5361 H   0  0  0  0  0  0
  -28.2613  -38.0107   24.7525 H   0  0  0  0  0  0
  -28.1078  -36.2644   24.6286 H   0  0  0  0  0  0
  -27.2302  -37.1468   25.8867 H   0  0  0  0  0  0
  -20.9251  -29.8755   21.6996 H   0  0  0  0  0  0
  -26.0199  -38.2888   24.1417 H   0  0  0  0  0  0
  -32.1996  -20.0102   22.7840 H   0  0  0  0  0  0
  -32.7748  -15.8222   22.3114 H   0  0  0  0  0  0
  -29.0075  -24.2357   23.3123 H   0  0  0  0  0  0
  -30.1507  -23.7872   22.0732 H   0  0  0  0  0  0
  -29.8871  -26.2067   21.3426 H   0  0  0  0  0  0
  -28.3824  -26.6674   22.1187 H   0  0  0  0  0  0
  -27.7795  -22.2277   23.1248 H   0  0  0  0  0  0
  -28.1408  -22.0110   21.4318 H   0  0  0  0  0  0
  -28.6458  -19.9242   21.7178 H   0  0  0  0  0  0
  -29.3678  -14.9322   21.9879 H   0  0  0  0  0  0
  1 25  1  0  0  0
  1 30  2  0  0  0
  1 84  1  0  0  0
  2  3  1  0  0  0
  2 25  1  0  0  0
  2 91  1  0  0  0
  2 92  1  0  0  0
  3  4  1  0  0  0
  3 93  1  0  0  0
  3 94  1  0  0  0
  4  5  1  0  0  0
  4 95  1  0  0  0
  4 96  1  0  0  0
  5  6  1  0  0  0
  5 26  1  0  0  0
  5 97  1  0  0  0
  6 25  1  0  0  0
  6 98  1  0  0  0
  6 99  1  0  0  0
  7  8  2  0  0  0
  7 26  1  0  0  0
  7 29  1  0  0  0
  8  9  1  0  0  0
  8 22  1  0  0  0
  9 10  1  0  0  0
  9 27  2  0  0  0
 10 11  2  0  0  0
 10 15  1  0  0  0
 11 12  1  0  0  0
 11100  1  0  0  0
 12 13  2  0  0  0
 12101  1  0  0  0
 13 14  1  0  0  0
 13 31  1  0  0  0
 14 15  2  0  0  0
 14102  1  0  0  0
 15103  1  0  0  0
 16 17  2  0  0  0
 16 21  1  0  0  0
 16 31  1  0  0  0
 17 18  1  0  0  0
 17104  1  0  0  0
 18 19  2  0  0  0
 18105  1  0  0  0
 19 20  1  0  0  0
 19 24  1  0  0  0
 20 21  2  0  0  0
 20106  1  0  0  0
 21 23  1  0  0  0
 22 28  1  0  0  0
 22 32  2  0  0  0
 26 27  1  0  0  0
 28107  1  0  0  0
 28108  1  0  0  0
 29109  1  0  0  0
 29110  1  0  0  0
 33 34  1  0  0  0
 33 66  1  0  0  0
 33 70  2  0  0  0
 34 36  1  0  0  0
 34 59  1  0  0  0
 34111  1  0  0  0
 35 44  2  0  0  0
 35 45  1  0  0  0
 35 68  1  0  0  0
 36 56  1  0  0  0
 36112  1  0  0  0
 37 39  1  0  0  0
 37 47  1  0  0  0
 37 66  1  0  0  0
 37113  1  0  0  0
 38 43  2  0  0  0
 38 46  1  0  0  0
 38 47  1  0  0  0
 39 64  1  0  0  0
 39 67  2  0  0  0
 40 52  1  0  0  0
 40 53  2  0  0  0
 40 58  1  0  0  0
 41114  1  0  0  0
 41115  1  0  0  0
 41116  1  0  0  0
 41 48  1  0  0  0
 42 43  1  0  0  0
 42 66  1  0  0  0
 42117  1  0  0  0
 42118  1  0  0  0
 43 44  1  0  0  0
 44119  1  0  0  0
 45 46  2  0  0  0
 45120  1  0  0  0
 46121  1  0  0  0
 47122  1  0  0  0
 47123  1  0  0  0
 48 56  1  0  0  0
 48 65  1  0  0  0
 48124  1  0  0  0
 49 50  1  0  0  0
 49 53  1  0  0  0
 49 64  1  0  0  0
 49125  1  0  0  0
 50 51  1  0  0  0
 50126  1  0  0  0
 50127  1  0  0  0
 51 52  1  0  0  0
 51128  1  0  0  0
 51129  1  0  0  0
 52130  1  0  0  0
 52131  1  0  0  0
 53 54  1  0  0  0
 54 55  2  0  0  0
 54132  1  0  0  0
 55 57  1  0  0  0
 55133  1  0  0  0
 56 69  2  0  0  0
 57 58  2  0  0  0
 57134  1  0  0  0
 58135  1  0  0  0
 59 60  1  0  0  0
 59 61  1  0  0  0
 59 62  1  0  0  0
 60136  1  0  0  0
 60137  1  0  0  0
 60138  1  0  0  0
 61139  1  0  0  0
 61140  1  0  0  0
 61141  1  0  0  0
 62142  1  0  0  0
 62143  1  0  0  0
 62144  1  0  0  0
 63 65  1  0  0  0
 63145  1  0  0  0
 63146  1  0  0  0
 63147  1  0  0  0
 64148  1  0  0  0
 65149  1  0  0  0
 68 80  1  0  0  0
 71 74  2  0  0  0
 71 76  1  0  0  0
 71150  1  0  0  0
 72 75  1  0  0  0
 72 76  2  0  0  0
 72151  1  0  0  0
 73 74  1  0  0  0
 73 75  2  0  0  0
 73 82  1  0  0  0
 74 83  1  0  0  0
 75 84  1  0  0  0
 76 87  1  0  0  0
 77 79  1  0  0  0
 77 80  1  0  0  0
 77 85  2  0  0  0
 78 81  1  0  0  0
 78 83  1  0  0  0
 78 86  2  0  0  0
 79 81  1  0  0  0
 79152  1  0  0  0
 79153  1  0  0  0
 80154  1  0  0  0
 80155  1  0  0  0
 81156  1  0  0  0
 81157  1  0  0  0
 82 88  1  0  0  0
 82 89  1  0  0  0
 82 90  1  0  0  0
 83158  1  0  0  0
 84159  1  0  0  0
M  ISO  4   1 100  68 101  80 101  84 100
M  END
> <chiral flag>
0

> <version>
0

> <s_m_source_file>
/data/baiqing/PycharmProjects/Reinvent-master-3.2/result/LINK_invent/BTK/process_docking_weight1_custom_product_contain_oxygen_bond_distance_aromatic_linkinvent_7_9_3/rearranged_h_0174.sdf

> <i_m_source_file_index>
1

> <r_mmod_Potential_Energy-OPLS-2005>
-28.5681457519531

> <r_mmod_Stretch_Energy-OPLS-2005>
38.8295478820801

> <r_mmod_Bend_Energy-OPLS-2005>
97.6128768920898

> <r_mmod_Torsional_Energy-OPLS-2005>
246.777404785156

> <r_mmod_Improper_Torsional_Energy-OPLS-2005>
2.32925701141357

> <r_mmod_Van_der_Waal_Energy-OPLS-2005>
168.426696777344

> <r_mmod_Electrostatic_Energy-OPLS-2005>
-361.664642333984

> <r_mmod_Solvation_Energy-OPLS-2005>
-226.961669921875

> <b_mmod_Minimization_Converged-OPLS-2005>
0

> <r_mmod_RMS_Derivative-OPLS-2005>
1.12174105644226

$$$$
1
                    3D
 Structure written by MMmdl.
161169  0  0  1  0            999 V2000
  -30.8169  -14.0907   21.0591 C   0  0  0  0  0  0
  -30.7165  -12.3776   19.2072 C   0  0  0  0  0  0
  -29.7337  -12.5302   17.9998 C   0  0  0  0  0  0
  -28.2273  -12.4765   18.3403 C   0  0  0  0  0  0
  -28.1170  -13.3945   19.5229 C   0  0  2  0  0  0
  -28.9109  -12.6667   20.6244 C   0  0  0  0  0  0
  -24.9500  -14.5482   19.7023 C   0  0  0  0  0  0
  -23.6515  -13.6455   20.9055 C   0  0  0  0  0  0
  -24.5175  -12.0859   21.8800 C   0  0  0  0  0  0
  -23.8590  -10.6843   21.6052 C   0  0  0  0  0  0
  -24.3412   -9.5192   22.2365 C   0  0  0  0  0  0
  -23.6751   -8.2686   22.1563 C   0  0  0  0  0  0
  -22.5084   -8.1007   21.3800 C   0  0  0  0  0  0
  -22.1452   -9.1763   20.5463 C   0  0  0  0  0  0
  -22.8140  -10.4314   20.6490 C   0  0  0  0  0  0
  -21.7086   -6.1183   22.5093 C   0  0  0  0  0  0
  -21.4249   -6.5965   23.8123 C   0  0  0  0  0  0
  -21.3608   -5.6979   24.8999 C   0  0  0  0  0  0
  -21.5979   -4.3250   24.7040 C   0  0  0  0  0  0
  -21.8759   -3.8471   23.4121 C   0  0  0  0  0  0
  -21.9219   -4.7369   22.3215 C   0  0  0  0  0  0
  -22.2336  -13.7615   21.0624 C   0  0  0  0  0  0
  -22.1645   -4.2513   21.0810 F   0  0  0  0  0  0
  -21.5495   -3.4671   25.7515 F   0  0  0  0  0  0
  -30.2498  -13.0545   20.4157 N   0  0  0  0  0  0
  -26.8605  -13.4956   19.9671 N   0  0  0  0  0  0
  -26.4400  -12.0011   21.4162 N   0  0  0  0  0  0
  -21.6659  -12.9272   21.9317 N   0  0  0  0  0  0
  -25.0464  -15.7429   19.0969 N   0  0  0  0  0  0
  -31.7039  -14.7618   20.5041 O   0  0  0  0  0  0
  -21.7416   -6.9464   21.3977 O   0  0  0  0  0  0
  -21.6633  -14.6291   20.4497 O   0  0  0  0  0  0
  -24.6647  -31.8271   23.1795 C   0  0  0  0  0  0
  -25.9334  -32.4592   23.8248 C   0  0  1  0  0  0
  -26.8857  -26.7401   20.3429 C   0  0  0  0  0  0
  -25.6026  -33.8432   24.2099 N   0  0  0  0  0  0
  -23.4689  -30.4587   21.5328 C   0  0  2  0  0  0
  -24.8750  -28.8606   20.0841 C   0  0  0  0  0  0
  -22.7638  -29.4452   22.4750 C   0  0  0  0  0  0
  -18.0270  -28.1411   22.8426 C   0  0  0  0  0  0
  -24.1446  -36.7179   23.2641 C   0  0  0  0  0  0
  -26.0387  -30.5775   21.4398 C   0  0  0  0  0  0
  -26.0463  -29.1613   20.7870 C   0  0  0  0  0  0
  -27.0739  -28.1139   20.8965 C   0  0  0  0  0  0
  -25.8029  -26.6757   19.4638 C   0  0  0  0  0  0
  -24.8061  -27.6646   19.3659 C   0  0  0  0  0  0
  -23.7011  -29.8324   20.1348 C   0  0  0  0  0  0
  -25.4112  -36.2978   24.0290 C   0  0  1  0  0  0
  -20.5892  -28.3754   23.1166 C   0  0  2  0  0  0
  -20.6781  -26.9441   22.5386 C   0  0  0  0  0  0
  -19.5767  -26.6354   21.5203 C   0  0  0  0  0  0
  -18.1933  -26.7935   22.1599 C   0  0  0  0  0  0
  -19.1529  -28.8903   23.2771 C   0  0  0  0  0  0
  -18.9485  -30.1500   23.8805 C   0  0  0  0  0  0
  -17.6498  -30.6623   24.0547 C   0  0  0  0  0  0
  -25.9130  -34.9368   23.5016 C   0  0  0  0  0  0
  -16.5373  -29.9113   23.6361 C   0  0  0  0  0  0
  -16.7265  -28.6519   23.0379 C   0  0  0  0  0  0
  -26.4528  -31.6602   25.0852 C   0  0  0  0  0  0
  -25.3635  -31.3942   26.1521 C   0  0  0  0  0  0
  -27.0475  -30.2944   24.6748 C   0  0  0  0  0  0
  -27.5978  -32.4470   25.7658 C   0  0  0  0  0  0
  -27.5563  -37.1728   24.8450 C   0  0  0  0  0  0
  -21.4300  -29.3045   22.3504 N   0  0  0  0  0  0
  -26.4238  -37.3747   23.9442 N   0  0  0  0  0  0
  -24.7460  -30.9881   22.1005 N   0  0  0  0  0  0
  -23.4166  -28.7969   23.2984 O   0  0  0  0  0  0
  -27.4964  -25.3979   20.6299 O   0  0  0  0  0  0
  -26.5734  -34.8903   22.4603 O   0  0  0  0  0  0
  -23.5731  -32.1338   23.6862 O   0  0  0  0  0  0
  -27.1323  -14.7482   22.2444 C   0  0  0  0  0  0
  -27.8006  -15.7634   21.5144 C   0  0  0  0  0  0
  -29.3305  -14.8186   22.9241 C   0  0  0  0  0  0
  -25.7157  -14.1795   21.8097 C   0  0  0  0  0  0
  -25.8276  -17.7808   22.3452 C   0  0  0  0  0  0
  -26.8715  -22.2406   21.2942 C   0  0  0  0  0  0
  -26.1503  -17.7379   23.8242 C   0  0  0  0  0  0
  -23.6314  -16.4437   21.6957 C   0  0  0  0  0  0
  -26.0408  -20.6234   21.0515 C   0  0  0  0  0  0
  -26.6335  -23.9047   20.5840 C   0  0  0  0  0  0
  -25.1048  -16.0233   22.0393 C   0  0  1  0  0  0
  -28.0994  -14.2792   23.1896 N   0  0  0  0  0  0
  -26.1362  -19.1872   22.0154 N   0  0  0  0  0  0
  -27.5615  -16.4228   20.3066 N   0  0  0  0  0  0
  -30.4862  -14.1318   22.3987 N   0  0  0  0  0  0
  -25.0822  -12.5071   19.9270 O   0  0  0  0  0  0
  -27.7890  -22.1915   22.1194 O   0  0  0  0  0  0
  -29.1682  -16.4129   22.3395 S   0  0  0  0  0  0
  -31.6798  -12.7938   18.9131 H   0  0  0  0  0  0
  -30.9021  -11.3288   19.4509 H   0  0  0  0  0  0
  -29.9971  -11.7956   17.2396 H   0  0  0  0  0  0
  -29.9409  -13.4997   17.5297 H   0  0  0  0  0  0
  -27.8750  -11.4629   18.5522 H   0  0  0  0  0  0
  -27.6282  -12.8380   17.5087 H   0  0  0  0  0  0
  -28.4547  -14.3858   19.2365 H   0  0  0  0  0  0
  -28.8310  -11.5763   20.5305 H   0  0  0  0  0  0
  -28.6510  -12.7401   21.6444 H   0  0  0  0  0  0
  -25.1932   -9.6163   22.8881 H   0  0  0  0  0  0
  -24.0532   -7.4520   22.7521 H   0  0  0  0  0  0
  -21.3351   -9.0734   19.8422 H   0  0  0  0  0  0
  -22.4476  -11.2323   20.0271 H   0  0  0  0  0  0
  -21.2566   -7.6510   23.9909 H   0  0  0  0  0  0
  -21.1276   -6.0588   25.8898 H   0  0  0  0  0  0
  -22.0511   -2.7985   23.2460 H   0  0  0  0  0  0
  -22.1679  -12.1550   22.3368 H   0  0  0  0  0  0
  -20.6581  -12.9236   22.0276 H   0  0  0  0  0  0
  -24.2946  -16.4082   18.9648 H   0  0  0  0  0  0
  -25.9543  -16.1330   18.8600 H   0  0  0  0  0  0
  -26.7408  -32.5000   23.0960 H   0  0  0  0  0  0
  -25.0124  -33.9518   25.0221 H   0  0  0  0  0  0
  -22.7828  -31.2951   21.4007 H   0  0  0  0  0  0
  -23.3779  -35.9438   23.3234 H   0  0  0  0  0  0
  -24.3519  -36.8917   22.2074 H   0  0  0  0  0  0
  -23.7096  -37.6294   23.6756 H   0  0  0  0  0  0
  -26.2647  -31.3062   20.6579 H   0  0  0  0  0  0
  -26.8895  -30.5983   22.1096 H   0  0  0  0  0  0
  -27.9246  -28.3132   21.5336 H   0  0  0  0  0  0
  -25.6231  -25.7596   18.9245 H   0  0  0  0  0  0
  -23.9353  -27.4562   18.7616 H   0  0  0  0  0  0
  -23.8959  -30.6342   19.4222 H   0  0  0  0  0  0
  -22.7921  -29.3446   19.7826 H   0  0  0  0  0  0
  -25.1275  -36.1778   25.0780 H   0  0  0  0  0  0
  -20.9959  -28.3387   24.1307 H   0  0  0  0  0  0
  -20.5670  -26.2399   23.3636 H   0  0  0  0  0  0
  -21.6660  -26.7449   22.1205 H   0  0  0  0  0  0
  -19.6962  -25.6233   21.1317 H   0  0  0  0  0  0
  -19.6730  -27.3097   20.6679 H   0  0  0  0  0  0
  -17.4205  -26.6604   21.4013 H   0  0  0  0  0  0
  -18.0360  -26.0107   22.9028 H   0  0  0  0  0  0
  -19.7985  -30.7298   24.2155 H   0  0  0  0  0  0
  -17.5083  -31.6308   24.5161 H   0  0  0  0  0  0
  -15.5386  -30.3034   23.7767 H   0  0  0  0  0  0
  -15.8623  -28.0847   22.7199 H   0  0  0  0  0  0
  -24.5777  -30.7311   25.7881 H   0  0  0  0  0  0
  -24.8894  -32.3210   26.4774 H   0  0  0  0  0  0
  -25.7849  -30.9241   27.0426 H   0  0  0  0  0  0
  -26.3199  -29.6530   24.1779 H   0  0  0  0  0  0
  -27.3933  -29.7417   25.5491 H   0  0  0  0  0  0
  -27.9164  -30.4065   24.0267 H   0  0  0  0  0  0
  -27.2469  -33.3791   26.2100 H   0  0  0  0  0  0
  -28.3861  -32.7016   25.0564 H   0  0  0  0  0  0
  -28.0593  -31.8754   26.5721 H   0  0  0  0  0  0
  -28.2484  -38.0119   24.7654 H   0  0  0  0  0  0
  -28.1148  -36.2657   24.6071 H   0  0  0  0  0  0
  -27.2319  -37.1144   25.8857 H   0  0  0  0  0  0
  -20.9535  -29.8768   21.6652 H   0  0  0  0  0  0
  -26.0069  -38.2770   24.1593 H   0  0  0  0  0  0
  -25.2608  -18.0204   24.3863 H   0  0  0  0  0  0
  -26.9379  -18.4421   24.1115 H   0  0  0  0  0  0
  -26.4250  -16.7452   24.1570 H   0  0  0  0  0  0
  -22.8888  -15.9778   22.3399 H   0  0  0  0  0  0
  -23.3043  -16.3029   20.6766 H   0  0  0  0  0  0
  -23.4706  -17.5148   21.8063 H   0  0  0  0  0  0
  -24.9884  -20.9089   21.0415 H   0  0  0  0  0  0
  -26.2583  -20.3264   20.0272 H   0  0  0  0  0  0
  -25.6637  -24.1902   20.9925 H   0  0  0  0  0  0
  -26.4329  -23.7269   19.5285 H   0  0  0  0  0  0
  -24.8733  -15.7819   23.0817 H   0  0  0  0  0  0
  -28.3748  -16.8757   19.9032 H   0  0  0  0  0  0
  -26.8404  -17.1376   20.3463 H   0  0  0  0  0  0
  -31.3009  -14.3823   22.9347 H   0  0  0  0  0  0
  1 25  1  0  0  0
  1 30  2  0  0  0
  1 85  1  0  0  0
  2  3  1  0  0  0
  2 25  1  0  0  0
  2 89  1  0  0  0
  2 90  1  0  0  0
  3  4  1  0  0  0
  3 91  1  0  0  0
  3 92  1  0  0  0
  4  5  1  0  0  0
  4 93  1  0  0  0
  4 94  1  0  0  0
  5  6  1  0  0  0
  5 26  1  0  0  0
  5 95  1  0  0  0
  6 25  1  0  0  0
  6 96  1  0  0  0
  6 97  1  0  0  0
  7  8  2  0  0  0
  7 26  1  0  0  0
  7 29  1  0  0  0
  8  9  1  0  0  0
  8 22  1  0  0  0
  9 10  1  0  0  0
  9 27  2  0  0  0
 10 11  2  0  0  0
 10 15  1  0  0  0
 11 12  1  0  0  0
 11 98  1  0  0  0
 12 13  2  0  0  0
 12 99  1  0  0  0
 13 14  1  0  0  0
 13 31  1  0  0  0
 14 15  2  0  0  0
 14100  1  0  0  0
 15101  1  0  0  0
 16 17  2  0  0  0
 16 21  1  0  0  0
 16 31  1  0  0  0
 17 18  1  0  0  0
 17102  1  0  0  0
 18 19  2  0  0  0
 18103  1  0  0  0
 19 20  1  0  0  0
 19 24  1  0  0  0
 20 21  2  0  0  0
 20104  1  0  0  0
 21 23  1  0  0  0
 22 28  1  0  0  0
 22 32  2  0  0  0
 26 27  1  0  0  0
 28105  1  0  0  0
 28106  1  0  0  0
 29107  1  0  0  0
 29108  1  0  0  0
 33 34  1  0  0  0
 33 66  1  0  0  0
 33 70  2  0  0  0
 34 36  1  0  0  0
 34 59  1  0  0  0
 34109  1  0  0  0
 35 44  2  0  0  0
 35 45  1  0  0  0
 35 68  1  0  0  0
 36 56  1  0  0  0
 36110  1  0  0  0
 37 39  1  0  0  0
 37 47  1  0  0  0
 37 66  1  0  0  0
 37111  1  0  0  0
 38 43  2  0  0  0
 38 46  1  0  0  0
 38 47  1  0  0  0
 39 64  1  0  0  0
 39 67  2  0  0  0
 40 52  1  0  0  0
 40 53  2  0  0  0
 40 58  1  0  0  0
 41112  1  0  0  0
 41113  1  0  0  0
 41114  1  0  0  0
 41 48  1  0  0  0
 42 43  1  0  0  0
 42 66  1  0  0  0
 42115  1  0  0  0
 42116  1  0  0  0
 43 44  1  0  0  0
 44117  1  0  0  0
 45 46  2  0  0  0
 45118  1  0  0  0
 46119  1  0  0  0
 47120  1  0  0  0
 47121  1  0  0  0
 48 56  1  0  0  0
 48 65  1  0  0  0
 48122  1  0  0  0
 49 50  1  0  0  0
 49 53  1  0  0  0
 49 64  1  0  0  0
 49123  1  0  0  0
 50 51  1  0  0  0
 50124  1  0  0  0
 50125  1  0  0  0
 51 52  1  0  0  0
 51126  1  0  0  0
 51127  1  0  0  0
 52128  1  0  0  0
 52129  1  0  0  0
 53 54  1  0  0  0
 54 55  2  0  0  0
 54130  1  0  0  0
 55 57  1  0  0  0
 55131  1  0  0  0
 56 69  2  0  0  0
 57 58  2  0  0  0
 57132  1  0  0  0
 58133  1  0  0  0
 59 60  1  0  0  0
 59 61  1  0  0  0
 59 62  1  0  0  0
 60134  1  0  0  0
 60135  1  0  0  0
 60136  1  0  0  0
 61137  1  0  0  0
 61138  1  0  0  0
 61139  1  0  0  0
 62140  1  0  0  0
 62141  1  0  0  0
 62142  1  0  0  0
 63 65  1  0  0  0
 63143  1  0  0  0
 63144  1  0  0  0
 63145  1  0  0  0
 64146  1  0  0  0
 65147  1  0  0  0
 68 80  1  0  0  0
 71 72  2  0  0  0
 71 74  1  0  0  0
 71 82  1  0  0  0
 72 84  1  0  0  0
 72 88  1  0  0  0
 73 82  2  0  0  0
 73 85  1  0  0  0
 73 88  1  0  0  0
 74 81  1  0  0  0
 74 86  2  0  0  0
 75 77  1  0  0  0
 75 81  1  0  0  0
 75 83  2  0  0  0
 76 79  1  0  0  0
 76 80  1  0  0  0
 76 87  2  0  0  0
 77148  1  0  0  0
 77149  1  0  0  0
 77150  1  0  0  0
 78151  1  0  0  0
 78152  1  0  0  0
 78153  1  0  0  0
 78 81  1  0  0  0
 79 83  1  0  0  0
 79154  1  0  0  0
 79155  1  0  0  0
 80156  1  0  0  0
 80157  1  0  0  0
 81158  1  0  0  0
 84159  1  0  0  0
 84160  1  0  0  0
 85161  1  0  0  0
M  ISO  4   1 100  68 101  80 101  85 100
M  END
> <chiral flag>
0

> <version>
0

> <s_m_source_file>
/data/baiqing/PycharmProjects/Reinvent-master-3.2/result/LINK_invent/BTK/process_docking_weight1_custom_product_contain_oxygen_bond_distance_aromatic_linkinvent_7_9_3/rearranged_h_0174.sdf

> <i_m_source_file_index>
2

> <r_mmod_Potential_Energy-OPLS-2005>
16858.3984375

> <r_mmod_Stretch_Energy-OPLS-2005>
10264.2685546875

> <r_mmod_Bend_Energy-OPLS-2005>
1044.84851074219

> <r_mmod_Torsional_Energy-OPLS-2005>
553.991271972656

> <r_mmod_Improper_Torsional_Energy-OPLS-2005>
97.5420379638672

> <r_mmod_Van_der_Waal_Energy-OPLS-2005>
3898.06494140625

> <r_mmod_Electrostatic_Energy-OPLS-2005>
-264.870208740234

> <r_mmod_Solvation_Energy-OPLS-2005>
-286.759063720703

> <b_mmod_Minimization_Converged-OPLS-2005>
0

> <r_mmod_RMS_Derivative-OPLS-2005>
16.8524761199951

$$$$
2
                    3D
 Structure written by MMmdl.
165173  0  0  1  0            999 V2000
  -30.7037  -14.4906   20.5224 C   0  0  0  0  0  0
  -30.4268  -12.3106   19.4324 C   0  0  0  0  0  0
  -29.5052  -12.4981   18.2105 C   0  0  0  0  0  0
  -28.0232  -12.3646   18.6168 C   0  0  0  0  0  0
  -27.6618  -13.2159   19.8666 C   0  0  2  0  0  0
  -28.7029  -13.0219   20.9944 C   0  0  0  0  0  0
  -25.2570  -13.8203   20.5647 C   0  0  0  0  0  0
  -24.1835  -13.0467   20.9177 C   0  0  0  0  0  0
  -24.6394  -11.6937   20.8728 C   0  0  0  0  0  0
  -23.9066  -10.4302   21.0400 C   0  0  0  0  0  0
  -24.3608   -9.4211   21.9179 C   0  0  0  0  0  0
  -23.6287   -8.2244   22.0744 C   0  0  0  0  0  0
  -22.4264   -8.0278   21.3530 C   0  0  0  0  0  0
  -21.9898   -9.0265   20.4643 C   0  0  0  0  0  0
  -22.7234  -10.2141   20.3058 C   0  0  0  0  0  0
  -21.6844   -6.0737   22.5276 C   0  0  0  0  0  0
  -21.4016   -6.5643   23.8216 C   0  0  0  0  0  0
  -21.3662   -5.6785   24.9171 C   0  0  0  0  0  0
  -21.6048   -4.3050   24.7216 C   0  0  0  0  0  0
  -21.8824   -3.8147   23.4337 C   0  0  0  0  0  0
  -21.9183   -4.6966   22.3396 C   0  0  0  0  0  0
  -22.7840  -13.5262   21.1808 C   0  0  0  0  0  0
  -22.1651   -4.2163   21.0968 F   0  0  0  0  0  0
  -21.5627   -3.4525   25.7726 F   0  0  0  0  0  0
  -30.0328  -13.3121   20.4363 N   0  0  0  0  0  0
  -26.3024  -12.9404   20.3317 N   0  0  0  0  0  0
  -25.9326  -11.6559   20.5744 N   0  0  0  0  0  0
  -22.0431  -12.8294   22.0364 N   0  0  0  0  0  0
  -25.4259  -15.1914   20.4033 N   0  0  0  0  0  0
  -31.8574  -14.6331   20.1126 O   0  0  0  0  0  0
  -21.6632   -6.8867   21.4228 O   0  0  0  0  0  0
  -22.3541  -14.5563   20.6620 O   0  0  0  0  0  0
  -24.6172  -31.8693   23.2120 C   0  0  0  0  0  0
  -25.9080  -32.4839   23.8394 C   0  0  1  0  0  0
  -27.2264  -27.4561   20.0930 C   0  0  0  0  0  0
  -25.5957  -33.8628   24.2362 N   0  0  0  0  0  0
  -23.3996  -30.4949   21.5538 C   0  0  2  0  0  0
  -24.8445  -28.9686   20.1095 C   0  0  0  0  0  0
  -22.7431  -29.4664   22.5013 C   0  0  0  0  0  0
  -18.0273  -28.1379   22.8483 C   0  0  0  0  0  0
  -24.1478  -36.7297   23.2627 C   0  0  0  0  0  0
  -25.9253  -30.8433   21.3600 C   0  0  0  0  0  0
  -26.0020  -29.4772   20.7140 C   0  0  0  0  0  0
  -27.1972  -28.7210   20.7168 C   0  0  0  0  0  0
  -26.0679  -26.9770   19.4486 C   0  0  0  0  0  0
  -24.8712  -27.7152   19.4743 C   0  0  0  0  0  0
  -23.6043  -29.8296   20.1652 C   0  0  0  0  0  0
  -25.4099  -36.3121   24.0351 C   0  0  1  0  0  0
  -20.5876  -28.3655   23.1329 C   0  0  2  0  0  0
  -20.6764  -26.9396   22.5423 C   0  0  0  0  0  0
  -19.5730  -26.6376   21.5227 C   0  0  0  0  0  0
  -18.1903  -26.7914   22.1624 C   0  0  0  0  0  0
  -19.1534  -28.8831   23.2884 C   0  0  0  0  0  0
  -18.9463  -30.1436   23.8891 C   0  0  0  0  0  0
  -17.6475  -30.6577   24.0562 C   0  0  0  0  0  0
  -25.9034  -34.9491   23.5148 C   0  0  0  0  0  0
  -16.5361  -29.9094   23.6318 C   0  0  0  0  0  0
  -16.7266  -28.6510   23.0333 C   0  0  0  0  0  0
  -26.4518  -31.6596   25.0694 C   0  0  0  0  0  0
  -25.3799  -31.3749   26.1460 C   0  0  0  0  0  0
  -27.0356  -30.3048   24.6027 C   0  0  0  0  0  0
  -27.6073  -32.4332   25.7483 C   0  0  0  0  0  0
  -27.5583  -37.1811   24.8477 C   0  0  0  0  0  0
  -21.4166  -29.3030   22.3755 N   0  0  0  0  0  0
  -26.4280  -37.3819   23.9446 N   0  0  0  0  0  0
  -24.6658  -31.0826   22.1021 N   0  0  0  0  0  0
  -23.4223  -28.8191   23.3036 O   0  0  0  0  0  0
  -28.3551  -26.6665   20.1003 O   0  0  0  0  0  0
  -26.5557  -34.8947   22.4686 O   0  0  0  0  0  0
  -23.5369  -32.1430   23.7552 O   0  0  0  0  0  0
  -30.5248  -17.9231   21.4839 C   0  0  0  0  0  0
  -30.3371  -16.9149   20.5025 C   0  0  0  0  0  0
  -30.5129  -17.2869   19.1418 C   0  0  0  0  0  0
  -30.9631  -18.5878   18.8187 C   0  0  0  0  0  0
  -31.2006  -19.5284   19.8471 C   0  0  0  0  0  0
  -30.0090  -22.5578   19.7729 C   0  0  0  0  0  0
  -33.3449  -20.8783   19.8953 C   0  0  0  0  0  0
  -27.1637  -24.8350   21.3530 C   0  0  0  0  0  0
  -29.8394  -24.0851   19.6880 C   0  0  0  0  0  0
  -29.6908  -24.8322   21.0347 C   0  0  0  0  0  0
  -31.8482  -20.8885   19.5413 C   0  0  2  0  0  0
  -28.4259  -25.7120   21.1786 C   0  0  1  0  0  0
  -30.9473  -19.1644   21.1264 N   0  3  0  0  0  0
  -30.2563  -16.3901   18.0987 N   0  0  0  0  0  0
  -29.9815  -15.5726   20.8737 N   0  0  0  0  0  0
  -31.2214  -22.0897   20.1137 N   0  0  0  0  0  0
  -29.0998  -21.8115   19.4088 O   0  0  0  0  0  0
  -31.2002  -18.9105   17.5196 F   0  0  0  0  0  0
  -31.4752  -12.3980   19.1385 H   0  0  0  0  0  0
  -30.3184  -11.3078   19.8474 H   0  0  0  0  0  0
  -29.7506  -11.7661   17.4401 H   0  0  0  0  0  0
  -29.6737  -13.4797   17.7652 H   0  0  0  0  0  0
  -27.8233  -11.3109   18.8125 H   0  0  0  0  0  0
  -27.3795  -12.6362   17.7800 H   0  0  0  0  0  0
  -27.6997  -14.2598   19.5522 H   0  0  0  0  0  0
  -28.6750  -11.9963   21.3652 H   0  0  0  0  0  0
  -28.4764  -13.6521   21.8556 H   0  0  0  0  0  0
  -25.2749   -9.5708   22.4753 H   0  0  0  0  0  0
  -23.9994   -7.4649   22.7476 H   0  0  0  0  0  0
  -21.0817   -8.8809   19.8966 H   0  0  0  0  0  0
  -22.3691  -10.9679   19.6172 H   0  0  0  0  0  0
  -21.2025   -7.6152   23.9732 H   0  0  0  0  0  0
  -21.1468   -6.0502   25.9073 H   0  0  0  0  0  0
  -22.0592   -2.7612   23.2828 H   0  0  0  0  0  0
  -22.3997  -12.0018   22.4918 H   0  0  0  0  0  0
  -21.1042  -13.1373   22.2463 H   0  0  0  0  0  0
  -24.6582  -15.8444   20.5083 H   0  0  0  0  0  0
  -26.2696  -15.6202   20.0442 H   0  0  0  0  0  0
  -26.7176  -32.5559   23.1177 H   0  0  0  0  0  0
  -25.0239  -33.9774   25.0601 H   0  0  0  0  0  0
  -22.6836  -31.3095   21.4214 H   0  0  0  0  0  0
  -23.3755  -35.9617   23.3289 H   0  0  0  0  0  0
  -24.3552  -36.8882   22.2039 H   0  0  0  0  0  0
  -23.7209  -37.6501   23.6614 H   0  0  0  0  0  0
  -26.0228  -31.6064   20.5863 H   0  0  0  0  0  0
  -26.8199  -30.9068   21.9676 H   0  0  0  0  0  0
  -28.0861  -29.0997   21.2018 H   0  0  0  0  0  0
  -26.0900  -26.0210   18.9458 H   0  0  0  0  0  0
  -23.9856  -27.3227   18.9934 H   0  0  0  0  0  0
  -23.7099  -30.6030   19.4036 H   0  0  0  0  0  0
  -22.7270  -29.2486   19.8713 H   0  0  0  0  0  0
  -25.1281  -36.1981   25.0845 H   0  0  0  0  0  0
  -20.9940  -28.3230   24.1469 H   0  0  0  0  0  0
  -20.5674  -26.2279   23.3621 H   0  0  0  0  0  0
  -21.6630  -26.7438   22.1227 H   0  0  0  0  0  0
  -19.6880  -25.6299   21.1225 H   0  0  0  0  0  0
  -19.6652  -27.3201   20.6778 H   0  0  0  0  0  0
  -17.4191  -26.6679   21.4004 H   0  0  0  0  0  0
  -18.0254  -26.0064   22.9028 H   0  0  0  0  0  0
  -19.7953  -30.7234   24.2238 H   0  0  0  0  0  0
  -17.5049  -31.6240   24.5179 H   0  0  0  0  0  0
  -15.5363  -30.3009   23.7618 H   0  0  0  0  0  0
  -15.8663  -28.0827   22.7063 H   0  0  0  0  0  0
  -24.5948  -30.7094   25.7852 H   0  0  0  0  0  0
  -24.9013  -32.2935   26.4872 H   0  0  0  0  0  0
  -25.8162  -30.8971   27.0234 H   0  0  0  0  0  0
  -26.2885  -29.6794   24.1110 H   0  0  0  0  0  0
  -27.4215  -29.7295   25.4451 H   0  0  0  0  0  0
  -27.8683  -30.4398   23.9113 H   0  0  0  0  0  0
  -27.2656  -33.3633   26.2050 H   0  0  0  0  0  0
  -28.3911  -32.6888   25.0337 H   0  0  0  0  0  0
  -28.0703  -31.8454   26.5420 H   0  0  0  0  0  0
  -28.2638  -38.0077   24.7546 H   0  0  0  0  0  0
  -28.1048  -36.2624   24.6296 H   0  0  0  0  0  0
  -27.2293  -37.1459   25.8872 H   0  0  0  0  0  0
  -20.9324  -29.8808   21.7025 H   0  0  0  0  0  0
  -26.0171  -38.2903   24.1444 H   0  0  0  0  0  0
  -30.3981  -17.7617   22.5450 H   0  0  0  0  0  0
  -33.8531  -20.0321   19.4285 H   0  0  0  0  0  0
  -33.5149  -20.8117   20.9705 H   0  0  0  0  0  0
  -33.8364  -21.7868   19.5416 H   0  0  0  0  0  0
  -27.3021  -24.0936   22.1382 H   0  0  0  0  0  0
  -26.8996  -24.3052   20.4372 H   0  0  0  0  0  0
  -26.3040  -25.4324   21.6570 H   0  0  0  0  0  0
  -28.9854  -24.3046   19.0445 H   0  0  0  0  0  0
  -30.7032  -24.4857   19.1569 H   0  0  0  0  0  0
  -30.5688  -25.4680   21.1656 H   0  0  0  0  0  0
  -29.7209  -24.1260   21.8668 H   0  0  0  0  0  0
  -31.8076  -21.0279   18.4592 H   0  0  0  0  0  0
  -28.5448  -26.2866   22.0984 H   0  0  0  0  0  0
  -31.1216  -19.8542   21.8614 H   0  0  0  0  0  0
  -30.7222  -15.5064   18.2349 H   0  0  0  0  0  0
  -30.5307  -16.7779   17.2052 H   0  0  0  0  0  0
  -29.0580  -15.4239   21.2527 H   0  0  0  0  0  0
  -31.8669  -22.7839   20.4663 H   0  0  0  0  0  0
  1 25  1  0  0  0
  1 30  2  0  0  0
  1 85  1  0  0  0
  2  3  1  0  0  0
  2 25  1  0  0  0
  2 89  1  0  0  0
  2 90  1  0  0  0
  3  4  1  0  0  0
  3 91  1  0  0  0
  3 92  1  0  0  0
  4  5  1  0  0  0
  4 93  1  0  0  0
  4 94  1  0  0  0
  5  6  1  0  0  0
  5 26  1  0  0  0
  5 95  1  0  0  0
  6 25  1  0  0  0
  6 96  1  0  0  0
  6 97  1  0  0  0
  7  8  2  0  0  0
  7 26  1  0  0  0
  7 29  1  0  0  0
  8  9  1  0  0  0
  8 22  1  0  0  0
  9 10  1  0  0  0
  9 27  2  0  0  0
 10 11  2  0  0  0
 10 15  1  0  0  0
 11 12  1  0  0  0
 11 98  1  0  0  0
 12 13  2  0  0  0
 12 99  1  0  0  0
 13 14  1  0  0  0
 13 31  1  0  0  0
 14 15  2  0  0  0
 14100  1  0  0  0
 15101  1  0  0  0
 16 17  2  0  0  0
 16 21  1  0  0  0
 16 31  1  0  0  0
 17 18  1  0  0  0
 17102  1  0  0  0
 18 19  2  0  0  0
 18103  1  0  0  0
 19 20  1  0  0  0
 19 24  1  0  0  0
 20 21  2  0  0  0
 20104  1  0  0  0
 21 23  1  0  0  0
 22 28  1  0  0  0
 22 32  2  0  0  0
 26 27  1  0  0  0
 28105  1  0  0  0
 28106  1  0  0  0
 29107  1  0  0  0
 29108  1  0  0  0
 33 34  1  0  0  0
 33 66  1  0  0  0
 33 70  2  0  0  0
 34 36  1  0  0  0
 34 59  1  0  0  0
 34109  1  0  0  0
 35 44  2  0  0  0
 35 45  1  0  0  0
 35 68  1  0  0  0
 36 56  1  0  0  0
 36110  1  0  0  0
 37 39  1  0  0  0
 37 47  1  0  0  0
 37 66  1  0  0  0
 37111  1  0  0  0
 38 43  2  0  0  0
 38 46  1  0  0  0
 38 47  1  0  0  0
 39 64  1  0  0  0
 39 67  2  0  0  0
 40 52  1  0  0  0
 40 53  2  0  0  0
 40 58  1  0  0  0
 41112  1  0  0  0
 41113  1  0  0  0
 41114  1  0  0  0
 41 48  1  0  0  0
 42 43  1  0  0  0
 42 66  1  0  0  0
 42115  1  0  0  0
 42116  1  0  0  0
 43 44  1  0  0  0
 44117  1  0  0  0
 45 46  2  0  0  0
 45118  1  0  0  0
 46119  1  0  0  0
 47120  1  0  0  0
 47121  1  0  0  0
 48 56  1  0  0  0
 48 65  1  0  0  0
 48122  1  0  0  0
 49 50  1  0  0  0
 49 53  1  0  0  0
 49 64  1  0  0  0
 49123  1  0  0  0
 50 51  1  0  0  0
 50124  1  0  0  0
 50125  1  0  0  0
 51 52  1  0  0  0
 51126  1  0  0  0
 51127  1  0  0  0
 52128  1  0  0  0
 52129  1  0  0  0
 53 54  1  0  0  0
 54 55  2  0  0  0
 54130  1  0  0  0
 55 57  1  0  0  0
 55131  1  0  0  0
 56 69  2  0  0  0
 57 58  2  0  0  0
 57132  1  0  0  0
 58133  1  0  0  0
 59 60  1  0  0  0
 59 61  1  0  0  0
 59 62  1  0  0  0
 60134  1  0  0  0
 60135  1  0  0  0
 60136  1  0  0  0
 61137  1  0  0  0
 61138  1  0  0  0
 61139  1  0  0  0
 62140  1  0  0  0
 62141  1  0  0  0
 62142  1  0  0  0
 63 65  1  0  0  0
 63143  1  0  0  0
 63144  1  0  0  0
 63145  1  0  0  0
 64146  1  0  0  0
 65147  1  0  0  0
 68 82  1  0  0  0
 71 72  2  0  0  0
 71 83  1  0  0  0
 71148  1  0  0  0
 72 73  1  0  0  0
 72 85  1  0  0  0
 73 74  2  0  0  0
 73 84  1  0  0  0
 74 75  1  0  0  0
 74 88  1  0  0  0
 75 81  1  0  0  0
 75 83  2  0  0  0
 76 79  1  0  0  0
 76 86  1  0  0  0
 76 87  2  0  0  0
 77149  1  0  0  0
 77150  1  0  0  0
 77151  1  0  0  0
 77 81  1  0  0  0
 78152  1  0  0  0
 78153  1  0  0  0
 78154  1  0  0  0
 78 82  1  0  0  0
 79 80  1  0  0  0
 79155  1  0  0  0
 79156  1  0  0  0
 80 82  1  0  0  0
 80157  1  0  0  0
 80158  1  0  0  0
 81 86  1  0  0  0
 81159  1  0  0  0
 82160  1  0  0  0
 83161  1  0  0  0
 84162  1  0  0  0
 84163  1  0  0  0
 85164  1  0  0  0
 86165  1  0  0  0
M  CHG  1  83   1
M  ISO  4   1 100  68 101  82 101  85 100
M  END
> <chiral flag>
0

> <version>
0

> <s_m_source_file>
/data/baiqing/PycharmProjects/Reinvent-master-3.2/result/LINK_invent/BTK/process_docking_weight1_custom_product_contain_oxygen_bond_distance_aromatic_linkinvent_7_9_3/rearranged_h_0174.sdf

> <i_m_source_file_index>
3

> <r_mmod_Potential_Energy-OPLS-2005>
-369.937652587891

> <r_mmod_Stretch_Energy-OPLS-2005>
39.3264846801758

> <r_mmod_Bend_Energy-OPLS-2005>
102.498863220215

> <r_mmod_Torsional_Energy-OPLS-2005>
292.096099853516

> <r_mmod_Improper_Torsional_Energy-OPLS-2005>
14.7262029647827

> <r_mmod_Van_der_Waal_Energy-OPLS-2005>
155.650543212891

> <r_mmod_Electrostatic_Energy-OPLS-2005>
-542.882080078125

> <r_mmod_Solvation_Energy-OPLS-2005>
-447.397399902344

> <b_mmod_Minimization_Converged-OPLS-2005>
0

> <r_mmod_RMS_Derivative-OPLS-2005>
4.27366256713867

$$$$
3
                    3D
 Structure written by MMmdl.
165174  0  0  1  0            999 V2000
  -30.7368  -14.3939   20.6261 C   0  0  0  0  0  0
  -30.4232  -12.2802   19.4044 C   0  0  0  0  0  0
  -29.4877  -12.5047   18.1993 C   0  0  0  0  0  0
  -28.0120  -12.3617   18.6193 C   0  0  0  0  0  0
  -27.6675  -13.1971   19.8805 C   0  0  2  0  0  0
  -28.7068  -12.9460   20.9968 C   0  0  0  0  0  0
  -25.2624  -13.8150   20.5685 C   0  0  0  0  0  0
  -24.1854  -13.0445   20.9175 C   0  0  0  0  0  0
  -24.6390  -11.6903   20.8731 C   0  0  0  0  0  0
  -23.9053  -10.4293   21.0410 C   0  0  0  0  0  0
  -24.3604   -9.4211   21.9189 C   0  0  0  0  0  0
  -23.6284   -8.2246   22.0754 C   0  0  0  0  0  0
  -22.4268   -8.0284   21.3546 C   0  0  0  0  0  0
  -21.9904   -9.0258   20.4649 C   0  0  0  0  0  0
  -22.7229  -10.2138   20.3064 C   0  0  0  0  0  0
  -21.6849   -6.0739   22.5282 C   0  0  0  0  0  0
  -21.4006   -6.5645   23.8214 C   0  0  0  0  0  0
  -21.3659   -5.6799   24.9179 C   0  0  0  0  0  0
  -21.6043   -4.3060   24.7230 C   0  0  0  0  0  0
  -21.8819   -3.8151   23.4350 C   0  0  0  0  0  0
  -21.9189   -4.6967   22.3404 C   0  0  0  0  0  0
  -22.7880  -13.5259   21.1846 C   0  0  0  0  0  0
  -22.1658   -4.2154   21.0979 F   0  0  0  0  0  0
  -21.5631   -3.4541   25.7741 F   0  0  0  0  0  0
  -30.0468  -13.2378   20.4538 N   0  0  0  0  0  0
  -26.3055  -12.9303   20.3395 N   0  0  0  0  0  0
  -25.9315  -11.6472   20.5776 N   0  0  0  0  0  0
  -22.0512  -12.8245   22.0391 N   0  0  0  0  0  0
  -25.4392  -15.1859   20.4097 N   0  0  0  0  0  0
  -31.8106  -14.6392   20.0695 O   0  0  0  0  0  0
  -21.6635   -6.8880   21.4245 O   0  0  0  0  0  0
  -22.3571  -14.5575   20.6710 O   0  0  0  0  0  0
  -24.6118  -31.8698   23.2095 C   0  0  0  0  0  0
  -25.9027  -32.4814   23.8385 C   0  0  1  0  0  0
  -27.2499  -27.4667   20.0698 C   0  0  0  0  0  0
  -25.5907  -33.8615   24.2331 N   0  0  0  0  0  0
  -23.3981  -30.4922   21.5499 C   0  0  2  0  0  0
  -24.8454  -28.9551   20.1182 C   0  0  0  0  0  0
  -22.7380  -29.4685   22.5003 C   0  0  0  0  0  0
  -18.0266  -28.1381   22.8496 C   0  0  0  0  0  0
  -24.1500  -36.7322   23.2636 C   0  0  0  0  0  0
  -25.9246  -30.8392   21.3607 C   0  0  0  0  0  0
  -26.0018  -29.4731   20.7132 C   0  0  0  0  0  0
  -27.2004  -28.7294   20.6975 C   0  0  0  0  0  0
  -26.0671  -26.9433   19.4967 C   0  0  0  0  0  0
  -24.8699  -27.6849   19.5155 C   0  0  0  0  0  0
  -23.6053  -29.8178   20.1665 C   0  0  0  0  0  0
  -25.4112  -36.3106   24.0344 C   0  0  1  0  0  0
  -20.5851  -28.3679   23.1329 C   0  0  2  0  0  0
  -20.6767  -26.9425   22.5414 C   0  0  0  0  0  0
  -19.5745  -26.6398   21.5214 C   0  0  0  0  0  0
  -18.1924  -26.7926   22.1629 C   0  0  0  0  0  0
  -19.1513  -28.8844   23.2908 C   0  0  0  0  0  0
  -18.9437  -30.1454   23.8919 C   0  0  0  0  0  0
  -17.6438  -30.6589   24.0567 C   0  0  0  0  0  0
  -25.9033  -34.9475   23.5135 C   0  0  0  0  0  0
  -16.5332  -29.9088   23.6327 C   0  0  0  0  0  0
  -16.7253  -28.6504   23.0344 C   0  0  0  0  0  0
  -26.4459  -31.6555   25.0688 C   0  0  0  0  0  0
  -25.3734  -31.3650   26.1434 C   0  0  0  0  0  0
  -27.0267  -30.2993   24.6039 C   0  0  0  0  0  0
  -27.6061  -32.4242   25.7440 C   0  0  0  0  0  0
  -27.5582  -37.1810   24.8470 C   0  0  0  0  0  0
  -21.4107  -29.3063   22.3749 N   0  0  0  0  0  0
  -26.4304  -37.3781   23.9402 N   0  0  0  0  0  0
  -24.6625  -31.0819   22.0984 N   0  0  0  0  0  0
  -23.4164  -28.8227   23.3036 O   0  0  0  0  0  0
  -28.4577  -26.8043   20.0511 O   0  0  0  0  0  0
  -26.5587  -34.8924   22.4686 O   0  0  0  0  0  0
  -23.5320  -32.1449   23.7503 O   0  0  0  0  0  0
  -28.3549  -17.5362   22.5408 C   0  0  0  0  0  0
  -30.0739  -19.1502   21.9123 C   0  0  0  0  0  0
  -27.9867  -19.9200   22.9102 C   0  0  0  0  0  0
  -30.7940  -24.7326   23.5650 C   0  0  0  0  0  0
  -31.5399  -26.1197   21.8888 C   0  0  0  0  0  0
  -29.6346  -17.8113   22.0012 C   0  0  0  0  0  0
  -27.5349  -18.5877   22.9927 C   0  0  0  0  0  0
  -29.2632  -20.2102   22.3722 C   0  0  0  0  0  0
  -30.2443  -23.8521   22.6018 C   0  0  0  0  0  0
  -30.9590  -25.2743   20.9119 C   0  0  0  0  0  0
  -29.5432  -22.5945   23.0354 C   0  0  0  0  0  0
  -30.1631  -25.8311   18.6499 C   0  0  0  0  0  0
  -30.5550  -16.7035   21.4960 C   0  0  0  0  0  0
  -28.6823  -25.7927   19.0653 C   0  0  0  0  0  0
  -31.4527  -25.8641   23.2147 N   0  0  0  0  0  0
  -30.3219  -24.1315   21.2732 N   0  0  0  0  0  0
  -26.2752  -18.3078   23.5177 N   0  0  0  0  0  0
  -29.7481  -21.5389   22.2290 N   0  0  0  0  0  0
  -31.1272  -25.6426   19.5629 N   0  0  0  0  0  0
  -30.1228  -15.3136   21.3790 N   0  0  0  0  0  0
  -28.8947  -22.5545   24.0862 O   0  0  0  0  0  0
  -30.4573  -26.0729   17.4761 O   0  0  0  0  0  0
  -31.4663  -12.3810   19.0979 H   0  0  0  0  0  0
  -30.3237  -11.2611   19.7810 H   0  0  0  0  0  0
  -29.7181  -11.7918   17.4070 H   0  0  0  0  0  0
  -29.6577  -13.4962   17.7776 H   0  0  0  0  0  0
  -27.8256  -11.3044   18.8144 H   0  0  0  0  0  0
  -27.3550  -12.6355   17.7935 H   0  0  0  0  0  0
  -27.7246  -14.2485   19.5969 H   0  0  0  0  0  0
  -28.6697  -11.9034   21.3178 H   0  0  0  0  0  0
  -28.4635  -13.5259   21.8877 H   0  0  0  0  0  0
  -25.2749   -9.5685   22.4764 H   0  0  0  0  0  0
  -23.9991   -7.4637   22.7473 H   0  0  0  0  0  0
  -21.0837   -8.8787   19.8952 H   0  0  0  0  0  0
  -22.3696  -10.9681   19.6174 H   0  0  0  0  0  0
  -21.1992   -7.6153   23.9719 H   0  0  0  0  0  0
  -21.1482   -6.0528   25.9080 H   0  0  0  0  0  0
  -22.0594   -2.7614   23.2854 H   0  0  0  0  0  0
  -22.4110  -11.9887   22.4757 H   0  0  0  0  0  0
  -21.1148  -13.1298   22.2625 H   0  0  0  0  0  0
  -24.6778  -15.8474   20.5136 H   0  0  0  0  0  0
  -26.2988  -15.6183   20.0953 H   0  0  0  0  0  0
  -26.7097  -32.5533   23.1153 H   0  0  0  0  0  0
  -25.0090  -33.9781   25.0499 H   0  0  0  0  0  0
  -22.6866  -31.3089   21.4077 H   0  0  0  0  0  0
  -23.3756  -35.9663   23.3309 H   0  0  0  0  0  0
  -24.3600  -36.8918   22.2044 H   0  0  0  0  0  0
  -23.7276  -37.6541   23.6635 H   0  0  0  0  0  0
  -26.0338  -31.6033   20.5896 H   0  0  0  0  0  0
  -26.8139  -30.8950   21.9762 H   0  0  0  0  0  0
  -28.0959  -29.1314   21.1502 H   0  0  0  0  0  0
  -26.0522  -25.9663   19.0352 H   0  0  0  0  0  0
  -23.9769  -27.2745   19.0642 H   0  0  0  0  0  0
  -23.7069  -30.5878   19.4008 H   0  0  0  0  0  0
  -22.7314  -29.2313   19.8772 H   0  0  0  0  0  0
  -25.1287  -36.1972   25.0838 H   0  0  0  0  0  0
  -20.9935  -28.3239   24.1451 H   0  0  0  0  0  0
  -20.5698  -26.2285   23.3593 H   0  0  0  0  0  0
  -21.6634  -26.7491   22.1193 H   0  0  0  0  0  0
  -19.6920  -25.6317   21.1226 H   0  0  0  0  0  0
  -19.6679  -27.3225   20.6758 H   0  0  0  0  0  0
  -17.4192  -26.6673   21.4030 H   0  0  0  0  0  0
  -18.0327  -26.0069   22.9027 H   0  0  0  0  0  0
  -19.7912  -30.7263   24.2298 H   0  0  0  0  0  0
  -17.4989  -31.6268   24.5164 H   0  0  0  0  0  0
  -15.5333  -30.2986   23.7646 H   0  0  0  0  0  0
  -15.8651  -28.0825   22.7046 H   0  0  0  0  0  0
  -24.5925  -30.6981   25.7761 H   0  0  0  0  0  0
  -24.8898  -32.2800   26.4862 H   0  0  0  0  0  0
  -25.8090  -30.8826   27.0192 H   0  0  0  0  0  0
  -26.2797  -29.6770   24.1090 H   0  0  0  0  0  0
  -27.4031  -29.7206   25.4485 H   0  0  0  0  0  0
  -27.8643  -30.4307   23.9182 H   0  0  0  0  0  0
  -27.2717  -33.3541   26.2045 H   0  0  0  0  0  0
  -28.3838  -32.6793   25.0226 H   0  0  0  0  0  0
  -28.0762  -31.8335   26.5308 H   0  0  0  0  0  0
  -28.2593  -38.0105   24.7491 H   0  0  0  0  0  0
  -28.1077  -36.2633   24.6320 H   0  0  0  0  0  0
  -27.2292  -37.1500   25.8871 H   0  0  0  0  0  0
  -20.9262  -29.8771   21.6964 H   0  0  0  0  0  0
  -26.0189  -38.2863   24.1384 H   0  0  0  0  0  0
  -28.0034  -16.5160   22.6060 H   0  0  0  0  0  0
  -31.0477  -19.3580   21.4901 H   0  0  0  0  0  0
  -27.3430  -20.7199   23.2473 H   0  0  0  0  0  0
  -30.7247  -24.5193   24.6224 H   0  0  0  0  0  0
  -32.0675  -27.0192   21.6055 H   0  0  0  0  0  0
  -29.8567  -16.7943   20.6599 H   0  0  0  0  0  0
  -30.5483  -16.4280   22.5519 H   0  0  0  0  0  0
  -28.4113  -24.8098   19.4516 H   0  0  0  0  0  0
  -28.0950  -25.9647   18.1628 H   0  0  0  0  0  0
  -25.6032  -19.0641   23.6068 H   0  0  0  0  0  0
  -25.8388  -17.4200   23.2883 H   0  0  0  0  0  0
  -30.3831  -21.7248   21.4644 H   0  0  0  0  0  0
  -32.0696  -25.8581   19.2729 H   0  0  0  0  0  0
  -29.2517  -15.0488   21.8106 H   0  0  0  0  0  0
  1 25  1  0  0  0
  1 30  2  0  0  0
  1 90  1  0  0  0
  2  3  1  0  0  0
  2 25  1  0  0  0
  2 93  1  0  0  0
  2 94  1  0  0  0
  3  4  1  0  0  0
  3 95  1  0  0  0
  3 96  1  0  0  0
  4  5  1  0  0  0
  4 97  1  0  0  0
  4 98  1  0  0  0
  5  6  1  0  0  0
  5 26  1  0  0  0
  5 99  1  0  0  0
  6 25  1  0  0  0
  6100  1  0  0  0
  6101  1  0  0  0
  7  8  2  0  0  0
  7 26  1  0  0  0
  7 29  1  0  0  0
  8  9  1  0  0  0
  8 22  1  0  0  0
  9 10  1  0  0  0
  9 27  2  0  0  0
 10 11  2  0  0  0
 10 15  1  0  0  0
 11 12  1  0  0  0
 11102  1  0  0  0
 12 13  2  0  0  0
 12103  1  0  0  0
 13 14  1  0  0  0
 13 31  1  0  0  0
 14 15  2  0  0  0
 14104  1  0  0  0
 15105  1  0  0  0
 16 17  2  0  0  0
 16 21  1  0  0  0
 16 31  1  0  0  0
 17 18  1  0  0  0
 17106  1  0  0  0
 18 19  2  0  0  0
 18107  1  0  0  0
 19 20  1  0  0  0
 19 24  1  0  0  0
 20 21  2  0  0  0
 20108  1  0  0  0
 21 23  1  0  0  0
 22 28  1  0  0  0
 22 32  2  0  0  0
 26 27  1  0  0  0
 28109  1  0  0  0
 28110  1  0  0  0
 29111  1  0  0  0
 29112  1  0  0  0
 33 34  1  0  0  0
 33 66  1  0  0  0
 33 70  2  0  0  0
 34 36  1  0  0  0
 34 59  1  0  0  0
 34113  1  0  0  0
 35 44  2  0  0  0
 35 45  1  0  0  0
 35 68  1  0  0  0
 36 56  1  0  0  0
 36114  1  0  0  0
 37 39  1  0  0  0
 37 47  1  0  0  0
 37 66  1  0  0  0
 37115  1  0  0  0
 38 43  2  0  0  0
 38 46  1  0  0  0
 38 47  1  0  0  0
 39 64  1  0  0  0
 39 67  2  0  0  0
 40 52  1  0  0  0
 40 53  2  0  0  0
 40 58  1  0  0  0
 41116  1  0  0  0
 41117  1  0  0  0
 41118  1  0  0  0
 41 48  1  0  0  0
 42 43  1  0  0  0
 42 66  1  0  0  0
 42119  1  0  0  0
 42120  1  0  0  0
 43 44  1  0  0  0
 44121  1  0  0  0
 45 46  2  0  0  0
 45122  1  0  0  0
 46123  1  0  0  0
 47124  1  0  0  0
 47125  1  0  0  0
 48 56  1  0  0  0
 48 65  1  0  0  0
 48126  1  0  0  0
 49 50  1  0  0  0
 49 53  1  0  0  0
 49 64  1  0  0  0
 49127  1  0  0  0
 50 51  1  0  0  0
 50128  1  0  0  0
 50129  1  0  0  0
 51 52  1  0  0  0
 51130  1  0  0  0
 51131  1  0  0  0
 52132  1  0  0  0
 52133  1  0  0  0
 53 54  1  0  0  0
 54 55  2  0  0  0
 54134  1  0  0  0
 55 57  1  0  0  0
 55135  1  0  0  0
 56 69  2  0  0  0
 57 58  2  0  0  0
 57136  1  0  0  0
 58137  1  0  0  0
 59 60  1  0  0  0
 59 61  1  0  0  0
 59 62  1  0  0  0
 60138  1  0  0  0
 60139  1  0  0  0
 60140  1  0  0  0
 61141  1  0  0  0
 61142  1  0  0  0
 61143  1  0  0  0
 62144  1  0  0  0
 62145  1  0  0  0
 62146  1  0  0  0
 63 65  1  0  0  0
 63147  1  0  0  0
 63148  1  0  0  0
 63149  1  0  0  0
 64150  1  0  0  0
 65151  1  0  0  0
 68 84  1  0  0  0
 71 76  2  0  0  0
 71 77  1  0  0  0
 71152  1  0  0  0
 72 76  1  0  0  0
 72 78  2  0  0  0
 72153  1  0  0  0
 73 77  2  0  0  0
 73 78  1  0  0  0
 73154  1  0  0  0
 74 79  2  0  0  0
 74 85  1  0  0  0
 74155  1  0  0  0
 75 80  1  0  0  0
 75 85  2  0  0  0
 75156  1  0  0  0
 76 83  1  0  0  0
 77 87  1  0  0  0
 78 88  1  0  0  0
 79 81  1  0  0  0
 79 86  1  0  0  0
 80 86  2  0  0  0
 80 89  1  0  0  0
 81 88  1  0  0  0
 81 91  2  0  0  0
 82 84  1  0  0  0
 82 89  1  0  0  0
 82 92  2  0  0  0
 83 90  1  0  0  0
 83157  1  0  0  0
 83158  1  0  0  0
 84159  1  0  0  0
 84160  1  0  0  0
 87161  1  0  0  0
 87162  1  0  0  0
 88163  1  0  0  0
 89164  1  0  0  0
 90165  1  0  0  0
M  ISO  4   1 100  68 101  84 101  90 100
M  END
> <chiral flag>
0

> <version>
0

> <s_m_source_file>
/data/baiqing/PycharmProjects/Reinvent-master-3.2/result/LINK_invent/BTK/process_docking_weight1_custom_product_contain_oxygen_bond_distance_aromatic_linkinvent_7_9_3/rearranged_h_0174.sdf

> <i_m_source_file_index>
4

> <r_mmod_Potential_Energy-OPLS-2005>
110.041923522949

> <r_mmod_Stretch_Energy-OPLS-2005>
36.8929710388184

> <r_mmod_Bend_Energy-OPLS-2005>
306.972381591797

> <r_mmod_Torsional_Energy-OPLS-2005>
259.602355957031

> <r_mmod_Improper_Torsional_Energy-OPLS-2005>
6.1730694770813

> <r_mmod_Van_der_Waal_Energy-OPLS-2005>
185.500625610352

> <r_mmod_Electrostatic_Energy-OPLS-2005>
-421.147003173828

> <r_mmod_Solvation_Energy-OPLS-2005>
-272.070678710938

> <b_mmod_Minimization_Converged-OPLS-2005>
0

> <r_mmod_RMS_Derivative-OPLS-2005>
1.31782650947571

$$$$
4
                    3D
 Structure written by MMmdl.
164172  0  0  1  0            999 V2000
  -30.7006  -14.4312   20.6850 C   0  0  0  0  0  0
  -30.4386  -12.3232   19.4031 C   0  0  0  0  0  0
  -29.5003  -12.5501   18.1994 C   0  0  0  0  0  0
  -28.0197  -12.3960   18.6046 C   0  0  0  0  0  0
  -27.6712  -13.2027   19.8830 C   0  0  2  0  0  0
  -28.7076  -12.9185   20.9920 C   0  0  0  0  0  0
  -25.2612  -13.8154   20.5595 C   0  0  0  0  0  0
  -24.1871  -13.0442   20.9137 C   0  0  0  0  0  0
  -24.6413  -11.6905   20.8713 C   0  0  0  0  0  0
  -23.9060  -10.4296   21.0393 C   0  0  0  0  0  0
  -24.3609   -9.4212   21.9177 C   0  0  0  0  0  0
  -23.6298   -8.2237   22.0755 C   0  0  0  0  0  0
  -22.4281   -8.0276   21.3543 C   0  0  0  0  0  0
  -21.9899   -9.0244   20.4645 C   0  0  0  0  0  0
  -22.7223  -10.2129   20.3046 C   0  0  0  0  0  0
  -21.6860   -6.0728   22.5281 C   0  0  0  0  0  0
  -21.4013   -6.5632   23.8214 C   0  0  0  0  0  0
  -21.3663   -5.6784   24.9179 C   0  0  0  0  0  0
  -21.6047   -4.3047   24.7221 C   0  0  0  0  0  0
  -21.8824   -3.8137   23.4341 C   0  0  0  0  0  0
  -21.9188   -4.6956   22.3396 C   0  0  0  0  0  0
  -22.7893  -13.5245   21.1812 C   0  0  0  0  0  0
  -22.1670   -4.2150   21.0974 F   0  0  0  0  0  0
  -21.5625   -3.4521   25.7724 F   0  0  0  0  0  0
  -30.0497  -13.2525   20.4735 N   0  0  0  0  0  0
  -26.3073  -12.9324   20.3347 N   0  0  0  0  0  0
  -25.9339  -11.6488   20.5737 N   0  0  0  0  0  0
  -22.0514  -12.8257   22.0373 N   0  0  0  0  0  0
  -25.4271  -15.1862   20.3895 N   0  0  0  0  0  0
  -31.7274  -14.7605   20.0828 O   0  0  0  0  0  0
  -21.6648   -6.8871   21.4248 O   0  0  0  0  0  0
  -22.3566  -14.5544   20.6663 O   0  0  0  0  0  0
  -24.6123  -31.8682   23.2119 C   0  0  0  0  0  0
  -25.9020  -32.4820   23.8414 C   0  0  1  0  0  0
  -27.2469  -27.4526   20.0942 C   0  0  0  0  0  0
  -25.5871  -33.8623   24.2345 N   0  0  0  0  0  0
  -23.3998  -30.4937   21.5482 C   0  0  2  0  0  0
  -24.8503  -28.9570   20.1166 C   0  0  0  0  0  0
  -22.7387  -29.4681   22.4974 C   0  0  0  0  0  0
  -18.0256  -28.1383   22.8491 C   0  0  0  0  0  0
  -24.1471  -36.7330   23.2640 C   0  0  0  0  0  0
  -25.9253  -30.8381   21.3632 C   0  0  0  0  0  0
  -26.0060  -29.4718   20.7182 C   0  0  0  0  0  0
  -27.2041  -28.7267   20.7153 C   0  0  0  0  0  0
  -26.0766  -26.9517   19.4883 C   0  0  0  0  0  0
  -24.8786  -27.6919   19.5031 C   0  0  0  0  0  0
  -23.6103  -29.8221   20.1639 C   0  0  0  0  0  0
  -25.4094  -36.3122   24.0337 C   0  0  1  0  0  0
  -20.5847  -28.3678   23.1314 C   0  0  2  0  0  0
  -20.6751  -26.9420   22.5412 C   0  0  0  0  0  0
  -19.5737  -26.6402   21.5202 C   0  0  0  0  0  0
  -18.1912  -26.7932   22.1613 C   0  0  0  0  0  0
  -19.1510  -28.8842   23.2902 C   0  0  0  0  0  0
  -18.9443  -30.1437   23.8939 C   0  0  0  0  0  0
  -17.6457  -30.6594   24.0568 C   0  0  0  0  0  0
  -25.9017  -34.9475   23.5147 C   0  0  0  0  0  0
  -16.5342  -29.9110   23.6311 C   0  0  0  0  0  0
  -16.7253  -28.6509   23.0357 C   0  0  0  0  0  0
  -26.4469  -31.6596   25.0730 C   0  0  0  0  0  0
  -25.3755  -31.3698   26.1493 C   0  0  0  0  0  0
  -27.0304  -30.3039   24.6109 C   0  0  0  0  0  0
  -27.6067  -32.4304   25.7473 C   0  0  0  0  0  0
  -27.5579  -37.1813   24.8455 C   0  0  0  0  0  0
  -21.4119  -29.3049   22.3717 N   0  0  0  0  0  0
  -26.4285  -37.3808   23.9411 N   0  0  0  0  0  0
  -24.6639  -31.0806   22.0997 N   0  0  0  0  0  0
  -23.4170  -28.8224   23.3011 O   0  0  0  0  0  0
  -28.3860  -26.6485   20.0420 O   0  0  0  0  0  0
  -26.5591  -34.8913   22.4713 O   0  0  0  0  0  0
  -23.5318  -32.1425   23.7516 O   0  0  0  0  0  0
  -28.3232  -18.2927   22.3978 C   0  0  0  0  0  0
  -30.8570  -17.5909   21.3974 C   0  0  0  0  0  0
  -29.2646  -19.3176   22.1512 C   0  0  0  0  0  0
  -29.9203  -16.5746   21.7094 C   0  0  0  0  0  0
  -28.6519  -16.9436   22.1942 C   0  0  0  0  0  0
  -30.5303  -18.9566   21.6177 C   0  0  0  0  0  0
  -28.8889  -20.6947   22.5438 C   0  0  0  0  0  0
  -28.6478  -23.1410   22.0188 C   0  0  0  0  0  0
  -30.9844  -26.5495   21.2456 C   0  0  0  0  0  0
  -29.9952  -27.3636   19.4180 C   0  0  0  0  0  0
  -29.1494  -24.2474   21.0711 C   0  0  0  0  0  0
  -28.8852  -25.6926   21.6365 C   0  0  0  0  0  0
  -29.5028  -26.9848   20.8944 C   0  0  0  0  0  0
  -30.1568  -15.1709   21.6628 N   0  0  0  0  0  0
  -29.1138  -21.7890   21.7670 N   0  0  0  0  0  0
  -28.2722  -20.8225   23.7301 N   0  3  0  0  0  0
  -27.8919  -23.4026   22.9637 O   0  0  0  0  0  0
  -27.7480  -15.9797   22.4938 F   0  0  0  0  0  0
  -31.4478  -19.9170   21.3430 F   0  0  0  0  0  0
  -31.4800  -12.4551   19.1054 H   0  0  0  0  0  0
  -30.3597  -11.2946   19.7589 H   0  0  0  0  0  0
  -29.7456  -11.8539   17.3968 H   0  0  0  0  0  0
  -29.6653  -13.5511   17.7952 H   0  0  0  0  0  0
  -27.8210  -11.3371   18.7674 H   0  0  0  0  0  0
  -27.3704  -12.7010   17.7827 H   0  0  0  0  0  0
  -27.7332  -14.2606   19.6277 H   0  0  0  0  0  0
  -28.6830  -11.8615   21.2629 H   0  0  0  0  0  0
  -28.4354  -13.4431   21.9084 H   0  0  0  0  0  0
  -25.2751   -9.5707   22.4747 H   0  0  0  0  0  0
  -24.0013   -7.4633   22.7476 H   0  0  0  0  0  0
  -21.0820   -8.8770   19.8953 H   0  0  0  0  0  0
  -22.3689  -10.9663   19.6148 H   0  0  0  0  0  0
  -21.2025   -7.6145   23.9726 H   0  0  0  0  0  0
  -21.1483   -6.0506   25.9087 H   0  0  0  0  0  0
  -22.0600   -2.7602   23.2831 H   0  0  0  0  0  0
  -22.4111  -11.9936   22.4810 H   0  0  0  0  0  0
  -21.1124  -13.1313   22.2516 H   0  0  0  0  0  0
  -24.6649  -15.8409   20.5257 H   0  0  0  0  0  0
  -26.2838  -15.6294   20.0835 H   0  0  0  0  0  0
  -26.7090  -32.5534   23.1184 H   0  0  0  0  0  0
  -24.9960  -33.9778   25.0447 H   0  0  0  0  0  0
  -22.6873  -31.3107   21.4086 H   0  0  0  0  0  0
  -23.3717  -35.9678   23.3301 H   0  0  0  0  0  0
  -24.3561  -36.8946   22.2053 H   0  0  0  0  0  0
  -23.7218  -37.6537   23.6650 H   0  0  0  0  0  0
  -26.0289  -31.6019   20.5906 H   0  0  0  0  0  0
  -26.8165  -30.8982   21.9765 H   0  0  0  0  0  0
  -28.0892  -29.1409   21.1778 H   0  0  0  0  0  0
  -26.0956  -25.9823   19.0102 H   0  0  0  0  0  0
  -23.9907  -27.2859   19.0384 H   0  0  0  0  0  0
  -23.7227  -30.5961   19.4031 H   0  0  0  0  0  0
  -22.7356  -29.2406   19.8676 H   0  0  0  0  0  0
  -25.1269  -36.2002   25.0833 H   0  0  0  0  0  0
  -20.9953  -28.3253   24.1427 H   0  0  0  0  0  0
  -20.5643  -26.2305   23.3604 H   0  0  0  0  0  0
  -21.6626  -26.7462   22.1223 H   0  0  0  0  0  0
  -19.6899  -25.6322   21.1214 H   0  0  0  0  0  0
  -19.6668  -27.3232   20.6746 H   0  0  0  0  0  0
  -17.4188  -26.6675   21.4005 H   0  0  0  0  0  0
  -18.0318  -26.0066   22.9006 H   0  0  0  0  0  0
  -19.7927  -30.7219   24.2354 H   0  0  0  0  0  0
  -17.5019  -31.6284   24.5172 H   0  0  0  0  0  0
  -15.5344  -30.3041   23.7607 H   0  0  0  0  0  0
  -15.8638  -28.0840   22.7077 H   0  0  0  0  0  0
  -24.5909  -30.7066   25.7835 H   0  0  0  0  0  0
  -24.8961  -32.2850   26.4990 H   0  0  0  0  0  0
  -25.8119  -30.8834   27.0230 H   0  0  0  0  0  0
  -26.2852  -29.6777   24.1192 H   0  0  0  0  0  0
  -27.4097  -29.7294   25.4572 H   0  0  0  0  0  0
  -27.8675  -30.4334   23.9243 H   0  0  0  0  0  0
  -27.2718  -33.3594   26.2104 H   0  0  0  0  0  0
  -28.3857  -32.6883   25.0285 H   0  0  0  0  0  0
  -28.0774  -31.8396   26.5342 H   0  0  0  0  0  0
  -28.2604  -38.0109   24.7532 H   0  0  0  0  0  0
  -28.1071  -36.2644   24.6252 H   0  0  0  0  0  0
  -27.2302  -37.1440   25.8860 H   0  0  0  0  0  0
  -20.9270  -29.8784   21.6955 H   0  0  0  0  0  0
  -26.0172  -38.2886   24.1435 H   0  0  0  0  0  0
  -27.3449  -18.5290   22.7905 H   0  0  0  0  0  0
  -31.8421  -17.3395   21.0322 H   0  0  0  0  0  0
  -31.6603  -27.4071   21.2533 H   0  0  0  0  0  0
  -31.4267  -25.8103   20.5756 H   0  0  0  0  0  0
  -31.1384  -26.1735   22.2579 H   0  0  0  0  0  0
  -30.8926  -27.9856   19.4169 H   0  0  0  0  0  0
  -29.3593  -28.0266   18.8154 H   0  0  0  0  0  0
  -30.2367  -26.4955   18.7947 H   0  0  0  0  0  0
  -28.6500  -24.1239   20.1119 H   0  0  0  0  0  0
  -30.2079  -24.0637   20.9062 H   0  0  0  0  0  0
  -29.2132  -25.6972   22.6779 H   0  0  0  0  0  0
  -27.8128  -25.7720   21.8608 H   0  0  0  0  0  0
  -29.4355  -14.6596   22.1502 H   0  0  0  0  0  0
  -29.6972  -21.5735   20.9702 H   0  0  0  0  0  0
  -28.1874  -20.0489   24.3711 H   0  0  0  0  0  0
  -27.9182  -21.7376   23.9861 H   0  0  0  0  0  0
  1 25  1  0  0  0
  1 30  2  0  0  0
  1 84  1  0  0  0
  2  3  1  0  0  0
  2 25  1  0  0  0
  2 90  1  0  0  0
  2 91  1  0  0  0
  3  4  1  0  0  0
  3 92  1  0  0  0
  3 93  1  0  0  0
  4  5  1  0  0  0
  4 94  1  0  0  0
  4 95  1  0  0  0
  5  6  1  0  0  0
  5 26  1  0  0  0
  5 96  1  0  0  0
  6 25  1  0  0  0
  6 97  1  0  0  0
  6 98  1  0  0  0
  7  8  2  0  0  0
  7 26  1  0  0  0
  7 29  1  0  0  0
  8  9  1  0  0  0
  8 22  1  0  0  0
  9 10  1  0  0  0
  9 27  2  0  0  0
 10 11  2  0  0  0
 10 15  1  0  0  0
 11 12  1  0  0  0
 11 99  1  0  0  0
 12 13  2  0  0  0
 12100  1  0  0  0
 13 14  1  0  0  0
 13 31  1  0  0  0
 14 15  2  0  0  0
 14101  1  0  0  0
 15102  1  0  0  0
 16 17  2  0  0  0
 16 21  1  0  0  0
 16 31  1  0  0  0
 17 18  1  0  0  0
 17103  1  0  0  0
 18 19  2  0  0  0
 18104  1  0  0  0
 19 20  1  0  0  0
 19 24  1  0  0  0
 20 21  2  0  0  0
 20105  1  0  0  0
 21 23  1  0  0  0
 22 28  1  0  0  0
 22 32  2  0  0  0
 26 27  1  0  0  0
 28106  1  0  0  0
 28107  1  0  0  0
 29108  1  0  0  0
 29109  1  0  0  0
 33 34  1  0  0  0
 33 66  1  0  0  0
 33 70  2  0  0  0
 34 36  1  0  0  0
 34 59  1  0  0  0
 34110  1  0  0  0
 35 44  2  0  0  0
 35 45  1  0  0  0
 35 68  1  0  0  0
 36 56  1  0  0  0
 36111  1  0  0  0
 37 39  1  0  0  0
 37 47  1  0  0  0
 37 66  1  0  0  0
 37112  1  0  0  0
 38 43  2  0  0  0
 38 46  1  0  0  0
 38 47  1  0  0  0
 39 64  1  0  0  0
 39 67  2  0  0  0
 40 52  1  0  0  0
 40 53  2  0  0  0
 40 58  1  0  0  0
 41113  1  0  0  0
 41114  1  0  0  0
 41115  1  0  0  0
 41 48  1  0  0  0
 42 43  1  0  0  0
 42 66  1  0  0  0
 42116  1  0  0  0
 42117  1  0  0  0
 43 44  1  0  0  0
 44118  1  0  0  0
 45 46  2  0  0  0
 45119  1  0  0  0
 46120  1  0  0  0
 47121  1  0  0  0
 47122  1  0  0  0
 48 56  1  0  0  0
 48 65  1  0  0  0
 48123  1  0  0  0
 49 50  1  0  0  0
 49 53  1  0  0  0
 49 64  1  0  0  0
 49124  1  0  0  0
 50 51  1  0  0  0
 50125  1  0  0  0
 50126  1  0  0  0
 51 52  1  0  0  0
 51127  1  0  0  0
 51128  1  0  0  0
 52129  1  0  0  0
 52130  1  0  0  0
 53 54  1  0  0  0
 54 55  2  0  0  0
 54131  1  0  0  0
 55 57  1  0  0  0
 55132  1  0  0  0
 56 69  2  0  0  0
 57 58  2  0  0  0
 57133  1  0  0  0
 58134  1  0  0  0
 59 60  1  0  0  0
 59 61  1  0  0  0
 59 62  1  0  0  0
 60135  1  0  0  0
 60136  1  0  0  0
 60137  1  0  0  0
 61138  1  0  0  0
 61139  1  0  0  0
 61140  1  0  0  0
 62141  1  0  0  0
 62142  1  0  0  0
 62143  1  0  0  0
 63 65  1  0  0  0
 63144  1  0  0  0
 63145  1  0  0  0
 63146  1  0  0  0
 64147  1  0  0  0
 65148  1  0  0  0
 68 83  1  0  0  0
 71 73  2  0  0  0
 71 75  1  0  0  0
 71149  1  0  0  0
 72 74  1  0  0  0
 72 76  2  0  0  0
 72150  1  0  0  0
 73 76  1  0  0  0
 73 77  1  0  0  0
 74 75  2  0  0  0
 74 84  1  0  0  0
 75 88  1  0  0  0
 76 89  1  0  0  0
 77 85  1  0  0  0
 77 86  2  0  0  0
 78 81  1  0  0  0
 78 85  1  0  0  0
 78 87  2  0  0  0
 79151  1  0  0  0
 79152  1  0  0  0
 79153  1  0  0  0
 79 83  1  0  0  0
 80 83  1  0  0  0
 80154  1  0  0  0
 80155  1  0  0  0
 80156  1  0  0  0
 81 82  1  0  0  0
 81157  1  0  0  0
 81158  1  0  0  0
 82 83  1  0  0  0
 82159  1  0  0  0
 82160  1  0  0  0
 84161  1  0  0  0
 85162  1  0  0  0
 86163  1  0  0  0
 86164  1  0  0  0
M  CHG  1  86   1
M  ISO  4   1 100  68 101  83 101  84 100
M  END
> <chiral flag>
0

> <version>
0

> <s_m_source_file>
/data/baiqing/PycharmProjects/Reinvent-master-3.2/result/LINK_invent/BTK/process_docking_weight1_custom_product_contain_oxygen_bond_distance_aromatic_linkinvent_7_9_3/rearranged_h_0174.sdf

> <i_m_source_file_index>
5

> <r_mmod_Potential_Energy-OPLS-2005>
-5.06863260269165

> <r_mmod_Stretch_Energy-OPLS-2005>
60.3701934814453

> <r_mmod_Bend_Energy-OPLS-2005>
466.95166015625

> <r_mmod_Torsional_Energy-OPLS-2005>
234.660446166992

> <r_mmod_Improper_Torsional_Energy-OPLS-2005>
5.3244481086731

> <r_mmod_Van_der_Waal_Energy-OPLS-2005>
231.902572631836

> <r_mmod_Electrostatic_Energy-OPLS-2005>
-577.711486816406

> <r_mmod_Solvation_Energy-OPLS-2005>
-436.774688720703

> <b_mmod_Minimization_Converged-OPLS-2005>
0

> <r_mmod_RMS_Derivative-OPLS-2005>
2.70063209533691

$$$$
5
                    3D
 Structure written by MMmdl.
161169  0  0  1  0            999 V2000
  -30.7477  -14.4049   20.6441 C   0  0  0  0  0  0
  -30.4147  -12.2985   19.4002 C   0  0  0  0  0  0
  -29.4833  -12.5172   18.1932 C   0  0  0  0  0  0
  -28.0072  -12.3756   18.6110 C   0  0  0  0  0  0
  -27.6617  -13.2050   19.8767 C   0  0  2  0  0  0
  -28.7026  -12.9647   20.9919 C   0  0  0  0  0  0
  -25.2587  -13.8163   20.5683 C   0  0  0  0  0  0
  -24.1834  -13.0443   20.9172 C   0  0  0  0  0  0
  -24.6387  -11.6908   20.8736 C   0  0  0  0  0  0
  -23.9054  -10.4297   21.0401 C   0  0  0  0  0  0
  -24.3609   -9.4215   21.9181 C   0  0  0  0  0  0
  -23.6289   -8.2248   22.0753 C   0  0  0  0  0  0
  -22.4270   -8.0285   21.3545 C   0  0  0  0  0  0
  -21.9905   -9.0256   20.4646 C   0  0  0  0  0  0
  -22.7227  -10.2137   20.3054 C   0  0  0  0  0  0
  -21.6854   -6.0739   22.5281 C   0  0  0  0  0  0
  -21.4010   -6.5639   23.8215 C   0  0  0  0  0  0
  -21.3659   -5.6792   24.9177 C   0  0  0  0  0  0
  -21.6044   -4.3055   24.7225 C   0  0  0  0  0  0
  -21.8819   -3.8148   23.4345 C   0  0  0  0  0  0
  -21.9190   -4.6966   22.3403 C   0  0  0  0  0  0
  -22.7859  -13.5241   21.1843 C   0  0  0  0  0  0
  -22.1661   -4.2149   21.0982 F   0  0  0  0  0  0
  -21.5630   -3.4541   25.7740 F   0  0  0  0  0  0
  -30.0358  -13.2656   20.4408 N   0  0  0  0  0  0
  -26.3020  -12.9329   20.3377 N   0  0  0  0  0  0
  -25.9310  -11.6487   20.5762 N   0  0  0  0  0  0
  -22.0496  -12.8234   22.0400 N   0  0  0  0  0  0
  -25.4327  -15.1882   20.4091 N   0  0  0  0  0  0
  -31.8304  -14.6268   20.0923 O   0  0  0  0  0  0
  -21.6640   -6.8880   21.4241 O   0  0  0  0  0  0
  -22.3545  -14.5551   20.6702 O   0  0  0  0  0  0
  -24.6134  -31.8695   23.2115 C   0  0  0  0  0  0
  -25.9035  -32.4824   23.8404 C   0  0  1  0  0  0
  -27.2311  -27.4390   20.0900 C   0  0  0  0  0  0
  -25.5898  -33.8624   24.2330 N   0  0  0  0  0  0
  -23.4003  -30.4940   21.5523 C   0  0  2  0  0  0
  -24.8452  -28.9624   20.1146 C   0  0  0  0  0  0
  -22.7405  -29.4656   22.4994 C   0  0  0  0  0  0
  -18.0267  -28.1374   22.8489 C   0  0  0  0  0  0
  -24.1491  -36.7317   23.2638 C   0  0  0  0  0  0
  -25.9288  -30.8348   21.3652 C   0  0  0  0  0  0
  -26.0041  -29.4701   20.7116 C   0  0  0  0  0  0
  -27.1976  -28.7142   20.6987 C   0  0  0  0  0  0
  -26.0534  -26.9520   19.4745 C   0  0  0  0  0  0
  -24.8638  -27.7021   19.4948 C   0  0  0  0  0  0
  -23.6077  -29.8281   20.1658 C   0  0  0  0  0  0
  -25.4110  -36.3114   24.0336 C   0  0  1  0  0  0
  -20.5858  -28.3650   23.1327 C   0  0  2  0  0  0
  -20.6759  -26.9394   22.5419 C   0  0  0  0  0  0
  -19.5740  -26.6382   21.5212 C   0  0  0  0  0  0
  -18.1913  -26.7920   22.1622 C   0  0  0  0  0  0
  -19.1518  -28.8829   23.2900 C   0  0  0  0  0  0
  -18.9449  -30.1439   23.8906 C   0  0  0  0  0  0
  -17.6452  -30.6580   24.0569 C   0  0  0  0  0  0
  -25.9038  -34.9476   23.5131 C   0  0  0  0  0  0
  -16.5343  -29.9085   23.6328 C   0  0  0  0  0  0
  -16.7258  -28.6503   23.0342 C   0  0  0  0  0  0
  -26.4469  -31.6601   25.0728 C   0  0  0  0  0  0
  -25.3738  -31.3700   26.1479 C   0  0  0  0  0  0
  -27.0298  -30.3051   24.6090 C   0  0  0  0  0  0
  -27.6051  -32.4316   25.7482 C   0  0  0  0  0  0
  -27.5582  -37.1811   24.8461 C   0  0  0  0  0  0
  -21.4135  -29.3024   22.3742 N   0  0  0  0  0  0
  -26.4295  -37.3794   23.9407 N   0  0  0  0  0  0
  -24.6657  -31.0800   22.1014 N   0  0  0  0  0  0
  -23.4187  -28.8196   23.3026 O   0  0  0  0  0  0
  -28.4168  -26.7325   20.1084 O   0  0  0  0  0  0
  -26.5597  -34.8922   22.4691 O   0  0  0  0  0  0
  -23.5329  -32.1448   23.7513 O   0  0  0  0  0  0
  -31.9733  -16.2473   22.7880 C   0  0  0  0  0  0
  -30.2499  -17.7379   21.9211 C   0  0  0  0  0  0
  -32.5959  -17.3258   23.4450 C   0  0  0  0  0  0
  -32.0515  -18.6301   23.3303 C   0  0  0  0  0  0
  -30.8041  -16.4417   22.0244 C   0  0  0  0  0  0
  -30.8821  -18.8403   22.5524 C   0  0  0  0  0  0
  -29.4071  -23.1181   20.7857 C   0  0  0  0  0  0
  -29.5249  -22.2194   21.7958 C   0  0  0  0  0  0
  -29.2152  -24.5774   20.9630 C   0  0  0  0  0  0
  -29.7632  -20.8101   21.4710 C   0  0  0  0  0  0
  -33.8414  -17.0429   24.2700 C   0  0  0  0  0  0
  -32.7066  -19.8178   24.0335 C   0  0  0  0  0  0
  -28.3791  -25.3095   19.9020 C   0  0  0  0  0  0
  -30.3614  -20.1666   22.4903 N   0  0  0  0  0  0
  -30.1579  -15.3281   21.4228 N   0  0  0  0  0  0
  -29.7086  -25.2190   21.8987 O   0  0  0  0  0  0
  -29.4817  -20.2731   20.3970 O   0  0  0  0  0  0
  -29.4130  -22.5736   23.0910 O   0  0  0  0  0  0
  -31.4581  -12.3956   19.0947 H   0  0  0  0  0  0
  -30.3132  -11.2817   19.7828 H   0  0  0  0  0  0
  -29.7176  -11.8044   17.4013 H   0  0  0  0  0  0
  -29.6524  -13.5095   17.7718 H   0  0  0  0  0  0
  -27.8142  -11.3185   18.7962 H   0  0  0  0  0  0
  -27.3541  -12.6622   17.7857 H   0  0  0  0  0  0
  -27.7134  -14.2568   19.5938 H   0  0  0  0  0  0
  -28.6734  -11.9236   21.3168 H   0  0  0  0  0  0
  -28.4589  -13.5479   21.8807 H   0  0  0  0  0  0
  -25.2755   -9.5690   22.4756 H   0  0  0  0  0  0
  -24.0001   -7.4635   22.7469 H   0  0  0  0  0  0
  -21.0839   -8.8767   19.8951 H   0  0  0  0  0  0
  -22.3683  -10.9674   19.6163 H   0  0  0  0  0  0
  -21.2002   -7.6147   23.9715 H   0  0  0  0  0  0
  -21.1483   -6.0526   25.9078 H   0  0  0  0  0  0
  -22.0598   -2.7610   23.2848 H   0  0  0  0  0  0
  -22.4105  -11.9888   22.4780 H   0  0  0  0  0  0
  -21.1117  -13.1264   22.2611 H   0  0  0  0  0  0
  -24.6693  -15.8477   20.5156 H   0  0  0  0  0  0
  -26.2904  -15.6240   20.0930 H   0  0  0  0  0  0
  -26.7106  -32.5548   23.1168 H   0  0  0  0  0  0
  -25.0054  -33.9787   25.0482 H   0  0  0  0  0  0
  -22.6873  -31.3102   21.4149 H   0  0  0  0  0  0
  -23.3746  -35.9659   23.3314 H   0  0  0  0  0  0
  -24.3586  -36.8919   22.2049 H   0  0  0  0  0  0
  -23.7248  -37.6526   23.6646 H   0  0  0  0  0  0
  -26.0389  -31.6020   20.5975 H   0  0  0  0  0  0
  -26.8177  -30.8888   21.9816 H   0  0  0  0  0  0
  -28.0926  -29.1025   21.1646 H   0  0  0  0  0  0
  -26.0294  -26.0056   18.9559 H   0  0  0  0  0  0
  -23.9747  -27.3098   19.0199 H   0  0  0  0  0  0
  -23.7136  -30.6045   19.4068 H   0  0  0  0  0  0
  -22.7318  -29.2470   19.8708 H   0  0  0  0  0  0
  -25.1286  -36.1985   25.0827 H   0  0  0  0  0  0
  -20.9935  -28.3214   24.1452 H   0  0  0  0  0  0
  -20.5670  -26.2256   23.3603 H   0  0  0  0  0  0
  -21.6630  -26.7448   22.1210 H   0  0  0  0  0  0
  -19.6913  -25.6298   21.1227 H   0  0  0  0  0  0
  -19.6687  -27.3209   20.6757 H   0  0  0  0  0  0
  -17.4191  -26.6669   21.4019 H   0  0  0  0  0  0
  -18.0311  -26.0059   22.9017 H   0  0  0  0  0  0
  -19.7930  -30.7239   24.2288 H   0  0  0  0  0  0
  -17.5014  -31.6265   24.5158 H   0  0  0  0  0  0
  -15.5343  -30.2989   23.7646 H   0  0  0  0  0  0
  -15.8655  -28.0827   22.7043 H   0  0  0  0  0  0
  -24.5918  -30.7038   25.7816 H   0  0  0  0  0  0
  -24.8917  -32.2850   26.4935 H   0  0  0  0  0  0
  -25.8099  -30.8869   27.0233 H   0  0  0  0  0  0
  -26.2836  -29.6811   24.1156 H   0  0  0  0  0  0
  -27.4089  -29.7284   25.4536 H   0  0  0  0  0  0
  -27.8663  -30.4370   23.9221 H   0  0  0  0  0  0
  -27.2680  -33.3608   26.2089 H   0  0  0  0  0  0
  -28.3845  -32.6891   25.0295 H   0  0  0  0  0  0
  -28.0740  -31.8422   26.5372 H   0  0  0  0  0  0
  -28.2601  -38.0106   24.7508 H   0  0  0  0  0  0
  -28.1075  -36.2637   24.6290 H   0  0  0  0  0  0
  -27.2296  -37.1459   25.8862 H   0  0  0  0  0  0
  -20.9292  -29.8753   21.6976 H   0  0  0  0  0  0
  -26.0192  -38.2874   24.1414 H   0  0  0  0  0  0
  -32.3906  -15.2540   22.8858 H   0  0  0  0  0  0
  -29.3407  -17.8812   21.3546 H   0  0  0  0  0  0
  -29.4650  -22.7778   19.7602 H   0  0  0  0  0  0
  -34.0895  -15.9810   24.2747 H   0  0  0  0  0  0
  -33.6956  -17.3459   25.3073 H   0  0  0  0  0  0
  -34.7010  -17.5777   23.8655 H   0  0  0  0  0  0
  -33.6596  -19.5813   24.5024 H   0  0  0  0  0  0
  -32.0504  -20.2025   24.8152 H   0  0  0  0  0  0
  -32.9008  -20.6220   23.3224 H   0  0  0  0  0  0
  -27.3782  -24.8897   19.9781 H   0  0  0  0  0  0
  -28.7615  -25.0771   18.9082 H   0  0  0  0  0  0
  -30.6573  -20.7798   23.2358 H   0  0  0  0  0  0
  -29.1942  -15.1626   21.6712 H   0  0  0  0  0  0
  -29.2086  -21.7867   23.5825 H   0  0  0  0  0  0
  1 25  1  0  0  0
  1 30  2  0  0  0
  1 85  1  0  0  0
  2  3  1  0  0  0
  2 25  1  0  0  0
  2 89  1  0  0  0
  2 90  1  0  0  0
  3  4  1  0  0  0
  3 91  1  0  0  0
  3 92  1  0  0  0
  4  5  1  0  0  0
  4 93  1  0  0  0
  4 94  1  0  0  0
  5  6  1  0  0  0
  5 26  1  0  0  0
  5 95  1  0  0  0
  6 25  1  0  0  0
  6 96  1  0  0  0
  6 97  1  0  0  0
  7  8  2  0  0  0
  7 26  1  0  0  0
  7 29  1  0  0  0
  8  9  1  0  0  0
  8 22  1  0  0  0
  9 10  1  0  0  0
  9 27  2  0  0  0
 10 11  2  0  0  0
 10 15  1  0  0  0
 11 12  1  0  0  0
 11 98  1  0  0  0
 12 13  2  0  0  0
 12 99  1  0  0  0
 13 14  1  0  0  0
 13 31  1  0  0  0
 14 15  2  0  0  0
 14100  1  0  0  0
 15101  1  0  0  0
 16 17  2  0  0  0
 16 21  1  0  0  0
 16 31  1  0  0  0
 17 18  1  0  0  0
 17102  1  0  0  0
 18 19  2  0  0  0
 18103  1  0  0  0
 19 20  1  0  0  0
 19 24  1  0  0  0
 20 21  2  0  0  0
 20104  1  0  0  0
 21 23  1  0  0  0
 22 28  1  0  0  0
 22 32  2  0  0  0
 26 27  1  0  0  0
 28105  1  0  0  0
 28106  1  0  0  0
 29107  1  0  0  0
 29108  1  0  0  0
 33 34  1  0  0  0
 33 66  1  0  0  0
 33 70  2  0  0  0
 34 36  1  0  0  0
 34 59  1  0  0  0
 34109  1  0  0  0
 35 44  2  0  0  0
 35 45  1  0  0  0
 35 68  1  0  0  0
 36 56  1  0  0  0
 36110  1  0  0  0
 37 39  1  0  0  0
 37 47  1  0  0  0
 37 66  1  0  0  0
 37111  1  0  0  0
 38 43  2  0  0  0
 38 46  1  0  0  0
 38 47  1  0  0  0
 39 64  1  0  0  0
 39 67  2  0  0  0
 40 52  1  0  0  0
 40 53  2  0  0  0
 40 58  1  0  0  0
 41112  1  0  0  0
 41113  1  0  0  0
 41114  1  0  0  0
 41 48  1  0  0  0
 42 43  1  0  0  0
 42 66  1  0  0  0
 42115  1  0  0  0
 42116  1  0  0  0
 43 44  1  0  0  0
 44117  1  0  0  0
 45 46  2  0  0  0
 45118  1  0  0  0
 46119  1  0  0  0
 47120  1  0  0  0
 47121  1  0  0  0
 48 56  1  0  0  0
 48 65  1  0  0  0
 48122  1  0  0  0
 49 50  1  0  0  0
 49 53  1  0  0  0
 49 64  1  0  0  0
 49123  1  0  0  0
 50 51  1  0  0  0
 50124  1  0  0  0
 50125  1  0  0  0
 51 52  1  0  0  0
 51126  1  0  0  0
 51127  1  0  0  0
 52128  1  0  0  0
 52129  1  0  0  0
 53 54  1  0  0  0
 54 55  2  0  0  0
 54130  1  0  0  0
 55 57  1  0  0  0
 55131  1  0  0  0
 56 69  2  0  0  0
 57 58  2  0  0  0
 57132  1  0  0  0
 58133  1  0  0  0
 59 60  1  0  0  0
 59 61  1  0  0  0
 59 62  1  0  0  0
 60134  1  0  0  0
 60135  1  0  0  0
 60136  1  0  0  0
 61137  1  0  0  0
 61138  1  0  0  0
 61139  1  0  0  0
 62140  1  0  0  0
 62141  1  0  0  0
 62142  1  0  0  0
 63 65  1  0  0  0
 63143  1  0  0  0
 63144  1  0  0  0
 63145  1  0  0  0
 64146  1  0  0  0
 65147  1  0  0  0
 68 83  1  0  0  0
 71 73  2  0  0  0
 71 75  1  0  0  0
 71148  1  0  0  0
 72 75  2  0  0  0
 72 76  1  0  0  0
 72149  1  0  0  0
 73 74  1  0  0  0
 73 81  1  0  0  0
 74 76  2  0  0  0
 74 82  1  0  0  0
 75 85  1  0  0  0
 76 84  1  0  0  0
 77 78  2  0  0  0
 77 79  1  0  0  0
 77150  1  0  0  0
 78 80  1  0  0  0
 78 88  1  0  0  0
 79 83  1  0  0  0
 79 86  2  0  0  0
 80 84  1  0  0  0
 80 87  2  0  0  0
 81151  1  0  0  0
 81152  1  0  0  0
 81153  1  0  0  0
 82154  1  0  0  0
 82155  1  0  0  0
 82156  1  0  0  0
 83157  1  0  0  0
 83158  1  0  0  0
 84159  1  0  0  0
 85160  1  0  0  0
 88161  1  0  0  0
M  ISO  4   1 100  68 101  83 101  85 100
M  END
> <chiral flag>
0

> <version>
0

> <s_m_source_file>
/data/baiqing/PycharmProjects/Reinvent-master-3.2/result/LINK_invent/BTK/process_docking_weight1_custom_product_contain_oxygen_bond_distance_aromatic_linkinvent_7_9_3/rearranged_h_0174.sdf

> <i_m_source_file_index>
6

> <r_mmod_Potential_Energy-OPLS-2005>
-88.7659759521484

> <r_mmod_Stretch_Energy-OPLS-2005>
37.9502334594727

> <r_mmod_Bend_Energy-OPLS-2005>
102.295104980469

> <r_mmod_Torsional_Energy-OPLS-2005>
251.399230957031

> <r_mmod_Improper_Torsional_Energy-OPLS-2005>
3.00772404670715

> <r_mmod_Van_der_Waal_Energy-OPLS-2005>
177.681106567383

> <r_mmod_Electrostatic_Energy-OPLS-2005>
-405.87451171875

> <r_mmod_Solvation_Energy-OPLS-2005>
-264.762084960938

> <b_mmod_Minimization_Converged-OPLS-2005>
0

> <r_mmod_RMS_Derivative-OPLS-2005>
1.01658308506012

$$$$
6
                    3D
 Structure written by MMmdl.
155163  0  0  1  0            999 V2000
  -30.7326  -14.4233   20.5960 C   0  0  0  0  0  0
  -30.4168  -12.2843   19.4215 C   0  0  0  0  0  0
  -29.4961  -12.5138   18.2065 C   0  0  0  0  0  0
  -28.0152  -12.3796   18.6137 C   0  0  0  0  0  0
  -27.6655  -13.2085   19.8792 C   0  0  2  0  0  0
  -28.7041  -12.9751   21.0005 C   0  0  0  0  0  0
  -25.2602  -13.8163   20.5674 C   0  0  0  0  0  0
  -24.1848  -13.0434   20.9150 C   0  0  0  0  0  0
  -24.6400  -11.6901   20.8711 C   0  0  0  0  0  0
  -23.9060  -10.4288   21.0385 C   0  0  0  0  0  0
  -24.3611   -9.4209   21.9172 C   0  0  0  0  0  0
  -23.6290   -8.2243   22.0752 C   0  0  0  0  0  0
  -22.4275   -8.0277   21.3544 C   0  0  0  0  0  0
  -21.9901   -9.0245   20.4646 C   0  0  0  0  0  0
  -22.7228  -10.2126   20.3041 C   0  0  0  0  0  0
  -21.6854   -6.0731   22.5279 C   0  0  0  0  0  0
  -21.4013   -6.5639   23.8210 C   0  0  0  0  0  0
  -21.3657   -5.6791   24.9175 C   0  0  0  0  0  0
  -21.6042   -4.3055   24.7224 C   0  0  0  0  0  0
  -21.8824   -3.8140   23.4347 C   0  0  0  0  0  0
  -21.9194   -4.6958   22.3401 C   0  0  0  0  0  0
  -22.7870  -13.5234   21.1819 C   0  0  0  0  0  0
  -22.1666   -4.2143   21.0979 F   0  0  0  0  0  0
  -21.5623   -3.4537   25.7734 F   0  0  0  0  0  0
  -30.0441  -13.2604   20.4570 N   0  0  0  0  0  0
  -26.3043  -12.9339   20.3366 N   0  0  0  0  0  0
  -25.9332  -11.6493   20.5749 N   0  0  0  0  0  0
  -22.0513  -12.8234   22.0383 N   0  0  0  0  0  0
  -25.4337  -15.1880   20.4117 N   0  0  0  0  0  0
  -31.8356  -14.6122   20.0768 O   0  0  0  0  0  0
  -21.6642   -6.8871   21.4239 O   0  0  0  0  0  0
  -22.3555  -14.5540   20.6665 O   0  0  0  0  0  0
  -24.6100  -31.8719   23.2127 C   0  0  0  0  0  0
  -25.9003  -32.4845   23.8419 C   0  0  1  0  0  0
  -27.2494  -27.4698   20.0940 C   0  0  0  0  0  0
  -25.5877  -33.8643   24.2349 N   0  0  0  0  0  0
  -23.3978  -30.4935   21.5524 C   0  0  2  0  0  0
  -24.8489  -28.9619   20.1192 C   0  0  0  0  0  0
  -22.7389  -29.4673   22.5011 C   0  0  0  0  0  0
  -18.0269  -28.1377   22.8494 C   0  0  0  0  0  0
  -24.1478  -36.7328   23.2634 C   0  0  0  0  0  0
  -25.9214  -30.8483   21.3609 C   0  0  0  0  0  0
  -26.0039  -29.4826   20.7152 C   0  0  0  0  0  0
  -27.2068  -28.7452   20.7079 C   0  0  0  0  0  0
  -26.0782  -26.9595   19.4990 C   0  0  0  0  0  0
  -24.8779  -27.6950   19.5109 C   0  0  0  0  0  0
  -23.6074  -29.8235   20.1677 C   0  0  0  0  0  0
  -25.4096  -36.3127   24.0344 C   0  0  1  0  0  0
  -20.5856  -28.3655   23.1339 C   0  0  2  0  0  0
  -20.6761  -26.9397   22.5432 C   0  0  0  0  0  0
  -19.5741  -26.6384   21.5230 C   0  0  0  0  0  0
  -18.1918  -26.7927   22.1628 C   0  0  0  0  0  0
  -19.1515  -28.8830   23.2916 C   0  0  0  0  0  0
  -18.9448  -30.1440   23.8921 C   0  0  0  0  0  0
  -17.6451  -30.6585   24.0569 C   0  0  0  0  0  0
  -25.9024  -34.9493   23.5142 C   0  0  0  0  0  0
  -16.5343  -29.9089   23.6316 C   0  0  0  0  0  0
  -16.7260  -28.6510   23.0332 C   0  0  0  0  0  0
  -26.4452  -31.6608   25.0731 C   0  0  0  0  0  0
  -25.3727  -31.3718   26.1493 C   0  0  0  0  0  0
  -27.0262  -30.3047   24.6075 C   0  0  0  0  0  0
  -27.6059  -32.4305   25.7475 C   0  0  0  0  0  0
  -27.5590  -37.1800   24.8452 C   0  0  0  0  0  0
  -21.4124  -29.3020   22.3741 N   0  0  0  0  0  0
  -26.4281  -37.3814   23.9428 N   0  0  0  0  0  0
  -24.6612  -31.0842   22.1016 N   0  0  0  0  0  0
  -23.4171  -28.8232   23.3053 O   0  0  0  0  0  0
  -28.3692  -26.6729   20.0234 O   0  0  0  0  0  0
  -26.5591  -34.8942   22.4706 O   0  0  0  0  0  0
  -23.5301  -32.1462   23.7527 O   0  0  0  0  0  0
  -29.8832  -17.6436   22.2374 C   0  0  0  0  0  0
  -30.1118  -19.0296   22.1453 C   0  0  0  0  0  0
  -31.0559  -17.4121   20.1481 C   0  0  0  0  0  0
  -30.3678  -16.7995   21.2201 C   0  0  0  0  0  0
  -30.8060  -19.5558   21.0337 C   0  0  0  0  0  0
  -30.5211  -25.8928   20.8235 C   0  0  0  0  0  0
  -30.3496  -22.0030   21.2759 C   0  0  0  0  0  0
  -30.0125  -24.4673   20.5609 C   0  0  0  0  0  0
  -29.5176  -27.0518   20.7714 C   0  0  0  0  0  0
  -30.9965  -23.3737   21.0447 C   0  0  0  0  0  0
  -31.2776  -18.7406   20.0679 N   0  0  0  0  0  0
  -30.1084  -15.3942   21.2863 N   0  0  0  0  0  0
  -31.0983  -20.9388   20.9365 N   0  0  0  0  0  0
  -31.7147  -26.1097   21.0551 O   0  0  0  0  0  0
  -29.2116  -21.9313   21.7481 O   0  0  0  0  0  0
  -31.4647  -12.3630   19.1249 H   0  0  0  0  0  0
  -30.2957  -11.2701   19.8051 H   0  0  0  0  0  0
  -29.7326  -11.8038   17.4133 H   0  0  0  0  0  0
  -29.6762  -13.5065   17.7910 H   0  0  0  0  0  0
  -27.8148  -11.3231   18.7945 H   0  0  0  0  0  0
  -27.3699  -12.6708   17.7839 H   0  0  0  0  0  0
  -27.7160  -14.2596   19.5932 H   0  0  0  0  0  0
  -28.6670  -11.9389   21.3397 H   0  0  0  0  0  0
  -28.4651  -13.5731   21.8805 H   0  0  0  0  0  0
  -25.2758   -9.5685   22.4740 H   0  0  0  0  0  0
  -23.9999   -7.4638   22.7475 H   0  0  0  0  0  0
  -21.0824   -8.8751   19.8964 H   0  0  0  0  0  0
  -22.3677  -10.9648   19.6138 H   0  0  0  0  0  0
  -21.2012   -7.6148   23.9707 H   0  0  0  0  0  0
  -21.1471   -6.0526   25.9076 H   0  0  0  0  0  0
  -22.0607   -2.7604   23.2846 H   0  0  0  0  0  0
  -22.4129  -11.9897   22.4767 H   0  0  0  0  0  0
  -21.1129  -13.1262   22.2580 H   0  0  0  0  0  0
  -24.6712  -15.8469   20.5273 H   0  0  0  0  0  0
  -26.2955  -15.6275   20.1120 H   0  0  0  0  0  0
  -26.7087  -32.5582   23.1210 H   0  0  0  0  0  0
  -25.0002  -33.9817   25.0474 H   0  0  0  0  0  0
  -22.6849  -31.3089   21.4131 H   0  0  0  0  0  0
  -23.3750  -35.9651   23.3276 H   0  0  0  0  0  0
  -24.3579  -36.8957   22.2054 H   0  0  0  0  0  0
  -23.7212  -37.6523   23.6652 H   0  0  0  0  0  0
  -26.0222  -31.6132   20.5897 H   0  0  0  0  0  0
  -26.8124  -30.9098   21.9732 H   0  0  0  0  0  0
  -28.0862  -29.1731   21.1667 H   0  0  0  0  0  0
  -26.0974  -25.9876   19.0252 H   0  0  0  0  0  0
  -23.9901  -27.2856   19.0494 H   0  0  0  0  0  0
  -23.7120  -30.5981   19.4072 H   0  0  0  0  0  0
  -22.7340  -29.2394   19.8731 H   0  0  0  0  0  0
  -25.1260  -36.1998   25.0836 H   0  0  0  0  0  0
  -20.9950  -28.3217   24.1461 H   0  0  0  0  0  0
  -20.5694  -26.2258   23.3611 H   0  0  0  0  0  0
  -21.6630  -26.7467   22.1209 H   0  0  0  0  0  0
  -19.6905  -25.6303   21.1238 H   0  0  0  0  0  0
  -19.6685  -27.3212   20.6777 H   0  0  0  0  0  0
  -17.4202  -26.6685   21.4020 H   0  0  0  0  0  0
  -18.0308  -26.0066   22.9018 H   0  0  0  0  0  0
  -19.7929  -30.7238   24.2306 H   0  0  0  0  0  0
  -17.5014  -31.6265   24.5167 H   0  0  0  0  0  0
  -15.5341  -30.2998   23.7625 H   0  0  0  0  0  0
  -15.8666  -28.0842   22.7007 H   0  0  0  0  0  0
  -24.5853  -30.7134   25.7812 H   0  0  0  0  0  0
  -24.8988  -32.2891   26.5006 H   0  0  0  0  0  0
  -25.8077  -30.8812   27.0210 H   0  0  0  0  0  0
  -26.2795  -29.6830   24.1127 H   0  0  0  0  0  0
  -27.4030  -29.7257   25.4517 H   0  0  0  0  0  0
  -27.8635  -30.4363   23.9216 H   0  0  0  0  0  0
  -27.2714  -33.3598   26.2098 H   0  0  0  0  0  0
  -28.3844  -32.6867   25.0276 H   0  0  0  0  0  0
  -28.0763  -31.8398   26.5349 H   0  0  0  0  0  0
  -28.2569  -38.0135   24.7562 H   0  0  0  0  0  0
  -28.1117  -36.2673   24.6175 H   0  0  0  0  0  0
  -27.2331  -37.1334   25.8857 H   0  0  0  0  0  0
  -20.9276  -29.8729   21.6962 H   0  0  0  0  0  0
  -26.0170  -38.2882   24.1475 H   0  0  0  0  0  0
  -29.3475  -17.2392   23.0839 H   0  0  0  0  0  0
  -29.7575  -19.6763   22.9353 H   0  0  0  0  0  0
  -31.4261  -16.8539   19.3026 H   0  0  0  0  0  0
  -29.8247  -24.3556   19.4931 H   0  0  0  0  0  0
  -29.0480  -24.3623   21.0577 H   0  0  0  0  0  0
  -29.9897  -27.9268   20.3231 H   0  0  0  0  0  0
  -29.2385  -27.2994   21.7961 H   0  0  0  0  0  0
  -31.8195  -23.2899   20.3340 H   0  0  0  0  0  0
  -31.4416  -23.6646   21.9971 H   0  0  0  0  0  0
  -29.2968  -15.1027   21.8118 H   0  0  0  0  0  0
  -31.9581  -21.1562   20.4546 H   0  0  0  0  0  0
  1 25  1  0  0  0
  1 30  2  0  0  0
  1 82  1  0  0  0
  2  3  1  0  0  0
  2 25  1  0  0  0
  2 86  1  0  0  0
  2 87  1  0  0  0
  3  4  1  0  0  0
  3 88  1  0  0  0
  3 89  1  0  0  0
  4  5  1  0  0  0
  4 90  1  0  0  0
  4 91  1  0  0  0
  5  6  1  0  0  0
  5 26  1  0  0  0
  5 92  1  0  0  0
  6 25  1  0  0  0
  6 93  1  0  0  0
  6 94  1  0  0  0
  7  8  2  0  0  0
  7 26  1  0  0  0
  7 29  1  0  0  0
  8  9  1  0  0  0
  8 22  1  0  0  0
  9 10  1  0  0  0
  9 27  2  0  0  0
 10 11  2  0  0  0
 10 15  1  0  0  0
 11 12  1  0  0  0
 11 95  1  0  0  0
 12 13  2  0  0  0
 12 96  1  0  0  0
 13 14  1  0  0  0
 13 31  1  0  0  0
 14 15  2  0  0  0
 14 97  1  0  0  0
 15 98  1  0  0  0
 16 17  2  0  0  0
 16 21  1  0  0  0
 16 31  1  0  0  0
 17 18  1  0  0  0
 17 99  1  0  0  0
 18 19  2  0  0  0
 18100  1  0  0  0
 19 20  1  0  0  0
 19 24  1  0  0  0
 20 21  2  0  0  0
 20101  1  0  0  0
 21 23  1  0  0  0
 22 28  1  0  0  0
 22 32  2  0  0  0
 26 27  1  0  0  0
 28102  1  0  0  0
 28103  1  0  0  0
 29104  1  0  0  0
 29105  1  0  0  0
 33 34  1  0  0  0
 33 66  1  0  0  0
 33 70  2  0  0  0
 34 36  1  0  0  0
 34 59  1  0  0  0
 34106  1  0  0  0
 35 44  2  0  0  0
 35 45  1  0  0  0
 35 68  1  0  0  0
 36 56  1  0  0  0
 36107  1  0  0  0
 37 39  1  0  0  0
 37 47  1  0  0  0
 37 66  1  0  0  0
 37108  1  0  0  0
 38 43  2  0  0  0
 38 46  1  0  0  0
 38 47  1  0  0  0
 39 64  1  0  0  0
 39 67  2  0  0  0
 40 52  1  0  0  0
 40 53  2  0  0  0
 40 58  1  0  0  0
 41109  1  0  0  0
 41110  1  0  0  0
 41111  1  0  0  0
 41 48  1  0  0  0
 42 43  1  0  0  0
 42 66  1  0  0  0
 42112  1  0  0  0
 42113  1  0  0  0
 43 44  1  0  0  0
 44114  1  0  0  0
 45 46  2  0  0  0
 45115  1  0  0  0
 46116  1  0  0  0
 47117  1  0  0  0
 47118  1  0  0  0
 48 56  1  0  0  0
 48 65  1  0  0  0
 48119  1  0  0  0
 49 50  1  0  0  0
 49 53  1  0  0  0
 49 64  1  0  0  0
 49120  1  0  0  0
 50 51  1  0  0  0
 50121  1  0  0  0
 50122  1  0  0  0
 51 52  1  0  0  0
 51123  1  0  0  0
 51124  1  0  0  0
 52125  1  0  0  0
 52126  1  0  0  0
 53 54  1  0  0  0
 54 55  2  0  0  0
 54127  1  0  0  0
 55 57  1  0  0  0
 55128  1  0  0  0
 56 69  2  0  0  0
 57 58  2  0  0  0
 57129  1  0  0  0
 58130  1  0  0  0
 59 60  1  0  0  0
 59 61  1  0  0  0
 59 62  1  0  0  0
 60131  1  0  0  0
 60132  1  0  0  0
 60133  1  0  0  0
 61134  1  0  0  0
 61135  1  0  0  0
 61136  1  0  0  0
 62137  1  0  0  0
 62138  1  0  0  0
 62139  1  0  0  0
 63 65  1  0  0  0
 63140  1  0  0  0
 63141  1  0  0  0
 63142  1  0  0  0
 64143  1  0  0  0
 65144  1  0  0  0
 68 79  1  0  0  0
 71 72  2  0  0  0
 71 74  1  0  0  0
 71145  1  0  0  0
 72 75  1  0  0  0
 72146  1  0  0  0
 73 74  2  0  0  0
 73 81  1  0  0  0
 73147  1  0  0  0
 74 82  1  0  0  0
 75 81  2  0  0  0
 75 83  1  0  0  0
 76 78  1  0  0  0
 76 79  1  0  0  0
 76 84  2  0  0  0
 77 80  1  0  0  0
 77 83  1  0  0  0
 77 85  2  0  0  0
 78 80  1  0  0  0
 78148  1  0  0  0
 78149  1  0  0  0
 79150  1  0  0  0
 79151  1  0  0  0
 80152  1  0  0  0
 80153  1  0  0  0
 82154  1  0  0  0
 83155  1  0  0  0
M  ISO  4   1 100  68 101  79 101  82 100
M  END
> <chiral flag>
0

> <version>
0

> <s_m_source_file>
/data/baiqing/PycharmProjects/Reinvent-master-3.2/result/LINK_invent/BTK/process_docking_weight1_custom_product_contain_oxygen_bond_distance_aromatic_linkinvent_7_9_3/rearranged_h_0174.sdf

> <i_m_source_file_index>
7

> <r_mmod_Potential_Energy-OPLS-2005>
-353.788391113281

> <r_mmod_Stretch_Energy-OPLS-2005>
33.2508392333984

> <r_mmod_Bend_Energy-OPLS-2005>
105.446022033691

> <r_mmod_Torsional_Energy-OPLS-2005>
224.216888427734

> <r_mmod_Improper_Torsional_Energy-OPLS-2005>
2.65758037567139

> <r_mmod_Van_der_Waal_Energy-OPLS-2005>
169.632415771484

> <r_mmod_Electrostatic_Energy-OPLS-2005>
-651.712646484375

> <r_mmod_Solvation_Energy-OPLS-2005>
-245.675354003906

> <b_mmod_Minimization_Converged-OPLS-2005>
0

> <r_mmod_RMS_Derivative-OPLS-2005>
1.33068954944611

$$$$
7
                    3D
 Structure written by MMmdl.
161169  0  0  1  0            999 V2000
  -30.7501  -14.3857   20.6738 C   0  0  0  0  0  0
  -30.4237  -12.2926   19.4021 C   0  0  0  0  0  0
  -29.4879  -12.5104   18.1971 C   0  0  0  0  0  0
  -28.0138  -12.3620   18.6168 C   0  0  0  0  0  0
  -27.6677  -13.1959   19.8776 C   0  0  2  0  0  0
  -28.7048  -12.9421   20.9947 C   0  0  0  0  0  0
  -25.2617  -13.8145   20.5656 C   0  0  0  0  0  0
  -24.1852  -13.0440   20.9144 C   0  0  0  0  0  0
  -24.6383  -11.6895   20.8721 C   0  0  0  0  0  0
  -23.9040  -10.4289   21.0406 C   0  0  0  0  0  0
  -24.3599   -9.4208   21.9193 C   0  0  0  0  0  0
  -23.6279   -8.2242   22.0763 C   0  0  0  0  0  0
  -22.4268   -8.0276   21.3545 C   0  0  0  0  0  0
  -21.9896   -9.0247   20.4646 C   0  0  0  0  0  0
  -22.7212  -10.2131   20.3053 C   0  0  0  0  0  0
  -21.6851   -6.0723   22.5272 C   0  0  0  0  0  0
  -21.4007   -6.5631   23.8200 C   0  0  0  0  0  0
  -21.3661   -5.6797   24.9172 C   0  0  0  0  0  0
  -21.6052   -4.3058   24.7232 C   0  0  0  0  0  0
  -21.8823   -3.8138   23.4353 C   0  0  0  0  0  0
  -21.9186   -4.6949   22.3401 C   0  0  0  0  0  0
  -22.7875  -13.5245   21.1819 C   0  0  0  0  0  0
  -22.1661   -4.2128   21.0981 F   0  0  0  0  0  0
  -21.5638   -3.4547   25.7748 F   0  0  0  0  0  0
  -30.0455  -13.2445   20.4576 N   0  0  0  0  0  0
  -26.3048  -12.9293   20.3354 N   0  0  0  0  0  0
  -25.9305  -11.6468   20.5760 N   0  0  0  0  0  0
  -22.0512  -12.8238   22.0373 N   0  0  0  0  0  0
  -25.4384  -15.1859   20.4067 N   0  0  0  0  0  0
  -31.8072  -14.6435   20.0876 O   0  0  0  0  0  0
  -21.6636   -6.8871   21.4233 O   0  0  0  0  0  0
  -22.3558  -14.5553   20.6663 O   0  0  0  0  0  0
  -24.6129  -31.8688   23.2116 C   0  0  0  0  0  0
  -25.9030  -32.4830   23.8401 C   0  0  1  0  0  0
  -27.2377  -27.4590   20.0991 C   0  0  0  0  0  0
  -25.5869  -33.8626   24.2312 N   0  0  0  0  0  0
  -23.3995  -30.4930   21.5519 C   0  0  2  0  0  0
  -24.8446  -28.9579   20.1192 C   0  0  0  0  0  0
  -22.7405  -29.4671   22.5007 C   0  0  0  0  0  0
  -18.0271  -28.1385   22.8503 C   0  0  0  0  0  0
  -24.1478  -36.7345   23.2640 C   0  0  0  0  0  0
  -25.9229  -30.8444   21.3564 C   0  0  0  0  0  0
  -26.0021  -29.4798   20.7080 C   0  0  0  0  0  0
  -27.2027  -28.7393   20.6896 C   0  0  0  0  0  0
  -26.0662  -26.9436   19.5041 C   0  0  0  0  0  0
  -24.8698  -27.6875   19.5153 C   0  0  0  0  0  0
  -23.6052  -29.8219   20.1682 C   0  0  0  0  0  0
  -25.4098  -36.3118   24.0324 C   0  0  1  0  0  0
  -20.5859  -28.3677   23.1333 C   0  0  2  0  0  0
  -20.6757  -26.9418   22.5418 C   0  0  0  0  0  0
  -19.5732  -26.6397   21.5219 C   0  0  0  0  0  0
  -18.1916  -26.7932   22.1640 C   0  0  0  0  0  0
  -19.1519  -28.8846   23.2913 C   0  0  0  0  0  0
  -18.9444  -30.1444   23.8939 C   0  0  0  0  0  0
  -17.6447  -30.6587   24.0584 C   0  0  0  0  0  0
  -25.9022  -34.9481   23.5123 C   0  0  0  0  0  0
  -16.5339  -29.9101   23.6319 C   0  0  0  0  0  0
  -16.7259  -28.6513   23.0347 C   0  0  0  0  0  0
  -26.4459  -31.6612   25.0728 C   0  0  0  0  0  0
  -25.3715  -31.3695   26.1469 C   0  0  0  0  0  0
  -27.0304  -30.3059   24.6095 C   0  0  0  0  0  0
  -27.6031  -32.4337   25.7498 C   0  0  0  0  0  0
  -27.5578  -37.1829   24.8464 C   0  0  0  0  0  0
  -21.4135  -29.3043   22.3746 N   0  0  0  0  0  0
  -26.4294  -37.3792   23.9398 N   0  0  0  0  0  0
  -24.6641  -31.0815   22.1001 N   0  0  0  0  0  0
  -23.4184  -28.8207   23.3036 O   0  0  0  0  0  0
  -28.4312  -26.7729   20.0897 O   0  0  0  0  0  0
  -26.5607  -34.8944   22.4697 O   0  0  0  0  0  0
  -23.5321  -32.1434   23.7518 O   0  0  0  0  0  0
  -29.5992  -17.5734   21.8509 C   0  0  0  0  0  0
  -31.9311  -16.9150   22.0864 C   0  0  0  0  0  0
  -29.9351  -18.9332   22.0473 C   0  0  0  0  0  0
  -30.5884  -16.5693   21.8245 C   0  0  0  0  0  0
  -31.2973  -19.2720   22.3000 C   0  0  0  0  0  0
  -32.2770  -18.2563   22.3232 C   0  0  0  0  0  0
  -28.8232  -19.9487   21.9483 C   0  0  0  0  0  0
  -28.3272  -22.0319   20.7995 C   0  0  0  0  0  0
  -27.7124  -25.3310   21.9794 C   0  0  0  0  0  0
  -28.9717  -23.0307   19.8281 C   0  0  0  0  0  0
  -28.2062  -24.3602   19.6139 C   0  0  0  0  0  0
  -28.5005  -25.4580   20.6609 C   0  0  1  0  0  0
  -31.7445  -20.5794   22.5278 N   0  0  0  0  0  0
  -30.1934  -15.2325   21.5569 N   0  0  0  0  0  0
  -29.1240  -21.0331   21.2139 N   0  0  0  0  0  0
  -27.7181  -19.7016   22.4484 O   0  0  0  0  0  0
  -27.1390  -22.1616   21.1114 O   0  0  0  0  0  0
  -33.5702  -18.5819   22.5730 F   0  0  0  0  0  0
  -31.4662  -12.3985   19.0962 H   0  0  0  0  0  0
  -30.3304  -11.2729   19.7789 H   0  0  0  0  0  0
  -29.7222  -11.7972   17.4044 H   0  0  0  0  0  0
  -29.6544  -13.5021   17.7738 H   0  0  0  0  0  0
  -27.8297  -11.3053   18.8150 H   0  0  0  0  0  0
  -27.3568  -12.6350   17.7905 H   0  0  0  0  0  0
  -27.7261  -14.2471   19.5923 H   0  0  0  0  0  0
  -28.6761  -11.8963   21.3051 H   0  0  0  0  0  0
  -28.4495  -13.5080   21.8905 H   0  0  0  0  0  0
  -25.2746   -9.5687   22.4767 H   0  0  0  0  0  0
  -23.9976   -7.4647   22.7494 H   0  0  0  0  0  0
  -21.0825   -8.8766   19.8964 H   0  0  0  0  0  0
  -22.3674  -10.9669   19.6158 H   0  0  0  0  0  0
  -21.2003   -7.6142   23.9693 H   0  0  0  0  0  0
  -21.1486   -6.0537   25.9076 H   0  0  0  0  0  0
  -22.0608   -2.7597   23.2869 H   0  0  0  0  0  0
  -22.4130  -11.9887   22.4743 H   0  0  0  0  0  0
  -21.1131  -13.1263   22.2596 H   0  0  0  0  0  0
  -24.6787  -15.8489   20.5157 H   0  0  0  0  0  0
  -26.2990  -15.6157   20.0918 H   0  0  0  0  0  0
  -26.7116  -32.5545   23.1186 H   0  0  0  0  0  0
  -24.9948  -33.9767   25.0409 H   0  0  0  0  0  0
  -22.6852  -31.3086   21.4122 H   0  0  0  0  0  0
  -23.3721  -35.9701   23.3306 H   0  0  0  0  0  0
  -24.3556  -36.8973   22.2055 H   0  0  0  0  0  0
  -23.7277  -37.6561   23.6674 H   0  0  0  0  0  0
  -26.0205  -31.6070   20.5831 H   0  0  0  0  0  0
  -26.8175  -30.9059   21.9654 H   0  0  0  0  0  0
  -28.1015  -29.1437   21.1341 H   0  0  0  0  0  0
  -26.0684  -25.9811   19.0188 H   0  0  0  0  0  0
  -23.9798  -27.2808   19.0536 H   0  0  0  0  0  0
  -23.7103  -30.5959   19.4062 H   0  0  0  0  0  0
  -22.7295  -29.2398   19.8780 H   0  0  0  0  0  0
  -25.1276  -36.1982   25.0814 H   0  0  0  0  0  0
  -20.9934  -28.3251   24.1466 H   0  0  0  0  0  0
  -20.5683  -26.2285   23.3605 H   0  0  0  0  0  0
  -21.6628  -26.7470   22.1211 H   0  0  0  0  0  0
  -19.6897  -25.6314   21.1247 H   0  0  0  0  0  0
  -19.6668  -27.3213   20.6752 H   0  0  0  0  0  0
  -17.4181  -26.6690   21.4041 H   0  0  0  0  0  0
  -18.0303  -26.0061   22.9022 H   0  0  0  0  0  0
  -19.7915  -30.7238   24.2348 H   0  0  0  0  0  0
  -17.5011  -31.6276   24.5185 H   0  0  0  0  0  0
  -15.5348  -30.3030   23.7612 H   0  0  0  0  0  0
  -15.8654  -28.0852   22.7044 H   0  0  0  0  0  0
  -24.5885  -30.7065   25.7784 H   0  0  0  0  0  0
  -24.8906  -32.2834   26.4960 H   0  0  0  0  0  0
  -25.8059  -30.8826   27.0207 H   0  0  0  0  0  0
  -26.2853  -29.6802   24.1171 H   0  0  0  0  0  0
  -27.4107  -29.7311   25.4552 H   0  0  0  0  0  0
  -27.8661  -30.4389   23.9222 H   0  0  0  0  0  0
  -27.2660  -33.3638   26.2087 H   0  0  0  0  0  0
  -28.3843  -32.6898   25.0329 H   0  0  0  0  0  0
  -28.0702  -31.8455   26.5407 H   0  0  0  0  0  0
  -28.2604  -38.0115   24.7487 H   0  0  0  0  0  0
  -28.1064  -36.2647   24.6315 H   0  0  0  0  0  0
  -27.2284  -37.1508   25.8863 H   0  0  0  0  0  0
  -20.9303  -29.8788   21.6985 H   0  0  0  0  0  0
  -26.0185  -38.2877   24.1365 H   0  0  0  0  0  0
  -28.5659  -17.3104   21.6655 H   0  0  0  0  0  0
  -32.7052  -16.1622   22.1023 H   0  0  0  0  0  0
  -27.9660  -24.4124   22.5072 H   0  0  0  0  0  0
  -26.6346  -25.3235   21.8126 H   0  0  0  0  0  0
  -27.9408  -26.1588   22.6524 H   0  0  0  0  0  0
  -29.0307  -22.5185   18.8678 H   0  0  0  0  0  0
  -30.0043  -23.2313   20.1181 H   0  0  0  0  0  0
  -27.1362  -24.1709   19.5366 H   0  0  0  0  0  0
  -28.5030  -24.7402   18.6358 H   0  0  0  0  0  0
  -29.5545  -25.3664   20.9282 H   0  0  0  0  0  0
  -31.2026  -21.1314   23.1844 H   0  0  0  0  0  0
  -32.7276  -20.6116   22.7885 H   0  0  0  0  0  0
  -29.2918  -14.9440   21.9054 H   0  0  0  0  0  0
  -30.0924  -21.0634   20.9251 H   0  0  0  0  0  0
  1 25  1  0  0  0
  1 30  2  0  0  0
  1 84  1  0  0  0
  2  3  1  0  0  0
  2 25  1  0  0  0
  2 89  1  0  0  0
  2 90  1  0  0  0
  3  4  1  0  0  0
  3 91  1  0  0  0
  3 92  1  0  0  0
  4  5  1  0  0  0
  4 93  1  0  0  0
  4 94  1  0  0  0
  5  6  1  0  0  0
  5 26  1  0  0  0
  5 95  1  0  0  0
  6 25  1  0  0  0
  6 96  1  0  0  0
  6 97  1  0  0  0
  7  8  2  0  0  0
  7 26  1  0  0  0
  7 29  1  0  0  0
  8  9  1  0  0  0
  8 22  1  0  0  0
  9 10  1  0  0  0
  9 27  2  0  0  0
 10 11  2  0  0  0
 10 15  1  0  0  0
 11 12  1  0  0  0
 11 98  1  0  0  0
 12 13  2  0  0  0
 12 99  1  0  0  0
 13 14  1  0  0  0
 13 31  1  0  0  0
 14 15  2  0  0  0
 14100  1  0  0  0
 15101  1  0  0  0
 16 17  2  0  0  0
 16 21  1  0  0  0
 16 31  1  0  0  0
 17 18  1  0  0  0
 17102  1  0  0  0
 18 19  2  0  0  0
 18103  1  0  0  0
 19 20  1  0  0  0
 19 24  1  0  0  0
 20 21  2  0  0  0
 20104  1  0  0  0
 21 23  1  0  0  0
 22 28  1  0  0  0
 22 32  2  0  0  0
 26 27  1  0  0  0
 28105  1  0  0  0
 28106  1  0  0  0
 29107  1  0  0  0
 29108  1  0  0  0
 33 34  1  0  0  0
 33 66  1  0  0  0
 33 70  2  0  0  0
 34 36  1  0  0  0
 34 59  1  0  0  0
 34109  1  0  0  0
 35 44  2  0  0  0
 35 45  1  0  0  0
 35 68  1  0  0  0
 36 56  1  0  0  0
 36110  1  0  0  0
 37 39  1  0  0  0
 37 47  1  0  0  0
 37 66  1  0  0  0
 37111  1  0  0  0
 38 43  2  0  0  0
 38 46  1  0  0  0
 38 47  1  0  0  0
 39 64  1  0  0  0
 39 67  2  0  0  0
 40 52  1  0  0  0
 40 53  2  0  0  0
 40 58  1  0  0  0
 41112  1  0  0  0
 41113  1  0  0  0
 41114  1  0  0  0
 41 48  1  0  0  0
 42 43  1  0  0  0
 42 66  1  0  0  0
 42115  1  0  0  0
 42116  1  0  0  0
 43 44  1  0  0  0
 44117  1  0  0  0
 45 46  2  0  0  0
 45118  1  0  0  0
 46119  1  0  0  0
 47120  1  0  0  0
 47121  1  0  0  0
 48 56  1  0  0  0
 48 65  1  0  0  0
 48122  1  0  0  0
 49 50  1  0  0  0
 49 53  1  0  0  0
 49 64  1  0  0  0
 49123  1  0  0  0
 50 51  1  0  0  0
 50124  1  0  0  0
 50125  1  0  0  0
 51 52  1  0  0  0
 51126  1  0  0  0
 51127  1  0  0  0
 52128  1  0  0  0
 52129  1  0  0  0
 53 54  1  0  0  0
 54 55  2  0  0  0
 54130  1  0  0  0
 55 57  1  0  0  0
 55131  1  0  0  0
 56 69  2  0  0  0
 57 58  2  0  0  0
 57132  1  0  0  0
 58133  1  0  0  0
 59 60  1  0  0  0
 59 61  1  0  0  0
 59 62  1  0  0  0
 60134  1  0  0  0
 60135  1  0  0  0
 60136  1  0  0  0
 61137  1  0  0  0
 61138  1  0  0  0
 61139  1  0  0  0
 62140  1  0  0  0
 62141  1  0  0  0
 62142  1  0  0  0
 63 65  1  0  0  0
 63143  1  0  0  0
 63144  1  0  0  0
 63145  1  0  0  0
 64146  1  0  0  0
 65147  1  0  0  0
 68 82  1  0  0  0
 71 73  2  0  0  0
 71 74  1  0  0  0
 71148  1  0  0  0
 72 74  2  0  0  0
 72 76  1  0  0  0
 72149  1  0  0  0
 73 75  1  0  0  0
 73 77  1  0  0  0
 74 84  1  0  0  0
 75 76  2  0  0  0
 75 83  1  0  0  0
 76 88  1  0  0  0
 77 85  1  0  0  0
 77 86  2  0  0  0
 78 80  1  0  0  0
 78 85  1  0  0  0
 78 87  2  0  0  0
 79150  1  0  0  0
 79151  1  0  0  0
 79152  1  0  0  0
 79 82  1  0  0  0
 80 81  1  0  0  0
 80153  1  0  0  0
 80154  1  0  0  0
 81 82  1  0  0  0
 81155  1  0  0  0
 81156  1  0  0  0
 82157  1  0  0  0
 83158  1  0  0  0
 83159  1  0  0  0
 84160  1  0  0  0
 85161  1  0  0  0
M  ISO  4   1 100  68 101  82 101  84 100
M  END
> <chiral flag>
0

> <version>
0

> <s_m_source_file>
/data/baiqing/PycharmProjects/Reinvent-master-3.2/result/LINK_invent/BTK/process_docking_weight1_custom_product_contain_oxygen_bond_distance_aromatic_linkinvent_7_9_3/rearranged_h_0174.sdf

> <i_m_source_file_index>
8

> <r_mmod_Potential_Energy-OPLS-2005>
-167.750732421875

> <r_mmod_Stretch_Energy-OPLS-2005>
35.1653213500977

> <r_mmod_Bend_Energy-OPLS-2005>
112.884582519531

> <r_mmod_Torsional_Energy-OPLS-2005>
251.306610107422

> <r_mmod_Improper_Torsional_Energy-OPLS-2005>
8.41659927368164

> <r_mmod_Van_der_Waal_Energy-OPLS-2005>
166.169555664062

> <r_mmod_Electrostatic_Energy-OPLS-2005>
-497.277282714844

> <r_mmod_Solvation_Energy-OPLS-2005>
-252.175674438477

> <b_mmod_Minimization_Converged-OPLS-2005>
0

> <r_mmod_RMS_Derivative-OPLS-2005>
2.02679777145386

$$$$
8
                    3D
 Structure written by MMmdl.
162170  0  0  1  0            999 V2000
  -30.7464  -14.5039   20.5981 C   0  0  0  0  0  0
  -30.4115  -12.3437   19.4334 C   0  0  0  0  0  0
  -29.4867  -12.4869   18.2083 C   0  0  0  0  0  0
  -28.0207  -12.2896   18.6331 C   0  0  0  0  0  0
  -27.6434  -13.1751   19.8435 C   0  0  2  0  0  0
  -28.6868  -13.0720   20.9838 C   0  0  0  0  0  0
  -25.2547  -13.7969   20.5712 C   0  0  0  0  0  0
  -24.1809  -13.0279   20.9247 C   0  0  0  0  0  0
  -24.6356  -11.6761   20.8770 C   0  0  0  0  0  0
  -23.9013  -10.4184   21.0429 C   0  0  0  0  0  0
  -24.3581   -9.4131   21.9216 C   0  0  0  0  0  0
  -23.6266   -8.2167   22.0757 C   0  0  0  0  0  0
  -22.4259   -8.0212   21.3518 C   0  0  0  0  0  0
  -21.9891   -9.0181   20.4626 C   0  0  0  0  0  0
  -22.7198  -10.2062   20.3057 C   0  0  0  0  0  0
  -21.6804   -6.0709   22.5276 C   0  0  0  0  0  0
  -21.3966   -6.5617   23.8204 C   0  0  0  0  0  0
  -21.3655   -5.6779   24.9176 C   0  0  0  0  0  0
  -21.6069   -4.3045   24.7234 C   0  0  0  0  0  0
  -21.8811   -3.8135   23.4341 C   0  0  0  0  0  0
  -21.9165   -4.6953   22.3396 C   0  0  0  0  0  0
  -22.7856  -13.5135   21.1893 C   0  0  0  0  0  0
  -22.1656   -4.2146   21.0974 F   0  0  0  0  0  0
  -21.5669   -3.4529   25.7743 F   0  0  0  0  0  0
  -30.0197  -13.3578   20.4298 N   0  0  0  0  0  0
  -26.2920  -12.9117   20.3234 N   0  0  0  0  0  0
  -25.9256  -11.6306   20.5748 N   0  0  0  0  0  0
  -22.0459  -12.8101   22.0399 N   0  0  0  0  0  0
  -25.4111  -15.1642   20.4169 N   0  0  0  0  0  0
  -31.8513  -14.6656   20.0761 O   0  0  0  0  0  0
  -21.6586   -6.8841   21.4231 O   0  0  0  0  0  0
  -22.3564  -14.5457   20.6766 O   0  0  0  0  0  0
  -24.6166  -31.8665   23.2126 C   0  0  0  0  0  0
  -25.9051  -32.4832   23.8402 C   0  0  1  0  0  0
  -27.2522  -27.4440   20.1014 C   0  0  0  0  0  0
  -25.5882  -33.8620   24.2326 N   0  0  0  0  0  0
  -23.4044  -30.4926   21.5499 C   0  0  2  0  0  0
  -24.8564  -28.9475   20.1286 C   0  0  0  0  0  0
  -22.7429  -29.4679   22.4992 C   0  0  0  0  0  0
  -18.0335  -28.1366   22.8510 C   0  0  0  0  0  0
  -24.1490  -36.7310   23.2631 C   0  0  0  0  0  0
  -25.9336  -30.8333   21.3662 C   0  0  0  0  0  0
  -26.0126  -29.4627   20.7280 C   0  0  0  0  0  0
  -27.2115  -28.7133   20.7220 C   0  0  0  0  0  0
  -26.0818  -26.9378   19.4987 C   0  0  0  0  0  0
  -24.8835  -27.6807   19.5194 C   0  0  0  0  0  0
  -23.6160  -29.8142   20.1697 C   0  0  0  0  0  0
  -25.4114  -36.3111   24.0336 C   0  0  1  0  0  0
  -20.5905  -28.3682   23.1346 C   0  0  2  0  0  0
  -20.6843  -26.9424   22.5447 C   0  0  0  0  0  0
  -19.5843  -26.6440   21.5229 C   0  0  0  0  0  0
  -18.2014  -26.7917   22.1645 C   0  0  0  0  0  0
  -19.1566  -28.8843   23.2930 C   0  0  0  0  0  0
  -18.9477  -30.1447   23.8944 C   0  0  0  0  0  0
  -17.6479  -30.6584   24.0574 C   0  0  0  0  0  0
  -25.9033  -34.9473   23.5134 C   0  0  0  0  0  0
  -16.5392  -29.9066   23.6334 C   0  0  0  0  0  0
  -16.7321  -28.6486   23.0364 C   0  0  0  0  0  0
  -26.4480  -31.6620   25.0724 C   0  0  0  0  0  0
  -25.3753  -31.3724   26.1476 C   0  0  0  0  0  0
  -27.0318  -30.3064   24.6127 C   0  0  0  0  0  0
  -27.6062  -32.4332   25.7477 C   0  0  0  0  0  0
  -27.5585  -37.1808   24.8456 C   0  0  0  0  0  0
  -21.4156  -29.3066   22.3738 N   0  0  0  0  0  0
  -26.4305  -37.3790   23.9396 N   0  0  0  0  0  0
  -24.6691  -31.0804   22.1007 N   0  0  0  0  0  0
  -23.4193  -28.8186   23.3000 O   0  0  0  0  0  0
  -28.4245  -26.7261   20.0153 O   0  0  0  0  0  0
  -26.5614  -34.8927   22.4694 O   0  0  0  0  0  0
  -23.5365  -32.1352   23.7558 O   0  0  0  0  0  0
  -28.5425  -16.8322   20.2422 C   0  0  0  0  0  0
  -30.5145  -17.9373   21.1339 C   0  0  0  0  0  0
  -28.0492  -18.0570   19.7472 C   0  0  0  0  0  0
  -29.7857  -16.7377   20.8995 C   0  0  0  0  0  0
  -30.0022  -19.1846   20.6877 C   0  0  0  0  0  0
  -28.7903  -19.2293   19.9657 C   0  0  0  0  0  0
  -30.5941  -22.8490   21.0047 C   0  0  0  0  0  0
  -30.0862  -21.4680   21.5021 C   0  0  0  0  0  0
  -25.5867  -18.6027   19.9491 C   0  0  0  0  0  0
  -29.6182  -23.6762   20.1445 C   0  0  0  0  0  0
  -28.5113  -24.4368   20.9263 C   0  0  0  0  0  0
  -28.7701  -25.9424   21.1632 C   0  0  0  0  0  0
  -26.7120  -18.1302   19.0183 C   0  0  0  0  0  0
  -30.6810  -20.4163   20.9054 N   0  0  0  0  0  0
  -30.2477  -15.4724   21.3947 N   0  0  0  0  0  0
  -31.7345  -23.2578   21.2419 O   0  0  0  0  0  0
  -29.2240  -21.3659   22.3822 O   0  0  0  0  0  0
  -28.3286  -20.4135   19.4915 F   0  0  0  0  0  0
  -26.3982  -16.9398   18.5100 F   0  0  0  0  0  0
  -26.7923  -18.9741   17.9908 F   0  0  0  0  0  0
  -31.4545  -12.4382   19.1286 H   0  0  0  0  0  0
  -30.3161  -11.3468   19.8670 H   0  0  0  0  0  0
  -29.7514  -11.7507   17.4491 H   0  0  0  0  0  0
  -29.6185  -13.4657   17.7440 H   0  0  0  0  0  0
  -27.8887  -11.2365   18.8895 H   0  0  0  0  0  0
  -27.3510  -12.4838   17.7939 H   0  0  0  0  0  0
  -27.6381  -14.1704   19.4253 H   0  0  0  0  0  0
  -28.6780  -12.0702   21.4175 H   0  0  0  0  0  0
  -28.4211  -13.7520   21.7952 H   0  0  0  0  0  0
  -25.2693   -9.5614   22.4837 H   0  0  0  0  0  0
  -23.9951   -7.4556   22.7484 H   0  0  0  0  0  0
  -21.0812   -8.8665   19.8954 H   0  0  0  0  0  0
  -22.3622  -10.9623   19.6203 H   0  0  0  0  0  0
  -21.1925   -7.6119   23.9687 H   0  0  0  0  0  0
  -21.1513   -6.0529   25.9071 H   0  0  0  0  0  0
  -22.0605   -2.7604   23.2839 H   0  0  0  0  0  0
  -22.4035  -11.9738   22.4771 H   0  0  0  0  0  0
  -21.1127  -13.1256   22.2620 H   0  0  0  0  0  0
  -24.5825  -15.7468   20.4058 H   0  0  0  0  0  0
  -26.1740  -15.5584   19.8845 H   0  0  0  0  0  0
  -26.7111  -32.5566   23.1164 H   0  0  0  0  0  0
  -25.0038  -33.9758   25.0488 H   0  0  0  0  0  0
  -22.6940  -31.3110   21.4103 H   0  0  0  0  0  0
  -23.3752  -35.9639   23.3314 H   0  0  0  0  0  0
  -24.3558  -36.8924   22.2035 H   0  0  0  0  0  0
  -23.7281  -37.6536   23.6638 H   0  0  0  0  0  0
  -26.0511  -31.5944   20.5915 H   0  0  0  0  0  0
  -26.8174  -30.8851   21.9895 H   0  0  0  0  0  0
  -28.1066  -29.1126   21.1789 H   0  0  0  0  0  0
  -26.1005  -25.9754   19.0066 H   0  0  0  0  0  0
  -23.9929  -27.2833   19.0535 H   0  0  0  0  0  0
  -23.7163  -30.5798   19.3988 H   0  0  0  0  0  0
  -22.7420  -29.2265   19.8855 H   0  0  0  0  0  0
  -25.1306  -36.1961   25.0837 H   0  0  0  0  0  0
  -21.0004  -28.3252   24.1462 H   0  0  0  0  0  0
  -20.5807  -26.2265   23.3604 H   0  0  0  0  0  0
  -21.6695  -26.7512   22.1199 H   0  0  0  0  0  0
  -19.7066  -25.6408   21.1173 H   0  0  0  0  0  0
  -19.6778  -27.3326   20.6827 H   0  0  0  0  0  0
  -17.4292  -26.6677   21.4049 H   0  0  0  0  0  0
  -18.0472  -26.0023   22.8996 H   0  0  0  0  0  0
  -19.7961  -30.7288   24.2289 H   0  0  0  0  0  0
  -17.5018  -31.6272   24.5153 H   0  0  0  0  0  0
  -15.5397  -30.2955   23.7669 H   0  0  0  0  0  0
  -15.8729  -28.0821   22.7053 H   0  0  0  0  0  0
  -24.5890  -30.7126   25.7791 H   0  0  0  0  0  0
  -24.8984  -32.2885   26.4961 H   0  0  0  0  0  0
  -25.8074  -30.8838   27.0217 H   0  0  0  0  0  0
  -26.2867  -29.6816   24.1190 H   0  0  0  0  0  0
  -27.4092  -29.7320   25.4600 H   0  0  0  0  0  0
  -27.8700  -30.4384   23.9281 H   0  0  0  0  0  0
  -27.2685  -33.3596   26.2129 H   0  0  0  0  0  0
  -28.3820  -32.6963   25.0271 H   0  0  0  0  0  0
  -28.0792  -31.8424   26.5339 H   0  0  0  0  0  0
  -28.2617  -38.0089   24.7494 H   0  0  0  0  0  0
  -28.1072  -36.2630   24.6297 H   0  0  0  0  0  0
  -27.2276  -37.1479   25.8848 H   0  0  0  0  0  0
  -20.9293  -29.8789   21.6983 H   0  0  0  0  0  0
  -26.0201  -38.2873   24.1385 H   0  0  0  0  0  0
  -27.9354  -15.9642   20.1373 H   0  0  0  0  0  0
  -31.4559  -17.9078   21.6648 H   0  0  0  0  0  0
  -25.4595  -17.9317   20.7981 H   0  0  0  0  0  0
  -24.6381  -18.6502   19.4144 H   0  0  0  0  0  0
  -25.7954  -19.5968   20.3442 H   0  0  0  0  0  0
  -29.1471  -22.9769   19.4544 H   0  0  0  0  0  0
  -30.1859  -24.3637   19.5178 H   0  0  0  0  0  0
  -28.3564  -23.9607   21.8952 H   0  0  0  0  0  0
  -27.5616  -24.3218   20.4034 H   0  0  0  0  0  0
  -28.2054  -26.2667   22.0416 H   0  0  0  0  0  0
  -29.8230  -26.1065   21.3944 H   0  0  0  0  0  0
  -31.4620  -20.6222   20.2974 H   0  0  0  0  0  0
  -30.8949  -15.6112   22.1561 H   0  0  0  0  0  0
  1 25  1  0  0  0
  1 30  2  0  0  0
  1 85  1  0  0  0
  2  3  1  0  0  0
  2 25  1  0  0  0
  2 91  1  0  0  0
  2 92  1  0  0  0
  3  4  1  0  0  0
  3 93  1  0  0  0
  3 94  1  0  0  0
  4  5  1  0  0  0
  4 95  1  0  0  0
  4 96  1  0  0  0
  5  6  1  0  0  0
  5 26  1  0  0  0
  5 97  1  0  0  0
  6 25  1  0  0  0
  6 98  1  0  0  0
  6 99  1  0  0  0
  7  8  2  0  0  0
  7 26  1  0  0  0
  7 29  1  0  0  0
  8  9  1  0  0  0
  8 22  1  0  0  0
  9 10  1  0  0  0
  9 27  2  0  0  0
 10 11  2  0  0  0
 10 15  1  0  0  0
 11 12  1  0  0  0
 11100  1  0  0  0
 12 13  2  0  0  0
 12101  1  0  0  0
 13 14  1  0  0  0
 13 31  1  0  0  0
 14 15  2  0  0  0
 14102  1  0  0  0
 15103  1  0  0  0
 16 17  2  0  0  0
 16 21  1  0  0  0
 16 31  1  0  0  0
 17 18  1  0  0  0
 17104  1  0  0  0
 18 19  2  0  0  0
 18105  1  0  0  0
 19 20  1  0  0  0
 19 24  1  0  0  0
 20 21  2  0  0  0
 20106  1  0  0  0
 21 23  1  0  0  0
 22 28  1  0  0  0
 22 32  2  0  0  0
 26 27  1  0  0  0
 28107  1  0  0  0
 28108  1  0  0  0
 29109  1  0  0  0
 29110  1  0  0  0
 33 34  1  0  0  0
 33 66  1  0  0  0
 33 70  2  0  0  0
 34 36  1  0  0  0
 34 59  1  0  0  0
 34111  1  0  0  0
 35 44  2  0  0  0
 35 45  1  0  0  0
 35 68  1  0  0  0
 36 56  1  0  0  0
 36112  1  0  0  0
 37 39  1  0  0  0
 37 47  1  0  0  0
 37 66  1  0  0  0
 37113  1  0  0  0
 38 43  2  0  0  0
 38 46  1  0  0  0
 38 47  1  0  0  0
 39 64  1  0  0  0
 39 67  2  0  0  0
 40 52  1  0  0  0
 40 53  2  0  0  0
 40 58  1  0  0  0
 41114  1  0  0  0
 41115  1  0  0  0
 41116  1  0  0  0
 41 48  1  0  0  0
 42 43  1  0  0  0
 42 66  1  0  0  0
 42117  1  0  0  0
 42118  1  0  0  0
 43 44  1  0  0  0
 44119  1  0  0  0
 45 46  2  0  0  0
 45120  1  0  0  0
 46121  1  0  0  0
 47122  1  0  0  0
 47123  1  0  0  0
 48 56  1  0  0  0
 48 65  1  0  0  0
 48124  1  0  0  0
 49 50  1  0  0  0
 49 53  1  0  0  0
 49 64  1  0  0  0
 49125  1  0  0  0
 50 51  1  0  0  0
 50126  1  0  0  0
 50127  1  0  0  0
 51 52  1  0  0  0
 51128  1  0  0  0
 51129  1  0  0  0
 52130  1  0  0  0
 52131  1  0  0  0
 53 54  1  0  0  0
 54 55  2  0  0  0
 54132  1  0  0  0
 55 57  1  0  0  0
 55133  1  0  0  0
 56 69  2  0  0  0
 57 58  2  0  0  0
 57134  1  0  0  0
 58135  1  0  0  0
 59 60  1  0  0  0
 59 61  1  0  0  0
 59 62  1  0  0  0
 60136  1  0  0  0
 60137  1  0  0  0
 60138  1  0  0  0
 61139  1  0  0  0
 61140  1  0  0  0
 61141  1  0  0  0
 62142  1  0  0  0
 62143  1  0  0  0
 62144  1  0  0  0
 63 65  1  0  0  0
 63145  1  0  0  0
 63146  1  0  0  0
 63147  1  0  0  0
 64148  1  0  0  0
 65149  1  0  0  0
 68 82  1  0  0  0
 71 73  2  0  0  0
 71 74  1  0  0  0
 71150  1  0  0  0
 72 74  2  0  0  0
 72 75  1  0  0  0
 72151  1  0  0  0
 73 76  1  0  0  0
 73 83  1  0  0  0
 74 85  1  0  0  0
 75 76  2  0  0  0
 75 84  1  0  0  0
 76 88  1  0  0  0
 77 78  1  0  0  0
 77 80  1  0  0  0
 77 86  2  0  0  0
 78 84  1  0  0  0
 78 87  2  0  0  0
 79152  1  0  0  0
 79153  1  0  0  0
 79154  1  0  0  0
 79 83  1  0  0  0
 80 81  1  0  0  0
 80155  1  0  0  0
 80156  1  0  0  0
 81 82  1  0  0  0
 81157  1  0  0  0
 81158  1  0  0  0
 82159  1  0  0  0
 82160  1  0  0  0
 83 89  1  0  0  0
 83 90  1  0  0  0
 84161  1  0  0  0
 85162  1  0  0  0
M  ISO  4   1 100  68 101  82 101  85 100
M  END
> <chiral flag>
0

> <version>
0

> <s_m_source_file>
/data/baiqing/PycharmProjects/Reinvent-master-3.2/result/LINK_invent/BTK/process_docking_weight1_custom_product_contain_oxygen_bond_distance_aromatic_linkinvent_7_9_3/rearranged_h_0174.sdf

> <i_m_source_file_index>
9

> <r_mmod_Potential_Energy-OPLS-2005>
35.3182601928711

> <r_mmod_Stretch_Energy-OPLS-2005>
38.5977363586426

> <r_mmod_Bend_Energy-OPLS-2005>
103.717742919922

> <r_mmod_Torsional_Energy-OPLS-2005>
354.590850830078

> <r_mmod_Improper_Torsional_Energy-OPLS-2005>
10.5396976470947

> <r_mmod_Van_der_Waal_Energy-OPLS-2005>
147.095016479492

> <r_mmod_Electrostatic_Energy-OPLS-2005>
-415.663818359375

> <r_mmod_Solvation_Energy-OPLS-2005>
-220.382354736328

> <b_mmod_Minimization_Converged-OPLS-2005>
0

> <r_mmod_RMS_Derivative-OPLS-2005>
3.46400856971741

$$$$
9
                    3D
 Structure written by MMmdl.
158166  0  0  1  0            999 V2000
  -30.6495  -14.5837   20.4777 C   0  0  0  0  0  0
  -30.4425  -12.3211   19.4895 C   0  0  0  0  0  0
  -29.5248  -12.3804   18.2477 C   0  0  0  0  0  0
  -28.0305  -12.3325   18.6363 C   0  0  0  0  0  0
  -27.6599  -13.2096   19.8652 C   0  0  2  0  0  0
  -28.6981  -13.0648   20.9988 C   0  0  0  0  0  0
  -25.2599  -13.8147   20.5648 C   0  0  0  0  0  0
  -24.1861  -13.0440   20.9173 C   0  0  0  0  0  0
  -24.6421  -11.6918   20.8758 C   0  0  0  0  0  0
  -23.9064  -10.4312   21.0414 C   0  0  0  0  0  0
  -24.3612   -9.4240   21.9206 C   0  0  0  0  0  0
  -23.6296   -8.2270   22.0783 C   0  0  0  0  0  0
  -22.4286   -8.0303   21.3555 C   0  0  0  0  0  0
  -21.9899   -9.0284   20.4673 C   0  0  0  0  0  0
  -22.7219  -10.2161   20.3083 C   0  0  0  0  0  0
  -21.6864   -6.0733   22.5276 C   0  0  0  0  0  0
  -21.4009   -6.5640   23.8209 C   0  0  0  0  0  0
  -21.3667   -5.6804   24.9181 C   0  0  0  0  0  0
  -21.6043   -4.3072   24.7240 C   0  0  0  0  0  0
  -21.8813   -3.8148   23.4363 C   0  0  0  0  0  0
  -21.9202   -4.6954   22.3407 C   0  0  0  0  0  0
  -22.7877  -13.5258   21.1812 C   0  0  0  0  0  0
  -22.1659   -4.2126   21.0995 F   0  0  0  0  0  0
  -21.5641   -3.4567   25.7762 F   0  0  0  0  0  0
  -30.0197  -13.3718   20.4336 N   0  0  0  0  0  0
  -26.3037  -12.9330   20.3329 N   0  0  0  0  0  0
  -25.9353  -11.6504   20.5812 N   0  0  0  0  0  0
  -22.0480  -12.8277   22.0372 N   0  0  0  0  0  0
  -25.4269  -15.1873   20.4026 N   0  0  0  0  0  0
  -31.8261  -14.7221   20.1305 O   0  0  0  0  0  0
  -21.6663   -6.8887   21.4242 O   0  0  0  0  0  0
  -22.3585  -14.5580   20.6669 O   0  0  0  0  0  0
  -24.6208  -31.8651   23.2088 C   0  0  0  0  0  0
  -25.9095  -32.4802   23.8383 C   0  0  1  0  0  0
  -27.2282  -27.3694   20.0942 C   0  0  0  0  0  0
  -25.5931  -33.8609   24.2314 N   0  0  0  0  0  0
  -23.4120  -30.4891   21.5506 C   0  0  2  0  0  0
  -24.8535  -28.9527   20.1110 C   0  0  0  0  0  0
  -22.7449  -29.4638   22.4962 C   0  0  0  0  0  0
  -18.0300  -28.1378   22.8507 C   0  0  0  0  0  0
  -24.1487  -36.7304   23.2643 C   0  0  0  0  0  0
  -25.9505  -30.8068   21.3740 C   0  0  0  0  0  0
  -26.0194  -29.4400   20.7127 C   0  0  0  0  0  0
  -27.2040  -28.6571   20.6988 C   0  0  0  0  0  0
  -26.0284  -26.9082   19.4972 C   0  0  0  0  0  0
  -24.8573  -27.6880   19.5006 C   0  0  0  0  0  0
  -23.6219  -29.8317   20.1628 C   0  0  0  0  0  0
  -25.4116  -36.3115   24.0339 C   0  0  1  0  0  0
  -20.5881  -28.3702   23.1319 C   0  0  2  0  0  0
  -20.6796  -26.9394   22.5509 C   0  0  0  0  0  0
  -19.5786  -26.6296   21.5317 C   0  0  0  0  0  0
  -18.1963  -26.7901   22.1708 C   0  0  0  0  0  0
  -19.1536  -28.8868   23.2891 C   0  0  0  0  0  0
  -18.9461  -30.1492   23.8860 C   0  0  0  0  0  0
  -17.6456  -30.6607   24.0526 C   0  0  0  0  0  0
  -25.9054  -34.9464   23.5126 C   0  0  0  0  0  0
  -16.5353  -29.9078   23.6319 C   0  0  0  0  0  0
  -16.7277  -28.6477   23.0362 C   0  0  0  0  0  0
  -26.4488  -31.6624   25.0746 C   0  0  0  0  0  0
  -25.3743  -31.3738   26.1489 C   0  0  0  0  0  0
  -27.0336  -30.3061   24.6186 C   0  0  0  0  0  0
  -27.6082  -32.4332   25.7503 C   0  0  0  0  0  0
  -27.5582  -37.1811   24.8474 C   0  0  0  0  0  0
  -21.4176  -29.3031   22.3681 N   0  0  0  0  0  0
  -26.4299  -37.3789   23.9413 N   0  0  0  0  0  0
  -24.6791  -31.0699   22.1013 N   0  0  0  0  0  0
  -23.4200  -28.8202   23.3035 O   0  0  0  0  0  0
  -28.4020  -26.6169   20.1264 O   0  0  0  0  0  0
  -26.5606  -34.8938   22.4683 O   0  0  0  0  0  0
  -23.5390  -32.1430   23.7437 O   0  0  0  0  0  0
  -29.8399  -18.2000   20.6426 C   0  0  0  0  0  0
  -29.6085  -18.0511   17.8395 C   0  0  0  0  0  0
  -29.8223  -16.9088   20.0109 C   0  0  0  0  0  0
  -29.7487  -19.4015   19.8599 C   0  0  0  0  0  0
  -29.6445  -16.8729   18.6000 C   0  0  0  0  0  0
  -29.6694  -19.3005   18.4615 C   0  0  0  0  0  0
  -28.7470  -24.1133   20.4501 C   0  0  0  0  0  0
  -28.7530  -21.4505   20.7964 C   0  0  0  0  0  0
  -26.6965  -22.6924   19.9504 C   0  0  0  0  0  0
  -28.4964  -25.3112   19.4774 C   0  0  0  0  0  0
  -28.2425  -22.7036   19.9947 C   0  0  1  0  0  0
  -29.4295  -15.6897   17.9065 N   0  0  0  0  0  0
  -29.8124  -20.7578   20.3254 N   0  0  0  0  0  0
  -29.8611  -15.6594   20.7532 N   0  0  0  0  0  0
  -29.3511  -24.2839   21.5142 O   0  0  0  0  0  0
  -28.1523  -21.0708   21.8070 O   0  0  0  0  0  0
  -29.6215  -20.4248   17.7036 F   0  0  0  0  0  0
  -31.4881  -12.4263   19.1920 H   0  0  0  0  0  0
  -30.3678  -11.3443   19.9704 H   0  0  0  0  0  0
  -29.7471  -11.5336   17.5979 H   0  0  0  0  0  0
  -29.7528  -13.2521   17.6435 H   0  0  0  0  0  0
  -27.8036  -11.2895   18.8591 H   0  0  0  0  0  0
  -27.4086  -12.5947   17.7785 H   0  0  0  0  0  0
  -27.6790  -14.2442   19.5300 H   0  0  0  0  0  0
  -28.6914  -12.0505   21.4013 H   0  0  0  0  0  0
  -28.4565  -13.7178   21.8398 H   0  0  0  0  0  0
  -25.2736   -9.5736   22.4815 H   0  0  0  0  0  0
  -24.0003   -7.4667   22.7520 H   0  0  0  0  0  0
  -21.0814   -8.8794   19.9000 H   0  0  0  0  0  0
  -22.3642  -10.9716   19.6239 H   0  0  0  0  0  0
  -21.1972   -7.6151   23.9690 H   0  0  0  0  0  0
  -21.1493   -6.0553   25.9074 H   0  0  0  0  0  0
  -22.0571   -2.7605   23.2873 H   0  0  0  0  0  0
  -22.4052  -11.9949   22.4783 H   0  0  0  0  0  0
  -21.1113  -13.1373   22.2564 H   0  0  0  0  0  0
  -24.6424  -15.8229   20.4930 H   0  0  0  0  0  0
  -26.2656  -15.6375   20.0596 H   0  0  0  0  0  0
  -26.7162  -32.5472   23.1133 H   0  0  0  0  0  0
  -25.0111  -33.9779   25.0480 H   0  0  0  0  0  0
  -22.7051  -31.3101   21.4155 H   0  0  0  0  0  0
  -23.3748  -35.9633   23.3318 H   0  0  0  0  0  0
  -24.3580  -36.8897   22.2053 H   0  0  0  0  0  0
  -23.7223  -37.6514   23.6635 H   0  0  0  0  0  0
  -26.0886  -31.5779   20.6133 H   0  0  0  0  0  0
  -26.8294  -30.8417   22.0069 H   0  0  0  0  0  0
  -28.1055  -29.0324   21.1626 H   0  0  0  0  0  0
  -25.9415  -25.9406   19.0316 H   0  0  0  0  0  0
  -23.9588  -27.3046   19.0363 H   0  0  0  0  0  0
  -23.7386  -30.6144   19.4112 H   0  0  0  0  0  0
  -22.7393  -29.2681   19.8583 H   0  0  0  0  0  0
  -25.1273  -36.1980   25.0820 H   0  0  0  0  0  0
  -20.9987  -28.3339   24.1436 H   0  0  0  0  0  0
  -20.5673  -26.2298   23.3733 H   0  0  0  0  0  0
  -21.6692  -26.7403   22.1361 H   0  0  0  0  0  0
  -19.6931  -25.6146   21.1492 H   0  0  0  0  0  0
  -19.6784  -27.3008   20.6775 H   0  0  0  0  0  0
  -17.4217  -26.6566   21.4139 H   0  0  0  0  0  0
  -18.0361  -26.0108   22.9177 H   0  0  0  0  0  0
  -19.7934  -30.7364   24.2174 H   0  0  0  0  0  0
  -17.5018  -31.6312   24.5068 H   0  0  0  0  0  0
  -15.5355  -30.2980   23.7642 H   0  0  0  0  0  0
  -15.8704  -28.0767   22.7099 H   0  0  0  0  0  0
  -24.5901  -30.7096   25.7821 H   0  0  0  0  0  0
  -24.8944  -32.2896   26.4958 H   0  0  0  0  0  0
  -25.8081  -30.8884   27.0244 H   0  0  0  0  0  0
  -26.2906  -29.6805   24.1224 H   0  0  0  0  0  0
  -27.4077  -29.7316   25.4677 H   0  0  0  0  0  0
  -27.8752  -30.4382   23.9382 H   0  0  0  0  0  0
  -27.2727  -33.3614   26.2144 H   0  0  0  0  0  0
  -28.3863  -32.6921   25.0304 H   0  0  0  0  0  0
  -28.0800  -31.8414   26.5364 H   0  0  0  0  0  0
  -28.2621  -38.0089   24.7494 H   0  0  0  0  0  0
  -28.1050  -36.2615   24.6315 H   0  0  0  0  0  0
  -27.2309  -37.1491   25.8884 H   0  0  0  0  0  0
  -20.9351  -29.8727   21.6859 H   0  0  0  0  0  0
  -26.0191  -38.2870   24.1381 H   0  0  0  0  0  0
  -29.9295  -18.2698   21.7175 H   0  0  0  0  0  0
  -29.5048  -18.0059   16.7656 H   0  0  0  0  0  0
  -26.3098  -23.3138   19.1421 H   0  0  0  0  0  0
  -26.2668  -23.0628   20.8829 H   0  0  0  0  0  0
  -26.3017  -21.6861   19.7938 H   0  0  0  0  0  0
  -27.6753  -25.0815   18.8032 H   0  0  0  0  0  0
  -29.3687  -25.3551   18.8263 H   0  0  0  0  0  0
  -28.5888  -22.5698   18.9700 H   0  0  0  0  0  0
  -29.0659  -15.7611   16.9624 H   0  0  0  0  0  0
  -29.0323  -14.9115   18.4138 H   0  0  0  0  0  0
  -30.3229  -21.3214   19.6573 H   0  0  0  0  0  0
  -28.9914  -15.4139   21.1995 H   0  0  0  0  0  0
  1 25  1  0  0  0
  1 30  2  0  0  0
  1 84  1  0  0  0
  2  3  1  0  0  0
  2 25  1  0  0  0
  2 88  1  0  0  0
  2 89  1  0  0  0
  3  4  1  0  0  0
  3 90  1  0  0  0
  3 91  1  0  0  0
  4  5  1  0  0  0
  4 92  1  0  0  0
  4 93  1  0  0  0
  5  6  1  0  0  0
  5 26  1  0  0  0
  5 94  1  0  0  0
  6 25  1  0  0  0
  6 95  1  0  0  0
  6 96  1  0  0  0
  7  8  2  0  0  0
  7 26  1  0  0  0
  7 29  1  0  0  0
  8  9  1  0  0  0
  8 22  1  0  0  0
  9 10  1  0  0  0
  9 27  2  0  0  0
 10 11  2  0  0  0
 10 15  1  0  0  0
 11 12  1  0  0  0
 11 97  1  0  0  0
 12 13  2  0  0  0
 12 98  1  0  0  0
 13 14  1  0  0  0
 13 31  1  0  0  0
 14 15  2  0  0  0
 14 99  1  0  0  0
 15100  1  0  0  0
 16 17  2  0  0  0
 16 21  1  0  0  0
 16 31  1  0  0  0
 17 18  1  0  0  0
 17101  1  0  0  0
 18 19  2  0  0  0
 18102  1  0  0  0
 19 20  1  0  0  0
 19 24  1  0  0  0
 20 21  2  0  0  0
 20103  1  0  0  0
 21 23  1  0  0  0
 22 28  1  0  0  0
 22 32  2  0  0  0
 26 27  1  0  0  0
 28104  1  0  0  0
 28105  1  0  0  0
 29106  1  0  0  0
 29107  1  0  0  0
 33 34  1  0  0  0
 33 66  1  0  0  0
 33 70  2  0  0  0
 34 36  1  0  0  0
 34 59  1  0  0  0
 34108  1  0  0  0
 35 44  2  0  0  0
 35 45  1  0  0  0
 35 68  1  0  0  0
 36 56  1  0  0  0
 36109  1  0  0  0
 37 39  1  0  0  0
 37 47  1  0  0  0
 37 66  1  0  0  0
 37110  1  0  0  0
 38 43  2  0  0  0
 38 46  1  0  0  0
 38 47  1  0  0  0
 39 64  1  0  0  0
 39 67  2  0  0  0
 40 52  1  0  0  0
 40 53  2  0  0  0
 40 58  1  0  0  0
 41111  1  0  0  0
 41112  1  0  0  0
 41113  1  0  0  0
 41 48  1  0  0  0
 42 43  1  0  0  0
 42 66  1  0  0  0
 42114  1  0  0  0
 42115  1  0  0  0
 43 44  1  0  0  0
 44116  1  0  0  0
 45 46  2  0  0  0
 45117  1  0  0  0
 46118  1  0  0  0
 47119  1  0  0  0
 47120  1  0  0  0
 48 56  1  0  0  0
 48 65  1  0  0  0
 48121  1  0  0  0
 49 50  1  0  0  0
 49 53  1  0  0  0
 49 64  1  0  0  0
 49122  1  0  0  0
 50 51  1  0  0  0
 50123  1  0  0  0
 50124  1  0  0  0
 51 52  1  0  0  0
 51125  1  0  0  0
 51126  1  0  0  0
 52127  1  0  0  0
 52128  1  0  0  0
 53 54  1  0  0  0
 54 55  2  0  0  0
 54129  1  0  0  0
 55 57  1  0  0  0
 55130  1  0  0  0
 56 69  2  0  0  0
 57 58  2  0  0  0
 57131  1  0  0  0
 58132  1  0  0  0
 59 60  1  0  0  0
 59 61  1  0  0  0
 59 62  1  0  0  0
 60133  1  0  0  0
 60134  1  0  0  0
 60135  1  0  0  0
 61136  1  0  0  0
 61137  1  0  0  0
 61138  1  0  0  0
 62139  1  0  0  0
 62140  1  0  0  0
 62141  1  0  0  0
 63 65  1  0  0  0
 63142  1  0  0  0
 63143  1  0  0  0
 63144  1  0  0  0
 64145  1  0  0  0
 65146  1  0  0  0
 68 80  1  0  0  0
 71 73  2  0  0  0
 71 74  1  0  0  0
 71147  1  0  0  0
 72 75  2  0  0  0
 72 76  1  0  0  0
 72148  1  0  0  0
 73 75  1  0  0  0
 73 84  1  0  0  0
 74 76  2  0  0  0
 74 83  1  0  0  0
 75 82  1  0  0  0
 76 87  1  0  0  0
 77 80  1  0  0  0
 77 81  1  0  0  0
 77 85  2  0  0  0
 78 81  1  0  0  0
 78 83  1  0  0  0
 78 86  2  0  0  0
 79149  1  0  0  0
 79150  1  0  0  0
 79151  1  0  0  0
 79 81  1  0  0  0
 80152  1  0  0  0
 80153  1  0  0  0
 81154  1  0  0  0
 82155  1  0  0  0
 82156  1  0  0  0
 83157  1  0  0  0
 84158  1  0  0  0
M  ISO  4   1 100  68 101  80 101  84 100
M  END
> <chiral flag>
0

> <version>
0

> <s_m_source_file>
/data/baiqing/PycharmProjects/Reinvent-master-3.2/result/LINK_invent/BTK/process_docking_weight1_custom_product_contain_oxygen_bond_distance_aromatic_linkinvent_7_9_3/rearranged_h_0174.sdf

> <i_m_source_file_index>
10

> <r_mmod_Potential_Energy-OPLS-2005>
-29.2549686431885

> <r_mmod_Stretch_Energy-OPLS-2005>
59.9355812072754

> <r_mmod_Bend_Energy-OPLS-2005>
140.158187866211

> <r_mmod_Torsional_Energy-OPLS-2005>
317.703094482422

> <r_mmod_Improper_Torsional_Energy-OPLS-2005>
15.030198097229

> <r_mmod_Van_der_Waal_Energy-OPLS-2005>
152.481903076172

> <r_mmod_Electrostatic_Energy-OPLS-2005>
-480.909118652344

> <r_mmod_Solvation_Energy-OPLS-2005>
-267.666931152344

> <b_mmod_Minimization_Converged-OPLS-2005>
0

> <r_mmod_RMS_Derivative-OPLS-2005>
3.45869159698486

$$$$
10
                    3D
 Structure written by MMmdl.
154162  0  0  1  0            999 V2000
  -30.6833  -14.6154   20.5398 C   0  0  0  0  0  0
  -30.4268  -12.4028   19.4346 C   0  0  0  0  0  0
  -29.4927  -12.4919   18.2115 C   0  0  0  0  0  0
  -28.0203  -12.3357   18.6395 C   0  0  0  0  0  0
  -27.6459  -13.2238   19.8575 C   0  0  2  0  0  0
  -28.6945  -13.1004   20.9833 C   0  0  0  0  0  0
  -25.2519  -13.8198   20.5703 C   0  0  0  0  0  0
  -24.1798  -13.0451   20.9214 C   0  0  0  0  0  0
  -24.6382  -11.6927   20.8791 C   0  0  0  0  0  0
  -23.9065  -10.4302   21.0444 C   0  0  0  0  0  0
  -24.3609   -9.4214   21.9223 C   0  0  0  0  0  0
  -23.6295   -8.2249   22.0768 C   0  0  0  0  0  0
  -22.4294   -8.0282   21.3537 C   0  0  0  0  0  0
  -21.9923   -9.0263   20.4646 C   0  0  0  0  0  0
  -22.7245  -10.2148   20.3076 C   0  0  0  0  0  0
  -21.6849   -6.0741   22.5279 C   0  0  0  0  0  0
  -21.4014   -6.5635   23.8217 C   0  0  0  0  0  0
  -21.3656   -5.6782   24.9178 C   0  0  0  0  0  0
  -21.6033   -4.3045   24.7210 C   0  0  0  0  0  0
  -21.8823   -3.8140   23.4335 C   0  0  0  0  0  0
  -21.9198   -4.6969   22.3400 C   0  0  0  0  0  0
  -22.7816  -13.5249   21.1847 C   0  0  0  0  0  0
  -22.1670   -4.2154   21.0971 F   0  0  0  0  0  0
  -21.5626   -3.4528   25.7731 F   0  0  0  0  0  0
  -29.9993  -13.4384   20.3986 N   0  0  0  0  0  0
  -26.2945  -12.9395   20.3323 N   0  0  0  0  0  0
  -25.9304  -11.6544   20.5787 N   0  0  0  0  0  0
  -22.0421  -12.8272   22.0387 N   0  0  0  0  0  0
  -25.4204  -15.1920   20.4109 N   0  0  0  0  0  0
  -31.8380  -14.7222   20.1116 O   0  0  0  0  0  0
  -21.6633   -6.8889   21.4252 O   0  0  0  0  0  0
  -22.3531  -14.5548   20.6666 O   0  0  0  0  0  0
  -24.6292  -31.8574   23.2044 C   0  0  0  0  0  0
  -25.9130  -32.4764   23.8390 C   0  0  1  0  0  0
  -27.2218  -27.2968   20.1126 C   0  0  0  0  0  0
  -25.5943  -33.8569   24.2296 N   0  0  0  0  0  0
  -23.4244  -30.4819   21.5423 C   0  0  2  0  0  0
  -24.8684  -28.9336   20.1071 C   0  0  0  0  0  0
  -22.7478  -29.4625   22.4908 C   0  0  0  0  0  0
  -18.0315  -28.1390   22.8525 C   0  0  0  0  0  0
  -24.1489  -36.7279   23.2637 C   0  0  0  0  0  0
  -25.9675  -30.7734   21.3816 C   0  0  0  0  0  0
  -26.0364  -29.4039   20.7179 C   0  0  0  0  0  0
  -27.2122  -28.5971   20.7120 C   0  0  0  0  0  0
  -26.0254  -26.8751   19.4895 C   0  0  0  0  0  0
  -24.8662  -27.6767   19.4837 C   0  0  0  0  0  0
  -23.6407  -29.8209   20.1561 C   0  0  0  0  0  0
  -25.4114  -36.3065   24.0325 C   0  0  1  0  0  0
  -20.5911  -28.3731   23.1287 C   0  0  2  0  0  0
  -20.6780  -26.9426   22.5476 C   0  0  0  0  0  0
  -19.5725  -26.6303   21.5347 C   0  0  0  0  0  0
  -18.1935  -26.7880   22.1757 C   0  0  0  0  0  0
  -19.1560  -28.8885   23.2893 C   0  0  0  0  0  0
  -18.9448  -30.1498   23.8890 C   0  0  0  0  0  0
  -17.6450  -30.6581   24.0605 C   0  0  0  0  0  0
  -25.9056  -34.9445   23.5106 C   0  0  0  0  0  0
  -16.5362  -29.9069   23.6358 C   0  0  0  0  0  0
  -16.7297  -28.6503   23.0384 C   0  0  0  0  0  0
  -26.4505  -31.6604   25.0788 C   0  0  0  0  0  0
  -25.3760  -31.3735   26.1529 C   0  0  0  0  0  0
  -27.0383  -30.3037   24.6277 C   0  0  0  0  0  0
  -27.6050  -32.4376   25.7546 C   0  0  0  0  0  0
  -27.5573  -37.1789   24.8469 C   0  0  0  0  0  0
  -21.4193  -29.3056   22.3625 N   0  0  0  0  0  0
  -26.4293  -37.3758   23.9402 N   0  0  0  0  0  0
  -24.6922  -31.0568   22.0986 N   0  0  0  0  0  0
  -23.4169  -28.8147   23.2991 O   0  0  0  0  0  0
  -28.3599  -26.4732   20.1849 O   0  0  0  0  0  0
  -26.5598  -34.8908   22.4654 O   0  0  0  0  0  0
  -23.5451  -32.1368   23.7346 O   0  0  0  0  0  0
  -31.7705  -16.6317   23.9972 C   0  0  0  0  0  0
  -30.5556  -18.0935   21.9404 C   0  0  0  0  0  0
  -31.9235  -18.0131   23.9980 C   0  0  0  0  0  0
  -31.3292  -18.7386   22.9580 C   0  0  0  0  0  0
  -30.5750  -16.6317   21.9653 C   0  0  0  0  0  0
  -29.0170  -21.2448   20.1172 C   0  0  0  0  0  0
  -29.3178  -20.1981   21.2843 C   0  0  0  0  0  0
  -28.5574  -23.8877   20.5558 C   0  0  0  0  0  0
  -29.5642  -22.7198   20.2266 C   0  0  0  0  0  0
  -28.4439  -25.1212   19.5712 C   0  0  0  0  0  0
  -31.1329  -15.9769   23.0143 N   0  0  0  0  0  0
  -29.8977  -18.9822   20.9679 N   0  0  0  0  0  0
  -30.0181  -15.7334   20.9811 N   0  0  0  0  0  0
  -28.4108  -20.8886   19.1010 O   0  0  0  0  0  0
  -28.9746  -20.4731   22.4384 O   0  0  0  0  0  0
  -27.8951  -23.8641   21.5990 O   0  0  0  0  0  0
  -32.6305  -18.6309   24.9749 F   0  0  0  0  0  0
  -31.5605  -20.0776   22.9332 F   0  0  0  0  0  0
  -31.4621  -12.5257   19.1089 H   0  0  0  0  0  0
  -30.3799  -11.4146   19.8929 H   0  0  0  0  0  0
  -29.7499  -11.7202   17.4821 H   0  0  0  0  0  0
  -29.6370  -13.4465   17.7060 H   0  0  0  0  0  0
  -27.8715  -11.2868   18.8968 H   0  0  0  0  0  0
  -27.3532  -12.5396   17.8026 H   0  0  0  0  0  0
  -27.6602  -14.2552   19.5067 H   0  0  0  0  0  0
  -28.7081  -12.0849   21.3788 H   0  0  0  0  0  0
  -28.4465  -13.7489   21.8258 H   0  0  0  0  0  0
  -25.2764   -9.5681   22.4803 H   0  0  0  0  0  0
  -23.9993   -7.4631   22.7488 H   0  0  0  0  0  0
  -21.0860   -8.8777   19.8946 H   0  0  0  0  0  0
  -22.3724  -10.9684   19.6169 H   0  0  0  0  0  0
  -21.2004   -7.6149   23.9720 H   0  0  0  0  0  0
  -21.1474   -6.0510   25.9073 H   0  0  0  0  0  0
  -22.0611   -2.7611   23.2828 H   0  0  0  0  0  0
  -22.4016  -11.9952   22.4832 H   0  0  0  0  0  0
  -21.1003  -13.1295   22.2494 H   0  0  0  0  0  0
  -24.6458  -15.8383   20.5094 H   0  0  0  0  0  0
  -26.2534  -15.6309   20.0406 H   0  0  0  0  0  0
  -26.7189  -32.5400   23.1123 H   0  0  0  0  0  0
  -25.0210  -33.9734   25.0523 H   0  0  0  0  0  0
  -22.7208  -31.3040   21.4008 H   0  0  0  0  0  0
  -23.3757  -35.9611   23.3314 H   0  0  0  0  0  0
  -24.3577  -36.8887   22.2055 H   0  0  0  0  0  0
  -23.7269  -37.6486   23.6666 H   0  0  0  0  0  0
  -26.1228  -31.5361   20.6212 H   0  0  0  0  0  0
  -26.8384  -30.8059   22.0252 H   0  0  0  0  0  0
  -28.1087  -28.9504   21.2010 H   0  0  0  0  0  0
  -25.9351  -25.9084   19.0221 H   0  0  0  0  0  0
  -23.9699  -27.3106   19.0014 H   0  0  0  0  0  0
  -23.7761  -30.6005   19.4049 H   0  0  0  0  0  0
  -22.7569  -29.2593   19.8499 H   0  0  0  0  0  0
  -25.1308  -36.1910   25.0824 H   0  0  0  0  0  0
  -21.0026  -28.3313   24.1399 H   0  0  0  0  0  0
  -20.5692  -26.2372   23.3739 H   0  0  0  0  0  0
  -21.6667  -26.7378   22.1316 H   0  0  0  0  0  0
  -19.6862  -25.6173   21.1491 H   0  0  0  0  0  0
  -19.6589  -27.2984   20.6784 H   0  0  0  0  0  0
  -17.4154  -26.6485   21.4228 H   0  0  0  0  0  0
  -18.0408  -26.0124   22.9281 H   0  0  0  0  0  0
  -19.7892  -30.7376   24.2235 H   0  0  0  0  0  0
  -17.5005  -31.6227   24.5279 H   0  0  0  0  0  0
  -15.5365  -30.2959   23.7709 H   0  0  0  0  0  0
  -15.8703  -28.0820   22.7106 H   0  0  0  0  0  0
  -24.5881  -30.7125   25.7868 H   0  0  0  0  0  0
  -24.9015  -32.2912   26.5035 H   0  0  0  0  0  0
  -25.8096  -30.8852   27.0273 H   0  0  0  0  0  0
  -26.2988  -29.6727   24.1325 H   0  0  0  0  0  0
  -27.4121  -29.7332   25.4795 H   0  0  0  0  0  0
  -27.8840  -30.4344   23.9519 H   0  0  0  0  0  0
  -27.2628  -33.3652   26.2154 H   0  0  0  0  0  0
  -28.3833  -32.6979   25.0357 H   0  0  0  0  0  0
  -28.0761  -31.8517   26.5445 H   0  0  0  0  0  0
  -28.2593  -38.0077   24.7492 H   0  0  0  0  0  0
  -28.1060  -36.2609   24.6325 H   0  0  0  0  0  0
  -27.2290  -37.1481   25.8868 H   0  0  0  0  0  0
  -20.9392  -29.8693   21.6769 H   0  0  0  0  0  0
  -26.0164  -38.2831   24.1374 H   0  0  0  0  0  0
  -32.2034  -16.0269   24.7792 H   0  0  0  0  0  0
  -30.0423  -22.9557   19.2779 H   0  0  0  0  0  0
  -30.3583  -22.7367   20.9751 H   0  0  0  0  0  0
  -29.3473  -25.1138   18.9607 H   0  0  0  0  0  0
  -27.6368  -24.9226   18.8697 H   0  0  0  0  0  0
  -29.9647  -18.7473   19.9862 H   0  0  0  0  0  0
  -29.0132  -15.6669   20.9984 H   0  0  0  0  0  0
  1 25  1  0  0  0
  1 30  2  0  0  0
  1 83  1  0  0  0
  2  3  1  0  0  0
  2 25  1  0  0  0
  2 89  1  0  0  0
  2 90  1  0  0  0
  3  4  1  0  0  0
  3 91  1  0  0  0
  3 92  1  0  0  0
  4  5  1  0  0  0
  4 93  1  0  0  0
  4 94  1  0  0  0
  5  6  1  0  0  0
  5 26  1  0  0  0
  5 95  1  0  0  0
  6 25  1  0  0  0
  6 96  1  0  0  0
  6 97  1  0  0  0
  7  8  2  0  0  0
  7 26  1  0  0  0
  7 29  1  0  0  0
  8  9  1  0  0  0
  8 22  1  0  0  0
  9 10  1  0  0  0
  9 27  2  0  0  0
 10 11  2  0  0  0
 10 15  1  0  0  0
 11 12  1  0  0  0
 11 98  1  0  0  0
 12 13  2  0  0  0
 12 99  1  0  0  0
 13 14  1  0  0  0
 13 31  1  0  0  0
 14 15  2  0  0  0
 14100  1  0  0  0
 15101  1  0  0  0
 16 17  2  0  0  0
 16 21  1  0  0  0
 16 31  1  0  0  0
 17 18  1  0  0  0
 17102  1  0  0  0
 18 19  2  0  0  0
 18103  1  0  0  0
 19 20  1  0  0  0
 19 24  1  0  0  0
 20 21  2  0  0  0
 20104  1  0  0  0
 21 23  1  0  0  0
 22 28  1  0  0  0
 22 32  2  0  0  0
 26 27  1  0  0  0
 28105  1  0  0  0
 28106  1  0  0  0
 29107  1  0  0  0
 29108  1  0  0  0
 33 34  1  0  0  0
 33 66  1  0  0  0
 33 70  2  0  0  0
 34 36  1  0  0  0
 34 59  1  0  0  0
 34109  1  0  0  0
 35 44  2  0  0  0
 35 45  1  0  0  0
 35 68  1  0  0  0
 36 56  1  0  0  0
 36110  1  0  0  0
 37 39  1  0  0  0
 37 47  1  0  0  0
 37 66  1  0  0  0
 37111  1  0  0  0
 38 43  2  0  0  0
 38 46  1  0  0  0
 38 47  1  0  0  0
 39 64  1  0  0  0
 39 67  2  0  0  0
 40 52  1  0  0  0
 40 53  2  0  0  0
 40 58  1  0  0  0
 41112  1  0  0  0
 41113  1  0  0  0
 41114  1  0  0  0
 41 48  1  0  0  0
 42 43  1  0  0  0
 42 66  1  0  0  0
 42115  1  0  0  0
 42116  1  0  0  0
 43 44  1  0  0  0
 44117  1  0  0  0
 45 46  2  0  0  0
 45118  1  0  0  0
 46119  1  0  0  0
 47120  1  0  0  0
 47121  1  0  0  0
 48 56  1  0  0  0
 48 65  1  0  0  0
 48122  1  0  0  0
 49 50  1  0  0  0
 49 53  1  0  0  0
 49 64  1  0  0  0
 49123  1  0  0  0
 50 51  1  0  0  0
 50124  1  0  0  0
 50125  1  0  0  0
 51 52  1  0  0  0
 51126  1  0  0  0
 51127  1  0  0  0
 52128  1  0  0  0
 52129  1  0  0  0
 53 54  1  0  0  0
 54 55  2  0  0  0
 54130  1  0  0  0
 55 57  1  0  0  0
 55131  1  0  0  0
 56 69  2  0  0  0
 57 58  2  0  0  0
 57132  1  0  0  0
 58133  1  0  0  0
 59 60  1  0  0  0
 59 61  1  0  0  0
 59 62  1  0  0  0
 60134  1  0  0  0
 60135  1  0  0  0
 60136  1  0  0  0
 61137  1  0  0  0
 61138  1  0  0  0
 61139  1  0  0  0
 62140  1  0  0  0
 62141  1  0  0  0
 62142  1  0  0  0
 63 65  1  0  0  0
 63143  1  0  0  0
 63144  1  0  0  0
 63145  1  0  0  0
 64146  1  0  0  0
 65147  1  0  0  0
 68 80  1  0  0  0
 71 73  2  0  0  0
 71 81  1  0  0  0
 71148  1  0  0  0
 72 74  2  0  0  0
 72 75  1  0  0  0
 72 82  1  0  0  0
 73 74  1  0  0  0
 73 87  1  0  0  0
 74 88  1  0  0  0
 75 81  2  0  0  0
 75 83  1  0  0  0
 76 77  1  0  0  0
 76 79  1  0  0  0
 76 84  2  0  0  0
 77 82  1  0  0  0
 77 85  2  0  0  0
 78 79  1  0  0  0
 78 80  1  0  0  0
 78 86  2  0  0  0
 79149  1  0  0  0
 79150  1  0  0  0
 80151  1  0  0  0
 80152  1  0  0  0
 82153  1  0  0  0
 83154  1  0  0  0
M  ISO  4   1 100  68 101  80 101  83 100
M  END
> <chiral flag>
0

> <version>
0

> <s_m_source_file>
/data/baiqing/PycharmProjects/Reinvent-master-3.2/result/LINK_invent/BTK/process_docking_weight1_custom_product_contain_oxygen_bond_distance_aromatic_linkinvent_7_9_3/rearranged_h_0174.sdf

> <i_m_source_file_index>
11

> <r_mmod_Potential_Energy-OPLS-2005>
-72.2881164550781

> <r_mmod_Stretch_Energy-OPLS-2005>
92.4491348266602

> <r_mmod_Bend_Energy-OPLS-2005>
171.444931030273

> <r_mmod_Torsional_Energy-OPLS-2005>
275.332000732422

> <r_mmod_Improper_Torsional_Energy-OPLS-2005>
7.31064510345459

> <r_mmod_Van_der_Waal_Energy-OPLS-2005>
155.788269042969

> <r_mmod_Electrostatic_Energy-OPLS-2005>
-550.990234375

> <r_mmod_Solvation_Energy-OPLS-2005>
-273.139892578125

> <b_mmod_Minimization_Converged-OPLS-2005>
0

> <r_mmod_RMS_Derivative-OPLS-2005>
4.9376540184021

$$$$
11
                    3D
 Structure written by MMmdl.
158166  0  0  1  0            999 V2000
  -30.7578  -14.4041   20.6502 C   0  0  0  0  0  0
  -30.4169  -12.3000   19.4057 C   0  0  0  0  0  0
  -29.4861  -12.5148   18.1971 C   0  0  0  0  0  0
  -28.0105  -12.3721   18.6149 C   0  0  0  0  0  0
  -27.6638  -13.2052   19.8776 C   0  0  2  0  0  0
  -28.7046  -12.9713   20.9957 C   0  0  0  0  0  0
  -25.2602  -13.8167   20.5678 C   0  0  0  0  0  0
  -24.1847  -13.0445   20.9167 C   0  0  0  0  0  0
  -24.6396  -11.6907   20.8735 C   0  0  0  0  0  0
  -23.9061  -10.4295   21.0406 C   0  0  0  0  0  0
  -24.3613   -9.4209   21.9184 C   0  0  0  0  0  0
  -23.6289   -8.2246   22.0755 C   0  0  0  0  0  0
  -22.4273   -8.0284   21.3544 C   0  0  0  0  0  0
  -21.9907   -9.0258   20.4645 C   0  0  0  0  0  0
  -22.7235  -10.2136   20.3055 C   0  0  0  0  0  0
  -21.6854   -6.0735   22.5279 C   0  0  0  0  0  0
  -21.4012   -6.5640   23.8212 C   0  0  0  0  0  0
  -21.3658   -5.6793   24.9175 C   0  0  0  0  0  0
  -21.6045   -4.3056   24.7227 C   0  0  0  0  0  0
  -21.8822   -3.8146   23.4349 C   0  0  0  0  0  0
  -21.9192   -4.6961   22.3403 C   0  0  0  0  0  0
  -22.7870  -13.5243   21.1834 C   0  0  0  0  0  0
  -22.1664   -4.2145   21.0982 F   0  0  0  0  0  0
  -21.5627   -3.4542   25.7740 F   0  0  0  0  0  0
  -30.0398  -13.2680   20.4466 N   0  0  0  0  0  0
  -26.3037  -12.9330   20.3383 N   0  0  0  0  0  0
  -25.9320  -11.6487   20.5765 N   0  0  0  0  0  0
  -22.0511  -12.8234   22.0392 N   0  0  0  0  0  0
  -25.4358  -15.1881   20.4097 N   0  0  0  0  0  0
  -31.8320  -14.6259   20.0831 O   0  0  0  0  0  0
  -21.6642   -6.8877   21.4240 O   0  0  0  0  0  0
  -22.3558  -14.5553   20.6690 O   0  0  0  0  0  0
  -24.6134  -31.8691   23.2101 C   0  0  0  0  0  0
  -25.9032  -32.4830   23.8392 C   0  0  1  0  0  0
  -27.2376  -27.4407   20.0873 C   0  0  0  0  0  0
  -25.5893  -33.8627   24.2333 N   0  0  0  0  0  0
  -23.3994  -30.4926   21.5520 C   0  0  2  0  0  0
  -24.8432  -28.9556   20.1190 C   0  0  0  0  0  0
  -22.7396  -29.4666   22.5006 C   0  0  0  0  0  0
  -18.0264  -28.1381   22.8493 C   0  0  0  0  0  0
  -24.1486  -36.7323   23.2635 C   0  0  0  0  0  0
  -25.9265  -30.8357   21.3603 C   0  0  0  0  0  0
  -26.0021  -29.4687   20.7118 C   0  0  0  0  0  0
  -27.1976  -28.7173   20.6934 C   0  0  0  0  0  0
  -26.0525  -26.9337   19.5023 C   0  0  0  0  0  0
  -24.8627  -27.6868   19.5159 C   0  0  0  0  0  0
  -23.6060  -29.8228   20.1672 C   0  0  0  0  0  0
  -25.4106  -36.3118   24.0336 C   0  0  1  0  0  0
  -20.5853  -28.3666   23.1334 C   0  0  2  0  0  0
  -20.6755  -26.9407   22.5423 C   0  0  0  0  0  0
  -19.5735  -26.6388   21.5216 C   0  0  0  0  0  0
  -18.1914  -26.7930   22.1622 C   0  0  0  0  0  0
  -19.1514  -28.8837   23.2910 C   0  0  0  0  0  0
  -18.9445  -30.1441   23.8923 C   0  0  0  0  0  0
  -17.6451  -30.6592   24.0567 C   0  0  0  0  0  0
  -25.9028  -34.9482   23.5134 C   0  0  0  0  0  0
  -16.5340  -29.9101   23.6319 C   0  0  0  0  0  0
  -16.7253  -28.6513   23.0349 C   0  0  0  0  0  0
  -26.4465  -31.6601   25.0714 C   0  0  0  0  0  0
  -25.3734  -31.3698   26.1464 C   0  0  0  0  0  0
  -27.0290  -30.3048   24.6067 C   0  0  0  0  0  0
  -27.6046  -32.4311   25.7479 C   0  0  0  0  0  0
  -27.5586  -37.1816   24.8464 C   0  0  0  0  0  0
  -21.4126  -29.3041   22.3751 N   0  0  0  0  0  0
  -26.4298  -37.3795   23.9404 N   0  0  0  0  0  0
  -24.6650  -31.0803   22.0996 N   0  0  0  0  0  0
  -23.4184  -28.8203   23.3035 O   0  0  0  0  0  0
  -28.4473  -26.7734   20.0804 O   0  0  0  0  0  0
  -26.5592  -34.8931   22.4694 O   0  0  0  0  0  0
  -23.5331  -32.1446   23.7510 O   0  0  0  0  0  0
  -32.6895  -17.5546   23.1307 C   0  0  0  0  0  0
  -32.0924  -16.4067   22.5806 C   0  0  0  0  0  0
  -30.1518  -17.7317   21.9317 C   0  0  0  0  0  0
  -32.0349  -18.8050   23.0885 C   0  0  0  0  0  0
  -30.8203  -16.4857   21.9738 C   0  0  0  0  0  0
  -30.7596  -18.8978   22.4668 C   0  0  0  0  0  0
  -28.8798  -23.0431   20.7308 C   0  0  0  0  0  0
  -29.2154  -22.1812   21.7251 C   0  0  0  0  0  0
  -28.5232  -24.4674   20.9367 C   0  0  0  0  0  0
  -29.5761  -20.8015   21.3857 C   0  0  0  0  0  0
  -28.5323  -25.3887   19.7036 C   0  0  0  0  0  0
  -32.7225  -20.0339   23.6898 C   0  0  0  0  0  0
  -30.0895  -20.1540   22.4431 N   0  0  0  0  0  0
  -30.1925  -15.3166   21.4601 N   0  0  0  0  0  0
  -28.2482  -24.9310   22.0503 O   0  0  0  0  0  0
  -29.4409  -20.2771   20.2775 O   0  0  0  0  0  0
  -29.2459  -22.5618   23.0188 O   0  0  0  0  0  0
  -33.8460  -19.7169   24.3365 F   0  0  0  0  0  0
  -33.0339  -20.8962   22.7215 F   0  0  0  0  0  0
  -31.9124  -20.6431   24.5571 F   0  0  0  0  0  0
  -31.4607  -12.3956   19.0995 H   0  0  0  0  0  0
  -30.3164  -11.2843   19.7910 H   0  0  0  0  0  0
  -29.7212  -11.7978   17.4095 H   0  0  0  0  0  0
  -29.6550  -13.5053   17.7715 H   0  0  0  0  0  0
  -27.8210  -11.3151   18.8051 H   0  0  0  0  0  0
  -27.3569  -12.6538   17.7891 H   0  0  0  0  0  0
  -27.7149  -14.2558   19.5906 H   0  0  0  0  0  0
  -28.6756  -11.9329   21.3290 H   0  0  0  0  0  0
  -28.4579  -13.5623   21.8779 H   0  0  0  0  0  0
  -25.2759   -9.5686   22.4755 H   0  0  0  0  0  0
  -24.0001   -7.4639   22.7474 H   0  0  0  0  0  0
  -21.0838   -8.8775   19.8952 H   0  0  0  0  0  0
  -22.3696  -10.9674   19.6162 H   0  0  0  0  0  0
  -21.2007   -7.6149   23.9712 H   0  0  0  0  0  0
  -21.1476   -6.0527   25.9077 H   0  0  0  0  0  0
  -22.0601   -2.7608   23.2854 H   0  0  0  0  0  0
  -22.4123  -11.9887   22.4765 H   0  0  0  0  0  0
  -21.1132  -13.1263   22.2605 H   0  0  0  0  0  0
  -24.6752  -15.8495   20.5188 H   0  0  0  0  0  0
  -26.2959  -15.6221   20.0987 H   0  0  0  0  0  0
  -26.7100  -32.5542   23.1156 H   0  0  0  0  0  0
  -25.0049  -33.9783   25.0483 H   0  0  0  0  0  0
  -22.6874  -31.3090   21.4137 H   0  0  0  0  0  0
  -23.3748  -35.9659   23.3299 H   0  0  0  0  0  0
  -24.3579  -36.8929   22.2048 H   0  0  0  0  0  0
  -23.7248  -37.6530   23.6649 H   0  0  0  0  0  0
  -26.0329  -31.6000   20.5893 H   0  0  0  0  0  0
  -26.8167  -30.8933   21.9743 H   0  0  0  0  0  0
  -28.0953  -29.1151   21.1452 H   0  0  0  0  0  0
  -26.0120  -25.9705   19.0193 H   0  0  0  0  0  0
  -23.9688  -27.2848   19.0590 H   0  0  0  0  0  0
  -23.7140  -30.5970   19.4072 H   0  0  0  0  0  0
  -22.7301  -29.2417   19.8723 H   0  0  0  0  0  0
  -25.1287  -36.1979   25.0833 H   0  0  0  0  0  0
  -20.9928  -28.3226   24.1459 H   0  0  0  0  0  0
  -20.5659  -26.2271   23.3603 H   0  0  0  0  0  0
  -21.6633  -26.7459   22.1220 H   0  0  0  0  0  0
  -19.6899  -25.6301   21.1243 H   0  0  0  0  0  0
  -19.6683  -27.3198   20.6750 H   0  0  0  0  0  0
  -17.4185  -26.6672   21.4027 H   0  0  0  0  0  0
  -18.0310  -26.0077   22.9018 H   0  0  0  0  0  0
  -19.7924  -30.7236   24.2323 H   0  0  0  0  0  0
  -17.5015  -31.6279   24.5160 H   0  0  0  0  0  0
  -15.5343  -30.3018   23.7636 H   0  0  0  0  0  0
  -15.8647  -28.0843   22.7063 H   0  0  0  0  0  0
  -24.5930  -30.7015   25.7810 H   0  0  0  0  0  0
  -24.8896  -32.2840   26.4910 H   0  0  0  0  0  0
  -25.8094  -30.8887   27.0227 H   0  0  0  0  0  0
  -26.2825  -29.6816   24.1131 H   0  0  0  0  0  0
  -27.4077  -29.7276   25.4512 H   0  0  0  0  0  0
  -27.8650  -30.4373   23.9196 H   0  0  0  0  0  0
  -27.2684  -33.3607   26.2083 H   0  0  0  0  0  0
  -28.3852  -32.6868   25.0304 H   0  0  0  0  0  0
  -28.0720  -31.8412   26.5371 H   0  0  0  0  0  0
  -28.2610  -38.0111   24.7517 H   0  0  0  0  0  0
  -28.1079  -36.2641   24.6287 H   0  0  0  0  0  0
  -27.2304  -37.1466   25.8869 H   0  0  0  0  0  0
  -20.9277  -29.8776   21.6991 H   0  0  0  0  0  0
  -26.0190  -38.2877   24.1399 H   0  0  0  0  0  0
  -33.6623  -17.4666   23.5916 H   0  0  0  0  0  0
  -32.6196  -15.4645   22.6407 H   0  0  0  0  0  0
  -29.1710  -17.7966   21.4823 H   0  0  0  0  0  0
  -28.8763  -22.7019   19.7044 H   0  0  0  0  0  0
  -27.7833  -25.0705   18.9836 H   0  0  0  0  0  0
  -29.4916  -25.2509   19.2045 H   0  0  0  0  0  0
  -30.2004  -20.7563   23.2513 H   0  0  0  0  0  0
  -29.2390  -15.1406   21.7394 H   0  0  0  0  0  0
  -28.9504  -23.4676   23.0482 H   0  0  0  0  0  0
  1 25  1  0  0  0
  1 30  2  0  0  0
  1 84  1  0  0  0
  2  3  1  0  0  0
  2 25  1  0  0  0
  2 91  1  0  0  0
  2 92  1  0  0  0
  3  4  1  0  0  0
  3 93  1  0  0  0
  3 94  1  0  0  0
  4  5  1  0  0  0
  4 95  1  0  0  0
  4 96  1  0  0  0
  5  6  1  0  0  0
  5 26  1  0  0  0
  5 97  1  0  0  0
  6 25  1  0  0  0
  6 98  1  0  0  0
  6 99  1  0  0  0
  7  8  2  0  0  0
  7 26  1  0  0  0
  7 29  1  0  0  0
  8  9  1  0  0  0
  8 22  1  0  0  0
  9 10  1  0  0  0
  9 27  2  0  0  0
 10 11  2  0  0  0
 10 15  1  0  0  0
 11 12  1  0  0  0
 11100  1  0  0  0
 12 13  2  0  0  0
 12101  1  0  0  0
 13 14  1  0  0  0
 13 31  1  0  0  0
 14 15  2  0  0  0
 14102  1  0  0  0
 15103  1  0  0  0
 16 17  2  0  0  0
 16 21  1  0  0  0
 16 31  1  0  0  0
 17 18  1  0  0  0
 17104  1  0  0  0
 18 19  2  0  0  0
 18105  1  0  0  0
 19 20  1  0  0  0
 19 24  1  0  0  0
 20 21  2  0  0  0
 20106  1  0  0  0
 21 23  1  0  0  0
 22 28  1  0  0  0
 22 32  2  0  0  0
 26 27  1  0  0  0
 28107  1  0  0  0
 28108  1  0  0  0
 29109  1  0  0  0
 29110  1  0  0  0
 33 34  1  0  0  0
 33 66  1  0  0  0
 33 70  2  0  0  0
 34 36  1  0  0  0
 34 59  1  0  0  0
 34111  1  0  0  0
 35 44  2  0  0  0
 35 45  1  0  0  0
 35 68  1  0  0  0
 36 56  1  0  0  0
 36112  1  0  0  0
 37 39  1  0  0  0
 37 47  1  0  0  0
 37 66  1  0  0  0
 37113  1  0  0  0
 38 43  2  0  0  0
 38 46  1  0  0  0
 38 47  1  0  0  0
 39 64  1  0  0  0
 39 67  2  0  0  0
 40 52  1  0  0  0
 40 53  2  0  0  0
 40 58  1  0  0  0
 41114  1  0  0  0
 41115  1  0  0  0
 41116  1  0  0  0
 41 48  1  0  0  0
 42 43  1  0  0  0
 42 66  1  0  0  0
 42117  1  0  0  0
 42118  1  0  0  0
 43 44  1  0  0  0
 44119  1  0  0  0
 45 46  2  0  0  0
 45120  1  0  0  0
 46121  1  0  0  0
 47122  1  0  0  0
 47123  1  0  0  0
 48 56  1  0  0  0
 48 65  1  0  0  0
 48124  1  0  0  0
 49 50  1  0  0  0
 49 53  1  0  0  0
 49 64  1  0  0  0
 49125  1  0  0  0
 50 51  1  0  0  0
 50126  1  0  0  0
 50127  1  0  0  0
 51 52  1  0  0  0
 51128  1  0  0  0
 51129  1  0  0  0
 52130  1  0  0  0
 52131  1  0  0  0
 53 54  1  0  0  0
 54 55  2  0  0  0
 54132  1  0  0  0
 55 57  1  0  0  0
 55133  1  0  0  0
 56 69  2  0  0  0
 57 58  2  0  0  0
 57134  1  0  0  0
 58135  1  0  0  0
 59 60  1  0  0  0
 59 61  1  0  0  0
 59 62  1  0  0  0
 60136  1  0  0  0
 60137  1  0  0  0
 60138  1  0  0  0
 61139  1  0  0  0
 61140  1  0  0  0
 61141  1  0  0  0
 62142  1  0  0  0
 62143  1  0  0  0
 62144  1  0  0  0
 63 65  1  0  0  0
 63145  1  0  0  0
 63146  1  0  0  0
 63147  1  0  0  0
 64148  1  0  0  0
 65149  1  0  0  0
 68 81  1  0  0  0
 71 72  2  0  0  0
 71 74  1  0  0  0
 71150  1  0  0  0
 72 75  1  0  0  0
 72151  1  0  0  0
 73 75  2  0  0  0
 73 76  1  0  0  0
 73152  1  0  0  0
 74 76  2  0  0  0
 74 82  1  0  0  0
 75 84  1  0  0  0
 76 83  1  0  0  0
 77 78  2  0  0  0
 77 79  1  0  0  0
 77153  1  0  0  0
 78 80  1  0  0  0
 78 87  1  0  0  0
 79 81  1  0  0  0
 79 85  2  0  0  0
 80 83  1  0  0  0
 80 86  2  0  0  0
 81154  1  0  0  0
 81155  1  0  0  0
 82 88  1  0  0  0
 82 89  1  0  0  0
 82 90  1  0  0  0
 83156  1  0  0  0
 84157  1  0  0  0
 87158  1  0  0  0
M  ISO  4   1 100  68 101  81 101  84 100
M  END
> <chiral flag>
0

> <version>
0

> <s_m_source_file>
/data/baiqing/PycharmProjects/Reinvent-master-3.2/result/LINK_invent/BTK/process_docking_weight1_custom_product_contain_oxygen_bond_distance_aromatic_linkinvent_7_9_3/rearranged_h_0174.sdf

> <i_m_source_file_index>
12

> <r_mmod_Potential_Energy-OPLS-2005>
-59.8039054870605

> <r_mmod_Stretch_Energy-OPLS-2005>
38.4936904907227

> <r_mmod_Bend_Energy-OPLS-2005>
104.748039245605

> <r_mmod_Torsional_Energy-OPLS-2005>
228.067855834961

> <r_mmod_Improper_Torsional_Energy-OPLS-2005>
2.81427979469299

> <r_mmod_Van_der_Waal_Energy-OPLS-2005>
177.064102172852

> <r_mmod_Electrostatic_Energy-OPLS-2005>
-387.319396972656

> <r_mmod_Solvation_Energy-OPLS-2005>
-232.851867675781

> <b_mmod_Minimization_Converged-OPLS-2005>
0

> <r_mmod_RMS_Derivative-OPLS-2005>
1.07695889472961

$$$$
12
                    3D
 Structure written by MMmdl.
158166  0  0  1  0            999 V2000
  -30.7448  -14.4095   20.6426 C   0  0  0  0  0  0
  -30.4151  -12.2992   19.4046 C   0  0  0  0  0  0
  -29.4849  -12.5136   18.1957 C   0  0  0  0  0  0
  -28.0083  -12.3727   18.6120 C   0  0  0  0  0  0
  -27.6612  -13.2047   19.8756 C   0  0  2  0  0  0
  -28.7013  -12.9686   20.9926 C   0  0  0  0  0  0
  -25.2586  -13.8161   20.5675 C   0  0  0  0  0  0
  -24.1836  -13.0444   20.9175 C   0  0  0  0  0  0
  -24.6389  -11.6909   20.8736 C   0  0  0  0  0  0
  -23.9055  -10.4296   21.0404 C   0  0  0  0  0  0
  -24.3610   -9.4217   21.9183 C   0  0  0  0  0  0
  -23.6292   -8.2250   22.0755 C   0  0  0  0  0  0
  -22.4274   -8.0289   21.3546 C   0  0  0  0  0  0
  -21.9908   -9.0256   20.4644 C   0  0  0  0  0  0
  -22.7230  -10.2138   20.3055 C   0  0  0  0  0  0
  -21.6852   -6.0742   22.5284 C   0  0  0  0  0  0
  -21.4007   -6.5642   23.8218 C   0  0  0  0  0  0
  -21.3660   -5.6794   24.9179 C   0  0  0  0  0  0
  -21.6045   -4.3058   24.7224 C   0  0  0  0  0  0
  -21.8819   -3.8151   23.4344 C   0  0  0  0  0  0
  -21.9189   -4.6970   22.3404 C   0  0  0  0  0  0
  -22.7863  -13.5242   21.1847 C   0  0  0  0  0  0
  -22.1662   -4.2153   21.0983 F   0  0  0  0  0  0
  -21.5630   -3.4544   25.7740 F   0  0  0  0  0  0
  -30.0344  -13.2690   20.4418 N   0  0  0  0  0  0
  -26.3013  -12.9323   20.3361 N   0  0  0  0  0  0
  -25.9309  -11.6483   20.5757 N   0  0  0  0  0  0
  -22.0498  -12.8230   22.0396 N   0  0  0  0  0  0
  -25.4331  -15.1878   20.4071 N   0  0  0  0  0  0
  -31.8295  -14.6303   20.0950 O   0  0  0  0  0  0
  -21.6641   -6.8884   21.4245 O   0  0  0  0  0  0
  -22.3550  -14.5552   20.6709 O   0  0  0  0  0  0
  -24.6136  -31.8688   23.2106 C   0  0  0  0  0  0
  -25.9038  -32.4824   23.8394 C   0  0  1  0  0  0
  -27.2332  -27.4401   20.0914 C   0  0  0  0  0  0
  -25.5895  -33.8620   24.2323 N   0  0  0  0  0  0
  -23.4002  -30.4928   21.5514 C   0  0  2  0  0  0
  -24.8455  -28.9603   20.1143 C   0  0  0  0  0  0
  -22.7410  -29.4655   22.4995 C   0  0  0  0  0  0
  -18.0259  -28.1373   22.8482 C   0  0  0  0  0  0
  -24.1490  -36.7319   23.2640 C   0  0  0  0  0  0
  -25.9284  -30.8353   21.3633 C   0  0  0  0  0  0
  -26.0054  -29.4706   20.7102 C   0  0  0  0  0  0
  -27.1995  -28.7171   20.6964 C   0  0  0  0  0  0
  -26.0550  -26.9477   19.4813 C   0  0  0  0  0  0
  -24.8652  -27.6982   19.4983 C   0  0  0  0  0  0
  -23.6080  -29.8256   20.1654 C   0  0  0  0  0  0
  -25.4106  -36.3113   24.0336 C   0  0  1  0  0  0
  -20.5856  -28.3649   23.1325 C   0  0  2  0  0  0
  -20.6758  -26.9392   22.5426 C   0  0  0  0  0  0
  -19.5742  -26.6378   21.5215 C   0  0  0  0  0  0
  -18.1905  -26.7916   22.1615 C   0  0  0  0  0  0
  -19.1514  -28.8828   23.2892 C   0  0  0  0  0  0
  -18.9445  -30.1436   23.8902 C   0  0  0  0  0  0
  -17.6458  -30.6583   24.0566 C   0  0  0  0  0  0
  -25.9037  -34.9479   23.5128 C   0  0  0  0  0  0
  -16.5345  -29.9087   23.6332 C   0  0  0  0  0  0
  -16.7253  -28.6503   23.0339 C   0  0  0  0  0  0
  -26.4469  -31.6603   25.0720 C   0  0  0  0  0  0
  -25.3735  -31.3704   26.1474 C   0  0  0  0  0  0
  -27.0298  -30.3053   24.6084 C   0  0  0  0  0  0
  -27.6049  -32.4315   25.7479 C   0  0  0  0  0  0
  -27.5578  -37.1812   24.8457 C   0  0  0  0  0  0
  -21.4139  -29.3018   22.3747 N   0  0  0  0  0  0
  -26.4290  -37.3793   23.9410 N   0  0  0  0  0  0
  -24.6657  -31.0805   22.1001 N   0  0  0  0  0  0
  -23.4193  -28.8194   23.3022 O   0  0  0  0  0  0
  -28.4155  -26.7310   20.1131 O   0  0  0  0  0  0
  -26.5605  -34.8925   22.4693 O   0  0  0  0  0  0
  -23.5335  -32.1441   23.7507 O   0  0  0  0  0  0
  -30.3003  -17.7534   21.8892 C   0  0  0  0  0  0
  -31.9498  -16.2191   22.8313 C   0  0  0  0  0  0
  -32.0786  -18.6036   23.3443 C   0  0  0  0  0  0
  -30.8108  -16.4400   22.0274 C   0  0  0  0  0  0
  -30.9442  -18.8474   22.5264 C   0  0  0  0  0  0
  -32.5758  -17.2909   23.4880 C   0  0  0  0  0  0
  -29.5376  -23.1371   20.6877 C   0  0  0  0  0  0
  -29.6570  -22.2487   21.7071 C   0  0  0  0  0  0
  -29.3558  -24.5972   20.8631 C   0  0  0  0  0  0
  -29.8841  -20.8321   21.4005 C   0  0  0  0  0  0
  -32.7769  -19.7454   24.0705 C   0  0  0  0  0  0
  -28.3537  -25.3058   19.9393 C   0  0  0  0  0  0
  -30.4738  -20.1928   22.4292 N   0  0  0  0  0  0
  -30.1537  -15.3370   21.4152 N   0  0  0  0  0  0
  -29.9848  -25.2568   21.7004 O   0  0  0  0  0  0
  -29.6049  -20.2863   20.3300 O   0  0  0  0  0  0
  -29.5525  -22.6231   22.9973 O   0  0  0  0  0  0
  -33.6574  -17.0468   24.2670 F   0  0  0  0  0  0
  -31.4591  -12.3960   19.1010 H   0  0  0  0  0  0
  -30.3146  -11.2835   19.7904 H   0  0  0  0  0  0
  -29.7217  -11.7984   17.4065 H   0  0  0  0  0  0
  -29.6547  -13.5044   17.7717 H   0  0  0  0  0  0
  -27.8153  -11.3157   18.7977 H   0  0  0  0  0  0
  -27.3570  -12.6576   17.7851 H   0  0  0  0  0  0
  -27.7122  -14.2554   19.5893 H   0  0  0  0  0  0
  -28.6730  -11.9280   21.3188 H   0  0  0  0  0  0
  -28.4557  -13.5524   21.8806 H   0  0  0  0  0  0
  -25.2753   -9.5694   22.4758 H   0  0  0  0  0  0
  -24.0004   -7.4636   22.7470 H   0  0  0  0  0  0
  -21.0844   -8.8765   19.8945 H   0  0  0  0  0  0
  -22.3686  -10.9674   19.6163 H   0  0  0  0  0  0
  -21.1999   -7.6149   23.9718 H   0  0  0  0  0  0
  -21.1483   -6.0528   25.9079 H   0  0  0  0  0  0
  -22.0597   -2.7616   23.2846 H   0  0  0  0  0  0
  -22.4103  -11.9876   22.4763 H   0  0  0  0  0  0
  -21.1117  -13.1257   22.2607 H   0  0  0  0  0  0
  -24.6691  -15.8474   20.5109 H   0  0  0  0  0  0
  -26.2880  -15.6215   20.0798 H   0  0  0  0  0  0
  -26.7113  -32.5549   23.1169 H   0  0  0  0  0  0
  -25.0047  -33.9775   25.0473 H   0  0  0  0  0  0
  -22.6871  -31.3090   21.4137 H   0  0  0  0  0  0
  -23.3746  -35.9660   23.3310 H   0  0  0  0  0  0
  -24.3585  -36.8925   22.2052 H   0  0  0  0  0  0
  -23.7244  -37.6523   23.6654 H   0  0  0  0  0  0
  -26.0373  -31.6016   20.5946 H   0  0  0  0  0  0
  -26.8187  -30.8918   21.9776 H   0  0  0  0  0  0
  -28.0951  -29.1054   21.1625 H   0  0  0  0  0  0
  -26.0370  -25.9938   18.9756 H   0  0  0  0  0  0
  -23.9759  -27.3016   19.0272 H   0  0  0  0  0  0
  -23.7138  -30.6018   19.4063 H   0  0  0  0  0  0
  -22.7317  -29.2444   19.8708 H   0  0  0  0  0  0
  -25.1283  -36.1987   25.0826 H   0  0  0  0  0  0
  -20.9919  -28.3217   24.1456 H   0  0  0  0  0  0
  -20.5665  -26.2254   23.3607 H   0  0  0  0  0  0
  -21.6624  -26.7447   22.1215 H   0  0  0  0  0  0
  -19.6918  -25.6291   21.1224 H   0  0  0  0  0  0
  -19.6692  -27.3209   20.6758 H   0  0  0  0  0  0
  -17.4187  -26.6663   21.4008 H   0  0  0  0  0  0
  -18.0301  -26.0058   22.9012 H   0  0  0  0  0  0
  -19.7934  -30.7226   24.2285 H   0  0  0  0  0  0
  -17.5022  -31.6264   24.5154 H   0  0  0  0  0  0
  -15.5342  -30.2992   23.7652 H   0  0  0  0  0  0
  -15.8644  -28.0831   22.7045 H   0  0  0  0  0  0
  -24.5916  -30.7027   25.7814 H   0  0  0  0  0  0
  -24.8902  -32.2856   26.4923 H   0  0  0  0  0  0
  -25.8093  -30.8884   27.0243 H   0  0  0  0  0  0
  -26.2834  -29.6808   24.1159 H   0  0  0  0  0  0
  -27.4100  -29.7287   25.4525 H   0  0  0  0  0  0
  -27.8652  -30.4366   23.9204 H   0  0  0  0  0  0
  -27.2684  -33.3621   26.2062 H   0  0  0  0  0  0
  -28.3860  -32.6862   25.0304 H   0  0  0  0  0  0
  -28.0717  -31.8433   26.5392 H   0  0  0  0  0  0
  -28.2597  -38.0111   24.7511 H   0  0  0  0  0  0
  -28.1073  -36.2639   24.6278 H   0  0  0  0  0  0
  -27.2294  -37.1448   25.8860 H   0  0  0  0  0  0
  -20.9302  -29.8752   21.6985 H   0  0  0  0  0  0
  -26.0189  -38.2874   24.1426 H   0  0  0  0  0  0
  -29.4149  -17.9173   21.2908 H   0  0  0  0  0  0
  -32.3456  -15.2226   22.9646 H   0  0  0  0  0  0
  -29.5867  -22.7906   19.6639 H   0  0  0  0  0  0
  -32.0969  -20.2241   24.7754 H   0  0  0  0  0  0
  -33.1300  -20.4924   23.3587 H   0  0  0  0  0  0
  -33.6429  -19.4014   24.6369 H   0  0  0  0  0  0
  -27.3739  -24.9024   20.1927 H   0  0  0  0  0  0
  -28.5610  -25.0527   18.9003 H   0  0  0  0  0  0
  -30.7790  -20.8117   23.1667 H   0  0  0  0  0  0
  -29.1886  -15.1767   21.6633 H   0  0  0  0  0  0
  -29.3356  -21.8473   23.4995 H   0  0  0  0  0  0
  1 25  1  0  0  0
  1 30  2  0  0  0
  1 84  1  0  0  0
  2  3  1  0  0  0
  2 25  1  0  0  0
  2 89  1  0  0  0
  2 90  1  0  0  0
  3  4  1  0  0  0
  3 91  1  0  0  0
  3 92  1  0  0  0
  4  5  1  0  0  0
  4 93  1  0  0  0
  4 94  1  0  0  0
  5  6  1  0  0  0
  5 26  1  0  0  0
  5 95  1  0  0  0
  6 25  1  0  0  0
  6 96  1  0  0  0
  6 97  1  0  0  0
  7  8  2  0  0  0
  7 26  1  0  0  0
  7 29  1  0  0  0
  8  9  1  0  0  0
  8 22  1  0  0  0
  9 10  1  0  0  0
  9 27  2  0  0  0
 10 11  2  0  0  0
 10 15  1  0  0  0
 11 12  1  0  0  0
 11 98  1  0  0  0
 12 13  2  0  0  0
 12 99  1  0  0  0
 13 14  1  0  0  0
 13 31  1  0  0  0
 14 15  2  0  0  0
 14100  1  0  0  0
 15101  1  0  0  0
 16 17  2  0  0  0
 16 21  1  0  0  0
 16 31  1  0  0  0
 17 18  1  0  0  0
 17102  1  0  0  0
 18 19  2  0  0  0
 18103  1  0  0  0
 19 20  1  0  0  0
 19 24  1  0  0  0
 20 21  2  0  0  0
 20104  1  0  0  0
 21 23  1  0  0  0
 22 28  1  0  0  0
 22 32  2  0  0  0
 26 27  1  0  0  0
 28105  1  0  0  0
 28106  1  0  0  0
 29107  1  0  0  0
 29108  1  0  0  0
 33 34  1  0  0  0
 33 66  1  0  0  0
 33 70  2  0  0  0
 34 36  1  0  0  0
 34 59  1  0  0  0
 34109  1  0  0  0
 35 44  2  0  0  0
 35 45  1  0  0  0
 35 68  1  0  0  0
 36 56  1  0  0  0
 36110  1  0  0  0
 37 39  1  0  0  0
 37 47  1  0  0  0
 37 66  1  0  0  0
 37111  1  0  0  0
 38 43  2  0  0  0
 38 46  1  0  0  0
 38 47  1  0  0  0
 39 64  1  0  0  0
 39 67  2  0  0  0
 40 52  1  0  0  0
 40 53  2  0  0  0
 40 58  1  0  0  0
 41112  1  0  0  0
 41113  1  0  0  0
 41114  1  0  0  0
 41 48  1  0  0  0
 42 43  1  0  0  0
 42 66  1  0  0  0
 42115  1  0  0  0
 42116  1  0  0  0
 43 44  1  0  0  0
 44117  1  0  0  0
 45 46  2  0  0  0
 45118  1  0  0  0
 46119  1  0  0  0
 47120  1  0  0  0
 47121  1  0  0  0
 48 56  1  0  0  0
 48 65  1  0  0  0
 48122  1  0  0  0
 49 50  1  0  0  0
 49 53  1  0  0  0
 49 64  1  0  0  0
 49123  1  0  0  0
 50 51  1  0  0  0
 50124  1  0  0  0
 50125  1  0  0  0
 51 52  1  0  0  0
 51126  1  0  0  0
 51127  1  0  0  0
 52128  1  0  0  0
 52129  1  0  0  0
 53 54  1  0  0  0
 54 55  2  0  0  0
 54130  1  0  0  0
 55 57  1  0  0  0
 55131  1  0  0  0
 56 69  2  0  0  0
 57 58  2  0  0  0
 57132  1  0  0  0
 58133  1  0  0  0
 59 60  1  0  0  0
 59 61  1  0  0  0
 59 62  1  0  0  0
 60134  1  0  0  0
 60135  1  0  0  0
 60136  1  0  0  0
 61137  1  0  0  0
 61138  1  0  0  0
 61139  1  0  0  0
 62140  1  0  0  0
 62141  1  0  0  0
 62142  1  0  0  0
 63 65  1  0  0  0
 63143  1  0  0  0
 63144  1  0  0  0
 63145  1  0  0  0
 64146  1  0  0  0
 65147  1  0  0  0
 68 82  1  0  0  0
 71 74  2  0  0  0
 71 75  1  0  0  0
 71148  1  0  0  0
 72 74  1  0  0  0
 72 76  2  0  0  0
 72149  1  0  0  0
 73 75  2  0  0  0
 73 76  1  0  0  0
 73 81  1  0  0  0
 74 84  1  0  0  0
 75 83  1  0  0  0
 76 88  1  0  0  0
 77 78  2  0  0  0
 77 79  1  0  0  0
 77150  1  0  0  0
 78 80  1  0  0  0
 78 87  1  0  0  0
 79 82  1  0  0  0
 79 85  2  0  0  0
 80 83  1  0  0  0
 80 86  2  0  0  0
 81151  1  0  0  0
 81152  1  0  0  0
 81153  1  0  0  0
 82154  1  0  0  0
 82155  1  0  0  0
 83156  1  0  0  0
 84157  1  0  0  0
 87158  1  0  0  0
M  ISO  4   1 100  68 101  82 101  84 100
M  END
> <chiral flag>
0

> <version>
0

> <s_m_source_file>
/data/baiqing/PycharmProjects/Reinvent-master-3.2/result/LINK_invent/BTK/process_docking_weight1_custom_product_contain_oxygen_bond_distance_aromatic_linkinvent_7_9_3/rearranged_h_0174.sdf

> <i_m_source_file_index>
13

> <r_mmod_Potential_Energy-OPLS-2005>
-67.3741683959961

> <r_mmod_Stretch_Energy-OPLS-2005>
37.51171875

> <r_mmod_Bend_Energy-OPLS-2005>
99.0598754882812

> <r_mmod_Torsional_Energy-OPLS-2005>
254.934173583984

> <r_mmod_Improper_Torsional_Energy-OPLS-2005>
2.92245101928711

> <r_mmod_Van_der_Waal_Energy-OPLS-2005>
172.669692993164

> <r_mmod_Electrostatic_Energy-OPLS-2005>
-380.505981445312

> <r_mmod_Solvation_Energy-OPLS-2005>
-263.591003417969

> <b_mmod_Minimization_Converged-OPLS-2005>
0

> <r_mmod_RMS_Derivative-OPLS-2005>
1.78991103172302

$$$$
13
                    3D
 Structure written by MMmdl.
152160  0  0  1  0            999 V2000
  -30.6412  -14.6007   20.5113 C   0  0  0  0  0  0
  -30.4360  -12.3707   19.4459 C   0  0  0  0  0  0
  -29.5059  -12.5039   18.2201 C   0  0  0  0  0  0
  -28.0281  -12.3463   18.6321 C   0  0  0  0  0  0
  -27.6552  -13.2124   19.8651 C   0  0  2  0  0  0
  -28.6997  -13.0540   20.9937 C   0  0  0  0  0  0
  -25.2567  -13.8160   20.5679 C   0  0  0  0  0  0
  -24.1831  -13.0434   20.9195 C   0  0  0  0  0  0
  -24.6390  -11.6902   20.8737 C   0  0  0  0  0  0
  -23.9055  -10.4289   21.0403 C   0  0  0  0  0  0
  -24.3606   -9.4206   21.9180 C   0  0  0  0  0  0
  -23.6283   -8.2240   22.0752 C   0  0  0  0  0  0
  -22.4267   -8.0276   21.3541 C   0  0  0  0  0  0
  -21.9902   -9.0253   20.4647 C   0  0  0  0  0  0
  -22.7230  -10.2132   20.3054 C   0  0  0  0  0  0
  -21.6853   -6.0728   22.5276 C   0  0  0  0  0  0
  -21.4017   -6.5630   23.8209 C   0  0  0  0  0  0
  -21.3660   -5.6786   24.9173 C   0  0  0  0  0  0
  -21.6043   -4.3049   24.7226 C   0  0  0  0  0  0
  -21.8821   -3.8141   23.4348 C   0  0  0  0  0  0
  -21.9196   -4.6956   22.3402 C   0  0  0  0  0  0
  -22.7853  -13.5228   21.1854 C   0  0  0  0  0  0
  -22.1664   -4.2139   21.0979 F   0  0  0  0  0  0
  -21.5628   -3.4534   25.7741 F   0  0  0  0  0  0
  -30.0190  -13.3858   20.4317 N   0  0  0  0  0  0
  -26.2996  -12.9337   20.3323 N   0  0  0  0  0  0
  -25.9317  -11.6496   20.5753 N   0  0  0  0  0  0
  -22.0487  -12.8227   22.0413 N   0  0  0  0  0  0
  -25.4278  -15.1881   20.4067 N   0  0  0  0  0  0
  -31.8015  -14.7605   20.1245 O   0  0  0  0  0  0
  -21.6635   -6.8872   21.4239 O   0  0  0  0  0  0
  -22.3543  -14.5534   20.6698 O   0  0  0  0  0  0
  -24.6236  -31.8629   23.2049 C   0  0  0  0  0  0
  -25.9096  -32.4795   23.8369 C   0  0  1  0  0  0
  -27.2221  -27.3462   20.1085 C   0  0  0  0  0  0
  -25.5922  -33.8594   24.2297 N   0  0  0  0  0  0
  -23.4149  -30.4885   21.5477 C   0  0  2  0  0  0
  -24.8592  -28.9500   20.1114 C   0  0  0  0  0  0
  -22.7464  -29.4640   22.4951 C   0  0  0  0  0  0
  -18.0282  -28.1388   22.8483 C   0  0  0  0  0  0
  -24.1485  -36.7295   23.2636 C   0  0  0  0  0  0
  -25.9545  -30.8027   21.3717 C   0  0  0  0  0  0
  -26.0284  -29.4329   20.7126 C   0  0  0  0  0  0
  -27.2133  -28.6429   20.7018 C   0  0  0  0  0  0
  -26.0266  -26.9101   19.4881 C   0  0  0  0  0  0
  -24.8591  -27.6926   19.4913 C   0  0  0  0  0  0
  -23.6268  -29.8275   20.1615 C   0  0  0  0  0  0
  -25.4110  -36.3092   24.0329 C   0  0  1  0  0  0
  -20.5884  -28.3683   23.1293 C   0  0  2  0  0  0
  -20.6774  -26.9410   22.5412 C   0  0  0  0  0  0
  -19.5749  -26.6389   21.5211 C   0  0  0  0  0  0
  -18.1928  -26.7930   22.1623 C   0  0  0  0  0  0
  -19.1536  -28.8853   23.2883 C   0  0  0  0  0  0
  -18.9463  -30.1455   23.8899 C   0  0  0  0  0  0
  -17.6463  -30.6589   24.0563 C   0  0  0  0  0  0
  -25.9047  -34.9460   23.5112 C   0  0  0  0  0  0
  -16.5352  -29.9088   23.6330 C   0  0  0  0  0  0
  -16.7269  -28.6507   23.0346 C   0  0  0  0  0  0
  -26.4485  -31.6595   25.0729 C   0  0  0  0  0  0
  -25.3730  -31.3735   26.1466 C   0  0  0  0  0  0
  -27.0314  -30.3020   24.6164 C   0  0  0  0  0  0
  -27.6055  -32.4322   25.7499 C   0  0  0  0  0  0
  -27.5580  -37.1800   24.8460 C   0  0  0  0  0  0
  -21.4182  -29.3040   22.3695 N   0  0  0  0  0  0
  -26.4287  -37.3787   23.9412 N   0  0  0  0  0  0
  -24.6831  -31.0673   22.0983 N   0  0  0  0  0  0
  -23.4205  -28.8177   23.3014 O   0  0  0  0  0  0
  -28.3486  -26.5148   20.1545 O   0  0  0  0  0  0
  -26.5616  -34.8922   22.4678 O   0  0  0  0  0  0
  -23.5407  -32.1412   23.7396 O   0  0  0  0  0  0
  -31.2818  -17.7379   20.5988 C   0  0  0  0  0  0
  -28.9169  -17.9640   20.6845 C   0  0  0  0  0  0
  -30.0315  -17.0934   20.7055 C   0  0  0  0  0  0
  -31.3703  -19.1534   20.4622 C   0  0  0  0  0  0
  -30.1737  -19.9624   20.4142 C   0  0  0  0  0  0
  -30.2195  -21.5096   20.1828 C   0  0  0  0  0  0
  -28.9949  -22.5314   20.2995 C   0  0  0  0  0  0
  -29.3038  -24.0785   20.3696 C   0  0  0  0  0  0
  -28.1215  -25.0641   20.0301 C   0  0  0  0  0  0
  -28.9783  -19.3182   20.5401 N   0  0  0  0  0  0
  -32.6692  -19.6772   20.3835 N   0  0  0  0  0  0
  -29.8426  -15.6523   20.8587 N   0  0  0  0  0  0
  -31.2833  -22.0613   19.8612 O   0  0  0  0  0  0
  -27.8191  -22.1433   20.3106 O   0  0  0  0  0  0
  -31.4780  -12.4905   19.1429 H   0  0  0  0  0  0
  -30.3631  -11.3716   19.8784 H   0  0  0  0  0  0
  -29.7654  -11.7585   17.4673 H   0  0  0  0  0  0
  -29.6546  -13.4772   17.7495 H   0  0  0  0  0  0
  -27.8602  -11.2926   18.8581 H   0  0  0  0  0  0
  -27.3744  -12.5843   17.7923 H   0  0  0  0  0  0
  -27.6783  -14.2493   19.5302 H   0  0  0  0  0  0
  -28.7026  -12.0304   21.3710 H   0  0  0  0  0  0
  -28.4508  -13.6829   21.8500 H   0  0  0  0  0  0
  -25.2754   -9.5683   22.4750 H   0  0  0  0  0  0
  -23.9996   -7.4630   22.7466 H   0  0  0  0  0  0
  -21.0834   -8.8772   19.8952 H   0  0  0  0  0  0
  -22.3687  -10.9668   19.6158 H   0  0  0  0  0  0
  -21.2005   -7.6138   23.9708 H   0  0  0  0  0  0
  -21.1480   -6.0517   25.9074 H   0  0  0  0  0  0
  -22.0600   -2.7604   23.2853 H   0  0  0  0  0  0
  -22.4097  -11.9887   22.4807 H   0  0  0  0  0  0
  -21.1105  -13.1257   22.2601 H   0  0  0  0  0  0
  -24.6546  -15.8378   20.5018 H   0  0  0  0  0  0
  -26.2599  -15.6193   20.0275 H   0  0  0  0  0  0
  -26.7169  -32.5469   23.1123 H   0  0  0  0  0  0
  -25.0068  -33.9745   25.0442 H   0  0  0  0  0  0
  -22.7061  -31.3076   21.4094 H   0  0  0  0  0  0
  -23.3750  -35.9625   23.3301 H   0  0  0  0  0  0
  -24.3578  -36.8912   22.2051 H   0  0  0  0  0  0
  -23.7236  -37.6497   23.6654 H   0  0  0  0  0  0
  -26.0845  -31.5676   20.6048 H   0  0  0  0  0  0
  -26.8358  -30.8493   21.9996 H   0  0  0  0  0  0
  -28.1109  -29.0105   21.1793 H   0  0  0  0  0  0
  -25.9595  -25.9507   18.9985 H   0  0  0  0  0  0
  -23.9633  -27.3161   19.0170 H   0  0  0  0  0  0
  -23.7443  -30.6057   19.4062 H   0  0  0  0  0  0
  -22.7467  -29.2569   19.8591 H   0  0  0  0  0  0
  -25.1288  -36.1946   25.0821 H   0  0  0  0  0  0
  -20.9973  -28.3254   24.1415 H   0  0  0  0  0  0
  -20.5679  -26.2289   23.3607 H   0  0  0  0  0  0
  -21.6645  -26.7445   22.1208 H   0  0  0  0  0  0
  -19.6909  -25.6303   21.1233 H   0  0  0  0  0  0
  -19.6686  -27.3207   20.6746 H   0  0  0  0  0  0
  -17.4199  -26.6677   21.4024 H   0  0  0  0  0  0
  -18.0324  -26.0078   22.9024 H   0  0  0  0  0  0
  -19.7938  -30.7266   24.2278 H   0  0  0  0  0  0
  -17.5018  -31.6269   24.5166 H   0  0  0  0  0  0
  -15.5354  -30.2989   23.7656 H   0  0  0  0  0  0
  -15.8670  -28.0826   22.7061 H   0  0  0  0  0  0
  -24.5901  -30.7080   25.7807 H   0  0  0  0  0  0
  -24.8920  -32.2900   26.4891 H   0  0  0  0  0  0
  -25.8065  -30.8921   27.0239 H   0  0  0  0  0  0
  -26.2874  -29.6791   24.1182 H   0  0  0  0  0  0
  -27.4010  -29.7258   25.4654 H   0  0  0  0  0  0
  -27.8747  -30.4307   23.9376 H   0  0  0  0  0  0
  -27.2670  -33.3621   26.2081 H   0  0  0  0  0  0
  -28.3863  -32.6884   25.0326 H   0  0  0  0  0  0
  -28.0719  -31.8441   26.5410 H   0  0  0  0  0  0
  -28.2594  -38.0102   24.7523 H   0  0  0  0  0  0
  -28.1081  -36.2635   24.6264 H   0  0  0  0  0  0
  -27.2300  -37.1429   25.8863 H   0  0  0  0  0  0
  -20.9355  -29.8766   21.6912 H   0  0  0  0  0  0
  -26.0167  -38.2859   24.1430 H   0  0  0  0  0  0
  -32.1913  -17.1581   20.6358 H   0  0  0  0  0  0
  -27.9203  -17.5571   20.7744 H   0  0  0  0  0  0
  -30.1364  -24.2916   19.6998 H   0  0  0  0  0  0
  -29.6637  -24.2859   21.3765 H   0  0  0  0  0  0
  -27.2768  -24.7961   20.6676 H   0  0  0  0  0  0
  -27.8217  -24.8542   19.0025 H   0  0  0  0  0  0
  -33.4493  -19.0720   20.1399 H   0  0  0  0  0  0
  -32.7861  -20.6394   20.0656 H   0  0  0  0  0  0
  -28.9102  -15.3670   21.1197 H   0  0  0  0  0  0
  1 25  1  0  0  0
  1 30  2  0  0  0
  1 82  1  0  0  0
  2  3  1  0  0  0
  2 25  1  0  0  0
  2 85  1  0  0  0
  2 86  1  0  0  0
  3  4  1  0  0  0
  3 87  1  0  0  0
  3 88  1  0  0  0
  4  5  1  0  0  0
  4 89  1  0  0  0
  4 90  1  0  0  0
  5  6  1  0  0  0
  5 26  1  0  0  0
  5 91  1  0  0  0
  6 25  1  0  0  0
  6 92  1  0  0  0
  6 93  1  0  0  0
  7  8  2  0  0  0
  7 26  1  0  0  0
  7 29  1  0  0  0
  8  9  1  0  0  0
  8 22  1  0  0  0
  9 10  1  0  0  0
  9 27  2  0  0  0
 10 11  2  0  0  0
 10 15  1  0  0  0
 11 12  1  0  0  0
 11 94  1  0  0  0
 12 13  2  0  0  0
 12 95  1  0  0  0
 13 14  1  0  0  0
 13 31  1  0  0  0
 14 15  2  0  0  0
 14 96  1  0  0  0
 15 97  1  0  0  0
 16 17  2  0  0  0
 16 21  1  0  0  0
 16 31  1  0  0  0
 17 18  1  0  0  0
 17 98  1  0  0  0
 18 19  2  0  0  0
 18 99  1  0  0  0
 19 20  1  0  0  0
 19 24  1  0  0  0
 20 21  2  0  0  0
 20100  1  0  0  0
 21 23  1  0  0  0
 22 28  1  0  0  0
 22 32  2  0  0  0
 26 27  1  0  0  0
 28101  1  0  0  0
 28102  1  0  0  0
 29103  1  0  0  0
 29104  1  0  0  0
 33 34  1  0  0  0
 33 66  1  0  0  0
 33 70  2  0  0  0
 34 36  1  0  0  0
 34 59  1  0  0  0
 34105  1  0  0  0
 35 44  2  0  0  0
 35 45  1  0  0  0
 35 68  1  0  0  0
 36 56  1  0  0  0
 36106  1  0  0  0
 37 39  1  0  0  0
 37 47  1  0  0  0
 37 66  1  0  0  0
 37107  1  0  0  0
 38 43  2  0  0  0
 38 46  1  0  0  0
 38 47  1  0  0  0
 39 64  1  0  0  0
 39 67  2  0  0  0
 40 52  1  0  0  0
 40 53  2  0  0  0
 40 58  1  0  0  0
 41108  1  0  0  0
 41109  1  0  0  0
 41110  1  0  0  0
 41 48  1  0  0  0
 42 43  1  0  0  0
 42 66  1  0  0  0
 42111  1  0  0  0
 42112  1  0  0  0
 43 44  1  0  0  0
 44113  1  0  0  0
 45 46  2  0  0  0
 45114  1  0  0  0
 46115  1  0  0  0
 47116  1  0  0  0
 47117  1  0  0  0
 48 56  1  0  0  0
 48 65  1  0  0  0
 48118  1  0  0  0
 49 50  1  0  0  0
 49 53  1  0  0  0
 49 64  1  0  0  0
 49119  1  0  0  0
 50 51  1  0  0  0
 50120  1  0  0  0
 50121  1  0  0  0
 51 52  1  0  0  0
 51122  1  0  0  0
 51123  1  0  0  0
 52124  1  0  0  0
 52125  1  0  0  0
 53 54  1  0  0  0
 54 55  2  0  0  0
 54126  1  0  0  0
 55 57  1  0  0  0
 55127  1  0  0  0
 56 69  2  0  0  0
 57 58  2  0  0  0
 57128  1  0  0  0
 58129  1  0  0  0
 59 60  1  0  0  0
 59 61  1  0  0  0
 59 62  1  0  0  0
 60130  1  0  0  0
 60131  1  0  0  0
 60132  1  0  0  0
 61133  1  0  0  0
 61134  1  0  0  0
 61135  1  0  0  0
 62136  1  0  0  0
 62137  1  0  0  0
 62138  1  0  0  0
 63 65  1  0  0  0
 63139  1  0  0  0
 63140  1  0  0  0
 63141  1  0  0  0
 64142  1  0  0  0
 65143  1  0  0  0
 68 79  1  0  0  0
 71 73  2  0  0  0
 71 74  1  0  0  0
 71144  1  0  0  0
 72 73  1  0  0  0
 72 80  2  0  0  0
 72145  1  0  0  0
 73 82  1  0  0  0
 74 75  2  0  0  0
 74 81  1  0  0  0
 75 76  1  0  0  0
 75 80  1  0  0  0
 76 77  1  0  0  0
 76 83  2  0  0  0
 77 78  1  0  0  0
 77 84  2  0  0  0
 78 79  1  0  0  0
 78146  1  0  0  0
 78147  1  0  0  0
 79148  1  0  0  0
 79149  1  0  0  0
 81150  1  0  0  0
 81151  1  0  0  0
 82152  1  0  0  0
M  ISO  4   1 100  68 101  79 101  82 100
M  END
> <chiral flag>
0

> <version>
0

> <s_m_source_file>
/data/baiqing/PycharmProjects/Reinvent-master-3.2/result/LINK_invent/BTK/process_docking_weight1_custom_product_contain_oxygen_bond_distance_aromatic_linkinvent_7_9_3/rearranged_h_0174.sdf

> <i_m_source_file_index>
14

> <r_mmod_Potential_Energy-OPLS-2005>
133.692138671875

> <r_mmod_Stretch_Energy-OPLS-2005>
81.5701599121094

> <r_mmod_Bend_Energy-OPLS-2005>
135.560134887695

> <r_mmod_Torsional_Energy-OPLS-2005>
214.381225585938

> <r_mmod_Improper_Torsional_Energy-OPLS-2005>
7.40882730484009

> <r_mmod_Van_der_Waal_Energy-OPLS-2005>
161.005554199219

> <r_mmod_Electrostatic_Energy-OPLS-2005>
-262.283569335938

> <r_mmod_Solvation_Energy-OPLS-2005>
-241.634475708008

> <b_mmod_Minimization_Converged-OPLS-2005>
0

> <r_mmod_RMS_Derivative-OPLS-2005>
0.753116548061371

$$$$
14
                    3D
 Structure written by MMmdl.
156164  0  0  1  0            999 V2000
  -30.6887  -14.5178   20.5306 C   0  0  0  0  0  0
  -30.4199  -12.3186   19.4493 C   0  0  0  0  0  0
  -29.5048  -12.5052   18.2204 C   0  0  0  0  0  0
  -28.0258  -12.3611   18.6262 C   0  0  0  0  0  0
  -27.6591  -13.2144   19.8716 C   0  0  2  0  0  0
  -28.6971  -13.0375   21.0046 C   0  0  0  0  0  0
  -25.2580  -13.8166   20.5693 C   0  0  0  0  0  0
  -24.1826  -13.0442   20.9159 C   0  0  0  0  0  0
  -24.6387  -11.6906   20.8704 C   0  0  0  0  0  0
  -23.9049  -10.4286   21.0395 C   0  0  0  0  0  0
  -24.3597   -9.4205   21.9180 C   0  0  0  0  0  0
  -23.6264   -8.2244   22.0764 C   0  0  0  0  0  0
  -22.4244   -8.0269   21.3548 C   0  0  0  0  0  0
  -21.9878   -9.0247   20.4652 C   0  0  0  0  0  0
  -22.7213  -10.2125   20.3056 C   0  0  0  0  0  0
  -21.6850   -6.0708   22.5284 C   0  0  0  0  0  0
  -21.4011   -6.5634   23.8209 C   0  0  0  0  0  0
  -21.3665   -5.6792   24.9177 C   0  0  0  0  0  0
  -21.6051   -4.3055   24.7234 C   0  0  0  0  0  0
  -21.8815   -3.8134   23.4361 C   0  0  0  0  0  0
  -21.9197   -4.6938   22.3410 C   0  0  0  0  0  0
  -22.7848  -13.5243   21.1797 C   0  0  0  0  0  0
  -22.1658   -4.2132   21.0981 F   0  0  0  0  0  0
  -21.5633   -3.4540   25.7748 F   0  0  0  0  0  0
  -30.0320  -13.3243   20.4565 N   0  0  0  0  0  0
  -26.3012  -12.9355   20.3333 N   0  0  0  0  0  0
  -25.9319  -11.6512   20.5726 N   0  0  0  0  0  0
  -22.0477  -12.8273   22.0362 N   0  0  0  0  0  0
  -25.4294  -15.1897   20.4154 N   0  0  0  0  0  0
  -31.8189  -14.6787   20.0622 O   0  0  0  0  0  0
  -21.6636   -6.8853   21.4234 O   0  0  0  0  0  0
  -22.3547  -14.5541   20.6623 O   0  0  0  0  0  0
  -24.6166  -31.8656   23.2055 C   0  0  0  0  0  0
  -25.9071  -32.4796   23.8354 C   0  0  1  0  0  0
  -27.2394  -27.4250   20.1103 C   0  0  0  0  0  0
  -25.5905  -33.8587   24.2291 N   0  0  0  0  0  0
  -23.4051  -30.4913   21.5415 C   0  0  2  0  0  0
  -24.8581  -28.9533   20.1124 C   0  0  0  0  0  0
  -22.7402  -29.4675   22.4912 C   0  0  0  0  0  0
  -18.0287  -28.1398   22.8496 C   0  0  0  0  0  0
  -24.1481  -36.7303   23.2633 C   0  0  0  0  0  0
  -25.9350  -30.8360   21.3554 C   0  0  0  0  0  0
  -26.0184  -29.4677   20.7062 C   0  0  0  0  0  0
  -27.2172  -28.7129   20.6977 C   0  0  0  0  0  0
  -26.0654  -26.9272   19.5110 C   0  0  0  0  0  0
  -24.8761  -27.6826   19.5097 C   0  0  0  0  0  0
  -23.6176  -29.8188   20.1582 C   0  0  0  0  0  0
  -25.4106  -36.3069   24.0316 C   0  0  1  0  0  0
  -20.5883  -28.3700   23.1303 C   0  0  2  0  0  0
  -20.6764  -26.9433   22.5424 C   0  0  0  0  0  0
  -19.5732  -26.6408   21.5224 C   0  0  0  0  0  0
  -18.1915  -26.7944   22.1632 C   0  0  0  0  0  0
  -19.1536  -28.8867   23.2902 C   0  0  0  0  0  0
  -18.9454  -30.1471   23.8917 C   0  0  0  0  0  0
  -17.6448  -30.6600   24.0588 C   0  0  0  0  0  0
  -25.9042  -34.9455   23.5093 C   0  0  0  0  0  0
  -16.5350  -29.9099   23.6341 C   0  0  0  0  0  0
  -16.7270  -28.6530   23.0342 C   0  0  0  0  0  0
  -26.4513  -31.6566   25.0679 C   0  0  0  0  0  0
  -25.3777  -31.3704   26.1424 C   0  0  0  0  0  0
  -27.0325  -30.2977   24.6077 C   0  0  0  0  0  0
  -27.6054  -32.4287   25.7481 C   0  0  0  0  0  0
  -27.5567  -37.1800   24.8467 C   0  0  0  0  0  0
  -21.4140  -29.3048   22.3674 N   0  0  0  0  0  0
  -26.4279  -37.3767   23.9410 N   0  0  0  0  0  0
  -24.6702  -31.0778   22.0931 N   0  0  0  0  0  0
  -23.4178  -28.8218   23.2960 O   0  0  0  0  0  0
  -28.3839  -26.6560   20.0979 O   0  0  0  0  0  0
  -26.5591  -34.8914   22.4649 O   0  0  0  0  0  0
  -23.5356  -32.1405   23.7456 O   0  0  0  0  0  0
  -29.7175  -18.0623   21.1594 C   0  0  0  0  0  0
  -29.9861  -16.9956   18.9864 C   0  0  0  0  0  0
  -29.5870  -19.3462   20.5417 C   0  0  0  0  0  0
  -29.9258  -16.8776   20.3948 C   0  0  0  0  0  0
  -29.8347  -18.2433   18.3611 C   0  0  0  0  0  0
  -29.6311  -19.4076   19.1241 C   0  0  0  0  0  0
  -29.4012  -20.6013   21.3848 C   0  0  0  0  0  0
  -28.8288  -24.2204   20.4258 C   0  0  0  0  0  0
  -30.9073  -23.5174   21.7709 C   0  0  0  0  0  0
  -28.3881  -25.5670   21.0513 C   0  0  0  0  0  0
  -29.4659  -23.1475   21.3631 C   0  0  2  0  0  0
  -29.9855  -15.5747   21.0077 N   0  0  0  0  0  0
  -29.4642  -21.7987   20.7621 N   0  0  0  0  0  0
  -29.2521  -20.5136   22.6062 O   0  0  0  0  0  0
  -28.6705  -24.0207   19.2163 O   0  0  0  0  0  0
  -29.8727  -18.3244   17.0089 F   0  0  0  0  0  0
  -29.4705  -20.5769   18.4571 F   0  0  0  0  0  0
  -31.4703  -12.3974   19.1604 H   0  0  0  0  0  0
  -30.3001  -11.3155   19.8622 H   0  0  0  0  0  0
  -29.7533  -11.7746   17.4496 H   0  0  0  0  0  0
  -29.6775  -13.4876   17.7786 H   0  0  0  0  0  0
  -27.8414  -11.3062   18.8326 H   0  0  0  0  0  0
  -27.3800  -12.6224   17.7883 H   0  0  0  0  0  0
  -27.6914  -14.2557   19.5499 H   0  0  0  0  0  0
  -28.6751  -12.0185   21.3926 H   0  0  0  0  0  0
  -28.4574  -13.6832   21.8503 H   0  0  0  0  0  0
  -25.2744   -9.5695   22.4739 H   0  0  0  0  0  0
  -23.9993   -7.4644   22.7497 H   0  0  0  0  0  0
  -21.0819   -8.8751   19.8960 H   0  0  0  0  0  0
  -22.3667  -10.9652   19.6159 H   0  0  0  0  0  0
  -21.1992   -7.6138   23.9711 H   0  0  0  0  0  0
  -21.1491   -6.0517   25.9082 H   0  0  0  0  0  0
  -22.0586   -2.7593   23.2869 H   0  0  0  0  0  0
  -22.4094  -11.9973   22.4837 H   0  0  0  0  0  0
  -21.1078  -13.1306   22.2503 H   0  0  0  0  0  0
  -24.6625  -15.8421   20.5276 H   0  0  0  0  0  0
  -26.2881  -15.6349   20.1192 H   0  0  0  0  0  0
  -26.7131  -32.5544   23.1117 H   0  0  0  0  0  0
  -25.0072  -33.9744   25.0437 H   0  0  0  0  0  0
  -22.6954  -31.3090   21.3940 H   0  0  0  0  0  0
  -23.3713  -35.9666   23.3313 H   0  0  0  0  0  0
  -24.3591  -36.8899   22.2045 H   0  0  0  0  0  0
  -23.7263  -37.6519   23.6655 H   0  0  0  0  0  0
  -26.0448  -31.6069   20.5897 H   0  0  0  0  0  0
  -26.8234  -30.8927   21.9726 H   0  0  0  0  0  0
  -28.1170  -29.1104   21.1471 H   0  0  0  0  0  0
  -26.0737  -25.9525   19.0441 H   0  0  0  0  0  0
  -23.9844  -27.2855   19.0452 H   0  0  0  0  0  0
  -23.7239  -30.5906   19.3937 H   0  0  0  0  0  0
  -22.7408  -29.2356   19.8634 H   0  0  0  0  0  0
  -25.1284  -36.1907   25.0802 H   0  0  0  0  0  0
  -21.0013  -28.3290   24.1404 H   0  0  0  0  0  0
  -20.5690  -26.2302   23.3618 H   0  0  0  0  0  0
  -21.6629  -26.7474   22.1207 H   0  0  0  0  0  0
  -19.6901  -25.6329   21.1226 H   0  0  0  0  0  0
  -19.6662  -27.3244   20.6778 H   0  0  0  0  0  0
  -17.4189  -26.6717   21.4032 H   0  0  0  0  0  0
  -18.0309  -26.0094   22.9033 H   0  0  0  0  0  0
  -19.7932  -30.7296   24.2272 H   0  0  0  0  0  0
  -17.5011  -31.6282   24.5180 H   0  0  0  0  0  0
  -15.5353  -30.3002   23.7673 H   0  0  0  0  0  0
  -15.8670  -28.0878   22.7006 H   0  0  0  0  0  0
  -24.5967  -30.7002   25.7812 H   0  0  0  0  0  0
  -24.8963  -32.2867   26.4833 H   0  0  0  0  0  0
  -25.8159  -30.8938   27.0190 H   0  0  0  0  0  0
  -26.2863  -29.6721   24.1147 H   0  0  0  0  0  0
  -27.4055  -29.7245   25.4574 H   0  0  0  0  0  0
  -27.8727  -30.4230   23.9241 H   0  0  0  0  0  0
  -27.2629  -33.3568   26.2074 H   0  0  0  0  0  0
  -28.3908  -32.6858   25.0363 H   0  0  0  0  0  0
  -28.0660  -31.8382   26.5406 H   0  0  0  0  0  0
  -28.2586  -38.0092   24.7488 H   0  0  0  0  0  0
  -28.1039  -36.2612   24.6307 H   0  0  0  0  0  0
  -27.2290  -37.1484   25.8872 H   0  0  0  0  0  0
  -20.9285  -29.8704   21.6862 H   0  0  0  0  0  0
  -26.0142  -38.2829   24.1413 H   0  0  0  0  0  0
  -29.6659  -17.9915   22.2382 H   0  0  0  0  0  0
  -30.1197  -16.1242   18.3626 H   0  0  0  0  0  0
  -31.5615  -23.5747   20.8987 H   0  0  0  0  0  0
  -31.3342  -22.7843   22.4570 H   0  0  0  0  0  0
  -30.9490  -24.4852   22.2718 H   0  0  0  0  0  0
  -29.0657  -25.8147   21.8674 H   0  0  0  0  0  0
  -27.4034  -25.4272   21.4991 H   0  0  0  0  0  0
  -28.8600  -23.1090   22.2708 H   0  0  0  0  0  0
  -29.2269  -15.3515   21.6355 H   0  0  0  0  0  0
  -29.5362  -21.7763   19.7505 H   0  0  0  0  0  0
  1 25  1  0  0  0
  1 30  2  0  0  0
  1 82  1  0  0  0
  2  3  1  0  0  0
  2 25  1  0  0  0
  2 88  1  0  0  0
  2 89  1  0  0  0
  3  4  1  0  0  0
  3 90  1  0  0  0
  3 91  1  0  0  0
  4  5  1  0  0  0
  4 92  1  0  0  0
  4 93  1  0  0  0
  5  6  1  0  0  0
  5 26  1  0  0  0
  5 94  1  0  0  0
  6 25  1  0  0  0
  6 95  1  0  0  0
  6 96  1  0  0  0
  7  8  2  0  0  0
  7 26  1  0  0  0
  7 29  1  0  0  0
  8  9  1  0  0  0
  8 22  1  0  0  0
  9 10  1  0  0  0
  9 27  2  0  0  0
 10 11  2  0  0  0
 10 15  1  0  0  0
 11 12  1  0  0  0
 11 97  1  0  0  0
 12 13  2  0  0  0
 12 98  1  0  0  0
 13 14  1  0  0  0
 13 31  1  0  0  0
 14 15  2  0  0  0
 14 99  1  0  0  0
 15100  1  0  0  0
 16 17  2  0  0  0
 16 21  1  0  0  0
 16 31  1  0  0  0
 17 18  1  0  0  0
 17101  1  0  0  0
 18 19  2  0  0  0
 18102  1  0  0  0
 19 20  1  0  0  0
 19 24  1  0  0  0
 20 21  2  0  0  0
 20103  1  0  0  0
 21 23  1  0  0  0
 22 28  1  0  0  0
 22 32  2  0  0  0
 26 27  1  0  0  0
 28104  1  0  0  0
 28105  1  0  0  0
 29106  1  0  0  0
 29107  1  0  0  0
 33 34  1  0  0  0
 33 66  1  0  0  0
 33 70  2  0  0  0
 34 36  1  0  0  0
 34 59  1  0  0  0
 34108  1  0  0  0
 35 44  2  0  0  0
 35 45  1  0  0  0
 35 68  1  0  0  0
 36 56  1  0  0  0
 36109  1  0  0  0
 37 39  1  0  0  0
 37 47  1  0  0  0
 37 66  1  0  0  0
 37110  1  0  0  0
 38 43  2  0  0  0
 38 46  1  0  0  0
 38 47  1  0  0  0
 39 64  1  0  0  0
 39 67  2  0  0  0
 40 52  1  0  0  0
 40 53  2  0  0  0
 40 58  1  0  0  0
 41111  1  0  0  0
 41112  1  0  0  0
 41113  1  0  0  0
 41 48  1  0  0  0
 42 43  1  0  0  0
 42 66  1  0  0  0
 42114  1  0  0  0
 42115  1  0  0  0
 43 44  1  0  0  0
 44116  1  0  0  0
 45 46  2  0  0  0
 45117  1  0  0  0
 46118  1  0  0  0
 47119  1  0  0  0
 47120  1  0  0  0
 48 56  1  0  0  0
 48 65  1  0  0  0
 48121  1  0  0  0
 49 50  1  0  0  0
 49 53  1  0  0  0
 49 64  1  0  0  0
 49122  1  0  0  0
 50 51  1  0  0  0
 50123  1  0  0  0
 50124  1  0  0  0
 51 52  1  0  0  0
 51125  1  0  0  0
 51126  1  0  0  0
 52127  1  0  0  0
 52128  1  0  0  0
 53 54  1  0  0  0
 54 55  2  0  0  0
 54129  1  0  0  0
 55 57  1  0  0  0
 55130  1  0  0  0
 56 69  2  0  0  0
 57 58  2  0  0  0
 57131  1  0  0  0
 58132  1  0  0  0
 59 60  1  0  0  0
 59 61  1  0  0  0
 59 62  1  0  0  0
 60133  1  0  0  0
 60134  1  0  0  0
 60135  1  0  0  0
 61136  1  0  0  0
 61137  1  0  0  0
 61138  1  0  0  0
 62139  1  0  0  0
 62140  1  0  0  0
 62141  1  0  0  0
 63 65  1  0  0  0
 63142  1  0  0  0
 63143  1  0  0  0
 63144  1  0  0  0
 64145  1  0  0  0
 65146  1  0  0  0
 68 80  1  0  0  0
 71 73  2  0  0  0
 71 74  1  0  0  0
 71147  1  0  0  0
 72 74  2  0  0  0
 72 75  1  0  0  0
 72148  1  0  0  0
 73 76  1  0  0  0
 73 77  1  0  0  0
 74 82  1  0  0  0
 75 76  2  0  0  0
 75 86  1  0  0  0
 76 87  1  0  0  0
 77 83  1  0  0  0
 77 84  2  0  0  0
 78 80  1  0  0  0
 78 81  1  0  0  0
 78 85  2  0  0  0
 79149  1  0  0  0
 79150  1  0  0  0
 79151  1  0  0  0
 79 81  1  0  0  0
 80152  1  0  0  0
 80153  1  0  0  0
 81 83  1  0  0  0
 81154  1  0  0  0
 82155  1  0  0  0
 83156  1  0  0  0
M  ISO  4   1 100  68 101  80 101  82 100
M  END
> <chiral flag>
0

> <version>
0

> <s_m_source_file>
/data/baiqing/PycharmProjects/Reinvent-master-3.2/result/LINK_invent/BTK/process_docking_weight1_custom_product_contain_oxygen_bond_distance_aromatic_linkinvent_7_9_3/rearranged_h_0174.sdf

> <i_m_source_file_index>
15

> <r_mmod_Potential_Energy-OPLS-2005>
-74.9127578735352

> <r_mmod_Stretch_Energy-OPLS-2005>
46.8763580322266

> <r_mmod_Bend_Energy-OPLS-2005>
94.0895080566406

> <r_mmod_Torsional_Energy-OPLS-2005>
276.370208740234

> <r_mmod_Improper_Torsional_Energy-OPLS-2005>
5.03510665893555

> <r_mmod_Van_der_Waal_Energy-OPLS-2005>
151.626266479492

> <r_mmod_Electrostatic_Energy-OPLS-2005>
-435.08251953125

> <r_mmod_Solvation_Energy-OPLS-2005>
-230.870422363281

> <b_mmod_Minimization_Converged-OPLS-2005>
0

> <r_mmod_RMS_Derivative-OPLS-2005>
3.36524701118469

$$$$
15
                    3D
 Structure written by MMmdl.
166174  0  0  1  0            999 V2000
  -30.6193  -14.4705   20.6347 C   0  0  0  0  0  0
  -30.4600  -12.3269   19.3915 C   0  0  0  0  0  0
  -29.5065  -12.5236   18.1904 C   0  0  0  0  0  0
  -28.0197  -12.3896   18.5952 C   0  0  0  0  0  0
  -27.6701  -13.1795   19.8839 C   0  0  2  0  0  0
  -28.7148  -12.8680   20.9810 C   0  0  0  0  0  0
  -25.2634  -13.8057   20.5661 C   0  0  0  0  0  0
  -24.1864  -13.0387   20.9204 C   0  0  0  0  0  0
  -24.6374  -11.6837   20.8737 C   0  0  0  0  0  0
  -23.9008  -10.4265   21.0389 C   0  0  0  0  0  0
  -24.3570   -9.4195   21.9169 C   0  0  0  0  0  0
  -23.6269   -8.2234   22.0731 C   0  0  0  0  0  0
  -22.4251   -8.0268   21.3541 C   0  0  0  0  0  0
  -21.9878   -9.0223   20.4633 C   0  0  0  0  0  0
  -22.7174  -10.2118   20.3030 C   0  0  0  0  0  0
  -21.6839   -6.0721   22.5284 C   0  0  0  0  0  0
  -21.4016   -6.5623   23.8222 C   0  0  0  0  0  0
  -21.3663   -5.6773   24.9189 C   0  0  0  0  0  0
  -21.6037   -4.3043   24.7222 C   0  0  0  0  0  0
  -21.8824   -3.8127   23.4355 C   0  0  0  0  0  0
  -21.9203   -4.6955   22.3411 C   0  0  0  0  0  0
  -22.7907  -13.5232   21.1857 C   0  0  0  0  0  0
  -22.1655   -4.2142   21.0989 F   0  0  0  0  0  0
  -21.5635   -3.4526   25.7735 F   0  0  0  0  0  0
  -30.0508  -13.2414   20.4649 N   0  0  0  0  0  0
  -26.3044  -12.9175   20.3343 N   0  0  0  0  0  0
  -25.9291  -11.6371   20.5714 N   0  0  0  0  0  0
  -22.0506  -12.8253   22.0399 N   0  0  0  0  0  0
  -25.4376  -15.1770   20.4091 N   0  0  0  0  0  0
  -31.6656  -14.8471   20.0888 O   0  0  0  0  0  0
  -21.6631   -6.8860   21.4236 O   0  0  0  0  0  0
  -22.3629  -14.5552   20.6691 O   0  0  0  0  0  0
  -24.6144  -31.8663   23.2102 C   0  0  0  0  0  0
  -25.9032  -32.4816   23.8394 C   0  0  1  0  0  0
  -27.2394  -27.4301   20.0860 C   0  0  0  0  0  0
  -25.5882  -33.8615   24.2315 N   0  0  0  0  0  0
  -23.4024  -30.4898   21.5498 C   0  0  2  0  0  0
  -24.8479  -28.9538   20.1140 C   0  0  0  0  0  0
  -22.7403  -29.4641   22.4990 C   0  0  0  0  0  0
  -18.0265  -28.1369   22.8497 C   0  0  0  0  0  0
  -24.1472  -36.7317   23.2642 C   0  0  0  0  0  0
  -25.9311  -30.8279   21.3653 C   0  0  0  0  0  0
  -26.0062  -29.4627   20.7109 C   0  0  0  0  0  0
  -27.2004  -28.7065   20.6976 C   0  0  0  0  0  0
  -26.0596  -26.9386   19.4794 C   0  0  0  0  0  0
  -24.8685  -27.6906   19.4984 C   0  0  0  0  0  0
  -23.6107  -29.8218   20.1641 C   0  0  0  0  0  0
  -25.4098  -36.3106   24.0338 C   0  0  1  0  0  0
  -20.5854  -28.3644   23.1322 C   0  0  2  0  0  0
  -20.6754  -26.9383   22.5425 C   0  0  0  0  0  0
  -19.5736  -26.6370   21.5220 C   0  0  0  0  0  0
  -18.1911  -26.7916   22.1627 C   0  0  0  0  0  0
  -19.1513  -28.8826   23.2903 C   0  0  0  0  0  0
  -18.9448  -30.1434   23.8911 C   0  0  0  0  0  0
  -17.6448  -30.6583   24.0562 C   0  0  0  0  0  0
  -25.9025  -34.9476   23.5129 C   0  0  0  0  0  0
  -16.5344  -29.9087   23.6322 C   0  0  0  0  0  0
  -16.7255  -28.6504   23.0354 C   0  0  0  0  0  0
  -26.4464  -31.6612   25.0735 C   0  0  0  0  0  0
  -25.3738  -31.3729   26.1492 C   0  0  0  0  0  0
  -27.0293  -30.3046   24.6124 C   0  0  0  0  0  0
  -27.6024  -32.4349   25.7499 C   0  0  0  0  0  0
  -27.5577  -37.1808   24.8464 C   0  0  0  0  0  0
  -21.4134  -29.3021   22.3737 N   0  0  0  0  0  0
  -26.4281  -37.3799   23.9422 N   0  0  0  0  0  0
  -24.6672  -31.0764   22.1001 N   0  0  0  0  0  0
  -23.4180  -28.8185   23.3032 O   0  0  0  0  0  0
  -28.4295  -26.7260   20.1127 O   0  0  0  0  0  0
  -26.5603  -34.8931   22.4699 O   0  0  0  0  0  0
  -23.5338  -32.1424   23.7495 O   0  0  0  0  0  0
  -29.9152  -17.6315   20.2915 C   0  0  0  0  0  0
  -29.8425  -17.5445   18.9167 C   0  0  0  0  0  0
  -30.2239  -19.8292   19.8067 C   0  0  0  0  0  0
  -29.4378  -16.6466   21.2957 C   0  0  0  0  0  0
  -29.5780  -24.5915   20.3966 C   0  0  0  0  0  0
  -29.4843  -16.4033   18.0239 C   0  0  0  0  0  0
  -26.8957  -18.3824   20.7122 C   0  0  0  0  0  0
  -27.8390  -19.3505   22.9240 C   0  0  0  0  0  0
  -28.4692  -25.3621   19.6528 C   0  0  0  0  0  0
  -29.9987  -22.3343   19.1171 C   0  0  0  0  0  0
  -27.4583  -18.0984   22.1175 C   0  0  0  0  0  0
  -30.5560  -23.7100   19.5826 C   0  0  0  0  0  0
  -30.1861  -18.9220   20.7830 N   0  0  0  0  0  0
  -30.2669  -21.2040   20.0140 N   0  0  0  0  0  0
  -29.7835  -15.3371   21.4194 N   0  0  0  0  0  0
  -28.4579  -17.0043   22.1720 N   0  3  0  0  0  0
  -29.6789  -24.6796   21.6262 O   0  0  0  0  0  0
  -30.9167  -24.3832   18.4890 F   0  0  0  0  0  0
  -31.6666  -23.4950   20.2941 F   0  0  0  0  0  0
  -30.0956  -19.1218   18.1990 S   0  0  0  0  0  0
  -31.4936  -12.4987   19.0851 H   0  0  0  0  0  0
  -30.4166  -11.2942   19.7419 H   0  0  0  0  0  0
  -29.7474  -11.8070   17.4037 H   0  0  0  0  0  0
  -29.6759  -13.5043   17.7491 H   0  0  0  0  0  0
  -27.8102  -11.3302   18.7408 H   0  0  0  0  0  0
  -27.3761  -12.7118   17.7739 H   0  0  0  0  0  0
  -27.7273  -14.2383   19.6437 H   0  0  0  0  0  0
  -28.7068  -11.7968   21.1943 H   0  0  0  0  0  0
  -28.4500  -13.3323   21.9324 H   0  0  0  0  0  0
  -25.2705   -9.5697   22.4736 H   0  0  0  0  0  0
  -23.9989   -7.4621   22.7418 H   0  0  0  0  0  0
  -21.0810   -8.8696   19.8944 H   0  0  0  0  0  0
  -22.3581  -10.9647   19.6144 H   0  0  0  0  0  0
  -21.2002   -7.6125   23.9720 H   0  0  0  0  0  0
  -21.1481   -6.0504   25.9080 H   0  0  0  0  0  0
  -22.0613   -2.7586   23.2844 H   0  0  0  0  0  0
  -22.4050  -11.9915   22.4847 H   0  0  0  0  0  0
  -21.1118  -13.1292   22.2546 H   0  0  0  0  0  0
  -24.6422  -15.8016   20.4803 H   0  0  0  0  0  0
  -26.2188  -15.5916   19.9223 H   0  0  0  0  0  0
  -26.7107  -32.5511   23.1157 H   0  0  0  0  0  0
  -25.0003  -33.9771   25.0443 H   0  0  0  0  0  0
  -22.6904  -31.3062   21.4107 H   0  0  0  0  0  0
  -23.3727  -35.9652   23.3303 H   0  0  0  0  0  0
  -24.3571  -36.8937   22.2056 H   0  0  0  0  0  0
  -23.7224  -37.6527   23.6654 H   0  0  0  0  0  0
  -26.0470  -31.5923   20.5962 H   0  0  0  0  0  0
  -26.8187  -30.8784   21.9844 H   0  0  0  0  0  0
  -28.0960  -29.0967   21.1604 H   0  0  0  0  0  0
  -26.0309  -25.9819   18.9790 H   0  0  0  0  0  0
  -23.9777  -27.2931   19.0317 H   0  0  0  0  0  0
  -23.7228  -30.5975   19.4054 H   0  0  0  0  0  0
  -22.7327  -29.2445   19.8682 H   0  0  0  0  0  0
  -25.1268  -36.1968   25.0831 H   0  0  0  0  0  0
  -20.9938  -28.3211   24.1444 H   0  0  0  0  0  0
  -20.5638  -26.2266   23.3615 H   0  0  0  0  0  0
  -21.6625  -26.7419   22.1224 H   0  0  0  0  0  0
  -19.6893  -25.6282   21.1243 H   0  0  0  0  0  0
  -19.6678  -27.3186   20.6753 H   0  0  0  0  0  0
  -17.4184  -26.6667   21.4027 H   0  0  0  0  0  0
  -18.0303  -26.0052   22.9014 H   0  0  0  0  0  0
  -19.7933  -30.7240   24.2291 H   0  0  0  0  0  0
  -17.5019  -31.6268   24.5152 H   0  0  0  0  0  0
  -15.5350  -30.3006   23.7631 H   0  0  0  0  0  0
  -15.8650  -28.0827   22.7066 H   0  0  0  0  0  0
  -24.5885  -30.7099   25.7857 H   0  0  0  0  0  0
  -24.8966  -32.2889   26.4972 H   0  0  0  0  0  0
  -25.8099  -30.8887   27.0230 H   0  0  0  0  0  0
  -26.2846  -29.6819   24.1142 H   0  0  0  0  0  0
  -27.4021  -29.7273   25.4599 H   0  0  0  0  0  0
  -27.8703  -30.4371   23.9306 H   0  0  0  0  0  0
  -27.2609  -33.3622   26.2103 H   0  0  0  0  0  0
  -28.3807  -32.6952   25.0320 H   0  0  0  0  0  0
  -28.0706  -31.8465   26.5393 H   0  0  0  0  0  0
  -28.2581  -38.0117   24.7519 H   0  0  0  0  0  0
  -28.1077  -36.2651   24.6255 H   0  0  0  0  0  0
  -27.2305  -37.1420   25.8869 H   0  0  0  0  0  0
  -20.9286  -29.8780   21.6994 H   0  0  0  0  0  0
  -26.0160  -38.2869   24.1448 H   0  0  0  0  0  0
  -29.2689  -16.7540   17.0159 H   0  0  0  0  0  0
  -30.3064  -15.6964   17.9417 H   0  0  0  0  0  0
  -28.5992  -15.8786   18.3718 H   0  0  0  0  0  0
  -25.8177  -18.5384   20.7550 H   0  0  0  0  0  0
  -27.0644  -17.5541   20.0261 H   0  0  0  0  0  0
  -27.3333  -19.2739   20.2660 H   0  0  0  0  0  0
  -26.9563  -19.7702   23.4070 H   0  0  0  0  0  0
  -28.2562  -20.1330   22.2910 H   0  0  0  0  0  0
  -28.5627  -19.1263   23.7086 H   0  0  0  0  0  0
  -27.5356  -24.8412   19.8631 H   0  0  0  0  0  0
  -28.6415  -25.3383   18.5768 H   0  0  0  0  0  0
  -30.4375  -22.0952   18.1470 H   0  0  0  0  0  0
  -28.9231  -22.3974   18.9466 H   0  0  0  0  0  0
  -26.6277  -17.6498   22.6657 H   0  0  0  0  0  0
  -30.4640  -21.4811   20.9693 H   0  0  0  0  0  0
  -29.1427  -14.8684   22.0317 H   0  0  0  0  0  0
  -28.3271  -16.4258   22.9901 H   0  0  0  0  0  0
  1 25  1  0  0  0
  1 30  2  0  0  0
  1 85  1  0  0  0
  2  3  1  0  0  0
  2 25  1  0  0  0
  2 91  1  0  0  0
  2 92  1  0  0  0
  3  4  1  0  0  0
  3 93  1  0  0  0
  3 94  1  0  0  0
  4  5  1  0  0  0
  4 95  1  0  0  0
  4 96  1  0  0  0
  5  6  1  0  0  0
  5 26  1  0  0  0
  5 97  1  0  0  0
  6 25  1  0  0  0
  6 98  1  0  0  0
  6 99  1  0  0  0
  7  8  2  0  0  0
  7 26  1  0  0  0
  7 29  1  0  0  0
  8  9  1  0  0  0
  8 22  1  0  0  0
  9 10  1  0  0  0
  9 27  2  0  0  0
 10 11  2  0  0  0
 10 15  1  0  0  0
 11 12  1  0  0  0
 11100  1  0  0  0
 12 13  2  0  0  0
 12101  1  0  0  0
 13 14  1  0  0  0
 13 31  1  0  0  0
 14 15  2  0  0  0
 14102  1  0  0  0
 15103  1  0  0  0
 16 17  2  0  0  0
 16 21  1  0  0  0
 16 31  1  0  0  0
 17 18  1  0  0  0
 17104  1  0  0  0
 18 19  2  0  0  0
 18105  1  0  0  0
 19 20  1  0  0  0
 19 24  1  0  0  0
 20 21  2  0  0  0
 20106  1  0  0  0
 21 23  1  0  0  0
 22 28  1  0  0  0
 22 32  2  0  0  0
 26 27  1  0  0  0
 28107  1  0  0  0
 28108  1  0  0  0
 29109  1  0  0  0
 29110  1  0  0  0
 33 34  1  0  0  0
 33 66  1  0  0  0
 33 70  2  0  0  0
 34 36  1  0  0  0
 34 59  1  0  0  0
 34111  1  0  0  0
 35 44  2  0  0  0
 35 45  1  0  0  0
 35 68  1  0  0  0
 36 56  1  0  0  0
 36112  1  0  0  0
 37 39  1  0  0  0
 37 47  1  0  0  0
 37 66  1  0  0  0
 37113  1  0  0  0
 38 43  2  0  0  0
 38 46  1  0  0  0
 38 47  1  0  0  0
 39 64  1  0  0  0
 39 67  2  0  0  0
 40 52  1  0  0  0
 40 53  2  0  0  0
 40 58  1  0  0  0
 41114  1  0  0  0
 41115  1  0  0  0
 41116  1  0  0  0
 41 48  1  0  0  0
 42 43  1  0  0  0
 42 66  1  0  0  0
 42117  1  0  0  0
 42118  1  0  0  0
 43 44  1  0  0  0
 44119  1  0  0  0
 45 46  2  0  0  0
 45120  1  0  0  0
 46121  1  0  0  0
 47122  1  0  0  0
 47123  1  0  0  0
 48 56  1  0  0  0
 48 65  1  0  0  0
 48124  1  0  0  0
 49 50  1  0  0  0
 49 53  1  0  0  0
 49 64  1  0  0  0
 49125  1  0  0  0
 50 51  1  0  0  0
 50126  1  0  0  0
 50127  1  0  0  0
 51 52  1  0  0  0
 51128  1  0  0  0
 51129  1  0  0  0
 52130  1  0  0  0
 52131  1  0  0  0
 53 54  1  0  0  0
 54 55  2  0  0  0
 54132  1  0  0  0
 55 57  1  0  0  0
 55133  1  0  0  0
 56 69  2  0  0  0
 57 58  2  0  0  0
 57134  1  0  0  0
 58135  1  0  0  0
 59 60  1  0  0  0
 59 61  1  0  0  0
 59 62  1  0  0  0
 60136  1  0  0  0
 60137  1  0  0  0
 60138  1  0  0  0
 61139  1  0  0  0
 61140  1  0  0  0
 61141  1  0  0  0
 62142  1  0  0  0
 62143  1  0  0  0
 62144  1  0  0  0
 63 65  1  0  0  0
 63145  1  0  0  0
 63146  1  0  0  0
 63147  1  0  0  0
 64148  1  0  0  0
 65149  1  0  0  0
 68 79  1  0  0  0
 71 72  2  0  0  0
 71 74  1  0  0  0
 71 83  1  0  0  0
 72 76  1  0  0  0
 72 90  1  0  0  0
 73 83  2  0  0  0
 73 84  1  0  0  0
 73 90  1  0  0  0
 74 85  1  0  0  0
 74 86  2  0  0  0
 75 79  1  0  0  0
 75 82  1  0  0  0
 75 87  2  0  0  0
 76150  1  0  0  0
 76151  1  0  0  0
 76152  1  0  0  0
 77153  1  0  0  0
 77154  1  0  0  0
 77155  1  0  0  0
 77 81  1  0  0  0
 78 81  1  0  0  0
 78156  1  0  0  0
 78157  1  0  0  0
 78158  1  0  0  0
 79159  1  0  0  0
 79160  1  0  0  0
 80 82  1  0  0  0
 80 84  1  0  0  0
 80161  1  0  0  0
 80162  1  0  0  0
 81 86  1  0  0  0
 81163  1  0  0  0
 82 88  1  0  0  0
 82 89  1  0  0  0
 84164  1  0  0  0
 85165  1  0  0  0
 86166  1  0  0  0
M  CHG  1  86   1
M  ISO  4   1 100  68 101  79 101  85 100
M  END
> <chiral flag>
0

> <version>
0

> <s_m_source_file>
/data/baiqing/PycharmProjects/Reinvent-master-3.2/result/LINK_invent/BTK/process_docking_weight1_custom_product_contain_oxygen_bond_distance_aromatic_linkinvent_7_9_3/rearranged_h_0174.sdf

> <i_m_source_file_index>
16

> <r_mmod_Potential_Energy-OPLS-2005>
-169.462066650391

> <r_mmod_Stretch_Energy-OPLS-2005>
40.6811599731445

> <r_mmod_Bend_Energy-OPLS-2005>
154.381713867188

> <r_mmod_Torsional_Energy-OPLS-2005>
248.057174682617

> <r_mmod_Improper_Torsional_Energy-OPLS-2005>
8.4338321685791

> <r_mmod_Van_der_Waal_Energy-OPLS-2005>
113.621788024902

> <r_mmod_Electrostatic_Energy-OPLS-2005>
-284.572265625

> <r_mmod_Solvation_Energy-OPLS-2005>
-468.72119140625

> <b_mmod_Minimization_Converged-OPLS-2005>
0

> <r_mmod_RMS_Derivative-OPLS-2005>
3.28582978248596

$$$$
16
                    3D
 Structure written by MMmdl.
156164  0  0  1  0            999 V2000
  -30.7115  -14.5076   20.5575 C   0  0  0  0  0  0
  -30.4213  -12.3193   19.4486 C   0  0  0  0  0  0
  -29.5048  -12.5086   18.2223 C   0  0  0  0  0  0
  -28.0267  -12.3565   18.6298 C   0  0  0  0  0  0
  -27.6622  -13.2106   19.8738 C   0  0  2  0  0  0
  -28.7036  -13.0300   21.0045 C   0  0  0  0  0  0
  -25.2605  -13.8164   20.5680 C   0  0  0  0  0  0
  -24.1860  -13.0431   20.9164 C   0  0  0  0  0  0
  -24.6412  -11.6907   20.8714 C   0  0  0  0  0  0
  -23.9068  -10.4298   21.0382 C   0  0  0  0  0  0
  -24.3615   -9.4216   21.9157 C   0  0  0  0  0  0
  -23.6296   -8.2249   22.0746 C   0  0  0  0  0  0
  -22.4270   -8.0285   21.3542 C   0  0  0  0  0  0
  -21.9900   -9.0257   20.4653 C   0  0  0  0  0  0
  -22.7228  -10.2135   20.3044 C   0  0  0  0  0  0
  -21.6865   -6.0729   22.5273 C   0  0  0  0  0  0
  -21.4020   -6.5636   23.8204 C   0  0  0  0  0  0
  -21.3660   -5.6780   24.9160 C   0  0  0  0  0  0
  -21.6042   -4.3045   24.7218 C   0  0  0  0  0  0
  -21.8825   -3.8140   23.4337 C   0  0  0  0  0  0
  -21.9195   -4.6959   22.3395 C   0  0  0  0  0  0
  -22.7889  -13.5234   21.1818 C   0  0  0  0  0  0
  -22.1669   -4.2140   21.0977 F   0  0  0  0  0  0
  -21.5619   -3.4528   25.7721 F   0  0  0  0  0  0
  -30.0348  -13.3288   20.4515 N   0  0  0  0  0  0
  -26.3038  -12.9340   20.3347 N   0  0  0  0  0  0
  -25.9341  -11.6497   20.5745 N   0  0  0  0  0  0
  -22.0535  -12.8244   22.0388 N   0  0  0  0  0  0
  -25.4314  -15.1879   20.4093 N   0  0  0  0  0  0
  -31.8433  -14.6397   20.0829 O   0  0  0  0  0  0
  -21.6647   -6.8881   21.4242 O   0  0  0  0  0  0
  -22.3570  -14.5523   20.6639 O   0  0  0  0  0  0
  -24.6192  -31.8656   23.2080 C   0  0  0  0  0  0
  -25.9068  -32.4810   23.8395 C   0  0  1  0  0  0
  -27.2302  -27.4018   20.1082 C   0  0  0  0  0  0
  -25.5945  -33.8613   24.2343 N   0  0  0  0  0  0
  -23.4102  -30.4842   21.5523 C   0  0  2  0  0  0
  -24.8587  -28.9533   20.1074 C   0  0  0  0  0  0
  -22.7448  -29.4616   22.5014 C   0  0  0  0  0  0
  -18.0278  -28.1369   22.8507 C   0  0  0  0  0  0
  -24.1477  -36.7301   23.2602 C   0  0  0  0  0  0
  -25.9402  -30.8201   21.3659 C   0  0  0  0  0  0
  -26.0201  -29.4524   20.7130 C   0  0  0  0  0  0
  -27.2133  -28.6859   20.7084 C   0  0  0  0  0  0
  -26.0636  -26.9429   19.4619 C   0  0  0  0  0  0
  -24.8799  -27.7014   19.4689 C   0  0  0  0  0  0
  -23.6191  -29.8172   20.1659 C   0  0  0  0  0  0
  -25.4069  -36.3099   24.0354 C   0  0  1  0  0  0
  -20.5868  -28.3641   23.1328 C   0  0  2  0  0  0
  -20.6758  -26.9392   22.5404 C   0  0  0  0  0  0
  -19.5721  -26.6381   21.5216 C   0  0  0  0  0  0
  -18.1921  -26.7904   22.1662 C   0  0  0  0  0  0
  -19.1529  -28.8831   23.2899 C   0  0  0  0  0  0
  -18.9446  -30.1446   23.8870 C   0  0  0  0  0  0
  -17.6443  -30.6574   24.0557 C   0  0  0  0  0  0
  -25.9046  -34.9480   23.5145 C   0  0  0  0  0  0
  -16.5335  -29.9064   23.6342 C   0  0  0  0  0  0
  -16.7265  -28.6497   23.0351 C   0  0  0  0  0  0
  -26.4478  -31.6579   25.0728 C   0  0  0  0  0  0
  -25.3789  -31.3804   26.1557 C   0  0  0  0  0  0
  -27.0176  -30.2965   24.6097 C   0  0  0  0  0  0
  -27.6163  -32.4204   25.7405 C   0  0  0  0  0  0
  -27.5647  -37.1682   24.8376 C   0  0  0  0  0  0
  -21.4170  -29.3010   22.3762 N   0  0  0  0  0  0
  -26.4208  -37.3851   23.9560 N   0  0  0  0  0  0
  -24.6757  -31.0704   22.1012 N   0  0  0  0  0  0
  -23.4203  -28.8159   23.3078 O   0  0  0  0  0  0
  -28.3384  -26.5749   20.1542 O   0  0  0  0  0  0
  -26.5592  -34.8950   22.4692 O   0  0  0  0  0  0
  -23.5372  -32.1438   23.7427 O   0  0  0  0  0  0
  -31.3990  -19.1773   20.7484 C   0  0  0  0  0  0
  -29.4165  -17.9582   21.0726 C   0  0  0  0  0  0
  -30.0403  -19.2489   20.8881 C   0  0  0  0  0  0
  -30.3135  -16.8991   21.0039 C   0  0  0  0  0  0
  -28.7003  -22.7969   20.8176 C   0  0  0  0  0  0
  -28.9587  -24.1151   20.5167 C   0  0  0  0  0  0
  -29.6494  -21.7154   20.4448 C   0  0  0  0  0  0
  -27.9382  -17.7870   21.2750 C   0  0  0  0  0  0
  -27.4311  -22.3598   21.5610 C   0  0  0  0  0  0
  -28.1047  -25.3461   20.9035 C   0  0  0  0  0  0
  -29.3056  -20.4856   20.9105 N   0  0  0  0  0  0
  -30.0224  -15.5548   21.0805 N   0  0  0  0  0  0
  -30.6642  -21.8975   19.7633 O   0  0  0  0  0  0
  -30.0375  -24.5319   19.8292 O   0  0  0  0  0  0
  -31.9489  -17.5322   20.8187 S   0  0  0  0  0  0
  -31.4708  -12.3935   19.1567 H   0  0  0  0  0  0
  -30.3032  -11.3168   19.8616 H   0  0  0  0  0  0
  -29.7577  -11.7875   17.4443 H   0  0  0  0  0  0
  -29.6703  -13.4971   17.7894 H   0  0  0  0  0  0
  -27.8482  -11.3016   18.8402 H   0  0  0  0  0  0
  -27.3749  -12.6101   17.7932 H   0  0  0  0  0  0
  -27.6980  -14.2512   19.5530 H   0  0  0  0  0  0
  -28.6890  -12.0067   21.3795 H   0  0  0  0  0  0
  -28.4609  -13.6588   21.8623 H   0  0  0  0  0  0
  -25.2776   -9.5686   22.4707 H   0  0  0  0  0  0
  -24.0011   -7.4649   22.7464 H   0  0  0  0  0  0
  -21.0817   -8.8773   19.8983 H   0  0  0  0  0  0
  -22.3682  -10.9650   19.6142 H   0  0  0  0  0  0
  -21.2030   -7.6147   23.9699 H   0  0  0  0  0  0
  -21.1464   -6.0513   25.9059 H   0  0  0  0  0  0
  -22.0600   -2.7606   23.2828 H   0  0  0  0  0  0
  -22.4156  -11.9904   22.4775 H   0  0  0  0  0  0
  -21.1165  -13.1300   22.2618 H   0  0  0  0  0  0
  -24.6601  -15.8373   20.5141 H   0  0  0  0  0  0
  -26.2766  -15.6248   20.0660 H   0  0  0  0  0  0
  -26.7139  -32.5493   23.1160 H   0  0  0  0  0  0
  -25.0192  -33.9778   25.0548 H   0  0  0  0  0  0
  -22.7011  -31.3027   21.4141 H   0  0  0  0  0  0
  -23.3872  -35.9481   23.2928 H   0  0  0  0  0  0
  -24.3712  -36.9239   22.2102 H   0  0  0  0  0  0
  -23.6997  -37.6316   23.6795 H   0  0  0  0  0  0
  -26.0520  -31.5811   20.5921 H   0  0  0  0  0  0
  -26.8315  -30.8774   21.9796 H   0  0  0  0  0  0
  -28.1049  -29.0625   21.1922 H   0  0  0  0  0  0
  -26.0723  -25.9831   18.9625 H   0  0  0  0  0  0
  -23.9976  -27.3197   18.9723 H   0  0  0  0  0  0
  -23.7198  -30.5918   19.4049 H   0  0  0  0  0  0
  -22.7438  -29.2331   19.8769 H   0  0  0  0  0  0
  -25.1174  -36.1917   25.0823 H   0  0  0  0  0  0
  -20.9961  -28.3169   24.1444 H   0  0  0  0  0  0
  -20.5716  -26.2233   23.3573 H   0  0  0  0  0  0
  -21.6619  -26.7465   22.1156 H   0  0  0  0  0  0
  -19.6871  -25.6292   21.1251 H   0  0  0  0  0  0
  -19.6640  -27.3188   20.6745 H   0  0  0  0  0  0
  -17.4185  -26.6641   21.4081 H   0  0  0  0  0  0
  -18.0342  -26.0058   22.9077 H   0  0  0  0  0  0
  -19.7919  -30.7295   24.2208 H   0  0  0  0  0  0
  -17.4995  -31.6262   24.5148 H   0  0  0  0  0  0
  -15.5330  -30.2946   23.7674 H   0  0  0  0  0  0
  -15.8682  -28.0822   22.7025 H   0  0  0  0  0  0
  -24.5643  -30.7544   25.7906 H   0  0  0  0  0  0
  -24.9397  -32.3043   26.5332 H   0  0  0  0  0  0
  -25.8107  -30.8619   27.0126 H   0  0  0  0  0  0
  -26.2618  -29.6776   24.1240 H   0  0  0  0  0  0
  -27.3976  -29.7182   25.4529 H   0  0  0  0  0  0
  -27.8499  -30.4215   23.9164 H   0  0  0  0  0  0
  -27.2977  -33.3633   26.1868 H   0  0  0  0  0  0
  -28.4010  -32.6508   25.0185 H   0  0  0  0  0  0
  -28.0743  -31.8324   26.5374 H   0  0  0  0  0  0
  -28.2302  -38.0321   24.8042 H   0  0  0  0  0  0
  -28.1490  -36.2963   24.5389 H   0  0  0  0  0  0
  -27.2532  -37.0323   25.8748 H   0  0  0  0  0  0
  -20.9330  -29.8784   21.7029 H   0  0  0  0  0  0
  -26.0073  -38.2836   24.1917 H   0  0  0  0  0  0
  -32.1147  -19.9803   20.6180 H   0  0  0  0  0  0
  -27.5352  -18.5583   21.9314 H   0  0  0  0  0  0
  -27.6920  -16.8275   21.7275 H   0  0  0  0  0  0
  -27.4072  -17.8539   20.3260 H   0  0  0  0  0  0
  -26.7969  -23.1794   21.8932 H   0  0  0  0  0  0
  -27.6849  -21.7845   22.4535 H   0  0  0  0  0  0
  -26.8266  -21.7217   20.9118 H   0  0  0  0  0  0
  -28.3217  -25.5735   21.9473 H   0  0  0  0  0  0
  -27.0569  -25.0563   20.8725 H   0  0  0  0  0  0
  -28.4029  -20.4590   21.3627 H   0  0  0  0  0  0
  -29.1061  -15.3154   21.4267 H   0  0  0  0  0  0
  -30.5412  -23.7531   19.6025 H   0  0  0  0  0  0
  1 25  1  0  0  0
  1 30  2  0  0  0
  1 82  1  0  0  0
  2  3  1  0  0  0
  2 25  1  0  0  0
  2 86  1  0  0  0
  2 87  1  0  0  0
  3  4  1  0  0  0
  3 88  1  0  0  0
  3 89  1  0  0  0
  4  5  1  0  0  0
  4 90  1  0  0  0
  4 91  1  0  0  0
  5  6  1  0  0  0
  5 26  1  0  0  0
  5 92  1  0  0  0
  6 25  1  0  0  0
  6 93  1  0  0  0
  6 94  1  0  0  0
  7  8  2  0  0  0
  7 26  1  0  0  0
  7 29  1  0  0  0
  8  9  1  0  0  0
  8 22  1  0  0  0
  9 10  1  0  0  0
  9 27  2  0  0  0
 10 11  2  0  0  0
 10 15  1  0  0  0
 11 12  1  0  0  0
 11 95  1  0  0  0
 12 13  2  0  0  0
 12 96  1  0  0  0
 13 14  1  0  0  0
 13 31  1  0  0  0
 14 15  2  0  0  0
 14 97  1  0  0  0
 15 98  1  0  0  0
 16 17  2  0  0  0
 16 21  1  0  0  0
 16 31  1  0  0  0
 17 18  1  0  0  0
 17 99  1  0  0  0
 18 19  2  0  0  0
 18100  1  0  0  0
 19 20  1  0  0  0
 19 24  1  0  0  0
 20 21  2  0  0  0
 20101  1  0  0  0
 21 23  1  0  0  0
 22 28  1  0  0  0
 22 32  2  0  0  0
 26 27  1  0  0  0
 28102  1  0  0  0
 28103  1  0  0  0
 29104  1  0  0  0
 29105  1  0  0  0
 33 34  1  0  0  0
 33 66  1  0  0  0
 33 70  2  0  0  0
 34 36  1  0  0  0
 34 59  1  0  0  0
 34106  1  0  0  0
 35 44  2  0  0  0
 35 45  1  0  0  0
 35 68  1  0  0  0
 36 56  1  0  0  0
 36107  1  0  0  0
 37 39  1  0  0  0
 37 47  1  0  0  0
 37 66  1  0  0  0
 37108  1  0  0  0
 38 43  2  0  0  0
 38 46  1  0  0  0
 38 47  1  0  0  0
 39 64  1  0  0  0
 39 67  2  0  0  0
 40 52  1  0  0  0
 40 53  2  0  0  0
 40 58  1  0  0  0
 41109  1  0  0  0
 41110  1  0  0  0
 41111  1  0  0  0
 41 48  1  0  0  0
 42 43  1  0  0  0
 42 66  1  0  0  0
 42112  1  0  0  0
 42113  1  0  0  0
 43 44  1  0  0  0
 44114  1  0  0  0
 45 46  2  0  0  0
 45115  1  0  0  0
 46116  1  0  0  0
 47117  1  0  0  0
 47118  1  0  0  0
 48 56  1  0  0  0
 48 65  1  0  0  0
 48119  1  0  0  0
 49 50  1  0  0  0
 49 53  1  0  0  0
 49 64  1  0  0  0
 49120  1  0  0  0
 50 51  1  0  0  0
 50121  1  0  0  0
 50122  1  0  0  0
 51 52  1  0  0  0
 51123  1  0  0  0
 51124  1  0  0  0
 52125  1  0  0  0
 52126  1  0  0  0
 53 54  1  0  0  0
 54 55  2  0  0  0
 54127  1  0  0  0
 55 57  1  0  0  0
 55128  1  0  0  0
 56 69  2  0  0  0
 57 58  2  0  0  0
 57129  1  0  0  0
 58130  1  0  0  0
 59 60  1  0  0  0
 59 61  1  0  0  0
 59 62  1  0  0  0
 60131  1  0  0  0
 60132  1  0  0  0
 60133  1  0  0  0
 61134  1  0  0  0
 61135  1  0  0  0
 61136  1  0  0  0
 62137  1  0  0  0
 62138  1  0  0  0
 62139  1  0  0  0
 63 65  1  0  0  0
 63140  1  0  0  0
 63141  1  0  0  0
 63142  1  0  0  0
 64143  1  0  0  0
 65144  1  0  0  0
 68 80  1  0  0  0
 71 73  2  0  0  0
 71 85  1  0  0  0
 71145  1  0  0  0
 72 73  1  0  0  0
 72 74  2  0  0  0
 72 78  1  0  0  0
 73 81  1  0  0  0
 74 82  1  0  0  0
 74 85  1  0  0  0
 75 76  2  0  0  0
 75 77  1  0  0  0
 75 79  1  0  0  0
 76 80  1  0  0  0
 76 84  1  0  0  0
 77 81  1  0  0  0
 77 83  2  0  0  0
 78146  1  0  0  0
 78147  1  0  0  0
 78148  1  0  0  0
 79149  1  0  0  0
 79150  1  0  0  0
 79151  1  0  0  0
 80152  1  0  0  0
 80153  1  0  0  0
 81154  1  0  0  0
 82155  1  0  0  0
 84156  1  0  0  0
M  ISO  4   1 100  68 101  80 101  82 100
M  END
> <chiral flag>
0

> <version>
0

> <s_m_source_file>
/data/baiqing/PycharmProjects/Reinvent-master-3.2/result/LINK_invent/BTK/process_docking_weight1_custom_product_contain_oxygen_bond_distance_aromatic_linkinvent_7_9_3/rearranged_h_0174.sdf

> <i_m_source_file_index>
17

> <r_mmod_Potential_Energy-OPLS-2005>
-67.3443756103516

> <r_mmod_Stretch_Energy-OPLS-2005>
51.5812149047852

> <r_mmod_Bend_Energy-OPLS-2005>
112.395790100098

> <r_mmod_Torsional_Energy-OPLS-2005>
231.291961669922

> <r_mmod_Improper_Torsional_Energy-OPLS-2005>
3.69147658348083

> <r_mmod_Van_der_Waal_Energy-OPLS-2005>
157.254211425781

> <r_mmod_Electrostatic_Energy-OPLS-2005>
-408.140441894531

> <r_mmod_Solvation_Energy-OPLS-2005>
-237.426116943359

> <b_mmod_Minimization_Converged-OPLS-2005>
0

> <r_mmod_RMS_Derivative-OPLS-2005>
3.14874982833862

$$$$
17
                    3D
 Structure written by MMmdl.
166174  0  0  1  0            999 V2000
  -30.6929  -14.5332   20.4615 C   0  0  0  0  0  0
  -30.4110  -12.3154   19.4362 C   0  0  0  0  0  0
  -29.4871  -12.4842   18.2109 C   0  0  0  0  0  0
  -28.0091  -12.3562   18.6227 C   0  0  0  0  0  0
  -27.6509  -13.2209   19.8613 C   0  0  2  0  0  0
  -28.6999  -13.0660   20.9863 C   0  0  0  0  0  0
  -25.2538  -13.8223   20.5676 C   0  0  0  0  0  0
  -24.1792  -13.0478   20.9141 C   0  0  0  0  0  0
  -24.6385  -11.6951   20.8756 C   0  0  0  0  0  0
  -23.9079  -10.4309   21.0431 C   0  0  0  0  0  0
  -24.3635   -9.4220   21.9209 C   0  0  0  0  0  0
  -23.6292   -8.2265   22.0770 C   0  0  0  0  0  0
  -22.4272   -8.0305   21.3569 C   0  0  0  0  0  0
  -21.9918   -9.0284   20.4671 C   0  0  0  0  0  0
  -22.7258  -10.2154   20.3081 C   0  0  0  0  0  0
  -21.6861   -6.0732   22.5281 C   0  0  0  0  0  0
  -21.4014   -6.5640   23.8208 C   0  0  0  0  0  0
  -21.3645   -5.6797   24.9177 C   0  0  0  0  0  0
  -21.6035   -4.3057   24.7225 C   0  0  0  0  0  0
  -21.8819   -3.8142   23.4350 C   0  0  0  0  0  0
  -21.9182   -4.6957   22.3406 C   0  0  0  0  0  0
  -22.7808  -13.5266   21.1809 C   0  0  0  0  0  0
  -22.1664   -4.2143   21.0983 F   0  0  0  0  0  0
  -21.5613   -3.4542   25.7734 F   0  0  0  0  0  0
  -30.0235  -13.3442   20.4163 N   0  0  0  0  0  0
  -26.2971  -12.9415   20.3335 N   0  0  0  0  0  0
  -25.9314  -11.6569   20.5783 N   0  0  0  0  0  0
  -22.0482  -12.8242   22.0382 N   0  0  0  0  0  0
  -25.4260  -15.1953   20.4123 N   0  0  0  0  0  0
  -31.8844  -14.6143   20.1587 O   0  0  0  0  0  0
  -21.6655   -6.8888   21.4250 O   0  0  0  0  0  0
  -22.3478  -14.5580   20.6668 O   0  0  0  0  0  0
  -24.6196  -31.8659   23.2103 C   0  0  0  0  0  0
  -25.9082  -32.4784   23.8396 C   0  0  1  0  0  0
  -27.2200  -27.3992   20.0878 C   0  0  0  0  0  0
  -25.5928  -33.8592   24.2299 N   0  0  0  0  0  0
  -23.4079  -30.4913   21.5519 C   0  0  2  0  0  0
  -24.8530  -28.9598   20.1081 C   0  0  0  0  0  0
  -22.7438  -29.4632   22.4982 C   0  0  0  0  0  0
  -18.0284  -28.1380   22.8449 C   0  0  0  0  0  0
  -24.1496  -36.7303   23.2637 C   0  0  0  0  0  0
  -25.9443  -30.8186   21.3713 C   0  0  0  0  0  0
  -26.0193  -29.4545   20.7066 C   0  0  0  0  0  0
  -27.2137  -28.6849   20.6920 C   0  0  0  0  0  0
  -26.0421  -26.9378   19.4638 C   0  0  0  0  0  0
  -24.8611  -27.7037   19.4789 C   0  0  0  0  0  0
  -23.6158  -29.8300   20.1643 C   0  0  0  0  0  0
  -25.4102  -36.3083   24.0333 C   0  0  1  0  0  0
  -20.5865  -28.3677   23.1302 C   0  0  2  0  0  0
  -20.6738  -26.9360   22.5563 C   0  0  0  0  0  0
  -19.5781  -26.6270   21.5306 C   0  0  0  0  0  0
  -18.1921  -26.7892   22.1625 C   0  0  0  0  0  0
  -19.1531  -28.8858   23.2846 C   0  0  0  0  0  0
  -18.9446  -30.1445   23.8869 C   0  0  0  0  0  0
  -17.6448  -30.6566   24.0536 C   0  0  0  0  0  0
  -25.9046  -34.9455   23.5108 C   0  0  0  0  0  0
  -16.5333  -29.9091   23.6274 C   0  0  0  0  0  0
  -16.7278  -28.6509   23.0302 C   0  0  0  0  0  0
  -26.4482  -31.6589   25.0760 C   0  0  0  0  0  0
  -25.3722  -31.3771   26.1515 C   0  0  0  0  0  0
  -27.0315  -30.3001   24.6210 C   0  0  0  0  0  0
  -27.6050  -32.4341   25.7503 C   0  0  0  0  0  0
  -27.5565  -37.1793   24.8464 C   0  0  0  0  0  0
  -21.4171  -29.2991   22.3687 N   0  0  0  0  0  0
  -26.4287  -37.3760   23.9409 N   0  0  0  0  0  0
  -24.6749  -31.0737   22.1009 N   0  0  0  0  0  0
  -23.4185  -28.8167   23.3047 O   0  0  0  0  0  0
  -28.3216  -26.5555   20.1229 O   0  0  0  0  0  0
  -26.5619  -34.8920   22.4671 O   0  0  0  0  0  0
  -23.5381  -32.1462   23.7471 O   0  0  0  0  0  0
  -31.0801  -18.3464   18.2310 C   0  0  0  0  0  0
  -30.9470  -17.0983   18.8659 C   0  0  0  0  0  0
  -30.3935  -19.4928   18.6878 C   0  0  0  0  0  0
  -30.1436  -16.9478   20.0193 C   0  0  0  0  0  0
  -29.5716  -19.3851   19.8486 C   0  0  0  0  0  0
  -29.4693  -18.1108   20.5010 C   0  0  0  0  0  0
  -30.5263  -20.7395   17.8885 C   0  0  0  0  0  0
  -28.4230  -22.9840   20.7864 C   0  0  0  0  0  0
  -26.9613  -22.6874   21.1377 C   0  0  0  0  0  0
  -28.6203  -25.7934   22.3595 C   0  0  0  0  0  0
  -29.3817  -21.7423   20.8076 C   0  0  1  0  0  0
  -28.1204  -25.3874   20.9654 C   0  0  2  0  0  0
  -30.0048  -21.5733   22.2235 C   0  0  0  0  0  0
  -31.5240  -21.0534   17.1734 N   0  0  0  0  0  0
  -28.8698  -24.1808   20.5547 N   0  0  0  0  0  0
  -28.6962  -18.0095   21.6602 N   0  0  0  0  0  0
  -29.9393  -15.6507   20.6391 N   0  0  0  0  0  0
  -28.7835  -20.4581   20.3485 N   0  0  0  0  0  0
  -29.0763  -21.1547   23.0859 F   0  0  0  0  0  0
  -30.5352  -22.7130   22.6708 F   0  0  0  0  0  0
  -30.9771  -20.6605   22.1937 F   0  0  0  0  0  0
  -31.4567  -12.3927   19.1326 H   0  0  0  0  0  0
  -30.2950  -11.3197   19.8676 H   0  0  0  0  0  0
  -29.7228  -11.7432   17.4460 H   0  0  0  0  0  0
  -29.6534  -13.4590   17.7501 H   0  0  0  0  0  0
  -27.8142  -11.3050   18.8345 H   0  0  0  0  0  0
  -27.3603  -12.6224   17.7868 H   0  0  0  0  0  0
  -27.6741  -14.2563   19.5243 H   0  0  0  0  0  0
  -28.6781  -12.0563   21.3982 H   0  0  0  0  0  0
  -28.4777  -13.7397   21.8156 H   0  0  0  0  0  0
  -25.2809   -9.5642   22.4771 H   0  0  0  0  0  0
  -23.9973   -7.4641   22.7495 H   0  0  0  0  0  0
  -21.0835   -8.8822   19.8997 H   0  0  0  0  0  0
  -22.3748  -10.9684   19.6165 H   0  0  0  0  0  0
  -21.2049   -7.6154   23.9702 H   0  0  0  0  0  0
  -21.1459   -6.0542   25.9069 H   0  0  0  0  0  0
  -22.0612   -2.7600   23.2864 H   0  0  0  0  0  0
  -22.4118  -11.9905   22.4754 H   0  0  0  0  0  0
  -21.1113  -13.1274   22.2632 H   0  0  0  0  0  0
  -24.6807  -15.8619   20.5789 H   0  0  0  0  0  0
  -26.2989  -15.6430   20.1597 H   0  0  0  0  0  0
  -26.7144  -32.5467   23.1142 H   0  0  0  0  0  0
  -25.0087  -33.9773   25.0455 H   0  0  0  0  0  0
  -22.6963  -31.3098   21.4138 H   0  0  0  0  0  0
  -23.3751  -35.9654   23.3327 H   0  0  0  0  0  0
  -24.3589  -36.8909   22.2058 H   0  0  0  0  0  0
  -23.7294  -37.6524   23.6640 H   0  0  0  0  0  0
  -26.0765  -31.5959   20.6176 H   0  0  0  0  0  0
  -26.8241  -30.8558   22.0000 H   0  0  0  0  0  0
  -28.1086  -29.0562   21.1719 H   0  0  0  0  0  0
  -26.0310  -25.9701   18.9820 H   0  0  0  0  0  0
  -23.9631  -27.3271   19.0089 H   0  0  0  0  0  0
  -23.7335  -30.6132   19.4152 H   0  0  0  0  0  0
  -22.7340  -29.2598   19.8592 H   0  0  0  0  0  0
  -25.1256  -36.1937   25.0822 H   0  0  0  0  0  0
  -20.9910  -28.3331   24.1437 H   0  0  0  0  0  0
  -20.5509  -26.2398   23.3878 H   0  0  0  0  0  0
  -21.6631  -26.7269   22.1509 H   0  0  0  0  0  0
  -19.6982  -25.6100   21.1501 H   0  0  0  0  0  0
  -19.6826  -27.2993   20.6767 H   0  0  0  0  0  0
  -17.4221  -26.6611   21.4002 H   0  0  0  0  0  0
  -18.0303  -26.0083   22.9071 H   0  0  0  0  0  0
  -19.7903  -30.7282   24.2286 H   0  0  0  0  0  0
  -17.4975  -31.6216   24.5174 H   0  0  0  0  0  0
  -15.5329  -30.2977   23.7599 H   0  0  0  0  0  0
  -15.8677  -28.0819   22.7032 H   0  0  0  0  0  0
  -24.5848  -30.7157   25.7886 H   0  0  0  0  0  0
  -24.8952  -32.2956   26.4931 H   0  0  0  0  0  0
  -25.8041  -30.8956   27.0296 H   0  0  0  0  0  0
  -26.2899  -29.6774   24.1192 H   0  0  0  0  0  0
  -27.3978  -29.7228   25.4712 H   0  0  0  0  0  0
  -27.8772  -30.4282   23.9458 H   0  0  0  0  0  0
  -27.2638  -33.3619   26.2103 H   0  0  0  0  0  0
  -28.3804  -32.6973   25.0299 H   0  0  0  0  0  0
  -28.0784  -31.8490   26.5395 H   0  0  0  0  0  0
  -28.2573  -38.0085   24.7424 H   0  0  0  0  0  0
  -28.1054  -36.2609   24.6328 H   0  0  0  0  0  0
  -27.2293  -37.1482   25.8872 H   0  0  0  0  0  0
  -20.9405  -29.8731   21.6887 H   0  0  0  0  0  0
  -26.0182  -38.2843   24.1394 H   0  0  0  0  0  0
  -31.6946  -18.3997   17.3453 H   0  0  0  0  0  0
  -31.4507  -16.2579   18.4134 H   0  0  0  0  0  0
  -29.6794  -21.4287   17.9394 H   0  0  0  0  0  0
  -26.7165  -21.6251   21.1221 H   0  0  0  0  0  0
  -26.2935  -23.1624   20.4153 H   0  0  0  0  0  0
  -26.7266  -23.0610   22.1336 H   0  0  0  0  0  0
  -28.5062  -24.9880   23.0853 H   0  0  0  0  0  0
  -28.0743  -26.6558   22.7410 H   0  0  0  0  0  0
  -29.6747  -26.0702   22.3195 H   0  0  0  0  0  0
  -30.2119  -21.9932   20.1530 H   0  0  0  0  0  0
  -27.0559  -25.1787   21.0553 H   0  0  0  0  0  0
  -32.2578  -20.3545   17.2298 H   0  0  0  0  0  0
  -28.6848  -18.8514   22.2192 H   0  0  0  0  0  0
  -28.9612  -17.2274   22.2451 H   0  0  0  0  0  0
  -29.0306  -15.5167   21.0553 H   0  0  0  0  0  0
  -28.1169  -20.1045   21.0251 H   0  0  0  0  0  0
  1 25  1  0  0  0
  1 30  2  0  0  0
  1 87  1  0  0  0
  2  3  1  0  0  0
  2 25  1  0  0  0
  2 92  1  0  0  0
  2 93  1  0  0  0
  3  4  1  0  0  0
  3 94  1  0  0  0
  3 95  1  0  0  0
  4  5  1  0  0  0
  4 96  1  0  0  0
  4 97  1  0  0  0
  5  6  1  0  0  0
  5 26  1  0  0  0
  5 98  1  0  0  0
  6 25  1  0  0  0
  6 99  1  0  0  0
  6100  1  0  0  0
  7  8  2  0  0  0
  7 26  1  0  0  0
  7 29  1  0  0  0
  8  9  1  0  0  0
  8 22  1  0  0  0
  9 10  1  0  0  0
  9 27  2  0  0  0
 10 11  2  0  0  0
 10 15  1  0  0  0
 11 12  1  0  0  0
 11101  1  0  0  0
 12 13  2  0  0  0
 12102  1  0  0  0
 13 14  1  0  0  0
 13 31  1  0  0  0
 14 15  2  0  0  0
 14103  1  0  0  0
 15104  1  0  0  0
 16 17  2  0  0  0
 16 21  1  0  0  0
 16 31  1  0  0  0
 17 18  1  0  0  0
 17105  1  0  0  0
 18 19  2  0  0  0
 18106  1  0  0  0
 19 20  1  0  0  0
 19 24  1  0  0  0
 20 21  2  0  0  0
 20107  1  0  0  0
 21 23  1  0  0  0
 22 28  1  0  0  0
 22 32  2  0  0  0
 26 27  1  0  0  0
 28108  1  0  0  0
 28109  1  0  0  0
 29110  1  0  0  0
 29111  1  0  0  0
 33 34  1  0  0  0
 33 66  1  0  0  0
 33 70  2  0  0  0
 34 36  1  0  0  0
 34 59  1  0  0  0
 34112  1  0  0  0
 35 44  2  0  0  0
 35 45  1  0  0  0
 35 68  1  0  0  0
 36 56  1  0  0  0
 36113  1  0  0  0
 37 39  1  0  0  0
 37 47  1  0  0  0
 37 66  1  0  0  0
 37114  1  0  0  0
 38 43  2  0  0  0
 38 46  1  0  0  0
 38 47  1  0  0  0
 39 64  1  0  0  0
 39 67  2  0  0  0
 40 52  1  0  0  0
 40 53  2  0  0  0
 40 58  1  0  0  0
 41115  1  0  0  0
 41116  1  0  0  0
 41117  1  0  0  0
 41 48  1  0  0  0
 42 43  1  0  0  0
 42 66  1  0  0  0
 42118  1  0  0  0
 42119  1  0  0  0
 43 44  1  0  0  0
 44120  1  0  0  0
 45 46  2  0  0  0
 45121  1  0  0  0
 46122  1  0  0  0
 47123  1  0  0  0
 47124  1  0  0  0
 48 56  1  0  0  0
 48 65  1  0  0  0
 48125  1  0  0  0
 49 50  1  0  0  0
 49 53  1  0  0  0
 49 64  1  0  0  0
 49126  1  0  0  0
 50 51  1  0  0  0
 50127  1  0  0  0
 50128  1  0  0  0
 51 52  1  0  0  0
 51129  1  0  0  0
 51130  1  0  0  0
 52131  1  0  0  0
 52132  1  0  0  0
 53 54  1  0  0  0
 54 55  2  0  0  0
 54133  1  0  0  0
 55 57  1  0  0  0
 55134  1  0  0  0
 56 69  2  0  0  0
 57 58  2  0  0  0
 57135  1  0  0  0
 58136  1  0  0  0
 59 60  1  0  0  0
 59 61  1  0  0  0
 59 62  1  0  0  0
 60137  1  0  0  0
 60138  1  0  0  0
 60139  1  0  0  0
 61140  1  0  0  0
 61141  1  0  0  0
 61142  1  0  0  0
 62143  1  0  0  0
 62144  1  0  0  0
 62145  1  0  0  0
 63 65  1  0  0  0
 63146  1  0  0  0
 63147  1  0  0  0
 63148  1  0  0  0
 64149  1  0  0  0
 65150  1  0  0  0
 68 82  1  0  0  0
 71 72  2  0  0  0
 71 73  1  0  0  0
 71151  1  0  0  0
 72 74  1  0  0  0
 72152  1  0  0  0
 73 75  2  0  0  0
 73 77  1  0  0  0
 74 76  2  0  0  0
 74 87  1  0  0  0
 75 76  1  0  0  0
 75 88  1  0  0  0
 76 86  1  0  0  0
 77 84  2  0  0  0
 77153  1  0  0  0
 78 79  1  0  0  0
 78 81  1  0  0  0
 78 85  2  0  0  0
 79154  1  0  0  0
 79155  1  0  0  0
 79156  1  0  0  0
 80157  1  0  0  0
 80158  1  0  0  0
 80159  1  0  0  0
 80 82  1  0  0  0
 81 83  1  0  0  0
 81 88  1  0  0  0
 81160  1  0  0  0
 82 85  1  0  0  0
 82161  1  0  0  0
 83 89  1  0  0  0
 83 90  1  0  0  0
 83 91  1  0  0  0
 84162  1  0  0  0
 86163  1  0  0  0
 86164  1  0  0  0
 87165  1  0  0  0
 88166  1  0  0  0
M  ISO  4   1 100  68 101  82 101  87 100
M  END
> <chiral flag>
0

> <version>
0

> <s_m_source_file>
/data/baiqing/PycharmProjects/Reinvent-master-3.2/result/LINK_invent/BTK/process_docking_weight1_custom_product_contain_oxygen_bond_distance_aromatic_linkinvent_7_9_3/rearranged_h_0174.sdf

> <i_m_source_file_index>
18

> <r_mmod_Potential_Energy-OPLS-2005>
-20.2749176025391

> <r_mmod_Stretch_Energy-OPLS-2005>
61.5972099304199

> <r_mmod_Bend_Energy-OPLS-2005>
116.784828186035

> <r_mmod_Torsional_Energy-OPLS-2005>
290.203369140625

> <r_mmod_Improper_Torsional_Energy-OPLS-2005>
16.3686962127686

> <r_mmod_Van_der_Waal_Energy-OPLS-2005>
172.753402709961

> <r_mmod_Electrostatic_Energy-OPLS-2005>
-473.357818603516

> <r_mmod_Solvation_Energy-OPLS-2005>
-234.121398925781

> <b_mmod_Minimization_Converged-OPLS-2005>
0

> <r_mmod_RMS_Derivative-OPLS-2005>
4.35292768478394

$$$$
18
                    3D
 Structure written by MMmdl.
171179  0  0  1  0            999 V2000
  -30.7604  -14.4871   20.5807 C   0  0  0  0  0  0
  -30.4048  -12.3183   19.4513 C   0  0  0  0  0  0
  -29.4959  -12.5076   18.2220 C   0  0  0  0  0  0
  -28.0187  -12.3670   18.6297 C   0  0  0  0  0  0
  -27.6588  -13.2196   19.8758 C   0  0  2  0  0  0
  -28.7014  -13.0603   21.0085 C   0  0  0  0  0  0
  -25.2534  -13.8105   20.5554 C   0  0  0  0  0  0
  -24.1834  -13.0411   20.9193 C   0  0  0  0  0  0
  -24.6426  -11.6894   20.8785 C   0  0  0  0  0  0
  -23.9089  -10.4281   21.0426 C   0  0  0  0  0  0
  -24.3625   -9.4187   21.9192 C   0  0  0  0  0  0
  -23.6288   -8.2225   22.0755 C   0  0  0  0  0  0
  -22.4271   -8.0286   21.3545 C   0  0  0  0  0  0
  -21.9918   -9.0263   20.4646 C   0  0  0  0  0  0
  -22.7263  -10.2134   20.3066 C   0  0  0  0  0  0
  -21.6847   -6.0744   22.5276 C   0  0  0  0  0  0
  -21.4007   -6.5639   23.8208 C   0  0  0  0  0  0
  -21.3663   -5.6791   24.9173 C   0  0  0  0  0  0
  -21.6046   -4.3056   24.7221 C   0  0  0  0  0  0
  -21.8817   -3.8150   23.4335 C   0  0  0  0  0  0
  -21.9190   -4.6970   22.3397 C   0  0  0  0  0  0
  -22.7862  -13.5222   21.1845 C   0  0  0  0  0  0
  -22.1668   -4.2158   21.0974 F   0  0  0  0  0  0
  -21.5639   -3.4544   25.7734 F   0  0  0  0  0  0
  -30.0331  -13.3396   20.4512 N   0  0  0  0  0  0
  -26.3023  -12.9342   20.3381 N   0  0  0  0  0  0
  -25.9366  -11.6499   20.5847 N   0  0  0  0  0  0
  -22.0517  -12.8216   22.0422 N   0  0  0  0  0  0
  -25.4188  -15.1744   20.3600 N   0  0  0  0  0  0
  -31.8606  -14.5975   20.0361 O   0  0  0  0  0  0
  -21.6625   -6.8893   21.4245 O   0  0  0  0  0  0
  -22.3539  -14.5522   20.6698 O   0  0  0  0  0  0
  -24.6149  -31.8674   23.2115 C   0  0  0  0  0  0
  -25.9035  -32.4825   23.8409 C   0  0  1  0  0  0
  -27.2321  -27.4153   20.1057 C   0  0  0  0  0  0
  -25.5880  -33.8625   24.2333 N   0  0  0  0  0  0
  -23.4047  -30.4916   21.5528 C   0  0  2  0  0  0
  -24.8542  -28.9657   20.1105 C   0  0  0  0  0  0
  -22.7420  -29.4651   22.5002 C   0  0  0  0  0  0
  -18.0264  -28.1381   22.8503 C   0  0  0  0  0  0
  -24.1479  -36.7325   23.2642 C   0  0  0  0  0  0
  -25.9363  -30.8295   21.3695 C   0  0  0  0  0  0
  -26.0153  -29.4643   20.7146 C   0  0  0  0  0  0
  -27.2075  -28.6988   20.7067 C   0  0  0  0  0  0
  -26.0511  -26.9479   19.4793 C   0  0  0  0  0  0
  -24.8690  -27.7080   19.4886 C   0  0  0  0  0  0
  -23.6146  -29.8308   20.1655 C   0  0  0  0  0  0
  -25.4104  -36.3119   24.0339 C   0  0  1  0  0  0
  -20.5856  -28.3669   23.1325 C   0  0  2  0  0  0
  -20.6768  -26.9412   22.5422 C   0  0  0  0  0  0
  -19.5743  -26.6396   21.5227 C   0  0  0  0  0  0
  -18.1919  -26.7928   22.1632 C   0  0  0  0  0  0
  -19.1517  -28.8842   23.2903 C   0  0  0  0  0  0
  -18.9442  -30.1445   23.8920 C   0  0  0  0  0  0
  -17.6448  -30.6599   24.0565 C   0  0  0  0  0  0
  -25.9038  -34.9480   23.5146 C   0  0  0  0  0  0
  -16.5340  -29.9105   23.6325 C   0  0  0  0  0  0
  -16.7257  -28.6511   23.0372 C   0  0  0  0  0  0
  -26.4462  -31.6603   25.0735 C   0  0  0  0  0  0
  -25.3723  -31.3684   26.1464 C   0  0  0  0  0  0
  -27.0311  -30.3050   24.6135 C   0  0  0  0  0  0
  -27.6043  -32.4330   25.7494 C   0  0  0  0  0  0
  -27.5580  -37.1806   24.8463 C   0  0  0  0  0  0
  -21.4145  -29.3021   22.3726 N   0  0  0  0  0  0
  -26.4291  -37.3799   23.9413 N   0  0  0  0  0  0
  -24.6704  -31.0771   22.1031 N   0  0  0  0  0  0
  -23.4191  -28.8200   23.3056 O   0  0  0  0  0  0
  -28.3826  -26.6405   20.1631 O   0  0  0  0  0  0
  -26.5623  -34.8918   22.4718 O   0  0  0  0  0  0
  -23.5337  -32.1441   23.7487 O   0  0  0  0  0  0
  -32.0050  -19.4495   21.2805 C   0  0  0  0  0  0
  -32.1655  -17.0348   21.5047 C   0  0  0  0  0  0
  -29.9747  -18.0706   21.2241 C   0  0  0  0  0  0
  -30.5993  -19.3607   21.1593 C   0  0  0  0  0  0
  -30.7688  -16.8781   21.3144 C   0  0  0  0  0  0
  -32.7760  -18.2985   21.4880 C   0  0  0  0  0  0
  -29.0314  -22.8190   20.6023 C   0  0  0  0  0  0
  -30.0768  -21.8393   21.2216 C   0  0  0  0  0  0
  -26.1792  -20.1621   21.9497 C   0  0  0  0  0  0
  -26.1669  -19.2227   24.2602 C   0  0  0  0  0  0
  -25.5363  -17.7642   22.3327 C   0  0  0  0  0  0
  -28.4491  -18.0087   21.2751 C   0  0  0  0  0  0
  -29.3361  -24.3384   20.6529 C   0  0  0  0  0  0
  -27.9467  -18.4680   22.6679 C   0  0  0  0  0  0
  -28.1939  -25.2091   20.0687 C   0  0  0  0  0  0
  -26.4642  -18.8979   22.7846 C   0  0  0  0  0  0
  -29.8192  -20.5468   20.9133 N   0  0  0  0  0  0
  -30.2021  -15.5441   21.2295 N   0  0  0  0  0  0
  -27.9955  -22.3917   20.0763 O   0  0  0  0  0  0
  -31.0040  -22.2337   21.9381 O   0  0  0  0  0  0
  -34.1178  -18.4025   21.6477 F   0  0  0  0  0  0
  -31.4544  -12.3686   19.1571 H   0  0  0  0  0  0
  -30.2685  -11.3208   19.8710 H   0  0  0  0  0  0
  -29.7411  -11.7746   17.4524 H   0  0  0  0  0  0
  -29.6687  -13.4907   17.7792 H   0  0  0  0  0  0
  -27.8319  -11.3124   18.8343 H   0  0  0  0  0  0
  -27.3698  -12.6345   17.7954 H   0  0  0  0  0  0
  -27.6887  -14.2613   19.5550 H   0  0  0  0  0  0
  -28.6782  -12.0460   21.4091 H   0  0  0  0  0  0
  -28.4624  -13.7177   21.8447 H   0  0  0  0  0  0
  -25.2767   -9.5651   22.4773 H   0  0  0  0  0  0
  -23.9982   -7.4614   22.7480 H   0  0  0  0  0  0
  -21.0840   -8.8803   19.8957 H   0  0  0  0  0  0
  -22.3732  -10.9683   19.6179 H   0  0  0  0  0  0
  -21.2001   -7.6147   23.9711 H   0  0  0  0  0  0
  -21.1488   -6.0528   25.9081 H   0  0  0  0  0  0
  -22.0589   -2.7614   23.2827 H   0  0  0  0  0  0
  -22.4154  -11.9872   22.4780 H   0  0  0  0  0  0
  -21.1147  -13.1248   22.2656 H   0  0  0  0  0  0
  -24.6428  -15.8221   20.4344 H   0  0  0  0  0  0
  -26.2519  -15.5942   19.9706 H   0  0  0  0  0  0
  -26.7112  -32.5550   23.1179 H   0  0  0  0  0  0
  -24.9967  -33.9787   25.0433 H   0  0  0  0  0  0
  -22.6917  -31.3078   21.4172 H   0  0  0  0  0  0
  -23.3735  -35.9659   23.3300 H   0  0  0  0  0  0
  -24.3555  -36.8958   22.2053 H   0  0  0  0  0  0
  -23.7237  -37.6526   23.6673 H   0  0  0  0  0  0
  -26.0493  -31.5968   20.6020 H   0  0  0  0  0  0
  -26.8221  -30.8825   21.9905 H   0  0  0  0  0  0
  -28.0991  -29.0753   21.1887 H   0  0  0  0  0  0
  -26.0160  -25.9907   18.9793 H   0  0  0  0  0  0
  -23.9805  -27.3206   19.0090 H   0  0  0  0  0  0
  -23.7163  -30.6090   19.4077 H   0  0  0  0  0  0
  -22.7395  -29.2474   19.8736 H   0  0  0  0  0  0
  -25.1278  -36.1988   25.0831 H   0  0  0  0  0  0
  -20.9929  -28.3241   24.1459 H   0  0  0  0  0  0
  -20.5705  -26.2281   23.3610 H   0  0  0  0  0  0
  -21.6636  -26.7481   22.1203 H   0  0  0  0  0  0
  -19.6904  -25.6313   21.1259 H   0  0  0  0  0  0
  -19.6684  -27.3203   20.6757 H   0  0  0  0  0  0
  -17.4196  -26.6685   21.4032 H   0  0  0  0  0  0
  -18.0292  -26.0066   22.9020 H   0  0  0  0  0  0
  -19.7915  -30.7244   24.2339 H   0  0  0  0  0  0
  -17.5009  -31.6294   24.5139 H   0  0  0  0  0  0
  -15.5344  -30.3025   23.7638 H   0  0  0  0  0  0
  -15.8652  -28.0844   22.7105 H   0  0  0  0  0  0
  -24.5936  -30.6999   25.7768 H   0  0  0  0  0  0
  -24.8858  -32.2819   26.4897 H   0  0  0  0  0  0
  -25.8065  -30.8863   27.0232 H   0  0  0  0  0  0
  -26.2868  -29.6789   24.1197 H   0  0  0  0  0  0
  -27.4078  -29.7308   25.4610 H   0  0  0  0  0  0
  -27.8699  -30.4365   23.9295 H   0  0  0  0  0  0
  -27.2687  -33.3637   26.2080 H   0  0  0  0  0  0
  -28.3832  -32.6879   25.0297 H   0  0  0  0  0  0
  -28.0729  -31.8450   26.5393 H   0  0  0  0  0  0
  -28.2594  -38.0104   24.7535 H   0  0  0  0  0  0
  -28.1086  -36.2646   24.6275 H   0  0  0  0  0  0
  -27.2303  -37.1443   25.8864 H   0  0  0  0  0  0
  -20.9322  -29.8720   21.6920 H   0  0  0  0  0  0
  -26.0186  -38.2881   24.1409 H   0  0  0  0  0  0
  -32.5189  -20.3971   21.2220 H   0  0  0  0  0  0
  -32.8107  -16.1812   21.6495 H   0  0  0  0  0  0
  -25.1393  -20.4751   22.0502 H   0  0  0  0  0  0
  -26.3551  -20.0106   20.8852 H   0  0  0  0  0  0
  -26.8013  -20.9984   22.2684 H   0  0  0  0  0  0
  -25.1261  -19.5153   24.4031 H   0  0  0  0  0  0
  -26.7883  -20.0440   24.6216 H   0  0  0  0  0  0
  -26.3538  -18.3639   24.9060 H   0  0  0  0  0  0
  -24.4898  -17.9873   22.5439 H   0  0  0  0  0  0
  -25.7789  -16.8228   22.8285 H   0  0  0  0  0  0
  -25.6180  -17.6118   21.2582 H   0  0  0  0  0  0
  -28.0805  -17.0065   21.0596 H   0  0  0  0  0  0
  -28.0504  -18.6317   20.4761 H   0  0  0  0  0  0
  -30.2647  -24.5217   20.1144 H   0  0  0  0  0  0
  -29.5171  -24.6164   21.6900 H   0  0  0  0  0  0
  -28.5516  -19.3109   23.0050 H   0  0  0  0  0  0
  -28.1610  -17.6713   23.3813 H   0  0  0  0  0  0
  -27.2827  -24.9310   20.6029 H   0  0  0  0  0  0
  -28.0508  -24.9484   19.0187 H   0  0  0  0  0  0
  -28.9398  -20.4292   20.4249 H   0  0  0  0  0  0
  -29.2533  -15.4184   21.5478 H   0  0  0  0  0  0
  1 25  1  0  0  0
  1 30  2  0  0  0
  1 88  1  0  0  0
  2  3  1  0  0  0
  2 25  1  0  0  0
  2 92  1  0  0  0
  2 93  1  0  0  0
  3  4  1  0  0  0
  3 94  1  0  0  0
  3 95  1  0  0  0
  4  5  1  0  0  0
  4 96  1  0  0  0
  4 97  1  0  0  0
  5  6  1  0  0  0
  5 26  1  0  0  0
  5 98  1  0  0  0
  6 25  1  0  0  0
  6 99  1  0  0  0
  6100  1  0  0  0
  7  8  2  0  0  0
  7 26  1  0  0  0
  7 29  1  0  0  0
  8  9  1  0  0  0
  8 22  1  0  0  0
  9 10  1  0  0  0
  9 27  2  0  0  0
 10 11  2  0  0  0
 10 15  1  0  0  0
 11 12  1  0  0  0
 11101  1  0  0  0
 12 13  2  0  0  0
 12102  1  0  0  0
 13 14  1  0  0  0
 13 31  1  0  0  0
 14 15  2  0  0  0
 14103  1  0  0  0
 15104  1  0  0  0
 16 17  2  0  0  0
 16 21  1  0  0  0
 16 31  1  0  0  0
 17 18  1  0  0  0
 17105  1  0  0  0
 18 19  2  0  0  0
 18106  1  0  0  0
 19 20  1  0  0  0
 19 24  1  0  0  0
 20 21  2  0  0  0
 20107  1  0  0  0
 21 23  1  0  0  0
 22 28  1  0  0  0
 22 32  2  0  0  0
 26 27  1  0  0  0
 28108  1  0  0  0
 28109  1  0  0  0
 29110  1  0  0  0
 29111  1  0  0  0
 33 34  1  0  0  0
 33 66  1  0  0  0
 33 70  2  0  0  0
 34 36  1  0  0  0
 34 59  1  0  0  0
 34112  1  0  0  0
 35 44  2  0  0  0
 35 45  1  0  0  0
 35 68  1  0  0  0
 36 56  1  0  0  0
 36113  1  0  0  0
 37 39  1  0  0  0
 37 47  1  0  0  0
 37 66  1  0  0  0
 37114  1  0  0  0
 38 43  2  0  0  0
 38 46  1  0  0  0
 38 47  1  0  0  0
 39 64  1  0  0  0
 39 67  2  0  0  0
 40 52  1  0  0  0
 40 53  2  0  0  0
 40 58  1  0  0  0
 41115  1  0  0  0
 41116  1  0  0  0
 41117  1  0  0  0
 41 48  1  0  0  0
 42 43  1  0  0  0
 42 66  1  0  0  0
 42118  1  0  0  0
 42119  1  0  0  0
 43 44  1  0  0  0
 44120  1  0  0  0
 45 46  2  0  0  0
 45121  1  0  0  0
 46122  1  0  0  0
 47123  1  0  0  0
 47124  1  0  0  0
 48 56  1  0  0  0
 48 65  1  0  0  0
 48125  1  0  0  0
 49 50  1  0  0  0
 49 53  1  0  0  0
 49 64  1  0  0  0
 49126  1  0  0  0
 50 51  1  0  0  0
 50127  1  0  0  0
 50128  1  0  0  0
 51 52  1  0  0  0
 51129  1  0  0  0
 51130  1  0  0  0
 52131  1  0  0  0
 52132  1  0  0  0
 53 54  1  0  0  0
 54 55  2  0  0  0
 54133  1  0  0  0
 55 57  1  0  0  0
 55134  1  0  0  0
 56 69  2  0  0  0
 57 58  2  0  0  0
 57135  1  0  0  0
 58136  1  0  0  0
 59 60  1  0  0  0
 59 61  1  0  0  0
 59 62  1  0  0  0
 60137  1  0  0  0
 60138  1  0  0  0
 60139  1  0  0  0
 61140  1  0  0  0
 61141  1  0  0  0
 61142  1  0  0  0
 62143  1  0  0  0
 62144  1  0  0  0
 62145  1  0  0  0
 63 65  1  0  0  0
 63146  1  0  0  0
 63147  1  0  0  0
 63148  1  0  0  0
 64149  1  0  0  0
 65150  1  0  0  0
 68 85  1  0  0  0
 71 74  2  0  0  0
 71 76  1  0  0  0
 71151  1  0  0  0
 72 75  1  0  0  0
 72 76  2  0  0  0
 72152  1  0  0  0
 73 74  1  0  0  0
 73 75  2  0  0  0
 73 82  1  0  0  0
 74 87  1  0  0  0
 75 88  1  0  0  0
 76 91  1  0  0  0
 77 78  1  0  0  0
 77 83  1  0  0  0
 77 89  2  0  0  0
 78 87  1  0  0  0
 78 90  2  0  0  0
 79153  1  0  0  0
 79154  1  0  0  0
 79155  1  0  0  0
 79 86  1  0  0  0
 80 86  1  0  0  0
 80156  1  0  0  0
 80157  1  0  0  0
 80158  1  0  0  0
 81 86  1  0  0  0
 81159  1  0  0  0
 81160  1  0  0  0
 81161  1  0  0  0
 82 84  1  0  0  0
 82162  1  0  0  0
 82163  1  0  0  0
 83 85  1  0  0  0
 83164  1  0  0  0
 83165  1  0  0  0
 84 86  1  0  0  0
 84166  1  0  0  0
 84167  1  0  0  0
 85168  1  0  0  0
 85169  1  0  0  0
 87170  1  0  0  0
 88171  1  0  0  0
M  ISO  4   1 100  68 101  85 101  88 100
M  END
> <chiral flag>
0

> <version>
0

> <s_m_source_file>
/data/baiqing/PycharmProjects/Reinvent-master-3.2/result/LINK_invent/BTK/process_docking_weight1_custom_product_contain_oxygen_bond_distance_aromatic_linkinvent_7_9_3/rearranged_h_0174.sdf

> <i_m_source_file_index>
19

> <r_mmod_Potential_Energy-OPLS-2005>
3.98865866661072

> <r_mmod_Stretch_Energy-OPLS-2005>
51.3358192443848

> <r_mmod_Bend_Energy-OPLS-2005>
114.734085083008

> <r_mmod_Torsional_Energy-OPLS-2005>
242.352081298828

> <r_mmod_Improper_Torsional_Energy-OPLS-2005>
3.40321850776672

> <r_mmod_Van_der_Waal_Energy-OPLS-2005>
165.428756713867

> <r_mmod_Electrostatic_Energy-OPLS-2005>
-379.892517089844

> <r_mmod_Solvation_Energy-OPLS-2005>
-212.370895385742

> <b_mmod_Minimization_Converged-OPLS-2005>
0

> <r_mmod_RMS_Derivative-OPLS-2005>
2.0556960105896

$$$$
19
                    3D
 Structure written by MMmdl.
152160  0  0  1  0            999 V2000
  -30.6943  -14.4450   20.5961 C   0  0  0  0  0  0
  -30.4179  -12.2827   19.4374 C   0  0  0  0  0  0
  -29.5026  -12.5054   18.2149 C   0  0  0  0  0  0
  -28.0195  -12.3633   18.6156 C   0  0  0  0  0  0
  -27.6597  -13.2015   19.8725 C   0  0  2  0  0  0
  -28.6944  -12.9609   20.9974 C   0  0  0  0  0  0
  -25.2553  -13.8102   20.5688 C   0  0  0  0  0  0
  -24.1795  -13.0383   20.9113 C   0  0  0  0  0  0
  -24.6363  -11.6866   20.8678 C   0  0  0  0  0  0
  -23.9036  -10.4267   21.0358 C   0  0  0  0  0  0
  -24.3595   -9.4198   21.9152 C   0  0  0  0  0  0
  -23.6284   -8.2223   22.0738 C   0  0  0  0  0  0
  -22.4253   -8.0253   21.3544 C   0  0  0  0  0  0
  -21.9885   -9.0202   20.4622 C   0  0  0  0  0  0
  -22.7200  -10.2090   20.3020 C   0  0  0  0  0  0
  -21.6847   -6.0728   22.5289 C   0  0  0  0  0  0
  -21.4004   -6.5635   23.8219 C   0  0  0  0  0  0
  -21.3667   -5.6791   24.9185 C   0  0  0  0  0  0
  -21.6046   -4.3052   24.7234 C   0  0  0  0  0  0
  -21.8815   -3.8141   23.4353 C   0  0  0  0  0  0
  -21.9184   -4.6958   22.3407 C   0  0  0  0  0  0
  -22.7835  -13.5196   21.1825 C   0  0  0  0  0  0
  -22.1656   -4.2145   21.0985 F   0  0  0  0  0  0
  -21.5635   -3.4528   25.7746 F   0  0  0  0  0  0
  -30.0374  -13.2621   20.4644 N   0  0  0  0  0  0
  -26.2998  -12.9292   20.3328 N   0  0  0  0  0  0
  -25.9291  -11.6455   20.5708 N   0  0  0  0  0  0
  -22.0489  -12.8179   22.0395 N   0  0  0  0  0  0
  -25.4239  -15.1830   20.4299 N   0  0  0  0  0  0
  -31.7929  -14.6720   20.0841 O   0  0  0  0  0  0
  -21.6621   -6.8854   21.4249 O   0  0  0  0  0  0
  -22.3515  -14.5517   20.6709 O   0  0  0  0  0  0
  -24.6109  -31.8714   23.2101 C   0  0  0  0  0  0
  -25.9023  -32.4822   23.8406 C   0  0  1  0  0  0
  -27.2212  -27.4301   20.0872 C   0  0  0  0  0  0
  -25.5888  -33.8616   24.2320 N   0  0  0  0  0  0
  -23.3950  -30.4951   21.5516 C   0  0  2  0  0  0
  -24.8369  -28.9622   20.1144 C   0  0  0  0  0  0
  -22.7386  -29.4688   22.5016 C   0  0  0  0  0  0
  -18.0277  -28.1372   22.8512 C   0  0  0  0  0  0
  -24.1483  -36.7280   23.2636 C   0  0  0  0  0  0
  -25.9266  -30.8335   21.3649 C   0  0  0  0  0  0
  -25.9997  -29.4701   20.7063 C   0  0  0  0  0  0
  -27.1902  -28.7091   20.6918 C   0  0  0  0  0  0
  -26.0318  -26.9366   19.4985 C   0  0  0  0  0  0
  -24.8456  -27.6926   19.5144 C   0  0  0  0  0  0
  -23.5987  -29.8285   20.1666 C   0  0  0  0  0  0
  -25.4113  -36.3098   24.0337 C   0  0  1  0  0  0
  -20.5861  -28.3654   23.1341 C   0  0  2  0  0  0
  -20.6753  -26.9388   22.5444 C   0  0  0  0  0  0
  -19.5731  -26.6388   21.5227 C   0  0  0  0  0  0
  -18.1909  -26.7925   22.1637 C   0  0  0  0  0  0
  -19.1523  -28.8839   23.2923 C   0  0  0  0  0  0
  -18.9445  -30.1450   23.8917 C   0  0  0  0  0  0
  -17.6449  -30.6593   24.0567 C   0  0  0  0  0  0
  -25.9041  -34.9471   23.5122 C   0  0  0  0  0  0
  -16.5353  -29.9087   23.6316 C   0  0  0  0  0  0
  -16.7258  -28.6496   23.0352 C   0  0  0  0  0  0
  -26.4443  -31.6601   25.0732 C   0  0  0  0  0  0
  -25.3693  -31.3712   26.1464 C   0  0  0  0  0  0
  -27.0250  -30.3033   24.6126 C   0  0  0  0  0  0
  -27.6032  -32.4312   25.7482 C   0  0  0  0  0  0
  -27.5575  -37.1793   24.8474 C   0  0  0  0  0  0
  -21.4132  -29.3004   22.3719 N   0  0  0  0  0  0
  -26.4290  -37.3787   23.9408 N   0  0  0  0  0  0
  -24.6624  -31.0826   22.0987 N   0  0  0  0  0  0
  -23.4184  -28.8234   23.3048 O   0  0  0  0  0  0
  -28.4040  -26.7119   20.1071 O   0  0  0  0  0  0
  -26.5606  -34.8913   22.4684 O   0  0  0  0  0  0
  -23.5311  -32.1462   23.7500 O   0  0  0  0  0  0
  -28.6160  -18.7806   20.7108 C   0  0  0  0  0  0
  -31.0763  -17.5578   20.5895 C   0  0  0  0  0  0
  -29.9654  -16.7766   20.9640 C   0  0  0  0  0  0
  -28.7199  -17.4192   21.0333 C   0  0  0  0  0  0
  -29.7751  -19.4881   20.3380 C   0  0  0  0  0  0
  -29.7821  -23.1826   19.6730 C   0  0  0  0  0  0
  -29.7598  -21.9475   20.6193 C   0  0  0  0  0  0
  -29.6114  -24.5874   20.2716 C   0  0  0  0  0  0
  -28.3717  -25.3273   19.7289 C   0  0  0  0  0  0
  -30.9805  -18.8745   20.2813 N   0  0  0  0  0  0
  -30.0120  -15.3837   21.2689 N   0  0  0  0  0  0
  -29.6219  -20.8218   19.9050 N   0  0  0  0  0  0
  -29.9524  -23.0483   18.4540 O   0  0  0  0  0  0
  -29.8284  -22.0201   21.8528 O   0  0  0  0  0  0
  -27.6201  -16.7088   21.3791 F   0  0  0  0  0  0
  -31.4702  -12.3535   19.1605 H   0  0  0  0  0  0
  -30.2827  -11.2729   19.8294 H   0  0  0  0  0  0
  -29.7470  -11.7954   17.4237 H   0  0  0  0  0  0
  -29.6759  -13.4988   17.8014 H   0  0  0  0  0  0
  -27.8283  -11.3076   18.8134 H   0  0  0  0  0  0
  -27.3734  -12.6346   17.7781 H   0  0  0  0  0  0
  -27.7080  -14.2483   19.5748 H   0  0  0  0  0  0
  -28.6629  -11.9197   21.3200 H   0  0  0  0  0  0
  -28.4431  -13.5384   21.8865 H   0  0  0  0  0  0
  -25.2736   -9.5684   22.4720 H   0  0  0  0  0  0
  -23.9987   -7.4627   22.7466 H   0  0  0  0  0  0
  -21.0813   -8.8704   19.8938 H   0  0  0  0  0  0
  -22.3644  -10.9613   19.6112 H   0  0  0  0  0  0
  -21.1998   -7.6138   23.9728 H   0  0  0  0  0  0
  -21.1501   -6.0516   25.9091 H   0  0  0  0  0  0
  -22.0590   -2.7600   23.2851 H   0  0  0  0  0  0
  -22.4115  -11.9820   22.4745 H   0  0  0  0  0  0
  -21.1105  -13.1186   22.2616 H   0  0  0  0  0  0
  -24.6786  -15.8247   20.6715 H   0  0  0  0  0  0
  -26.3318  -15.6328   20.4018 H   0  0  0  0  0  0
  -26.7084  -32.5515   23.1149 H   0  0  0  0  0  0
  -25.0024  -33.9798   25.0457 H   0  0  0  0  0  0
  -22.6825  -31.3096   21.4157 H   0  0  0  0  0  0
  -23.3758  -35.9597   23.3316 H   0  0  0  0  0  0
  -24.3563  -36.8866   22.2041 H   0  0  0  0  0  0
  -23.7214  -37.6484   23.6637 H   0  0  0  0  0  0
  -26.0484  -31.6106   20.6091 H   0  0  0  0  0  0
  -26.8094  -30.8754   21.9907 H   0  0  0  0  0  0
  -28.0855  -29.0954   21.1559 H   0  0  0  0  0  0
  -25.9829  -25.9688   19.0241 H   0  0  0  0  0  0
  -23.9442  -27.2969   19.0659 H   0  0  0  0  0  0
  -23.6910  -30.5988   19.4002 H   0  0  0  0  0  0
  -22.7255  -29.2405   19.8808 H   0  0  0  0  0  0
  -25.1284  -36.1950   25.0832 H   0  0  0  0  0  0
  -20.9962  -28.3203   24.1456 H   0  0  0  0  0  0
  -20.5621  -26.2263   23.3618 H   0  0  0  0  0  0
  -21.6622  -26.7409   22.1249 H   0  0  0  0  0  0
  -19.6880  -25.6296   21.1231 H   0  0  0  0  0  0
  -19.6665  -27.3210   20.6758 H   0  0  0  0  0  0
  -17.4179  -26.6687   21.4036 H   0  0  0  0  0  0
  -18.0314  -26.0065   22.9032 H   0  0  0  0  0  0
  -19.7930  -30.7272   24.2277 H   0  0  0  0  0  0
  -17.5007  -31.6265   24.5158 H   0  0  0  0  0  0
  -15.5341  -30.2999   23.7629 H   0  0  0  0  0  0
  -15.8669  -28.0822   22.7064 H   0  0  0  0  0  0
  -24.5982  -30.6897   25.7831 H   0  0  0  0  0  0
  -24.8726  -32.2846   26.4764 H   0  0  0  0  0  0
  -25.8062  -30.9059   27.0308 H   0  0  0  0  0  0
  -26.2784  -29.6822   24.1160 H   0  0  0  0  0  0
  -27.3955  -29.7251   25.4599 H   0  0  0  0  0  0
  -27.8663  -30.4317   23.9300 H   0  0  0  0  0  0
  -27.2714  -33.3697   26.1939 H   0  0  0  0  0  0
  -28.3917  -32.6708   25.0328 H   0  0  0  0  0  0
  -28.0597  -31.8484   26.5487 H   0  0  0  0  0  0
  -28.2619  -38.0074   24.7522 H   0  0  0  0  0  0
  -28.1056  -36.2602   24.6315 H   0  0  0  0  0  0
  -27.2291  -37.1453   25.8883 H   0  0  0  0  0  0
  -20.9273  -29.8682   21.6915 H   0  0  0  0  0  0
  -26.0177  -38.2859   24.1433 H   0  0  0  0  0  0
  -27.6535  -19.2670   20.7320 H   0  0  0  0  0  0
  -32.0703  -17.1405   20.5324 H   0  0  0  0  0  0
  -29.5621  -24.5360   21.3596 H   0  0  0  0  0  0
  -30.5140  -25.1461   20.0249 H   0  0  0  0  0  0
  -27.4901  -24.8244   20.1309 H   0  0  0  0  0  0
  -28.3208  -25.2652   18.6401 H   0  0  0  0  0  0
  -29.1683  -15.0264   21.6916 H   0  0  0  0  0  0
  -29.5800  -20.9848   18.9097 H   0  0  0  0  0  0
  1 25  1  0  0  0
  1 30  2  0  0  0
  1 81  1  0  0  0
  2  3  1  0  0  0
  2 25  1  0  0  0
  2 86  1  0  0  0
  2 87  1  0  0  0
  3  4  1  0  0  0
  3 88  1  0  0  0
  3 89  1  0  0  0
  4  5  1  0  0  0
  4 90  1  0  0  0
  4 91  1  0  0  0
  5  6  1  0  0  0
  5 26  1  0  0  0
  5 92  1  0  0  0
  6 25  1  0  0  0
  6 93  1  0  0  0
  6 94  1  0  0  0
  7  8  2  0  0  0
  7 26  1  0  0  0
  7 29  1  0  0  0
  8  9  1  0  0  0
  8 22  1  0  0  0
  9 10  1  0  0  0
  9 27  2  0  0  0
 10 11  2  0  0  0
 10 15  1  0  0  0
 11 12  1  0  0  0
 11 95  1  0  0  0
 12 13  2  0  0  0
 12 96  1  0  0  0
 13 14  1  0  0  0
 13 31  1  0  0  0
 14 15  2  0  0  0
 14 97  1  0  0  0
 15 98  1  0  0  0
 16 17  2  0  0  0
 16 21  1  0  0  0
 16 31  1  0  0  0
 17 18  1  0  0  0
 17 99  1  0  0  0
 18 19  2  0  0  0
 18100  1  0  0  0
 19 20  1  0  0  0
 19 24  1  0  0  0
 20 21  2  0  0  0
 20101  1  0  0  0
 21 23  1  0  0  0
 22 28  1  0  0  0
 22 32  2  0  0  0
 26 27  1  0  0  0
 28102  1  0  0  0
 28103  1  0  0  0
 29104  1  0  0  0
 29105  1  0  0  0
 33 34  1  0  0  0
 33 66  1  0  0  0
 33 70  2  0  0  0
 34 36  1  0  0  0
 34 59  1  0  0  0
 34106  1  0  0  0
 35 44  2  0  0  0
 35 45  1  0  0  0
 35 68  1  0  0  0
 36 56  1  0  0  0
 36107  1  0  0  0
 37 39  1  0  0  0
 37 47  1  0  0  0
 37 66  1  0  0  0
 37108  1  0  0  0
 38 43  2  0  0  0
 38 46  1  0  0  0
 38 47  1  0  0  0
 39 64  1  0  0  0
 39 67  2  0  0  0
 40 52  1  0  0  0
 40 53  2  0  0  0
 40 58  1  0  0  0
 41109  1  0  0  0
 41110  1  0  0  0
 41111  1  0  0  0
 41 48  1  0  0  0
 42 43  1  0  0  0
 42 66  1  0  0  0
 42112  1  0  0  0
 42113  1  0  0  0
 43 44  1  0  0  0
 44114  1  0  0  0
 45 46  2  0  0  0
 45115  1  0  0  0
 46116  1  0  0  0
 47117  1  0  0  0
 47118  1  0  0  0
 48 56  1  0  0  0
 48 65  1  0  0  0
 48119  1  0  0  0
 49 50  1  0  0  0
 49 53  1  0  0  0
 49 64  1  0  0  0
 49120  1  0  0  0
 50 51  1  0  0  0
 50121  1  0  0  0
 50122  1  0  0  0
 51 52  1  0  0  0
 51123  1  0  0  0
 51124  1  0  0  0
 52125  1  0  0  0
 52126  1  0  0  0
 53 54  1  0  0  0
 54 55  2  0  0  0
 54127  1  0  0  0
 55 57  1  0  0  0
 55128  1  0  0  0
 56 69  2  0  0  0
 57 58  2  0  0  0
 57129  1  0  0  0
 58130  1  0  0  0
 59 60  1  0  0  0
 59 61  1  0  0  0
 59 62  1  0  0  0
 60131  1  0  0  0
 60132  1  0  0  0
 60133  1  0  0  0
 61134  1  0  0  0
 61135  1  0  0  0
 61136  1  0  0  0
 62137  1  0  0  0
 62138  1  0  0  0
 62139  1  0  0  0
 63 65  1  0  0  0
 63140  1  0  0  0
 63141  1  0  0  0
 63142  1  0  0  0
 64143  1  0  0  0
 65144  1  0  0  0
 68 79  1  0  0  0
 71 74  2  0  0  0
 71 75  1  0  0  0
 71145  1  0  0  0
 72 73  2  0  0  0
 72 80  1  0  0  0
 72146  1  0  0  0
 73 74  1  0  0  0
 73 81  1  0  0  0
 74 85  1  0  0  0
 75 80  2  0  0  0
 75 82  1  0  0  0
 76 77  1  0  0  0
 76 78  1  0  0  0
 76 83  2  0  0  0
 77 82  1  0  0  0
 77 84  2  0  0  0
 78 79  1  0  0  0
 78147  1  0  0  0
 78148  1  0  0  0
 79149  1  0  0  0
 79150  1  0  0  0
 81151  1  0  0  0
 82152  1  0  0  0
M  ISO  4   1 100  68 101  79 101  81 100
M  END
> <chiral flag>
0

> <version>
0

> <s_m_source_file>
/data/baiqing/PycharmProjects/Reinvent-master-3.2/result/LINK_invent/BTK/process_docking_weight1_custom_product_contain_oxygen_bond_distance_aromatic_linkinvent_7_9_3/rearranged_h_0174.sdf

> <i_m_source_file_index>
20

> <r_mmod_Potential_Energy-OPLS-2005>
-373.374603271484

> <r_mmod_Stretch_Energy-OPLS-2005>
35.1526985168457

> <r_mmod_Bend_Energy-OPLS-2005>
102.703895568848

> <r_mmod_Torsional_Energy-OPLS-2005>
254.550827026367

> <r_mmod_Improper_Torsional_Energy-OPLS-2005>
6.4797887802124

> <r_mmod_Van_der_Waal_Energy-OPLS-2005>
162.293151855469

> <r_mmod_Electrostatic_Energy-OPLS-2005>
-707.746704101562

> <r_mmod_Solvation_Energy-OPLS-2005>
-238.455200195312

> <b_mmod_Minimization_Converged-OPLS-2005>
0

> <r_mmod_RMS_Derivative-OPLS-2005>
4.10580110549927

$$$$
20
                    3D
 Structure written by MMmdl.
158166  0  0  1  0            999 V2000
  -30.7483  -14.3921   20.6575 C   0  0  0  0  0  0
  -30.4162  -12.2958   19.3965 C   0  0  0  0  0  0
  -29.4834  -12.5183   18.1911 C   0  0  0  0  0  0
  -28.0068  -12.3758   18.6089 C   0  0  0  0  0  0
  -27.6625  -13.2022   19.8767 C   0  0  2  0  0  0
  -28.7021  -12.9516   20.9903 C   0  0  0  0  0  0
  -25.2593  -13.8153   20.5677 C   0  0  0  0  0  0
  -24.1837  -13.0438   20.9170 C   0  0  0  0  0  0
  -24.6382  -11.6902   20.8726 C   0  0  0  0  0  0
  -23.9048  -10.4292   21.0402 C   0  0  0  0  0  0
  -24.3606   -9.4208   21.9179 C   0  0  0  0  0  0
  -23.6286   -8.2241   22.0751 C   0  0  0  0  0  0
  -22.4267   -8.0278   21.3543 C   0  0  0  0  0  0
  -21.9900   -9.0248   20.4643 C   0  0  0  0  0  0
  -22.7224  -10.2130   20.3051 C   0  0  0  0  0  0
  -21.6852   -6.0732   22.5278 C   0  0  0  0  0  0
  -21.4014   -6.5638   23.8211 C   0  0  0  0  0  0
  -21.3660   -5.6791   24.9174 C   0  0  0  0  0  0
  -21.6045   -4.3053   24.7225 C   0  0  0  0  0  0
  -21.8819   -3.8144   23.4346 C   0  0  0  0  0  0
  -21.9194   -4.6961   22.3403 C   0  0  0  0  0  0
  -22.7861  -13.5239   21.1838 C   0  0  0  0  0  0
  -22.1661   -4.2147   21.0980 F   0  0  0  0  0  0
  -21.5630   -3.4537   25.7737 F   0  0  0  0  0  0
  -30.0360  -13.2557   20.4428 N   0  0  0  0  0  0
  -26.3023  -12.9313   20.3370 N   0  0  0  0  0  0
  -25.9306  -11.6475   20.5756 N   0  0  0  0  0  0
  -22.0505  -12.8231   22.0399 N   0  0  0  0  0  0
  -25.4339  -15.1869   20.4085 N   0  0  0  0  0  0
  -31.8241  -14.6296   20.0985 O   0  0  0  0  0  0
  -21.6637   -6.8873   21.4238 O   0  0  0  0  0  0
  -22.3547  -14.5551   20.6698 O   0  0  0  0  0  0
  -24.6130  -31.8698   23.2120 C   0  0  0  0  0  0
  -25.9033  -32.4830   23.8403 C   0  0  1  0  0  0
  -27.2300  -27.4390   20.0847 C   0  0  0  0  0  0
  -25.5903  -33.8631   24.2337 N   0  0  0  0  0  0
  -23.3991  -30.4952   21.5532 C   0  0  2  0  0  0
  -24.8405  -28.9627   20.1169 C   0  0  0  0  0  0
  -22.7397  -29.4670   22.5003 C   0  0  0  0  0  0
  -18.0274  -28.1373   22.8494 C   0  0  0  0  0  0
  -24.1484  -36.7318   23.2636 C   0  0  0  0  0  0
  -25.9280  -30.8339   21.3656 C   0  0  0  0  0  0
  -26.0002  -29.4688   20.7140 C   0  0  0  0  0  0
  -27.1933  -28.7126   20.6979 C   0  0  0  0  0  0
  -26.0476  -26.9515   19.4765 C   0  0  0  0  0  0
  -24.8587  -27.7027   19.4991 C   0  0  0  0  0  0
  -23.6045  -29.8301   20.1667 C   0  0  0  0  0  0
  -25.4106  -36.3119   24.0338 C   0  0  1  0  0  0
  -20.5860  -28.3655   23.1329 C   0  0  2  0  0  0
  -20.6761  -26.9394   22.5419 C   0  0  0  0  0  0
  -19.5741  -26.6383   21.5214 C   0  0  0  0  0  0
  -18.1919  -26.7920   22.1624 C   0  0  0  0  0  0
  -19.1521  -28.8829   23.2911 C   0  0  0  0  0  0
  -18.9451  -30.1438   23.8914 C   0  0  0  0  0  0
  -17.6454  -30.6582   24.0564 C   0  0  0  0  0  0
  -25.9037  -34.9484   23.5135 C   0  0  0  0  0  0
  -16.5343  -29.9083   23.6326 C   0  0  0  0  0  0
  -16.7261  -28.6502   23.0348 C   0  0  0  0  0  0
  -26.4464  -31.6606   25.0729 C   0  0  0  0  0  0
  -25.3734  -31.3712   26.1483 C   0  0  0  0  0  0
  -27.0286  -30.3052   24.6090 C   0  0  0  0  0  0
  -27.6042  -32.4321   25.7489 C   0  0  0  0  0  0
  -27.5584  -37.1815   24.8467 C   0  0  0  0  0  0
  -21.4127  -29.3030   22.3739 N   0  0  0  0  0  0
  -26.4294  -37.3802   23.9413 N   0  0  0  0  0  0
  -24.6652  -31.0806   22.1017 N   0  0  0  0  0  0
  -23.4182  -28.8209   23.3034 O   0  0  0  0  0  0
  -28.4299  -26.7542   20.0872 O   0  0  0  0  0  0
  -26.5594  -34.8929   22.4694 O   0  0  0  0  0  0
  -23.5328  -32.1453   23.7519 O   0  0  0  0  0  0
  -30.2989  -17.6836   22.0187 C   0  0  0  0  0  0
  -31.9836  -16.1376   22.8900 C   0  0  0  0  0  0
  -30.8288  -16.3739   22.1113 C   0  0  0  0  0  0
  -30.9401  -18.7620   22.6843 C   0  0  0  0  0  0
  -32.0804  -18.5009   23.4790 C   0  0  0  0  0  0
  -32.6039  -17.1959   23.5732 C   0  0  0  0  0  0
  -28.9946  -24.5453   20.9808 C   0  0  0  0  0  0
  -29.5989  -20.7501   21.8901 C   0  0  0  0  0  0
  -28.9387  -23.0167   20.8604 C   0  0  0  0  0  0
  -28.4637  -25.3491   19.7860 C   0  0  0  0  0  0
  -29.5143  -22.2684   22.0846 C   0  0  0  0  0  0
  -32.7001  -19.5301   24.1945 N   0  0  0  0  0  0
  -30.5386  -20.1278   22.6185 N   0  0  0  0  0  0
  -30.1706  -15.2897   21.4727 N   0  0  0  0  0  0
  -29.4450  -25.0988   21.9902 O   0  0  0  0  0  0
  -28.8274  -20.1819   21.1146 O   0  0  0  0  0  0
  -33.6985  -16.9613   24.3390 F   0  0  0  0  0  0
  -31.4593  -12.3969   19.0911 H   0  0  0  0  0  0
  -30.3174  -11.2767   19.7735 H   0  0  0  0  0  0
  -29.7172  -11.8080   17.3970 H   0  0  0  0  0  0
  -29.6523  -13.5120   17.7730 H   0  0  0  0  0  0
  -27.8142  -11.3182   18.7923 H   0  0  0  0  0  0
  -27.3529  -12.6635   17.7849 H   0  0  0  0  0  0
  -27.7176  -14.2553   19.5993 H   0  0  0  0  0  0
  -28.6719  -11.9071   21.3040 H   0  0  0  0  0  0
  -28.4566  -13.5240   21.8851 H   0  0  0  0  0  0
  -25.2754   -9.5687   22.4749 H   0  0  0  0  0  0
  -24.0001   -7.4632   22.7466 H   0  0  0  0  0  0
  -21.0833   -8.8759   19.8947 H   0  0  0  0  0  0
  -22.3682  -10.9664   19.6156 H   0  0  0  0  0  0
  -21.2004   -7.6145   23.9714 H   0  0  0  0  0  0
  -21.1482   -6.0521   25.9077 H   0  0  0  0  0  0
  -22.0600   -2.7607   23.2846 H   0  0  0  0  0  0
  -22.4118  -11.9884   22.4774 H   0  0  0  0  0  0
  -21.1122  -13.1253   22.2609 H   0  0  0  0  0  0
  -24.6717  -15.8474   20.5172 H   0  0  0  0  0  0
  -26.2924  -15.6225   20.0938 H   0  0  0  0  0  0
  -26.7099  -32.5535   23.1160 H   0  0  0  0  0  0
  -25.0061  -33.9797   25.0485 H   0  0  0  0  0  0
  -22.6879  -31.3128   21.4171 H   0  0  0  0  0  0
  -23.3746  -35.9650   23.3316 H   0  0  0  0  0  0
  -24.3582  -36.8917   22.2048 H   0  0  0  0  0  0
  -23.7239  -37.6531   23.6638 H   0  0  0  0  0  0
  -26.0430  -31.5992   20.5969 H   0  0  0  0  0  0
  -26.8161  -30.8845   21.9836 H   0  0  0  0  0  0
  -28.0897  -29.1038   21.1584 H   0  0  0  0  0  0
  -26.0041  -26.0104   18.9530 H   0  0  0  0  0  0
  -23.9680  -27.3110   19.0273 H   0  0  0  0  0  0
  -23.7122  -30.6063   19.4082 H   0  0  0  0  0  0
  -22.7272  -29.2520   19.8704 H   0  0  0  0  0  0
  -25.1286  -36.1990   25.0833 H   0  0  0  0  0  0
  -20.9953  -28.3206   24.1449 H   0  0  0  0  0  0
  -20.5674  -26.2256   23.3601 H   0  0  0  0  0  0
  -21.6633  -26.7445   22.1205 H   0  0  0  0  0  0
  -19.6903  -25.6302   21.1227 H   0  0  0  0  0  0
  -19.6680  -27.3208   20.6759 H   0  0  0  0  0  0
  -17.4191  -26.6676   21.4020 H   0  0  0  0  0  0
  -18.0313  -26.0063   22.9021 H   0  0  0  0  0  0
  -19.7930  -30.7252   24.2286 H   0  0  0  0  0  0
  -17.5013  -31.6266   24.5160 H   0  0  0  0  0  0
  -15.5346  -30.2994   23.7647 H   0  0  0  0  0  0
  -15.8659  -28.0828   22.7053 H   0  0  0  0  0  0
  -24.5907  -30.7052   25.7828 H   0  0  0  0  0  0
  -24.8922  -32.2869   26.4930 H   0  0  0  0  0  0
  -25.8099  -30.8889   27.0238 H   0  0  0  0  0  0
  -26.2823  -29.6827   24.1139 H   0  0  0  0  0  0
  -27.4064  -29.7271   25.4532 H   0  0  0  0  0  0
  -27.8654  -30.4381   23.9229 H   0  0  0  0  0  0
  -27.2663  -33.3614   26.2085 H   0  0  0  0  0  0
  -28.3841  -32.6891   25.0309 H   0  0  0  0  0  0
  -28.0714  -31.8431   26.5392 H   0  0  0  0  0  0
  -28.2612  -38.0105   24.7516 H   0  0  0  0  0  0
  -28.1071  -36.2639   24.6289 H   0  0  0  0  0  0
  -27.2301  -37.1464   25.8870 H   0  0  0  0  0  0
  -20.9278  -29.8760   21.6972 H   0  0  0  0  0  0
  -26.0188  -38.2885   24.1407 H   0  0  0  0  0  0
  -29.4137  -17.8459   21.4230 H   0  0  0  0  0  0
  -32.3932  -15.1430   22.9868 H   0  0  0  0  0  0
  -29.4836  -22.7295   19.9609 H   0  0  0  0  0  0
  -27.9006  -22.7239   20.7018 H   0  0  0  0  0  0
  -27.5091  -24.9113   19.5156 H   0  0  0  0  0  0
  -29.1315  -25.1910   18.9395 H   0  0  0  0  0  0
  -30.5129  -22.6481   22.3079 H   0  0  0  0  0  0
  -28.9023  -22.4670   22.9653 H   0  0  0  0  0  0
  -32.0714  -20.0773   24.7705 H   0  0  0  0  0  0
  -33.4569  -19.1808   24.7746 H   0  0  0  0  0  0
  -31.1280  -20.7311   23.1766 H   0  0  0  0  0  0
  -29.2113  -15.1128   21.7312 H   0  0  0  0  0  0
  1 25  1  0  0  0
  1 30  2  0  0  0
  1 84  1  0  0  0
  2  3  1  0  0  0
  2 25  1  0  0  0
  2 88  1  0  0  0
  2 89  1  0  0  0
  3  4  1  0  0  0
  3 90  1  0  0  0
  3 91  1  0  0  0
  4  5  1  0  0  0
  4 92  1  0  0  0
  4 93  1  0  0  0
  5  6  1  0  0  0
  5 26  1  0  0  0
  5 94  1  0  0  0
  6 25  1  0  0  0
  6 95  1  0  0  0
  6 96  1  0  0  0
  7  8  2  0  0  0
  7 26  1  0  0  0
  7 29  1  0  0  0
  8  9  1  0  0  0
  8 22  1  0  0  0
  9 10  1  0  0  0
  9 27  2  0  0  0
 10 11  2  0  0  0
 10 15  1  0  0  0
 11 12  1  0  0  0
 11 97  1  0  0  0
 12 13  2  0  0  0
 12 98  1  0  0  0
 13 14  1  0  0  0
 13 31  1  0  0  0
 14 15  2  0  0  0
 14 99  1  0  0  0
 15100  1  0  0  0
 16 17  2  0  0  0
 16 21  1  0  0  0
 16 31  1  0  0  0
 17 18  1  0  0  0
 17101  1  0  0  0
 18 19  2  0  0  0
 18102  1  0  0  0
 19 20  1  0  0  0
 19 24  1  0  0  0
 20 21  2  0  0  0
 20103  1  0  0  0
 21 23  1  0  0  0
 22 28  1  0  0  0
 22 32  2  0  0  0
 26 27  1  0  0  0
 28104  1  0  0  0
 28105  1  0  0  0
 29106  1  0  0  0
 29107  1  0  0  0
 33 34  1  0  0  0
 33 66  1  0  0  0
 33 70  2  0  0  0
 34 36  1  0  0  0
 34 59  1  0  0  0
 34108  1  0  0  0
 35 44  2  0  0  0
 35 45  1  0  0  0
 35 68  1  0  0  0
 36 56  1  0  0  0
 36109  1  0  0  0
 37 39  1  0  0  0
 37 47  1  0  0  0
 37 66  1  0  0  0
 37110  1  0  0  0
 38 43  2  0  0  0
 38 46  1  0  0  0
 38 47  1  0  0  0
 39 64  1  0  0  0
 39 67  2  0  0  0
 40 52  1  0  0  0
 40 53  2  0  0  0
 40 58  1  0  0  0
 41111  1  0  0  0
 41112  1  0  0  0
 41113  1  0  0  0
 41 48  1  0  0  0
 42 43  1  0  0  0
 42 66  1  0  0  0
 42114  1  0  0  0
 42115  1  0  0  0
 43 44  1  0  0  0
 44116  1  0  0  0
 45 46  2  0  0  0
 45117  1  0  0  0
 46118  1  0  0  0
 47119  1  0  0  0
 47120  1  0  0  0
 48 56  1  0  0  0
 48 65  1  0  0  0
 48121  1  0  0  0
 49 50  1  0  0  0
 49 53  1  0  0  0
 49 64  1  0  0  0
 49122  1  0  0  0
 50 51  1  0  0  0
 50123  1  0  0  0
 50124  1  0  0  0
 51 52  1  0  0  0
 51125  1  0  0  0
 51126  1  0  0  0
 52127  1  0  0  0
 52128  1  0  0  0
 53 54  1  0  0  0
 54 55  2  0  0  0
 54129  1  0  0  0
 55 57  1  0  0  0
 55130  1  0  0  0
 56 69  2  0  0  0
 57 58  2  0  0  0
 57131  1  0  0  0
 58132  1  0  0  0
 59 60  1  0  0  0
 59 61  1  0  0  0
 59 62  1  0  0  0
 60133  1  0  0  0
 60134  1  0  0  0
 60135  1  0  0  0
 61136  1  0  0  0
 61137  1  0  0  0
 61138  1  0  0  0
 62139  1  0  0  0
 62140  1  0  0  0
 62141  1  0  0  0
 63 65  1  0  0  0
 63142  1  0  0  0
 63143  1  0  0  0
 63144  1  0  0  0
 64145  1  0  0  0
 65146  1  0  0  0
 68 80  1  0  0  0
 71 73  2  0  0  0
 71 74  1  0  0  0
 71147  1  0  0  0
 72 73  1  0  0  0
 72 76  2  0  0  0
 72148  1  0  0  0
 73 84  1  0  0  0
 74 75  2  0  0  0
 74 83  1  0  0  0
 75 76  1  0  0  0
 75 82  1  0  0  0
 76 87  1  0  0  0
 77 79  1  0  0  0
 77 80  1  0  0  0
 77 85  2  0  0  0
 78 81  1  0  0  0
 78 83  1  0  0  0
 78 86  2  0  0  0
 79 81  1  0  0  0
 79149  1  0  0  0
 79150  1  0  0  0
 80151  1  0  0  0
 80152  1  0  0  0
 81153  1  0  0  0
 81154  1  0  0  0
 82155  1  0  0  0
 82156  1  0  0  0
 83157  1  0  0  0
 84158  1  0  0  0
M  ISO  4   1 100  68 101  80 101  84 100
M  END
> <chiral flag>
0

> <version>
0

> <s_m_source_file>
/data/baiqing/PycharmProjects/Reinvent-master-3.2/result/LINK_invent/BTK/process_docking_weight1_custom_product_contain_oxygen_bond_distance_aromatic_linkinvent_7_9_3/rearranged_h_0174.sdf

> <i_m_source_file_index>
21

> <r_mmod_Potential_Energy-OPLS-2005>
-179.757568359375

> <r_mmod_Stretch_Energy-OPLS-2005>
34.9646835327148

> <r_mmod_Bend_Energy-OPLS-2005>
109.750091552734

> <r_mmod_Torsional_Energy-OPLS-2005>
236.96549987793

> <r_mmod_Improper_Torsional_Energy-OPLS-2005>
7.94822072982788

> <r_mmod_Van_der_Waal_Energy-OPLS-2005>
169.714447021484

> <r_mmod_Electrostatic_Energy-OPLS-2005>
-497.662261962891

> <r_mmod_Solvation_Energy-OPLS-2005>
-250.508834838867

> <b_mmod_Minimization_Converged-OPLS-2005>
0

> <r_mmod_RMS_Derivative-OPLS-2005>
0.765055954456329

$$$$
21
                    3D
 Structure written by MMmdl.
153161  0  0  1  0            999 V2000
  -30.6802  -14.5050   20.5627 C   0  0  0  0  0  0
  -30.4310  -12.3232   19.4259 C   0  0  0  0  0  0
  -29.4984  -12.5067   18.2091 C   0  0  0  0  0  0
  -28.0196  -12.3611   18.6210 C   0  0  0  0  0  0
  -27.6615  -13.2061   19.8729 C   0  0  2  0  0  0
  -28.7045  -12.9923   20.9944 C   0  0  0  0  0  0
  -25.2589  -13.8161   20.5668 C   0  0  0  0  0  0
  -24.1841  -13.0443   20.9181 C   0  0  0  0  0  0
  -24.6392  -11.6911   20.8742 C   0  0  0  0  0  0
  -23.9051  -10.4300   21.0409 C   0  0  0  0  0  0
  -24.3607   -9.4212   21.9183 C   0  0  0  0  0  0
  -23.6287   -8.2243   22.0749 C   0  0  0  0  0  0
  -22.4269   -8.0279   21.3537 C   0  0  0  0  0  0
  -21.9897   -9.0255   20.4643 C   0  0  0  0  0  0
  -22.7222  -10.2140   20.3057 C   0  0  0  0  0  0
  -21.6851   -6.0731   22.5279 C   0  0  0  0  0  0
  -21.4016   -6.5638   23.8212 C   0  0  0  0  0  0
  -21.3660   -5.6789   24.9174 C   0  0  0  0  0  0
  -21.6044   -4.3052   24.7225 C   0  0  0  0  0  0
  -21.8820   -3.8141   23.4348 C   0  0  0  0  0  0
  -21.9193   -4.6959   22.3403 C   0  0  0  0  0  0
  -22.7863  -13.5243   21.1846 C   0  0  0  0  0  0
  -22.1659   -4.2145   21.0979 F   0  0  0  0  0  0
  -21.5624   -3.4534   25.7736 F   0  0  0  0  0  0
  -30.0357  -13.3093   20.4452 N   0  0  0  0  0  0
  -26.3021  -12.9326   20.3349 N   0  0  0  0  0  0
  -25.9317  -11.6489   20.5763 N   0  0  0  0  0  0
  -22.0499  -12.8247   22.0412 N   0  0  0  0  0  0
  -25.4323  -15.1876   20.4049 N   0  0  0  0  0  0
  -31.8107  -14.6958   20.1045 O   0  0  0  0  0  0
  -21.6634   -6.8875   21.4239 O   0  0  0  0  0  0
  -22.3554  -14.5549   20.6691 O   0  0  0  0  0  0
  -24.6159  -31.8668   23.2086 C   0  0  0  0  0  0
  -25.9047  -32.4814   23.8388 C   0  0  1  0  0  0
  -27.2367  -27.4216   20.1018 C   0  0  0  0  0  0
  -25.5901  -33.8615   24.2317 N   0  0  0  0  0  0
  -23.4060  -30.4882   21.5488 C   0  0  2  0  0  0
  -24.8571  -28.9526   20.1146 C   0  0  0  0  0  0
  -22.7421  -29.4644   22.4980 C   0  0  0  0  0  0
  -18.0274  -28.1369   22.8493 C   0  0  0  0  0  0
  -24.1491  -36.7314   23.2634 C   0  0  0  0  0  0
  -25.9363  -30.8275   21.3661 C   0  0  0  0  0  0
  -26.0170  -29.4602   20.7152 C   0  0  0  0  0  0
  -27.2131  -28.7012   20.7095 C   0  0  0  0  0  0
  -26.0649  -26.9328   19.4930 C   0  0  0  0  0  0
  -24.8759  -27.6877   19.5004 C   0  0  0  0  0  0
  -23.6171  -29.8193   20.1639 C   0  0  0  0  0  0
  -25.4111  -36.3106   24.0331 C   0  0  1  0  0  0
  -20.5862  -28.3659   23.1310 C   0  0  2  0  0  0
  -20.6765  -26.9391   22.5417 C   0  0  0  0  0  0
  -19.5747  -26.6377   21.5211 C   0  0  0  0  0  0
  -18.1925  -26.7916   22.1620 C   0  0  0  0  0  0
  -19.1524  -28.8831   23.2898 C   0  0  0  0  0  0
  -18.9454  -30.1440   23.8905 C   0  0  0  0  0  0
  -17.6456  -30.6578   24.0562 C   0  0  0  0  0  0
  -25.9043  -34.9470   23.5126 C   0  0  0  0  0  0
  -16.5346  -29.9079   23.6323 C   0  0  0  0  0  0
  -16.7264  -28.6492   23.0350 C   0  0  0  0  0  0
  -26.4475  -31.6594   25.0717 C   0  0  0  0  0  0
  -25.3743  -31.3711   26.1468 C   0  0  0  0  0  0
  -27.0293  -30.3026   24.6091 C   0  0  0  0  0  0
  -27.6049  -32.4315   25.7474 C   0  0  0  0  0  0
  -27.5586  -37.1808   24.8462 C   0  0  0  0  0  0
  -21.4143  -29.3026   22.3714 N   0  0  0  0  0  0
  -26.4298  -37.3791   23.9410 N   0  0  0  0  0  0
  -24.6705  -31.0757   22.0994 N   0  0  0  0  0  0
  -23.4181  -28.8189   23.3032 O   0  0  0  0  0  0
  -28.3565  -26.6169   20.0898 O   0  0  0  0  0  0
  -26.5608  -34.8922   22.4687 O   0  0  0  0  0  0
  -23.5344  -32.1426   23.7471 O   0  0  0  0  0  0
  -28.9110  -19.1087   20.8891 C   0  0  0  0  0  0
  -28.8745  -17.6986   21.0022 C   0  0  0  0  0  0
  -31.2856  -17.6171   20.8400 C   0  0  0  0  0  0
  -30.1351  -19.8106   20.7496 C   0  0  0  0  0  0
  -30.0561  -16.9251   20.9665 C   0  0  0  0  0  0
  -31.3265  -19.0313   20.7377 C   0  0  0  0  0  0
  -28.5434  -25.8491   21.2183 C   0  0  0  0  0  0
  -30.1703  -21.3268   20.6546 C   0  0  0  0  0  0
  -28.8204  -24.5180   21.2830 C   0  0  0  0  0  0
  -28.9743  -23.5990   20.1148 C   0  0  0  0  0  0
  -28.8430  -22.0661   20.3391 C   0  0  0  0  0  0
  -29.9335  -15.4979   21.0981 N   0  0  0  0  0  0
  -31.2107  -21.9771   20.8096 O   0  0  0  0  0  0
  -29.1288  -24.0105   18.9605 O   0  0  0  0  0  0
  -28.9656  -23.9424   22.4863 O   0  0  0  0  0  0
  -32.5422  -19.6198   20.6210 F   0  0  0  0  0  0
  -31.4739  -12.4320   19.1220 H   0  0  0  0  0  0
  -30.3423  -11.3130   19.8290 H   0  0  0  0  0  0
  -29.7420  -11.7790   17.4337 H   0  0  0  0  0  0
  -29.6601  -13.4908   17.7669 H   0  0  0  0  0  0
  -27.8357  -11.3052   18.8233 H   0  0  0  0  0  0
  -27.3684  -12.6259   17.7872 H   0  0  0  0  0  0
  -27.7013  -14.2527   19.5696 H   0  0  0  0  0  0
  -28.6877  -11.9550   21.3323 H   0  0  0  0  0  0
  -28.4610  -13.5864   21.8763 H   0  0  0  0  0  0
  -25.2757   -9.5681   22.4754 H   0  0  0  0  0  0
  -23.9995   -7.4630   22.7467 H   0  0  0  0  0  0
  -21.0823   -8.8776   19.8953 H   0  0  0  0  0  0
  -22.3681  -10.9677   19.6163 H   0  0  0  0  0  0
  -21.2014   -7.6147   23.9717 H   0  0  0  0  0  0
  -21.1478   -6.0517   25.9076 H   0  0  0  0  0  0
  -22.0601   -2.7602   23.2851 H   0  0  0  0  0  0
  -22.4099  -11.9906   22.4806 H   0  0  0  0  0  0
  -21.1119  -13.1285   22.2615 H   0  0  0  0  0  0
  -24.6632  -15.8426   20.4956 H   0  0  0  0  0  0
  -26.2740  -15.6154   20.0416 H   0  0  0  0  0  0
  -26.7121  -32.5520   23.1155 H   0  0  0  0  0  0
  -25.0058  -33.9775   25.0465 H   0  0  0  0  0  0
  -22.6955  -31.3049   21.4081 H   0  0  0  0  0  0
  -23.3745  -35.9660   23.3310 H   0  0  0  0  0  0
  -24.3590  -36.8914   22.2048 H   0  0  0  0  0  0
  -23.7253  -37.6524   23.6646 H   0  0  0  0  0  0
  -26.0522  -31.5916   20.5961 H   0  0  0  0  0  0
  -26.8225  -30.8807   21.9863 H   0  0  0  0  0  0
  -28.1083  -29.0871   21.1768 H   0  0  0  0  0  0
  -26.0740  -25.9580   19.0252 H   0  0  0  0  0  0
  -23.9850  -27.2906   19.0342 H   0  0  0  0  0  0
  -23.7234  -30.5938   19.4038 H   0  0  0  0  0  0
  -22.7413  -29.2384   19.8685 H   0  0  0  0  0  0
  -25.1288  -36.1969   25.0825 H   0  0  0  0  0  0
  -20.9955  -28.3223   24.1429 H   0  0  0  0  0  0
  -20.5657  -26.2268   23.3608 H   0  0  0  0  0  0
  -21.6641  -26.7428   22.1220 H   0  0  0  0  0  0
  -19.6914  -25.6291   21.1234 H   0  0  0  0  0  0
  -19.6689  -27.3191   20.6745 H   0  0  0  0  0  0
  -17.4195  -26.6657   21.4021 H   0  0  0  0  0  0
  -18.0331  -26.0050   22.9007 H   0  0  0  0  0  0
  -19.7933  -30.7251   24.2277 H   0  0  0  0  0  0
  -17.5014  -31.6261   24.5159 H   0  0  0  0  0  0
  -15.5349  -30.2989   23.7646 H   0  0  0  0  0  0
  -15.8661  -28.0819   22.7065 H   0  0  0  0  0  0
  -24.5898  -30.7077   25.7810 H   0  0  0  0  0  0
  -24.8970  -32.2878   26.4945 H   0  0  0  0  0  0
  -25.8101  -30.8853   27.0206 H   0  0  0  0  0  0
  -26.2826  -29.6793   24.1151 H   0  0  0  0  0  0
  -27.4058  -29.7258   25.4548 H   0  0  0  0  0  0
  -27.8679  -30.4340   23.9247 H   0  0  0  0  0  0
  -27.2661  -33.3594   26.2100 H   0  0  0  0  0  0
  -28.3837  -32.6904   25.0289 H   0  0  0  0  0  0
  -28.0746  -31.8412   26.5350 H   0  0  0  0  0  0
  -28.2606  -38.0102   24.7512 H   0  0  0  0  0  0
  -28.1076  -36.2633   24.6285 H   0  0  0  0  0  0
  -27.2305  -37.1454   25.8865 H   0  0  0  0  0  0
  -20.9303  -29.8753   21.6942 H   0  0  0  0  0  0
  -26.0180  -38.2869   24.1408 H   0  0  0  0  0  0
  -27.9720  -19.6416   20.9226 H   0  0  0  0  0  0
  -27.9138  -17.2142   21.1123 H   0  0  0  0  0  0
  -32.2208  -17.0776   20.8306 H   0  0  0  0  0  0
  -28.4374  -26.4517   22.1111 H   0  0  0  0  0  0
  -28.1426  -21.8936   21.1551 H   0  0  0  0  0  0
  -28.4047  -21.6223   19.4462 H   0  0  0  0  0  0
  -29.0384  -15.1731   21.4307 H   0  0  0  0  0  0
  -28.8475  -24.6151   23.1427 H   0  0  0  0  0  0
  1 25  1  0  0  0
  1 30  2  0  0  0
  1 82  1  0  0  0
  2  3  1  0  0  0
  2 25  1  0  0  0
  2 87  1  0  0  0
  2 88  1  0  0  0
  3  4  1  0  0  0
  3 89  1  0  0  0
  3 90  1  0  0  0
  4  5  1  0  0  0
  4 91  1  0  0  0
  4 92  1  0  0  0
  5  6  1  0  0  0
  5 26  1  0  0  0
  5 93  1  0  0  0
  6 25  1  0  0  0
  6 94  1  0  0  0
  6 95  1  0  0  0
  7  8  2  0  0  0
  7 26  1  0  0  0
  7 29  1  0  0  0
  8  9  1  0  0  0
  8 22  1  0  0  0
  9 10  1  0  0  0
  9 27  2  0  0  0
 10 11  2  0  0  0
 10 15  1  0  0  0
 11 12  1  0  0  0
 11 96  1  0  0  0
 12 13  2  0  0  0
 12 97  1  0  0  0
 13 14  1  0  0  0
 13 31  1  0  0  0
 14 15  2  0  0  0
 14 98  1  0  0  0
 15 99  1  0  0  0
 16 17  2  0  0  0
 16 21  1  0  0  0
 16 31  1  0  0  0
 17 18  1  0  0  0
 17100  1  0  0  0
 18 19  2  0  0  0
 18101  1  0  0  0
 19 20  1  0  0  0
 19 24  1  0  0  0
 20 21  2  0  0  0
 20102  1  0  0  0
 21 23  1  0  0  0
 22 28  1  0  0  0
 22 32  2  0  0  0
 26 27  1  0  0  0
 28103  1  0  0  0
 28104  1  0  0  0
 29105  1  0  0  0
 29106  1  0  0  0
 33 34  1  0  0  0
 33 66  1  0  0  0
 33 70  2  0  0  0
 34 36  1  0  0  0
 34 59  1  0  0  0
 34107  1  0  0  0
 35 44  2  0  0  0
 35 45  1  0  0  0
 35 68  1  0  0  0
 36 56  1  0  0  0
 36108  1  0  0  0
 37 39  1  0  0  0
 37 47  1  0  0  0
 37 66  1  0  0  0
 37109  1  0  0  0
 38 43  2  0  0  0
 38 46  1  0  0  0
 38 47  1  0  0  0
 39 64  1  0  0  0
 39 67  2  0  0  0
 40 52  1  0  0  0
 40 53  2  0  0  0
 40 58  1  0  0  0
 41110  1  0  0  0
 41111  1  0  0  0
 41112  1  0  0  0
 41 48  1  0  0  0
 42 43  1  0  0  0
 42 66  1  0  0  0
 42113  1  0  0  0
 42114  1  0  0  0
 43 44  1  0  0  0
 44115  1  0  0  0
 45 46  2  0  0  0
 45116  1  0  0  0
 46117  1  0  0  0
 47118  1  0  0  0
 47119  1  0  0  0
 48 56  1  0  0  0
 48 65  1  0  0  0
 48120  1  0  0  0
 49 50  1  0  0  0
 49 53  1  0  0  0
 49 64  1  0  0  0
 49121  1  0  0  0
 50 51  1  0  0  0
 50122  1  0  0  0
 50123  1  0  0  0
 51 52  1  0  0  0
 51124  1  0  0  0
 51125  1  0  0  0
 52126  1  0  0  0
 52127  1  0  0  0
 53 54  1  0  0  0
 54 55  2  0  0  0
 54128  1  0  0  0
 55 57  1  0  0  0
 55129  1  0  0  0
 56 69  2  0  0  0
 57 58  2  0  0  0
 57130  1  0  0  0
 58131  1  0  0  0
 59 60  1  0  0  0
 59 61  1  0  0  0
 59 62  1  0  0  0
 60132  1  0  0  0
 60133  1  0  0  0
 60134  1  0  0  0
 61135  1  0  0  0
 61136  1  0  0  0
 61137  1  0  0  0
 62138  1  0  0  0
 62139  1  0  0  0
 62140  1  0  0  0
 63 65  1  0  0  0
 63141  1  0  0  0
 63142  1  0  0  0
 63143  1  0  0  0
 64144  1  0  0  0
 65145  1  0  0  0
 68 77  1  0  0  0
 71 72  2  0  0  0
 71 74  1  0  0  0
 71146  1  0  0  0
 72 75  1  0  0  0
 72147  1  0  0  0
 73 75  2  0  0  0
 73 76  1  0  0  0
 73148  1  0  0  0
 74 76  2  0  0  0
 74 78  1  0  0  0
 75 82  1  0  0  0
 76 86  1  0  0  0
 77 79  2  0  0  0
 77149  1  0  0  0
 78 81  1  0  0  0
 78 83  2  0  0  0
 79 80  1  0  0  0
 79 85  1  0  0  0
 80 81  1  0  0  0
 80 84  2  0  0  0
 81150  1  0  0  0
 81151  1  0  0  0
 82152  1  0  0  0
 85153  1  0  0  0
M  ISO  4   1 100  68 101  77 101  82 100
M  END
> <chiral flag>
0

> <version>
0

> <s_m_source_file>
/data/baiqing/PycharmProjects/Reinvent-master-3.2/result/LINK_invent/BTK/process_docking_weight1_custom_product_contain_oxygen_bond_distance_aromatic_linkinvent_7_9_3/rearranged_h_0174.sdf

> <i_m_source_file_index>
22

> <r_mmod_Potential_Energy-OPLS-2005>
-17.8427028656006

> <r_mmod_Stretch_Energy-OPLS-2005>
45.8489418029785

> <r_mmod_Bend_Energy-OPLS-2005>
108.448486328125

> <r_mmod_Torsional_Energy-OPLS-2005>
246.904571533203

> <r_mmod_Improper_Torsional_Energy-OPLS-2005>
4.50230646133423

> <r_mmod_Van_der_Waal_Energy-OPLS-2005>
151.071014404297

> <r_mmod_Electrostatic_Energy-OPLS-2005>
-342.118713378906

> <r_mmod_Solvation_Energy-OPLS-2005>
-248.622924804688

> <b_mmod_Minimization_Converged-OPLS-2005>
0

> <r_mmod_RMS_Derivative-OPLS-2005>
1.12544870376587

$$$$
22
                    3D
 Structure written by MMmdl.
153161  0  0  1  0            999 V2000
  -30.6796  -14.4909   20.5553 C   0  0  0  0  0  0
  -30.4243  -12.3101   19.4291 C   0  0  0  0  0  0
  -29.4976  -12.5056   18.2091 C   0  0  0  0  0  0
  -28.0182  -12.3597   18.6209 C   0  0  0  0  0  0
  -27.6612  -13.2058   19.8733 C   0  0  2  0  0  0
  -28.7022  -12.9909   20.9960 C   0  0  0  0  0  0
  -25.2589  -13.8145   20.5662 C   0  0  0  0  0  0
  -24.1837  -13.0426   20.9166 C   0  0  0  0  0  0
  -24.6388  -11.6890   20.8716 C   0  0  0  0  0  0
  -23.9045  -10.4284   21.0382 C   0  0  0  0  0  0
  -24.3608   -9.4200   21.9156 C   0  0  0  0  0  0
  -23.6288   -8.2238   22.0733 C   0  0  0  0  0  0
  -22.4267   -8.0272   21.3537 C   0  0  0  0  0  0
  -21.9901   -9.0231   20.4628 C   0  0  0  0  0  0
  -22.7221  -10.2114   20.3031 C   0  0  0  0  0  0
  -21.6853   -6.0727   22.5266 C   0  0  0  0  0  0
  -21.4010   -6.5629   23.8200 C   0  0  0  0  0  0
  -21.3662   -5.6786   24.9163 C   0  0  0  0  0  0
  -21.6048   -4.3048   24.7216 C   0  0  0  0  0  0
  -21.8827   -3.8136   23.4340 C   0  0  0  0  0  0
  -21.9192   -4.6952   22.3394 C   0  0  0  0  0  0
  -22.7859  -13.5217   21.1837 C   0  0  0  0  0  0
  -22.1666   -4.2137   21.0976 F   0  0  0  0  0  0
  -21.5632   -3.4536   25.7734 F   0  0  0  0  0  0
  -30.0341  -13.2974   20.4466 N   0  0  0  0  0  0
  -26.3024  -12.9316   20.3352 N   0  0  0  0  0  0
  -25.9317  -11.6475   20.5751 N   0  0  0  0  0  0
  -22.0535  -12.8187   22.0413 N   0  0  0  0  0  0
  -25.4322  -15.1866   20.4074 N   0  0  0  0  0  0
  -31.8186  -14.6741   20.1130 O   0  0  0  0  0  0
  -21.6639   -6.8870   21.4230 O   0  0  0  0  0  0
  -22.3535  -14.5523   20.6702 O   0  0  0  0  0  0
  -24.6163  -31.8674   23.2086 C   0  0  0  0  0  0
  -25.9067  -32.4808   23.8379 C   0  0  1  0  0  0
  -27.2382  -27.4217   20.1138 C   0  0  0  0  0  0
  -25.5949  -33.8609   24.2332 N   0  0  0  0  0  0
  -23.4053  -30.4917   21.5471 C   0  0  2  0  0  0
  -24.8564  -28.9581   20.1110 C   0  0  0  0  0  0
  -22.7443  -29.4635   22.4948 C   0  0  0  0  0  0
  -18.0284  -28.1350   22.8460 C   0  0  0  0  0  0
  -24.1493  -36.7273   23.2634 C   0  0  0  0  0  0
  -25.9347  -30.8348   21.3604 C   0  0  0  0  0  0
  -26.0161  -29.4687   20.7059 C   0  0  0  0  0  0
  -27.2135  -28.7138   20.6917 C   0  0  0  0  0  0
  -26.0602  -26.9242   19.5146 C   0  0  0  0  0  0
  -24.8754  -27.6871   19.5085 C   0  0  0  0  0  0
  -23.6211  -29.8310   20.1579 C   0  0  0  0  0  0
  -25.4111  -36.3086   24.0342 C   0  0  1  0  0  0
  -20.5876  -28.3626   23.1281 C   0  0  2  0  0  0
  -20.6757  -26.9360   22.5389 C   0  0  0  0  0  0
  -19.5746  -26.6354   21.5178 C   0  0  0  0  0  0
  -18.1922  -26.7898   22.1580 C   0  0  0  0  0  0
  -19.1534  -28.8798   23.2850 C   0  0  0  0  0  0
  -18.9482  -30.1396   23.8863 C   0  0  0  0  0  0
  -17.6492  -30.6549   24.0544 C   0  0  0  0  0  0
  -25.9044  -34.9463   23.5122 C   0  0  0  0  0  0
  -16.5377  -29.9050   23.6331 C   0  0  0  0  0  0
  -16.7271  -28.6473   23.0329 C   0  0  0  0  0  0
  -26.4493  -31.6583   25.0703 C   0  0  0  0  0  0
  -25.3767  -31.3722   26.1460 C   0  0  0  0  0  0
  -27.0312  -30.3044   24.6023 C   0  0  0  0  0  0
  -27.6078  -32.4291   25.7457 C   0  0  0  0  0  0
  -27.5578  -37.1777   24.8473 C   0  0  0  0  0  0
  -21.4171  -29.2992   22.3687 N   0  0  0  0  0  0
  -26.4286  -37.3780   23.9428 N   0  0  0  0  0  0
  -24.6700  -31.0797   22.0972 N   0  0  0  0  0  0
  -23.4224  -28.8186   23.2986 O   0  0  0  0  0  0
  -28.3953  -26.6664   20.1299 O   0  0  0  0  0  0
  -26.5584  -34.8927   22.4668 O   0  0  0  0  0  0
  -23.5361  -32.1410   23.7491 O   0  0  0  0  0  0
  -31.1923  -17.6139   20.6919 C   0  0  0  0  0  0
  -30.9478  -18.9959   20.3848 C   0  0  0  0  0  0
  -30.0633  -16.8399   20.8220 C   0  0  0  0  0  0
  -29.6023  -19.3121   20.3480 C   0  0  0  0  0  0
  -28.6260  -24.2290   19.6480 C   0  0  0  0  0  0
  -29.1833  -21.7642   20.3755 C   0  0  0  0  0  0
  -32.0767  -19.9432   20.0959 C   0  0  0  0  0  0
  -28.2736  -25.3296   20.6762 C   0  0  0  0  0  0
  -28.1055  -22.7831   19.8975 C   0  0  0  0  0  0
  -28.9404  -20.4717   20.0471 N   0  0  0  0  0  0
  -29.9251  -15.4985   21.0474 N   0  0  0  0  0  0
  -29.2633  -24.5110   18.6227 O   0  0  0  0  0  0
  -30.1527  -22.1171   21.0582 O   0  0  0  0  0  0
  -27.1224  -22.7985   20.7999 F   0  0  0  0  0  0
  -27.5861  -22.3211   18.7552 F   0  0  0  0  0  0
  -28.6563  -17.8605   20.6451 S   0  0  0  0  0  0
  -31.4714  -12.4020   19.1349 H   0  0  0  0  0  0
  -30.3177  -11.3006   19.8305 H   0  0  0  0  0  0
  -29.7426  -11.7848   17.4284 H   0  0  0  0  0  0
  -29.6613  -13.4941   17.7755 H   0  0  0  0  0  0
  -27.8346  -11.3041   18.8239 H   0  0  0  0  0  0
  -27.3649  -12.6264   17.7879 H   0  0  0  0  0  0
  -27.7028  -14.2523   19.5688 H   0  0  0  0  0  0
  -28.6804  -11.9558   21.3402 H   0  0  0  0  0  0
  -28.4622  -13.5923   21.8739 H   0  0  0  0  0  0
  -25.2760   -9.5676   22.4719 H   0  0  0  0  0  0
  -23.9997   -7.4630   22.7456 H   0  0  0  0  0  0
  -21.0833   -8.8738   19.8940 H   0  0  0  0  0  0
  -22.3671  -10.9640   19.6137 H   0  0  0  0  0  0
  -21.2006   -7.6135   23.9695 H   0  0  0  0  0  0
  -21.1480   -6.0518   25.9064 H   0  0  0  0  0  0
  -22.0609   -2.7600   23.2840 H   0  0  0  0  0  0
  -22.4178  -11.9837   22.4755 H   0  0  0  0  0  0
  -21.1151  -13.1171   22.2661 H   0  0  0  0  0  0
  -24.6617  -15.8401   20.4969 H   0  0  0  0  0  0
  -26.2840  -15.6219   20.0791 H   0  0  0  0  0  0
  -26.7147  -32.5553   23.1150 H   0  0  0  0  0  0
  -25.0183  -33.9763   25.0544 H   0  0  0  0  0  0
  -22.6926  -31.3070   21.4094 H   0  0  0  0  0  0
  -23.3770  -35.9592   23.3295 H   0  0  0  0  0  0
  -24.3597  -36.8881   22.2052 H   0  0  0  0  0  0
  -23.7227  -37.6476   23.6645 H   0  0  0  0  0  0
  -26.0462  -31.6058   20.5958 H   0  0  0  0  0  0
  -26.8228  -30.8875   21.9795 H   0  0  0  0  0  0
  -28.1110  -29.1093   21.1466 H   0  0  0  0  0  0
  -26.0582  -25.9496   19.0485 H   0  0  0  0  0  0
  -23.9852  -27.2880   19.0397 H   0  0  0  0  0  0
  -23.7440  -30.6130   19.4068 H   0  0  0  0  0  0
  -22.7424  -29.2647   19.8469 H   0  0  0  0  0  0
  -25.1272  -36.1928   25.0843 H   0  0  0  0  0  0
  -20.9949  -28.3177   24.1408 H   0  0  0  0  0  0
  -20.5623  -26.2244   23.3572 H   0  0  0  0  0  0
  -21.6625  -26.7355   22.1220 H   0  0  0  0  0  0
  -19.6912  -25.6280   21.1172 H   0  0  0  0  0  0
  -19.6698  -27.3174   20.6732 H   0  0  0  0  0  0
  -17.4200  -26.6633   21.3978 H   0  0  0  0  0  0
  -18.0299  -26.0029   22.8958 H   0  0  0  0  0  0
  -19.7976  -30.7173   24.2241 H   0  0  0  0  0  0
  -17.5073  -31.6247   24.5121 H   0  0  0  0  0  0
  -15.5372  -30.2936   23.7696 H   0  0  0  0  0  0
  -15.8668  -28.0794   22.7052 H   0  0  0  0  0  0
  -24.5971  -30.7001   25.7849 H   0  0  0  0  0  0
  -24.8905  -32.2889   26.4823 H   0  0  0  0  0  0
  -25.8129  -30.8999   27.0269 H   0  0  0  0  0  0
  -26.2815  -29.6804   24.1139 H   0  0  0  0  0  0
  -27.4202  -29.7270   25.4419 H   0  0  0  0  0  0
  -27.8604  -30.4405   23.9073 H   0  0  0  0  0  0
  -27.2711  -33.3599   26.2042 H   0  0  0  0  0  0
  -28.3886  -32.6834   25.0277 H   0  0  0  0  0  0
  -28.0744  -31.8407   26.5369 H   0  0  0  0  0  0
  -28.2584  -38.0087   24.7531 H   0  0  0  0  0  0
  -28.1074  -36.2614   24.6259 H   0  0  0  0  0  0
  -27.2303  -37.1393   25.8880 H   0  0  0  0  0  0
  -20.9332  -29.8769   21.6964 H   0  0  0  0  0  0
  -26.0162  -38.2836   24.1498 H   0  0  0  0  0  0
  -32.2004  -17.2296   20.7795 H   0  0  0  0  0  0
  -32.9487  -19.4148   19.7074 H   0  0  0  0  0  0
  -32.3956  -20.4731   20.9933 H   0  0  0  0  0  0
  -31.8039  -20.6857   19.3458 H   0  0  0  0  0  0
  -28.9621  -25.2354   21.5182 H   0  0  0  0  0  0
  -27.2725  -25.1615   21.0761 H   0  0  0  0  0  0
  -28.0508  -20.3463   19.5840 H   0  0  0  0  0  0
  -29.0134  -15.2005   21.3581 H   0  0  0  0  0  0
  1 25  1  0  0  0
  1 30  2  0  0  0
  1 81  1  0  0  0
  2  3  1  0  0  0
  2 25  1  0  0  0
  2 87  1  0  0  0
  2 88  1  0  0  0
  3  4  1  0  0  0
  3 89  1  0  0  0
  3 90  1  0  0  0
  4  5  1  0  0  0
  4 91  1  0  0  0
  4 92  1  0  0  0
  5  6  1  0  0  0
  5 26  1  0  0  0
  5 93  1  0  0  0
  6 25  1  0  0  0
  6 94  1  0  0  0
  6 95  1  0  0  0
  7  8  2  0  0  0
  7 26  1  0  0  0
  7 29  1  0  0  0
  8  9  1  0  0  0
  8 22  1  0  0  0
  9 10  1  0  0  0
  9 27  2  0  0  0
 10 11  2  0  0  0
 10 15  1  0  0  0
 11 12  1  0  0  0
 11 96  1  0  0  0
 12 13  2  0  0  0
 12 97  1  0  0  0
 13 14  1  0  0  0
 13 31  1  0  0  0
 14 15  2  0  0  0
 14 98  1  0  0  0
 15 99  1  0  0  0
 16 17  2  0  0  0
 16 21  1  0  0  0
 16 31  1  0  0  0
 17 18  1  0  0  0
 17100  1  0  0  0
 18 19  2  0  0  0
 18101  1  0  0  0
 19 20  1  0  0  0
 19 24  1  0  0  0
 20 21  2  0  0  0
 20102  1  0  0  0
 21 23  1  0  0  0
 22 28  1  0  0  0
 22 32  2  0  0  0
 26 27  1  0  0  0
 28103  1  0  0  0
 28104  1  0  0  0
 29105  1  0  0  0
 29106  1  0  0  0
 33 34  1  0  0  0
 33 66  1  0  0  0
 33 70  2  0  0  0
 34 36  1  0  0  0
 34 59  1  0  0  0
 34107  1  0  0  0
 35 44  2  0  0  0
 35 45  1  0  0  0
 35 68  1  0  0  0
 36 56  1  0  0  0
 36108  1  0  0  0
 37 39  1  0  0  0
 37 47  1  0  0  0
 37 66  1  0  0  0
 37109  1  0  0  0
 38 43  2  0  0  0
 38 46  1  0  0  0
 38 47  1  0  0  0
 39 64  1  0  0  0
 39 67  2  0  0  0
 40 52  1  0  0  0
 40 53  2  0  0  0
 40 58  1  0  0  0
 41110  1  0  0  0
 41111  1  0  0  0
 41112  1  0  0  0
 41 48  1  0  0  0
 42 43  1  0  0  0
 42 66  1  0  0  0
 42113  1  0  0  0
 42114  1  0  0  0
 43 44  1  0  0  0
 44115  1  0  0  0
 45 46  2  0  0  0
 45116  1  0  0  0
 46117  1  0  0  0
 47118  1  0  0  0
 47119  1  0  0  0
 48 56  1  0  0  0
 48 65  1  0  0  0
 48120  1  0  0  0
 49 50  1  0  0  0
 49 53  1  0  0  0
 49 64  1  0  0  0
 49121  1  0  0  0
 50 51  1  0  0  0
 50122  1  0  0  0
 50123  1  0  0  0
 51 52  1  0  0  0
 51124  1  0  0  0
 51125  1  0  0  0
 52126  1  0  0  0
 52127  1  0  0  0
 53 54  1  0  0  0
 54 55  2  0  0  0
 54128  1  0  0  0
 55 57  1  0  0  0
 55129  1  0  0  0
 56 69  2  0  0  0
 57 58  2  0  0  0
 57130  1  0  0  0
 58131  1  0  0  0
 59 60  1  0  0  0
 59 61  1  0  0  0
 59 62  1  0  0  0
 60132  1  0  0  0
 60133  1  0  0  0
 60134  1  0  0  0
 61135  1  0  0  0
 61136  1  0  0  0
 61137  1  0  0  0
 62138  1  0  0  0
 62139  1  0  0  0
 62140  1  0  0  0
 63 65  1  0  0  0
 63141  1  0  0  0
 63142  1  0  0  0
 63143  1  0  0  0
 64144  1  0  0  0
 65145  1  0  0  0
 68 78  1  0  0  0
 71 72  1  0  0  0
 71 73  2  0  0  0
 71146  1  0  0  0
 72 74  2  0  0  0
 72 77  1  0  0  0
 73 81  1  0  0  0
 73 86  1  0  0  0
 74 80  1  0  0  0
 74 86  1  0  0  0
 75 78  1  0  0  0
 75 79  1  0  0  0
 75 82  2  0  0  0
 76 79  1  0  0  0
 76 80  1  0  0  0
 76 83  2  0  0  0
 77147  1  0  0  0
 77148  1  0  0  0
 77149  1  0  0  0
 78150  1  0  0  0
 78151  1  0  0  0
 79 84  1  0  0  0
 79 85  1  0  0  0
 80152  1  0  0  0
 81153  1  0  0  0
M  ISO  4   1 100  68 101  78 101  81 100
M  END
> <chiral flag>
0

> <version>
0

> <s_m_source_file>
/data/baiqing/PycharmProjects/Reinvent-master-3.2/result/LINK_invent/BTK/process_docking_weight1_custom_product_contain_oxygen_bond_distance_aromatic_linkinvent_7_9_3/rearranged_h_0174.sdf

> <i_m_source_file_index>
23

> <r_mmod_Potential_Energy-OPLS-2005>
22.3634948730469

> <r_mmod_Stretch_Energy-OPLS-2005>
41.2909393310547

> <r_mmod_Bend_Energy-OPLS-2005>
117.144966125488

> <r_mmod_Torsional_Energy-OPLS-2005>
269.132507324219

> <r_mmod_Improper_Torsional_Energy-OPLS-2005>
5.41695261001587

> <r_mmod_Van_der_Waal_Energy-OPLS-2005>
128.719329833984

> <r_mmod_Electrostatic_Energy-OPLS-2005>
-323.225524902344

> <r_mmod_Solvation_Energy-OPLS-2005>
-231.443725585938

> <b_mmod_Minimization_Converged-OPLS-2005>
0

> <r_mmod_RMS_Derivative-OPLS-2005>
3.14530324935913

$$$$
23
                    3D
 Structure written by MMmdl.
158166  0  0  1  0            999 V2000
  -30.6038  -14.7261   20.4825 C   0  0  0  0  0  0
  -30.4398  -12.4453   19.4535 C   0  0  0  0  0  0
  -29.5058  -12.5267   18.2263 C   0  0  0  0  0  0
  -28.0312  -12.3628   18.6410 C   0  0  0  0  0  0
  -27.6506  -13.2274   19.8726 C   0  0  2  0  0  0
  -28.7061  -13.1188   20.9961 C   0  0  0  0  0  0
  -25.2564  -13.8200   20.5720 C   0  0  0  0  0  0
  -24.1845  -13.0442   20.9269 C   0  0  0  0  0  0
  -24.6466  -11.6952   20.8822 C   0  0  0  0  0  0
  -23.9114  -10.4309   21.0466 C   0  0  0  0  0  0
  -24.3646   -9.4188   21.9237 C   0  0  0  0  0  0
  -23.6320   -8.2223   22.0786 C   0  0  0  0  0  0
  -22.4297   -8.0282   21.3581 C   0  0  0  0  0  0
  -21.9959   -9.0256   20.4664 C   0  0  0  0  0  0
  -22.7306  -10.2142   20.3095 C   0  0  0  0  0  0
  -21.6832   -6.0737   22.5279 C   0  0  0  0  0  0
  -21.3990   -6.5653   23.8212 C   0  0  0  0  0  0
  -21.3668   -5.6807   24.9182 C   0  0  0  0  0  0
  -21.6066   -4.3072   24.7224 C   0  0  0  0  0  0
  -21.8815   -3.8158   23.4358 C   0  0  0  0  0  0
  -21.9198   -4.6975   22.3387 C   0  0  0  0  0  0
  -22.7872  -13.5216   21.1898 C   0  0  0  0  0  0
  -22.1661   -4.2154   21.0960 F   0  0  0  0  0  0
  -21.5654   -3.4550   25.7748 F   0  0  0  0  0  0
  -30.0065  -13.4868   20.4111 N   0  0  0  0  0  0
  -26.2996  -12.9394   20.3410 N   0  0  0  0  0  0
  -25.9400  -11.6586   20.5870 N   0  0  0  0  0  0
  -22.0504  -12.8141   22.0426 N   0  0  0  0  0  0
  -25.4231  -15.1906   20.4025 N   0  0  0  0  0  0
  -31.7871  -14.8659   20.1547 O   0  0  0  0  0  0
  -21.6665   -6.8897   21.4251 O   0  0  0  0  0  0
  -22.3539  -14.5495   20.6763 O   0  0  0  0  0  0
  -24.6291  -31.8524   23.1996 C   0  0  0  0  0  0
  -25.9110  -32.4742   23.8389 C   0  0  1  0  0  0
  -27.2299  -27.2562   20.1329 C   0  0  0  0  0  0
  -25.5953  -33.8557   24.2321 N   0  0  0  0  0  0
  -23.4290  -30.4721   21.5392 C   0  0  2  0  0  0
  -24.8823  -28.9108   20.1185 C   0  0  0  0  0  0
  -22.7493  -29.4632   22.4912 C   0  0  0  0  0  0
  -18.0298  -28.1447   22.8544 C   0  0  0  0  0  0
  -24.1459  -36.7244   23.2676 C   0  0  0  0  0  0
  -25.9738  -30.7592   21.3871 C   0  0  0  0  0  0
  -26.0505  -29.3797   20.7346 C   0  0  0  0  0  0
  -27.2267  -28.5609   20.7337 C   0  0  0  0  0  0
  -26.0503  -26.8683   19.4684 C   0  0  0  0  0  0
  -24.8895  -27.6682   19.4651 C   0  0  0  0  0  0
  -23.6504  -29.7982   20.1613 C   0  0  0  0  0  0
  -25.4089  -36.3057   24.0355 C   0  0  1  0  0  0
  -20.5890  -28.3787   23.1270 C   0  0  2  0  0  0
  -20.6793  -26.9483   22.5442 C   0  0  0  0  0  0
  -19.5764  -26.6408   21.5268 C   0  0  0  0  0  0
  -18.1897  -26.8017   22.1638 C   0  0  0  0  0  0
  -19.1546  -28.8935   23.2897 C   0  0  0  0  0  0
  -18.9478  -30.1512   23.8952 C   0  0  0  0  0  0
  -17.6479  -30.6641   24.0605 C   0  0  0  0  0  0
  -25.9025  -34.9439   23.5128 C   0  0  0  0  0  0
  -16.5366  -29.9117   23.6362 C   0  0  0  0  0  0
  -16.7294  -28.6523   23.0417 C   0  0  0  0  0  0
  -26.4457  -31.6629   25.0844 C   0  0  0  0  0  0
  -25.3640  -31.3652   26.1538 C   0  0  0  0  0  0
  -27.0459  -30.3107   24.6399 C   0  0  0  0  0  0
  -27.6037  -32.4422   25.7563 C   0  0  0  0  0  0
  -27.5553  -37.1752   24.8484 C   0  0  0  0  0  0
  -21.4201  -29.3100   22.3627 N   0  0  0  0  0  0
  -26.4277  -37.3756   23.9424 N   0  0  0  0  0  0
  -24.6959  -31.0482   22.0979 N   0  0  0  0  0  0
  -23.4146  -28.8156   23.3022 O   0  0  0  0  0  0
  -28.3637  -26.4182   20.0562 O   0  0  0  0  0  0
  -26.5571  -34.8891   22.4673 O   0  0  0  0  0  0
  -23.5445  -32.1432   23.7263 O   0  0  0  0  0  0
  -29.6468  -19.8558   20.5473 C   0  0  0  0  0  0
  -30.2856  -19.3942   21.7132 C   0  0  0  0  0  0
  -29.9520  -17.2674   20.7259 C   0  0  0  0  0  0
  -29.3134  -21.2049   19.8454 C   0  0  0  0  0  0
  -27.3231  -22.9247   17.4566 C   0  0  0  0  0  0
  -26.5793  -23.3264   20.2695 C   0  0  0  0  0  0
  -28.2011  -23.8107   18.3851 C   0  0  0  0  0  0
  -28.4501  -25.0316   20.6450 C   0  0  0  0  0  0
  -28.0677  -23.6066   19.9305 C   0  0  1  0  0  0
  -30.4051  -17.9699   21.7912 N   0  0  0  0  0  0
  -30.8203  -20.1421   22.7950 N   0  0  0  0  0  0
  -29.7662  -15.8007   20.7048 N   0  0  0  0  0  0
  -28.8059  -22.3415   20.4650 N   0  0  0  0  0  0
  -29.5135  -21.2101   18.6274 O   0  0  0  0  0  0
  -29.2685  -18.4127   19.5404 S   0  0  0  0  0  0
  -31.4796  -12.5764   19.1487 H   0  0  0  0  0  0
  -30.3886  -11.4538   19.9105 H   0  0  0  0  0  0
  -29.7628  -11.7690   17.4886 H   0  0  0  0  0  0
  -29.6428  -13.4914   17.7328 H   0  0  0  0  0  0
  -27.8628  -11.3046   18.8510 H   0  0  0  0  0  0
  -27.3794  -12.6035   17.8010 H   0  0  0  0  0  0
  -27.6522  -14.2574   19.5260 H   0  0  0  0  0  0
  -28.7370  -12.1071   21.4000 H   0  0  0  0  0  0
  -28.4643  -13.7656   21.8415 H   0  0  0  0  0  0
  -25.2799   -9.5616   22.4847 H   0  0  0  0  0  0
  -24.0010   -7.4590   22.7512 H   0  0  0  0  0  0
  -21.0912   -8.8822   19.8926 H   0  0  0  0  0  0
  -22.3829  -10.9715   19.6195 H   0  0  0  0  0  0
  -21.1935   -7.6160   23.9710 H   0  0  0  0  0  0
  -21.1507   -6.0551   25.9082 H   0  0  0  0  0  0
  -22.0578   -2.7622   23.2883 H   0  0  0  0  0  0
  -22.4162  -11.9764   22.4715 H   0  0  0  0  0  0
  -21.1113  -13.1140   22.2664 H   0  0  0  0  0  0
  -24.6487  -15.8405   20.4830 H   0  0  0  0  0  0
  -26.2394  -15.6107   19.9739 H   0  0  0  0  0  0
  -26.7224  -32.5385   23.1179 H   0  0  0  0  0  0
  -25.0281  -33.9697   25.0598 H   0  0  0  0  0  0
  -22.7352  -31.2993   21.3829 H   0  0  0  0  0  0
  -23.3766  -35.9530   23.3335 H   0  0  0  0  0  0
  -24.3562  -36.8897   22.2100 H   0  0  0  0  0  0
  -23.7154  -37.6402   23.6736 H   0  0  0  0  0  0
  -26.1225  -31.5195   20.6184 H   0  0  0  0  0  0
  -26.8453  -30.8105   22.0306 H   0  0  0  0  0  0
  -28.1276  -28.9158   21.2160 H   0  0  0  0  0  0
  -26.0284  -25.9421   18.9144 H   0  0  0  0  0  0
  -24.0097  -27.3259   18.9395 H   0  0  0  0  0  0
  -23.7797  -30.5668   19.3971 H   0  0  0  0  0  0
  -22.7665  -29.2321   19.8584 H   0  0  0  0  0  0
  -25.1219  -36.1945   25.0843 H   0  0  0  0  0  0
  -21.0001  -28.3452   24.1409 H   0  0  0  0  0  0
  -20.5800  -26.2359   23.3648 H   0  0  0  0  0  0
  -21.6623  -26.7554   22.1191 H   0  0  0  0  0  0
  -19.6914  -25.6312   21.1284 H   0  0  0  0  0  0
  -19.6669  -27.3213   20.6801 H   0  0  0  0  0  0
  -17.4157  -26.6969   21.3993 H   0  0  0  0  0  0
  -18.0163  -26.0089   22.8959 H   0  0  0  0  0  0
  -19.7907  -30.7333   24.2379 H   0  0  0  0  0  0
  -17.4983  -31.6331   24.5192 H   0  0  0  0  0  0
  -15.5341  -30.3021   23.7665 H   0  0  0  0  0  0
  -15.8718  -28.0811   22.7195 H   0  0  0  0  0  0
  -24.6130  -30.6627   25.7913 H   0  0  0  0  0  0
  -24.8382  -32.2651   26.4754 H   0  0  0  0  0  0
  -25.7989  -30.9154   27.0494 H   0  0  0  0  0  0
  -26.3173  -29.6663   24.1518 H   0  0  0  0  0  0
  -27.4291  -29.7548   25.4968 H   0  0  0  0  0  0
  -27.8883  -30.4455   23.9623 H   0  0  0  0  0  0
  -27.2856  -33.3940   26.1861 H   0  0  0  0  0  0
  -28.3961  -32.6675   25.0394 H   0  0  0  0  0  0
  -28.0612  -31.8741   26.5686 H   0  0  0  0  0  0
  -28.2530  -38.0084   24.7588 H   0  0  0  0  0  0
  -28.1076  -36.2615   24.6253 H   0  0  0  0  0  0
  -27.2259  -37.1327   25.8882 H   0  0  0  0  0  0
  -20.9386  -29.8749   21.6782 H   0  0  0  0  0  0
  -26.0150  -38.2801   24.1524 H   0  0  0  0  0  0
  -27.5932  -23.0690   16.4104 H   0  0  0  0  0  0
  -26.2635  -23.1674   17.5437 H   0  0  0  0  0  0
  -27.4132  -21.8642   17.6704 H   0  0  0  0  0  0
  -25.9065  -24.0662   19.8451 H   0  0  0  0  0  0
  -26.4013  -23.3210   21.3448 H   0  0  0  0  0  0
  -26.2388  -22.3591   19.8999 H   0  0  0  0  0  0
  -27.9400  -24.8368   18.1315 H   0  0  0  0  0  0
  -29.2509  -23.7312   18.1040 H   0  0  0  0  0  0
  -29.5132  -24.9519   20.8682 H   0  0  0  0  0  0
  -27.9812  -25.0617   21.6279 H   0  0  0  0  0  0
  -30.9170  -21.1538   22.8015 H   0  0  0  0  0  0
  -31.3060  -19.6838   23.5703 H   0  0  0  0  0  0
  -28.7992  -15.5181   20.7236 H   0  0  0  0  0  0
  -28.7682  -22.2456   21.4734 H   0  0  0  0  0  0
  1 25  1  0  0  0
  1 30  2  0  0  0
  1 82  1  0  0  0
  2  3  1  0  0  0
  2 25  1  0  0  0
  2 86  1  0  0  0
  2 87  1  0  0  0
  3  4  1  0  0  0
  3 88  1  0  0  0
  3 89  1  0  0  0
  4  5  1  0  0  0
  4 90  1  0  0  0
  4 91  1  0  0  0
  5  6  1  0  0  0
  5 26  1  0  0  0
  5 92  1  0  0  0
  6 25  1  0  0  0
  6 93  1  0  0  0
  6 94  1  0  0  0
  7  8  2  0  0  0
  7 26  1  0  0  0
  7 29  1  0  0  0
  8  9  1  0  0  0
  8 22  1  0  0  0
  9 10  1  0  0  0
  9 27  2  0  0  0
 10 11  2  0  0  0
 10 15  1  0  0  0
 11 12  1  0  0  0
 11 95  1  0  0  0
 12 13  2  0  0  0
 12 96  1  0  0  0
 13 14  1  0  0  0
 13 31  1  0  0  0
 14 15  2  0  0  0
 14 97  1  0  0  0
 15 98  1  0  0  0
 16 17  2  0  0  0
 16 21  1  0  0  0
 16 31  1  0  0  0
 17 18  1  0  0  0
 17 99  1  0  0  0
 18 19  2  0  0  0
 18100  1  0  0  0
 19 20  1  0  0  0
 19 24  1  0  0  0
 20 21  2  0  0  0
 20101  1  0  0  0
 21 23  1  0  0  0
 22 28  1  0  0  0
 22 32  2  0  0  0
 26 27  1  0  0  0
 28102  1  0  0  0
 28103  1  0  0  0
 29104  1  0  0  0
 29105  1  0  0  0
 33 34  1  0  0  0
 33 66  1  0  0  0
 33 70  2  0  0  0
 34 36  1  0  0  0
 34 59  1  0  0  0
 34106  1  0  0  0
 35 44  2  0  0  0
 35 45  1  0  0  0
 35 68  1  0  0  0
 36 56  1  0  0  0
 36107  1  0  0  0
 37 39  1  0  0  0
 37 47  1  0  0  0
 37 66  1  0  0  0
 37108  1  0  0  0
 38 43  2  0  0  0
 38 46  1  0  0  0
 38 47  1  0  0  0
 39 64  1  0  0  0
 39 67  2  0  0  0
 40 52  1  0  0  0
 40 53  2  0  0  0
 40 58  1  0  0  0
 41109  1  0  0  0
 41110  1  0  0  0
 41111  1  0  0  0
 41 48  1  0  0  0
 42 43  1  0  0  0
 42 66  1  0  0  0
 42112  1  0  0  0
 42113  1  0  0  0
 43 44  1  0  0  0
 44114  1  0  0  0
 45 46  2  0  0  0
 45115  1  0  0  0
 46116  1  0  0  0
 47117  1  0  0  0
 47118  1  0  0  0
 48 56  1  0  0  0
 48 65  1  0  0  0
 48119  1  0  0  0
 49 50  1  0  0  0
 49 53  1  0  0  0
 49 64  1  0  0  0
 49120  1  0  0  0
 50 51  1  0  0  0
 50121  1  0  0  0
 50122  1  0  0  0
 51 52  1  0  0  0
 51123  1  0  0  0
 51124  1  0  0  0
 52125  1  0  0  0
 52126  1  0  0  0
 53 54  1  0  0  0
 54 55  2  0  0  0
 54127  1  0  0  0
 55 57  1  0  0  0
 55128  1  0  0  0
 56 69  2  0  0  0
 57 58  2  0  0  0
 57129  1  0  0  0
 58130  1  0  0  0
 59 60  1  0  0  0
 59 61  1  0  0  0
 59 62  1  0  0  0
 60131  1  0  0  0
 60132  1  0  0  0
 60133  1  0  0  0
 61134  1  0  0  0
 61135  1  0  0  0
 61136  1  0  0  0
 62137  1  0  0  0
 62138  1  0  0  0
 62139  1  0  0  0
 63 65  1  0  0  0
 63140  1  0  0  0
 63141  1  0  0  0
 63142  1  0  0  0
 64143  1  0  0  0
 65144  1  0  0  0
 68 78  1  0  0  0
 71 72  2  0  0  0
 71 74  1  0  0  0
 71 85  1  0  0  0
 72 80  1  0  0  0
 72 81  1  0  0  0
 73 80  2  0  0  0
 73 82  1  0  0  0
 73 85  1  0  0  0
 74 83  1  0  0  0
 74 84  2  0  0  0
 75 77  1  0  0  0
 75145  1  0  0  0
 75146  1  0  0  0
 75147  1  0  0  0
 76148  1  0  0  0
 76149  1  0  0  0
 76150  1  0  0  0
 76 79  1  0  0  0
 77 79  1  0  0  0
 77151  1  0  0  0
 77152  1  0  0  0
 78 79  1  0  0  0
 78153  1  0  0  0
 78154  1  0  0  0
 79 83  1  0  0  0
 81155  1  0  0  0
 81156  1  0  0  0
 82157  1  0  0  0
 83158  1  0  0  0
M  ISO  4   1 100  68 101  78 101  82 100
M  END
> <chiral flag>
0

> <version>
0

> <s_m_source_file>
/data/baiqing/PycharmProjects/Reinvent-master-3.2/result/LINK_invent/BTK/process_docking_weight1_custom_product_contain_oxygen_bond_distance_aromatic_linkinvent_7_9_3/rearranged_h_0174.sdf

> <i_m_source_file_index>
24

> <r_mmod_Potential_Energy-OPLS-2005>
141.192184448242

> <r_mmod_Stretch_Energy-OPLS-2005>
130.327774047852

> <r_mmod_Bend_Energy-OPLS-2005>
225.886322021484

> <r_mmod_Torsional_Energy-OPLS-2005>
292.006103515625

> <r_mmod_Improper_Torsional_Energy-OPLS-2005>
9.20993137359619

> <r_mmod_Van_der_Waal_Energy-OPLS-2005>
118.046569824219

> <r_mmod_Electrostatic_Energy-OPLS-2005>
-459.653656005859

> <r_mmod_Solvation_Energy-OPLS-2005>
-248.537414550781

> <b_mmod_Minimization_Converged-OPLS-2005>
0

> <r_mmod_RMS_Derivative-OPLS-2005>
9.2629280090332

$$$$
24
                    3D
 Structure written by MMmdl.
159167  0  0  1  0            999 V2000
  -30.6863  -14.4834   20.5011 C   0  0  0  0  0  0
  -30.4264  -12.2854   19.4405 C   0  0  0  0  0  0
  -29.5022  -12.4434   18.2150 C   0  0  0  0  0  0
  -28.0170  -12.3504   18.6207 C   0  0  0  0  0  0
  -27.6606  -13.2048   19.8674 C   0  0  2  0  0  0
  -28.7014  -13.0099   20.9936 C   0  0  0  0  0  0
  -25.2600  -13.8164   20.5661 C   0  0  0  0  0  0
  -24.1845  -13.0455   20.9177 C   0  0  0  0  0  0
  -24.6383  -11.6915   20.8728 C   0  0  0  0  0  0
  -23.9049  -10.4298   21.0399 C   0  0  0  0  0  0
  -24.3609   -9.4221   21.9179 C   0  0  0  0  0  0
  -23.6294   -8.2251   22.0757 C   0  0  0  0  0  0
  -22.4274   -8.0279   21.3556 C   0  0  0  0  0  0
  -21.9903   -9.0244   20.4650 C   0  0  0  0  0  0
  -22.7222  -10.2126   20.3049 C   0  0  0  0  0  0
  -21.6855   -6.0735   22.5292 C   0  0  0  0  0  0
  -21.4014   -6.5634   23.8224 C   0  0  0  0  0  0
  -21.3656   -5.6783   24.9184 C   0  0  0  0  0  0
  -21.6042   -4.3047   24.7225 C   0  0  0  0  0  0
  -21.8825   -3.8147   23.4346 C   0  0  0  0  0  0
  -21.9197   -4.6968   22.3409 C   0  0  0  0  0  0
  -22.7867  -13.5270   21.1832 C   0  0  0  0  0  0
  -22.1663   -4.2163   21.0982 F   0  0  0  0  0  0
  -21.5632   -3.4527   25.7736 F   0  0  0  0  0  0
  -30.0335  -13.2936   20.4359 N   0  0  0  0  0  0
  -26.3019  -12.9317   20.3323 N   0  0  0  0  0  0
  -25.9311  -11.6491   20.5757 N   0  0  0  0  0  0
  -22.0480  -12.8278   22.0373 N   0  0  0  0  0  0
  -25.4365  -15.1874   20.4055 N   0  0  0  0  0  0
  -31.8459  -14.6359   20.1051 O   0  0  0  0  0  0
  -21.6643   -6.8873   21.4251 O   0  0  0  0  0  0
  -22.3570  -14.5584   20.6678 O   0  0  0  0  0  0
  -24.6131  -31.8683   23.2101 C   0  0  0  0  0  0
  -25.9029  -32.4822   23.8397 C   0  0  1  0  0  0
  -27.2384  -27.4478   20.0965 C   0  0  0  0  0  0
  -25.5888  -33.8619   24.2333 N   0  0  0  0  0  0
  -23.4000  -30.4920   21.5500 C   0  0  2  0  0  0
  -24.8459  -28.9565   20.1168 C   0  0  0  0  0  0
  -22.7395  -29.4664   22.4987 C   0  0  0  0  0  0
  -18.0265  -28.1379   22.8489 C   0  0  0  0  0  0
  -24.1482  -36.7316   23.2638 C   0  0  0  0  0  0
  -25.9268  -30.8400   21.3585 C   0  0  0  0  0  0
  -26.0044  -29.4749   20.7065 C   0  0  0  0  0  0
  -27.2029  -28.7294   20.6877 C   0  0  0  0  0  0
  -26.0595  -26.9342   19.5085 C   0  0  0  0  0  0
  -24.8679  -27.6851   19.5152 C   0  0  0  0  0  0
  -23.6070  -29.8220   20.1651 C   0  0  0  0  0  0
  -25.4100  -36.3111   24.0341 C   0  0  1  0  0  0
  -20.5854  -28.3660   23.1321 C   0  0  2  0  0  0
  -20.6755  -26.9397   22.5415 C   0  0  0  0  0  0
  -19.5735  -26.6388   21.5206 C   0  0  0  0  0  0
  -18.1909  -26.7928   22.1615 C   0  0  0  0  0  0
  -19.1515  -28.8837   23.2903 C   0  0  0  0  0  0
  -18.9444  -30.1443   23.8914 C   0  0  0  0  0  0
  -17.6448  -30.6588   24.0564 C   0  0  0  0  0  0
  -25.9025  -34.9475   23.5133 C   0  0  0  0  0  0
  -16.5337  -29.9091   23.6328 C   0  0  0  0  0  0
  -16.7255  -28.6507   23.0347 C   0  0  0  0  0  0
  -26.4465  -31.6597   25.0720 C   0  0  0  0  0  0
  -25.3744  -31.3696   26.1481 C   0  0  0  0  0  0
  -27.0292  -30.3044   24.6080 C   0  0  0  0  0  0
  -27.6043  -32.4315   25.7482 C   0  0  0  0  0  0
  -27.5577  -37.1806   24.8459 C   0  0  0  0  0  0
  -21.4123  -29.3037   22.3737 N   0  0  0  0  0  0
  -26.4289  -37.3793   23.9405 N   0  0  0  0  0  0
  -24.6649  -31.0808   22.0983 N   0  0  0  0  0  0
  -23.4175  -28.8196   23.3012 O   0  0  0  0  0  0
  -28.4297  -26.7582   20.0975 O   0  0  0  0  0  0
  -26.5587  -34.8924   22.4693 O   0  0  0  0  0  0
  -23.5330  -32.1419   23.7513 O   0  0  0  0  0  0
  -29.9859  -17.0846   18.9166 C   0  0  0  0  0  0
  -30.0391  -16.8413   20.2764 C   0  0  0  0  0  0
  -30.2588  -19.1049   20.2949 C   0  0  0  0  0  0
  -29.9866  -23.2868   20.3964 C   0  0  0  0  0  0
  -31.1914  -22.6731   20.2381 C   0  0  0  0  0  0
  -29.7959  -24.7616   20.3188 C   0  0  0  0  0  0
  -31.3670  -21.2557   20.2938 C   0  0  0  0  0  0
  -29.7886  -16.1407   17.7772 C   0  0  0  0  0  0
  -33.2668  -19.5279   20.1834 C   0  0  0  0  0  0
  -28.3822  -25.3249   20.0912 C   0  0  0  0  0  0
  -30.1135  -18.0075   21.0572 N   0  0  0  0  0  0
  -29.9245  -15.5396   20.8432 N   0  0  0  0  0  0
  -30.3991  -20.4149   20.7388 N   0  0  0  0  0  0
  -32.6074  -20.8247   19.9614 N   0  3  0  0  0  0
  -30.7423  -25.5536   20.4211 O   0  0  0  0  0  0
  -32.2833  -23.4121   19.9545 O   0  0  0  0  0  0
  -30.1793  -18.7806   18.5710 S   0  0  0  0  0  0
  -31.4714  -12.3789   19.1386 H   0  0  0  0  0  0
  -30.3306  -11.2871   19.8680 H   0  0  0  0  0  0
  -29.7304  -11.6727   17.4776 H   0  0  0  0  0  0
  -29.6994  -13.3886   17.7154 H   0  0  0  0  0  0
  -27.8036  -11.3005   18.8240 H   0  0  0  0  0  0
  -27.3813  -12.6303   17.7799 H   0  0  0  0  0  0
  -27.6961  -14.2472   19.5540 H   0  0  0  0  0  0
  -28.6705  -11.9860   21.3687 H   0  0  0  0  0  0
  -28.4712  -13.6437   21.8512 H   0  0  0  0  0  0
  -25.2755   -9.5720   22.4744 H   0  0  0  0  0  0
  -24.0029   -7.4648   22.7472 H   0  0  0  0  0  0
  -21.0842   -8.8737   19.8945 H   0  0  0  0  0  0
  -22.3672  -10.9654   19.6149 H   0  0  0  0  0  0
  -21.1998   -7.6141   23.9733 H   0  0  0  0  0  0
  -21.1470   -6.0505   25.9085 H   0  0  0  0  0  0
  -22.0607   -2.7614   23.2837 H   0  0  0  0  0  0
  -22.4057  -11.9956   22.4827 H   0  0  0  0  0  0
  -21.1081  -13.1320   22.2498 H   0  0  0  0  0  0
  -24.6723  -15.8463   20.5074 H   0  0  0  0  0  0
  -26.2871  -15.6191   20.0683 H   0  0  0  0  0  0
  -26.7104  -32.5543   23.1167 H   0  0  0  0  0  0
  -25.0045  -33.9777   25.0485 H   0  0  0  0  0  0
  -22.6882  -31.3084   21.4113 H   0  0  0  0  0  0
  -23.3741  -35.9651   23.3306 H   0  0  0  0  0  0
  -24.3581  -36.8926   22.2052 H   0  0  0  0  0  0
  -23.7240  -37.6525   23.6650 H   0  0  0  0  0  0
  -26.0379  -31.6067   20.5905 H   0  0  0  0  0  0
  -26.8153  -30.8935   21.9757 H   0  0  0  0  0  0
  -28.1013  -29.1313   21.1353 H   0  0  0  0  0  0
  -26.0492  -25.9655   19.0312 H   0  0  0  0  0  0
  -23.9760  -27.2800   19.0573 H   0  0  0  0  0  0
  -23.7131  -30.5960   19.4040 H   0  0  0  0  0  0
  -22.7312  -29.2405   19.8713 H   0  0  0  0  0  0
  -25.1274  -36.1977   25.0836 H   0  0  0  0  0  0
  -20.9945  -28.3221   24.1441 H   0  0  0  0  0  0
  -20.5659  -26.2258   23.3592 H   0  0  0  0  0  0
  -21.6626  -26.7441   22.1207 H   0  0  0  0  0  0
  -19.6888  -25.6299   21.1232 H   0  0  0  0  0  0
  -19.6680  -27.3206   20.6741 H   0  0  0  0  0  0
  -17.4176  -26.6681   21.4015 H   0  0  0  0  0  0
  -18.0304  -26.0072   22.9013 H   0  0  0  0  0  0
  -19.7919  -30.7255   24.2289 H   0  0  0  0  0  0
  -17.5004  -31.6273   24.5154 H   0  0  0  0  0  0
  -15.5338  -30.2997   23.7650 H   0  0  0  0  0  0
  -15.8651  -28.0840   22.7051 H   0  0  0  0  0  0
  -24.5885  -30.7080   25.7819 H   0  0  0  0  0  0
  -24.8976  -32.2853   26.4986 H   0  0  0  0  0  0
  -25.8108  -30.8815   27.0204 H   0  0  0  0  0  0
  -26.2825  -29.6808   24.1150 H   0  0  0  0  0  0
  -27.4088  -29.7276   25.4524 H   0  0  0  0  0  0
  -27.8648  -30.4370   23.9204 H   0  0  0  0  0  0
  -27.2656  -33.3594   26.2103 H   0  0  0  0  0  0
  -28.3827  -32.6908   25.0295 H   0  0  0  0  0  0
  -28.0738  -31.8416   26.5364 H   0  0  0  0  0  0
  -28.2588  -38.0110   24.7517 H   0  0  0  0  0  0
  -28.1079  -36.2641   24.6265 H   0  0  0  0  0  0
  -27.2297  -37.1440   25.8863 H   0  0  0  0  0  0
  -20.9266  -29.8775   21.6988 H   0  0  0  0  0  0
  -26.0178  -38.2871   24.1410 H   0  0  0  0  0  0
  -29.0949  -22.7062   20.5802 H   0  0  0  0  0  0
  -28.9251  -15.5012   17.9510 H   0  0  0  0  0  0
  -30.6706  -15.5190   17.6260 H   0  0  0  0  0  0
  -29.6060  -16.6796   16.8465 H   0  0  0  0  0  0
  -34.3444  -19.6354   20.0595 H   0  0  0  0  0  0
  -32.9299  -18.7766   19.4701 H   0  0  0  0  0  0
  -33.0832  -19.1662   21.1950 H   0  0  0  0  0  0
  -27.7197  -24.9660   20.8794 H   0  0  0  0  0  0
  -28.0083  -24.9562   19.1363 H   0  0  0  0  0  0
  -29.0508  -15.3275   21.2987 H   0  0  0  0  0  0
  -29.6657  -20.7154   21.3597 H   0  0  0  0  0  0
  -33.2136  -21.5755   19.6513 H   0  0  0  0  0  0
  -32.0190  -24.3286   20.0096 H   0  0  0  0  0  0
  1 25  1  0  0  0
  1 30  2  0  0  0
  1 82  1  0  0  0
  2  3  1  0  0  0
  2 25  1  0  0  0
  2 88  1  0  0  0
  2 89  1  0  0  0
  3  4  1  0  0  0
  3 90  1  0  0  0
  3 91  1  0  0  0
  4  5  1  0  0  0
  4 92  1  0  0  0
  4 93  1  0  0  0
  5  6  1  0  0  0
  5 26  1  0  0  0
  5 94  1  0  0  0
  6 25  1  0  0  0
  6 95  1  0  0  0
  6 96  1  0  0  0
  7  8  2  0  0  0
  7 26  1  0  0  0
  7 29  1  0  0  0
  8  9  1  0  0  0
  8 22  1  0  0  0
  9 10  1  0  0  0
  9 27  2  0  0  0
 10 11  2  0  0  0
 10 15  1  0  0  0
 11 12  1  0  0  0
 11 97  1  0  0  0
 12 13  2  0  0  0
 12 98  1  0  0  0
 13 14  1  0  0  0
 13 31  1  0  0  0
 14 15  2  0  0  0
 14 99  1  0  0  0
 15100  1  0  0  0
 16 17  2  0  0  0
 16 21  1  0  0  0
 16 31  1  0  0  0
 17 18  1  0  0  0
 17101  1  0  0  0
 18 19  2  0  0  0
 18102  1  0  0  0
 19 20  1  0  0  0
 19 24  1  0  0  0
 20 21  2  0  0  0
 20103  1  0  0  0
 21 23  1  0  0  0
 22 28  1  0  0  0
 22 32  2  0  0  0
 26 27  1  0  0  0
 28104  1  0  0  0
 28105  1  0  0  0
 29106  1  0  0  0
 29107  1  0  0  0
 33 34  1  0  0  0
 33 66  1  0  0  0
 33 70  2  0  0  0
 34 36  1  0  0  0
 34 59  1  0  0  0
 34108  1  0  0  0
 35 44  2  0  0  0
 35 45  1  0  0  0
 35 68  1  0  0  0
 36 56  1  0  0  0
 36109  1  0  0  0
 37 39  1  0  0  0
 37 47  1  0  0  0
 37 66  1  0  0  0
 37110  1  0  0  0
 38 43  2  0  0  0
 38 46  1  0  0  0
 38 47  1  0  0  0
 39 64  1  0  0  0
 39 67  2  0  0  0
 40 52  1  0  0  0
 40 53  2  0  0  0
 40 58  1  0  0  0
 41111  1  0  0  0
 41112  1  0  0  0
 41113  1  0  0  0
 41 48  1  0  0  0
 42 43  1  0  0  0
 42 66  1  0  0  0
 42114  1  0  0  0
 42115  1  0  0  0
 43 44  1  0  0  0
 44116  1  0  0  0
 45 46  2  0  0  0
 45117  1  0  0  0
 46118  1  0  0  0
 47119  1  0  0  0
 47120  1  0  0  0
 48 56  1  0  0  0
 48 65  1  0  0  0
 48121  1  0  0  0
 49 50  1  0  0  0
 49 53  1  0  0  0
 49 64  1  0  0  0
 49122  1  0  0  0
 50 51  1  0  0  0
 50123  1  0  0  0
 50124  1  0  0  0
 51 52  1  0  0  0
 51125  1  0  0  0
 51126  1  0  0  0
 52127  1  0  0  0
 52128  1  0  0  0
 53 54  1  0  0  0
 54 55  2  0  0  0
 54129  1  0  0  0
 55 57  1  0  0  0
 55130  1  0  0  0
 56 69  2  0  0  0
 57 58  2  0  0  0
 57131  1  0  0  0
 58132  1  0  0  0
 59 60  1  0  0  0
 59 61  1  0  0  0
 59 62  1  0  0  0
 60133  1  0  0  0
 60134  1  0  0  0
 60135  1  0  0  0
 61136  1  0  0  0
 61137  1  0  0  0
 61138  1  0  0  0
 62139  1  0  0  0
 62140  1  0  0  0
 62141  1  0  0  0
 63 65  1  0  0  0
 63142  1  0  0  0
 63143  1  0  0  0
 63144  1  0  0  0
 64145  1  0  0  0
 65146  1  0  0  0
 68 80  1  0  0  0
 71 72  2  0  0  0
 71 78  1  0  0  0
 71 87  1  0  0  0
 72 81  1  0  0  0
 72 82  1  0  0  0
 73 81  2  0  0  0
 73 83  1  0  0  0
 73 87  1  0  0  0
 74 75  2  0  0  0
 74 76  1  0  0  0
 74147  1  0  0  0
 75 77  1  0  0  0
 75 86  1  0  0  0
 76 80  1  0  0  0
 76 85  2  0  0  0
 77 83  1  0  0  0
 77 84  2  0  0  0
 78148  1  0  0  0
 78149  1  0  0  0
 78150  1  0  0  0
 79 84  1  0  0  0
 79151  1  0  0  0
 79152  1  0  0  0
 79153  1  0  0  0
 80154  1  0  0  0
 80155  1  0  0  0
 82156  1  0  0  0
 83157  1  0  0  0
 84158  1  0  0  0
 86159  1  0  0  0
M  CHG  1  84   1
M  ISO  4   1 100  68 101  80 101  82 100
M  END
> <chiral flag>
0

> <version>
0

> <s_m_source_file>
/data/baiqing/PycharmProjects/Reinvent-master-3.2/result/LINK_invent/BTK/process_docking_weight1_custom_product_contain_oxygen_bond_distance_aromatic_linkinvent_7_9_3/rearranged_h_0174.sdf

> <i_m_source_file_index>
25

> <r_mmod_Potential_Energy-OPLS-2005>
-186.3125

> <r_mmod_Stretch_Energy-OPLS-2005>
37.0972633361816

> <r_mmod_Bend_Energy-OPLS-2005>
108.726051330566

> <r_mmod_Torsional_Energy-OPLS-2005>
287.461303710938

> <r_mmod_Improper_Torsional_Energy-OPLS-2005>
6.97799968719482

> <r_mmod_Van_der_Waal_Energy-OPLS-2005>
149.605773925781

> <r_mmod_Electrostatic_Energy-OPLS-2005>
-342.879791259766

> <r_mmod_Solvation_Energy-OPLS-2005>
-448.923645019531

> <b_mmod_Minimization_Converged-OPLS-2005>
0

> <r_mmod_RMS_Derivative-OPLS-2005>
1.41065943241119

$$$$
25
                    3D
 Structure written by MMmdl.
160168  0  0  1  0            999 V2000
  -30.7962  -14.3867   20.6253 C   0  0  0  0  0  0
  -30.4104  -12.2826   19.4096 C   0  0  0  0  0  0
  -29.4826  -12.4930   18.1997 C   0  0  0  0  0  0
  -28.0095  -12.3452   18.6235 C   0  0  0  0  0  0
  -27.6585  -13.2012   19.8690 C   0  0  2  0  0  0
  -28.7048  -13.0025   20.9892 C   0  0  0  0  0  0
  -25.2604  -13.8141   20.5694 C   0  0  0  0  0  0
  -24.1845  -13.0438   20.9179 C   0  0  0  0  0  0
  -24.6383  -11.6909   20.8754 C   0  0  0  0  0  0
  -23.9062  -10.4293   21.0447 C   0  0  0  0  0  0
  -24.3624   -9.4199   21.9209 C   0  0  0  0  0  0
  -23.6313   -8.2221   22.0746 C   0  0  0  0  0  0
  -22.4294   -8.0277   21.3527 C   0  0  0  0  0  0
  -21.9931   -9.0248   20.4632 C   0  0  0  0  0  0
  -22.7259  -10.2144   20.3068 C   0  0  0  0  0  0
  -21.6844   -6.0755   22.5282 C   0  0  0  0  0  0
  -21.4000   -6.5644   23.8228 C   0  0  0  0  0  0
  -21.3655   -5.6792   24.9176 C   0  0  0  0  0  0
  -21.6037   -4.3050   24.7225 C   0  0  0  0  0  0
  -21.8823   -3.8164   23.4335 C   0  0  0  0  0  0
  -21.9192   -4.6984   22.3405 C   0  0  0  0  0  0
  -22.7860  -13.5257   21.1818 C   0  0  0  0  0  0
  -22.1680   -4.2179   21.0981 F   0  0  0  0  0  0
  -21.5622   -3.4530   25.7733 F   0  0  0  0  0  0
  -30.0375  -13.2755   20.4267 N   0  0  0  0  0  0
  -26.3029  -12.9295   20.3376 N   0  0  0  0  0  0
  -25.9308  -11.6465   20.5779 N   0  0  0  0  0  0
  -22.0480  -12.8271   22.0396 N   0  0  0  0  0  0
  -25.4342  -15.1844   20.4133 N   0  0  0  0  0  0
  -31.8963  -14.5601   20.0998 O   0  0  0  0  0  0
  -21.6633   -6.8904   21.4254 O   0  0  0  0  0  0
  -22.3551  -14.5542   20.6658 O   0  0  0  0  0  0
  -24.6119  -31.8694   23.2108 C   0  0  0  0  0  0
  -25.9009  -32.4830   23.8404 C   0  0  1  0  0  0
  -27.2334  -27.4591   20.0871 C   0  0  0  0  0  0
  -25.5868  -33.8622   24.2335 N   0  0  0  0  0  0
  -23.3994  -30.4917   21.5510 C   0  0  2  0  0  0
  -24.8479  -28.9595   20.1177 C   0  0  0  0  0  0
  -22.7366  -29.4675   22.5003 C   0  0  0  0  0  0
  -18.0270  -28.1375   22.8507 C   0  0  0  0  0  0
  -24.1487  -36.7331   23.2635 C   0  0  0  0  0  0
  -25.9253  -30.8397   21.3626 C   0  0  0  0  0  0
  -26.0050  -29.4744   20.7168 C   0  0  0  0  0  0
  -27.2030  -28.7261   20.7067 C   0  0  0  0  0  0
  -26.0667  -26.9593   19.4747 C   0  0  0  0  0  0
  -24.8709  -27.6985   19.4971 C   0  0  0  0  0  0
  -23.6075  -29.8205   20.1671 C   0  0  0  0  0  0
  -25.4103  -36.3122   24.0341 C   0  0  1  0  0  0
  -20.5860  -28.3674   23.1339 C   0  0  2  0  0  0
  -20.6758  -26.9400   22.5452 C   0  0  0  0  0  0
  -19.5745  -26.6372   21.5234 C   0  0  0  0  0  0
  -18.1931  -26.7927   22.1628 C   0  0  0  0  0  0
  -19.1514  -28.8826   23.2928 C   0  0  0  0  0  0
  -18.9443  -30.1431   23.8931 C   0  0  0  0  0  0
  -17.6444  -30.6566   24.0570 C   0  0  0  0  0  0
  -25.9024  -34.9479   23.5136 C   0  0  0  0  0  0
  -16.5338  -29.9068   23.6349 C   0  0  0  0  0  0
  -16.7261  -28.6497   23.0362 C   0  0  0  0  0  0
  -26.4456  -31.6589   25.0716 C   0  0  0  0  0  0
  -25.3743  -31.3666   26.1481 C   0  0  0  0  0  0
  -27.0278  -30.3039   24.6060 C   0  0  0  0  0  0
  -27.6039  -32.4299   25.7472 C   0  0  0  0  0  0
  -27.5578  -37.1824   24.8464 C   0  0  0  0  0  0
  -21.4104  -29.3045   22.3725 N   0  0  0  0  0  0
  -26.4291  -37.3796   23.9400 N   0  0  0  0  0  0
  -24.6634  -31.0795   22.1010 N   0  0  0  0  0  0
  -23.4135  -28.8200   23.3029 O   0  0  0  0  0  0
  -28.3909  -26.7233   20.0339 O   0  0  0  0  0  0
  -26.5590  -34.8925   22.4708 O   0  0  0  0  0  0
  -23.5304  -32.1423   23.7512 O   0  0  0  0  0  0
  -27.5646  -17.7571   22.0475 C   0  0  0  0  0  0
  -28.5533  -16.7741   22.2256 C   0  0  0  0  0  0
  -27.8425  -17.6116   19.6348 C   0  0  0  0  0  0
  -27.2182  -18.1929   20.7527 C   0  0  0  0  0  0
  -29.2228  -16.2271   21.1149 C   0  0  0  0  0  0
  -28.8722  -16.6708   19.8080 C   0  0  0  0  0  0
  -26.8105  -22.6697   22.3002 C   0  0  0  0  0  0
  -25.9957  -21.6293   21.4957 C   0  0  0  0  0  0
  -27.7516  -24.5003   20.8524 C   0  0  0  0  0  0
  -26.2350  -19.3304   20.5728 C   0  0  0  0  0  0
  -26.6799  -24.1334   21.8812 C   0  0  0  0  0  0
  -28.5488  -25.7912   21.1087 C   0  0  0  0  0  0
  -29.5615  -16.2839   18.6683 N   0  0  0  0  0  0
  -30.3048  -15.3533   21.4034 N   0  0  0  0  0  0
  -26.7056  -20.5204   21.2678 N   0  0  0  0  0  0
  -27.5401  -22.3345   23.2423 O   0  0  0  0  0  0
  -24.8286  -21.8044   21.1325 O   0  0  0  0  0  0
  -27.9398  -23.8237   19.8339 O   0  0  0  0  0  0
  -31.4549  -12.3591   19.1005 H   0  0  0  0  0  0
  -30.3026  -11.2784   19.8199 H   0  0  0  0  0  0
  -29.7230  -11.7736   17.4156 H   0  0  0  0  0  0
  -29.6433  -13.4840   17.7726 H   0  0  0  0  0  0
  -27.8396  -11.2918   18.8449 H   0  0  0  0  0  0
  -27.3521  -12.5959   17.7920 H   0  0  0  0  0  0
  -27.6916  -14.2406   19.5480 H   0  0  0  0  0  0
  -28.6745  -11.9798   21.3659 H   0  0  0  0  0  0
  -28.4699  -13.6321   21.8466 H   0  0  0  0  0  0
  -25.2764   -9.5662   22.4793 H   0  0  0  0  0  0
  -24.0004   -7.4620   22.7462 H   0  0  0  0  0  0
  -21.0858   -8.8783   19.8952 H   0  0  0  0  0  0
  -22.3728  -10.9684   19.6169 H   0  0  0  0  0  0
  -21.1990   -7.6155   23.9738 H   0  0  0  0  0  0
  -21.1473   -6.0517   25.9084 H   0  0  0  0  0  0
  -22.0612   -2.7631   23.2821 H   0  0  0  0  0  0
  -22.4075  -11.9931   22.4803 H   0  0  0  0  0  0
  -21.1075  -13.1301   22.2541 H   0  0  0  0  0  0
  -24.6815  -15.8475   20.5485 H   0  0  0  0  0  0
  -26.3203  -15.6231   20.1965 H   0  0  0  0  0  0
  -26.7073  -32.5566   23.1167 H   0  0  0  0  0  0
  -25.0009  -33.9785   25.0475 H   0  0  0  0  0  0
  -22.6886  -31.3088   21.4101 H   0  0  0  0  0  0
  -23.3734  -35.9677   23.3323 H   0  0  0  0  0  0
  -24.3573  -36.8915   22.2038 H   0  0  0  0  0  0
  -23.7261  -37.6553   23.6638 H   0  0  0  0  0  0
  -26.0311  -31.6028   20.5910 H   0  0  0  0  0  0
  -26.8169  -30.8993   21.9754 H   0  0  0  0  0  0
  -28.1014  -29.1206   21.1605 H   0  0  0  0  0  0
  -26.0863  -26.0013   18.9756 H   0  0  0  0  0  0
  -23.9864  -27.2980   19.0212 H   0  0  0  0  0  0
  -23.7130  -30.5924   19.4040 H   0  0  0  0  0  0
  -22.7352  -29.2342   19.8727 H   0  0  0  0  0  0
  -25.1286  -36.1992   25.0831 H   0  0  0  0  0  0
  -20.9962  -28.3270   24.1478 H   0  0  0  0  0  0
  -21.6617  -26.7412   22.1257 H   0  0  0  0  0  0
  -20.5607  -26.2301   23.3649 H   0  0  0  0  0  0
  -19.6909  -25.6286   21.1264 H   0  0  0  0  0  0
  -19.6698  -27.3194   20.6770 H   0  0  0  0  0  0
  -17.4216  -26.6719   21.3988 H   0  0  0  0  0  0
  -18.0305  -26.0041   22.9002 H   0  0  0  0  0  0
  -19.7931  -30.7223   24.2299 H   0  0  0  0  0  0
  -17.5003  -31.6257   24.5182 H   0  0  0  0  0  0
  -15.5343  -30.2966   23.7641 H   0  0  0  0  0  0
  -15.8668  -28.0856   22.7036 H   0  0  0  0  0  0
  -24.5915  -30.7019   25.7819 H   0  0  0  0  0  0
  -24.8947  -32.2806   26.4977 H   0  0  0  0  0  0
  -25.8114  -30.8802   27.0209 H   0  0  0  0  0  0
  -26.2807  -29.6805   24.1144 H   0  0  0  0  0  0
  -27.4080  -29.7257   25.4486 H   0  0  0  0  0  0
  -27.8623  -30.4355   23.9177 H   0  0  0  0  0  0
  -27.2660  -33.3562   26.2119 H   0  0  0  0  0  0
  -28.3813  -32.6908   25.0285 H   0  0  0  0  0  0
  -28.0763  -31.8398   26.5330 H   0  0  0  0  0  0
  -28.2625  -38.0095   24.7499 H   0  0  0  0  0  0
  -28.1055  -36.2635   24.6325 H   0  0  0  0  0  0
  -27.2300  -37.1513   25.8868 H   0  0  0  0  0  0
  -20.9262  -29.8752   21.6949 H   0  0  0  0  0  0
  -26.0197  -38.2882   24.1381 H   0  0  0  0  0  0
  -27.0912  -18.1994   22.9106 H   0  0  0  0  0  0
  -28.8302  -16.4718   23.2258 H   0  0  0  0  0  0
  -27.5826  -17.9431   18.6381 H   0  0  0  0  0  0
  -25.2683  -19.0109   20.9644 H   0  0  0  0  0  0
  -26.0960  -19.5589   19.5131 H   0  0  0  0  0  0
  -26.7641  -24.7665   22.7643 H   0  0  0  0  0  0
  -25.6955  -24.3096   21.4461 H   0  0  0  0  0  0
  -28.2792  -26.2386   22.0667 H   0  0  0  0  0  0
  -29.6048  -25.5287   21.1625 H   0  0  0  0  0  0
  -30.5577  -16.1390   18.8025 H   0  0  0  0  0  0
  -29.3793  -16.8582   17.8530 H   0  0  0  0  0  0
  -31.0514  -15.8402   21.8730 H   0  0  0  0  0  0
  -27.6544  -20.5127   21.6195 H   0  0  0  0  0  0
  1 25  1  0  0  0
  1 30  2  0  0  0
  1 84  1  0  0  0
  2  3  1  0  0  0
  2 25  1  0  0  0
  2 89  1  0  0  0
  2 90  1  0  0  0
  3  4  1  0  0  0
  3 91  1  0  0  0
  3 92  1  0  0  0
  4  5  1  0  0  0
  4 93  1  0  0  0
  4 94  1  0  0  0
  5  6  1  0  0  0
  5 26  1  0  0  0
  5 95  1  0  0  0
  6 25  1  0  0  0
  6 96  1  0  0  0
  6 97  1  0  0  0
  7  8  2  0  0  0
  7 26  1  0  0  0
  7 29  1  0  0  0
  8  9  1  0  0  0
  8 22  1  0  0  0
  9 10  1  0  0  0
  9 27  2  0  0  0
 10 11  2  0  0  0
 10 15  1  0  0  0
 11 12  1  0  0  0
 11 98  1  0  0  0
 12 13  2  0  0  0
 12 99  1  0  0  0
 13 14  1  0  0  0
 13 31  1  0  0  0
 14 15  2  0  0  0
 14100  1  0  0  0
 15101  1  0  0  0
 16 17  2  0  0  0
 16 21  1  0  0  0
 16 31  1  0  0  0
 17 18  1  0  0  0
 17102  1  0  0  0
 18 19  2  0  0  0
 18103  1  0  0  0
 19 20  1  0  0  0
 19 24  1  0  0  0
 20 21  2  0  0  0
 20104  1  0  0  0
 21 23  1  0  0  0
 22 28  1  0  0  0
 22 32  2  0  0  0
 26 27  1  0  0  0
 28105  1  0  0  0
 28106  1  0  0  0
 29107  1  0  0  0
 29108  1  0  0  0
 33 34  1  0  0  0
 33 66  1  0  0  0
 33 70  2  0  0  0
 34 36  1  0  0  0
 34 59  1  0  0  0
 34109  1  0  0  0
 35 44  2  0  0  0
 35 45  1  0  0  0
 35 68  1  0  0  0
 36 56  1  0  0  0
 36110  1  0  0  0
 37 39  1  0  0  0
 37 47  1  0  0  0
 37 66  1  0  0  0
 37111  1  0  0  0
 38 43  2  0  0  0
 38 46  1  0  0  0
 38 47  1  0  0  0
 39 64  1  0  0  0
 39 67  2  0  0  0
 40 52  1  0  0  0
 40 53  2  0  0  0
 40 58  1  0  0  0
 41112  1  0  0  0
 41113  1  0  0  0
 41114  1  0  0  0
 41 48  1  0  0  0
 42 43  1  0  0  0
 42 66  1  0  0  0
 42115  1  0  0  0
 42116  1  0  0  0
 43 44  1  0  0  0
 44117  1  0  0  0
 45 46  2  0  0  0
 45118  1  0  0  0
 46119  1  0  0  0
 47120  1  0  0  0
 47121  1  0  0  0
 48 56  1  0  0  0
 48 65  1  0  0  0
 48122  1  0  0  0
 49 50  1  0  0  0
 49 53  1  0  0  0
 49 64  1  0  0  0
 49123  1  0  0  0
 50 51  1  0  0  0
 50124  1  0  0  0
 50125  1  0  0  0
 51 52  1  0  0  0
 51126  1  0  0  0
 51127  1  0  0  0
 52128  1  0  0  0
 52129  1  0  0  0
 53 54  1  0  0  0
 54 55  2  0  0  0
 54130  1  0  0  0
 55 57  1  0  0  0
 55131  1  0  0  0
 56 69  2  0  0  0
 57 58  2  0  0  0
 57132  1  0  0  0
 58133  1  0  0  0
 59 60  1  0  0  0
 59 61  1  0  0  0
 59 62  1  0  0  0
 60134  1  0  0  0
 60135  1  0  0  0
 60136  1  0  0  0
 61137  1  0  0  0
 61138  1  0  0  0
 61139  1  0  0  0
 62140  1  0  0  0
 62141  1  0  0  0
 62142  1  0  0  0
 63 65  1  0  0  0
 63143  1  0  0  0
 63144  1  0  0  0
 63145  1  0  0  0
 64146  1  0  0  0
 65147  1  0  0  0
 68 82  1  0  0  0
 71 72  2  0  0  0
 71 74  1  0  0  0
 71148  1  0  0  0
 72 75  1  0  0  0
 72149  1  0  0  0
 73 74  2  0  0  0
 73 76  1  0  0  0
 73150  1  0  0  0
 74 80  1  0  0  0
 75 76  2  0  0  0
 75 84  1  0  0  0
 76 83  1  0  0  0
 77 78  1  0  0  0
 77 81  1  0  0  0
 77 86  2  0  0  0
 78 85  1  0  0  0
 78 87  2  0  0  0
 79 81  1  0  0  0
 79 82  1  0  0  0
 79 88  2  0  0  0
 80 85  1  0  0  0
 80151  1  0  0  0
 80152  1  0  0  0
 81153  1  0  0  0
 81154  1  0  0  0
 82155  1  0  0  0
 82156  1  0  0  0
 83157  1  0  0  0
 83158  1  0  0  0
 84159  1  0  0  0
 85160  1  0  0  0
M  ISO  4   1 100  68 101  82 101  84 100
M  END
> <chiral flag>
0

> <version>
0

> <s_m_source_file>
/data/baiqing/PycharmProjects/Reinvent-master-3.2/result/LINK_invent/BTK/process_docking_weight1_custom_product_contain_oxygen_bond_distance_aromatic_linkinvent_7_9_3/rearranged_h_0174.sdf

> <i_m_source_file_index>
26

> <r_mmod_Potential_Energy-OPLS-2005>
-240.179794311523

> <r_mmod_Stretch_Energy-OPLS-2005>
32.2429847717285

> <r_mmod_Bend_Energy-OPLS-2005>
104.695655822754

> <r_mmod_Torsional_Energy-OPLS-2005>
303.585327148438

> <r_mmod_Improper_Torsional_Energy-OPLS-2005>
10.7386817932129

> <r_mmod_Van_der_Waal_Energy-OPLS-2005>
144.643737792969

> <r_mmod_Electrostatic_Energy-OPLS-2005>
-615.03759765625

> <r_mmod_Solvation_Energy-OPLS-2005>
-231.763900756836

> <b_mmod_Minimization_Converged-OPLS-2005>
0

> <r_mmod_RMS_Derivative-OPLS-2005>
4.28743982315063

$$$$
26
                    3D
 Structure written by MMmdl.
159167  0  0  1  0            999 V2000
  -30.6729  -14.5753   20.5088 C   0  0  0  0  0  0
  -30.4229  -12.3528   19.4510 C   0  0  0  0  0  0
  -29.5004  -12.4912   18.2220 C   0  0  0  0  0  0
  -28.0232  -12.3421   18.6346 C   0  0  0  0  0  0
  -27.6521  -13.2160   19.8626 C   0  0  2  0  0  0
  -28.6950  -13.0730   20.9939 C   0  0  0  0  0  0
  -25.2553  -13.8174   20.5687 C   0  0  0  0  0  0
  -24.1820  -13.0438   20.9189 C   0  0  0  0  0  0
  -24.6387  -11.6908   20.8744 C   0  0  0  0  0  0
  -23.9059  -10.4289   21.0399 C   0  0  0  0  0  0
  -24.3610   -9.4207   21.9180 C   0  0  0  0  0  0
  -23.6284   -8.2244   22.0755 C   0  0  0  0  0  0
  -22.4269   -8.0278   21.3540 C   0  0  0  0  0  0
  -21.9901   -9.0252   20.4647 C   0  0  0  0  0  0
  -22.7227  -10.2131   20.3056 C   0  0  0  0  0  0
  -21.6856   -6.0730   22.5271 C   0  0  0  0  0  0
  -21.4013   -6.5633   23.8204 C   0  0  0  0  0  0
  -21.3663   -5.6789   24.9169 C   0  0  0  0  0  0
  -21.6048   -4.3051   24.7223 C   0  0  0  0  0  0
  -21.8822   -3.8142   23.4344 C   0  0  0  0  0  0
  -21.9192   -4.6956   22.3397 C   0  0  0  0  0  0
  -22.7845  -13.5232   21.1848 C   0  0  0  0  0  0
  -22.1660   -4.2139   21.0976 F   0  0  0  0  0  0
  -21.5634   -3.4538   25.7739 F   0  0  0  0  0  0
  -30.0150  -13.3812   20.4264 N   0  0  0  0  0  0
  -26.2980  -12.9357   20.3323 N   0  0  0  0  0  0
  -25.9315  -11.6510   20.5764 N   0  0  0  0  0  0
  -22.0487  -12.8230   22.0411 N   0  0  0  0  0  0
  -25.4270  -15.1897   20.4093 N   0  0  0  0  0  0
  -31.8424  -14.6826   20.1309 O   0  0  0  0  0  0
  -21.6638   -6.8873   21.4234 O   0  0  0  0  0  0
  -22.3528  -14.5530   20.6687 O   0  0  0  0  0  0
  -24.6198  -31.8625   23.2044 C   0  0  0  0  0  0
  -25.9068  -32.4792   23.8362 C   0  0  1  0  0  0
  -27.2358  -27.3727   20.1016 C   0  0  0  0  0  0
  -25.5902  -33.8594   24.2294 N   0  0  0  0  0  0
  -23.4111  -30.4841   21.5454 C   0  0  2  0  0  0
  -24.8583  -28.9403   20.1101 C   0  0  0  0  0  0
  -22.7436  -29.4633   22.4960 C   0  0  0  0  0  0
  -18.0275  -28.1377   22.8488 C   0  0  0  0  0  0
  -24.1488  -36.7301   23.2641 C   0  0  0  0  0  0
  -25.9451  -30.8078   21.3672 C   0  0  0  0  0  0
  -26.0195  -29.4376   20.7125 C   0  0  0  0  0  0
  -27.2058  -28.6594   20.7068 C   0  0  0  0  0  0
  -26.0505  -26.9020   19.4926 C   0  0  0  0  0  0
  -24.8718  -27.6751   19.4976 C   0  0  0  0  0  0
  -23.6223  -29.8132   20.1610 C   0  0  0  0  0  0
  -25.4112  -36.3096   24.0335 C   0  0  1  0  0  0
  -20.5870  -28.3670   23.1299 C   0  0  2  0  0  0
  -20.6762  -26.9400   22.5412 C   0  0  0  0  0  0
  -19.5743  -26.6383   21.5206 C   0  0  0  0  0  0
  -18.1923  -26.7921   22.1621 C   0  0  0  0  0  0
  -19.1527  -28.8840   23.2889 C   0  0  0  0  0  0
  -18.9455  -30.1443   23.8904 C   0  0  0  0  0  0
  -17.6459  -30.6582   24.0562 C   0  0  0  0  0  0
  -25.9041  -34.9462   23.5117 C   0  0  0  0  0  0
  -16.5347  -29.9083   23.6326 C   0  0  0  0  0  0
  -16.7265  -28.6499   23.0350 C   0  0  0  0  0  0
  -26.4481  -31.6593   25.0713 C   0  0  0  0  0  0
  -25.3739  -31.3705   26.1457 C   0  0  0  0  0  0
  -27.0323  -30.3031   24.6129 C   0  0  0  0  0  0
  -27.6053  -32.4321   25.7471 C   0  0  0  0  0  0
  -27.5580  -37.1803   24.8468 C   0  0  0  0  0  0
  -21.4159  -29.3031   22.3702 N   0  0  0  0  0  0
  -26.4295  -37.3785   23.9409 N   0  0  0  0  0  0
  -24.6769  -31.0678   22.0967 N   0  0  0  0  0  0
  -23.4185  -28.8187   23.3032 O   0  0  0  0  0  0
  -28.3983  -26.6105   20.1675 O   0  0  0  0  0  0
  -26.5614  -34.8925   22.4685 O   0  0  0  0  0  0
  -23.5376  -32.1405   23.7406 O   0  0  0  0  0  0
  -29.3859  -18.2060   20.8604 C   0  0  0  0  0  0
  -31.5415  -17.5755   20.5924 C   0  0  0  0  0  0
  -30.2788  -17.0780   20.7570 C   0  0  0  0  0  0
  -30.1298  -19.3735   20.7696 C   0  0  0  0  0  0
  -29.7808  -20.8377   20.9480 C   0  0  0  0  0  0
  -28.4920  -24.0387   20.0528 C   0  0  0  0  0  0
  -32.6484  -19.7888   20.3531 C   0  0  0  0  0  0
  -34.0350  -19.1559   20.4245 C   0  0  0  0  0  0
  -28.6017  -25.4315   19.3341 C   0  0  0  0  0  0
  -29.3648  -22.8413   19.4905 C   0  0  2  0  0  0
  -29.2141  -22.7498   17.9505 C   0  0  0  0  0  0
  -31.4650  -18.9649   20.5717 N   0  0  0  0  0  0
  -29.9212  -15.6708   20.8324 N   0  0  0  0  0  0
  -29.0539  -21.4687   20.0075 N   0  0  0  0  0  0
  -30.2799  -21.4679   21.8817 O   0  0  0  0  0  0
  -27.7487  -23.9144   21.0339 O   0  0  0  0  0  0
  -32.5284  -20.9845   20.0705 O   0  0  0  0  0  0
  -29.8613  -21.6737   17.4964 F   0  0  0  0  0  0
  -29.7238  -23.8125   17.3291 F   0  0  0  0  0  0
  -27.9291  -22.6355   17.6104 F   0  0  0  0  0  0
  -31.4675  -12.4501   19.1502 H   0  0  0  0  0  0
  -30.3326  -11.3593   19.8919 H   0  0  0  0  0  0
  -29.7554  -11.7399   17.4733 H   0  0  0  0  0  0
  -29.6563  -13.4612   17.7480 H   0  0  0  0  0  0
  -27.8531  -11.2900   18.8654 H   0  0  0  0  0  0
  -27.3699  -12.5762   17.7936 H   0  0  0  0  0  0
  -27.6728  -14.2504   19.5198 H   0  0  0  0  0  0
  -28.6913  -12.0589   21.3961 H   0  0  0  0  0  0
  -28.4526  -13.7284   21.8320 H   0  0  0  0  0  0
  -25.2757   -9.5686   22.4752 H   0  0  0  0  0  0
  -23.9993   -7.4640   22.7478 H   0  0  0  0  0  0
  -21.0836   -8.8771   19.8957 H   0  0  0  0  0  0
  -22.3680  -10.9671   19.6170 H   0  0  0  0  0  0
  -21.2003   -7.6141   23.9702 H   0  0  0  0  0  0
  -21.1486   -6.0519   25.9069 H   0  0  0  0  0  0
  -22.0599   -2.7602   23.2844 H   0  0  0  0  0  0
  -22.4100  -11.9892   22.4803 H   0  0  0  0  0  0
  -21.1108  -13.1266   22.2618 H   0  0  0  0  0  0
  -24.6605  -15.8443   20.5211 H   0  0  0  0  0  0
  -26.2732  -15.6289   20.0694 H   0  0  0  0  0  0
  -26.7135  -32.5479   23.1114 H   0  0  0  0  0  0
  -25.0047  -33.9746   25.0437 H   0  0  0  0  0  0
  -22.7023  -31.3024   21.4019 H   0  0  0  0  0  0
  -23.3749  -35.9635   23.3315 H   0  0  0  0  0  0
  -24.3578  -36.8905   22.2051 H   0  0  0  0  0  0
  -23.7242  -37.6510   23.6650 H   0  0  0  0  0  0
  -26.0692  -31.5718   20.5987 H   0  0  0  0  0  0
  -26.8286  -30.8583   21.9920 H   0  0  0  0  0  0
  -28.1003  -29.0380   21.1821 H   0  0  0  0  0  0
  -26.0041  -25.9246   19.0366 H   0  0  0  0  0  0
  -23.9758  -27.2834   19.0357 H   0  0  0  0  0  0
  -23.7333  -30.5861   19.3996 H   0  0  0  0  0  0
  -22.7451  -29.2346   19.8657 H   0  0  0  0  0  0
  -25.1292  -36.1955   25.0828 H   0  0  0  0  0  0
  -20.9960  -28.3237   24.1420 H   0  0  0  0  0  0
  -20.5649  -26.2281   23.3604 H   0  0  0  0  0  0
  -21.6634  -26.7427   22.1214 H   0  0  0  0  0  0
  -19.6905  -25.6296   21.1229 H   0  0  0  0  0  0
  -19.6682  -27.3197   20.6739 H   0  0  0  0  0  0
  -17.4190  -26.6661   21.4025 H   0  0  0  0  0  0
  -18.0331  -26.0059   22.9015 H   0  0  0  0  0  0
  -19.7933  -30.7251   24.2278 H   0  0  0  0  0  0
  -17.5017  -31.6264   24.5160 H   0  0  0  0  0  0
  -15.5349  -30.2991   23.7647 H   0  0  0  0  0  0
  -15.8662  -28.0820   22.7068 H   0  0  0  0  0  0
  -24.5909  -30.7057   25.7789 H   0  0  0  0  0  0
  -24.8932  -32.2858   26.4920 H   0  0  0  0  0  0
  -25.8085  -30.8859   27.0210 H   0  0  0  0  0  0
  -26.2878  -29.6774   24.1191 H   0  0  0  0  0  0
  -27.4088  -29.7289   25.4606 H   0  0  0  0  0  0
  -27.8717  -30.4342   23.9296 H   0  0  0  0  0  0
  -27.2674  -33.3612   26.2075 H   0  0  0  0  0  0
  -28.3841  -32.6900   25.0280 H   0  0  0  0  0  0
  -28.0752  -31.8433   26.5360 H   0  0  0  0  0  0
  -28.2611  -38.0090   24.7511 H   0  0  0  0  0  0
  -28.1065  -36.2622   24.6302 H   0  0  0  0  0  0
  -27.2298  -37.1463   25.8872 H   0  0  0  0  0  0
  -20.9331  -29.8748   21.6911 H   0  0  0  0  0  0
  -26.0183  -38.2864   24.1407 H   0  0  0  0  0  0
  -28.3179  -18.1755   21.0282 H   0  0  0  0  0  0
  -32.4875  -17.0661   20.4717 H   0  0  0  0  0  0
  -34.1523  -18.6071   21.3584 H   0  0  0  0  0  0
  -34.8080  -19.9229   20.3856 H   0  0  0  0  0  0
  -34.1887  -18.4745   19.5884 H   0  0  0  0  0  0
  -27.9689  -25.4466   18.4479 H   0  0  0  0  0  0
  -29.6233  -25.5177   18.9656 H   0  0  0  0  0  0
  -30.4113  -23.0628   19.7070 H   0  0  0  0  0  0
  -28.9627  -15.4657   21.0703 H   0  0  0  0  0  0
  -28.6235  -20.8660   19.3202 H   0  0  0  0  0  0
  1 25  1  0  0  0
  1 30  2  0  0  0
  1 83  1  0  0  0
  2  3  1  0  0  0
  2 25  1  0  0  0
  2 91  1  0  0  0
  2 92  1  0  0  0
  3  4  1  0  0  0
  3 93  1  0  0  0
  3 94  1  0  0  0
  4  5  1  0  0  0
  4 95  1  0  0  0
  4 96  1  0  0  0
  5  6  1  0  0  0
  5 26  1  0  0  0
  5 97  1  0  0  0
  6 25  1  0  0  0
  6 98  1  0  0  0
  6 99  1  0  0  0
  7  8  2  0  0  0
  7 26  1  0  0  0
  7 29  1  0  0  0
  8  9  1  0  0  0
  8 22  1  0  0  0
  9 10  1  0  0  0
  9 27  2  0  0  0
 10 11  2  0  0  0
 10 15  1  0  0  0
 11 12  1  0  0  0
 11100  1  0  0  0
 12 13  2  0  0  0
 12101  1  0  0  0
 13 14  1  0  0  0
 13 31  1  0  0  0
 14 15  2  0  0  0
 14102  1  0  0  0
 15103  1  0  0  0
 16 17  2  0  0  0
 16 21  1  0  0  0
 16 31  1  0  0  0
 17 18  1  0  0  0
 17104  1  0  0  0
 18 19  2  0  0  0
 18105  1  0  0  0
 19 20  1  0  0  0
 19 24  1  0  0  0
 20 21  2  0  0  0
 20106  1  0  0  0
 21 23  1  0  0  0
 22 28  1  0  0  0
 22 32  2  0  0  0
 26 27  1  0  0  0
 28107  1  0  0  0
 28108  1  0  0  0
 29109  1  0  0  0
 29110  1  0  0  0
 33 34  1  0  0  0
 33 66  1  0  0  0
 33 70  2  0  0  0
 34 36  1  0  0  0
 34 59  1  0  0  0
 34111  1  0  0  0
 35 44  2  0  0  0
 35 45  1  0  0  0
 35 68  1  0  0  0
 36 56  1  0  0  0
 36112  1  0  0  0
 37 39  1  0  0  0
 37 47  1  0  0  0
 37 66  1  0  0  0
 37113  1  0  0  0
 38 43  2  0  0  0
 38 46  1  0  0  0
 38 47  1  0  0  0
 39 64  1  0  0  0
 39 67  2  0  0  0
 40 52  1  0  0  0
 40 53  2  0  0  0
 40 58  1  0  0  0
 41114  1  0  0  0
 41115  1  0  0  0
 41116  1  0  0  0
 41 48  1  0  0  0
 42 43  1  0  0  0
 42 66  1  0  0  0
 42117  1  0  0  0
 42118  1  0  0  0
 43 44  1  0  0  0
 44119  1  0  0  0
 45 46  2  0  0  0
 45120  1  0  0  0
 46121  1  0  0  0
 47122  1  0  0  0
 47123  1  0  0  0
 48 56  1  0  0  0
 48 65  1  0  0  0
 48124  1  0  0  0
 49 50  1  0  0  0
 49 53  1  0  0  0
 49 64  1  0  0  0
 49125  1  0  0  0
 50 51  1  0  0  0
 50126  1  0  0  0
 50127  1  0  0  0
 51 52  1  0  0  0
 51128  1  0  0  0
 51129  1  0  0  0
 52130  1  0  0  0
 52131  1  0  0  0
 53 54  1  0  0  0
 54 55  2  0  0  0
 54132  1  0  0  0
 55 57  1  0  0  0
 55133  1  0  0  0
 56 69  2  0  0  0
 57 58  2  0  0  0
 57134  1  0  0  0
 58135  1  0  0  0
 59 60  1  0  0  0
 59 61  1  0  0  0
 59 62  1  0  0  0
 60136  1  0  0  0
 60137  1  0  0  0
 60138  1  0  0  0
 61139  1  0  0  0
 61140  1  0  0  0
 61141  1  0  0  0
 62142  1  0  0  0
 62143  1  0  0  0
 62144  1  0  0  0
 63 65  1  0  0  0
 63145  1  0  0  0
 63146  1  0  0  0
 63147  1  0  0  0
 64148  1  0  0  0
 65149  1  0  0  0
 68 79  1  0  0  0
 71 73  1  0  0  0
 71 74  2  0  0  0
 71150  1  0  0  0
 72 73  2  0  0  0
 72 82  1  0  0  0
 72151  1  0  0  0
 73 83  1  0  0  0
 74 75  1  0  0  0
 74 82  1  0  0  0
 75 84  1  0  0  0
 75 85  2  0  0  0
 76 79  1  0  0  0
 76 80  1  0  0  0
 76 86  2  0  0  0
 77 78  1  0  0  0
 77 82  1  0  0  0
 77 87  2  0  0  0
 78152  1  0  0  0
 78153  1  0  0  0
 78154  1  0  0  0
 79155  1  0  0  0
 79156  1  0  0  0
 80 81  1  0  0  0
 80 84  1  0  0  0
 80157  1  0  0  0
 81 88  1  0  0  0
 81 89  1  0  0  0
 81 90  1  0  0  0
 83158  1  0  0  0
 84159  1  0  0  0
M  ISO  4   1 100  68 101  79 101  83 100
M  END
> <chiral flag>
0

> <version>
0

> <s_m_source_file>
/data/baiqing/PycharmProjects/Reinvent-master-3.2/result/LINK_invent/BTK/process_docking_weight1_custom_product_contain_oxygen_bond_distance_aromatic_linkinvent_7_9_3/rearranged_h_0174.sdf

> <i_m_source_file_index>
27

> <r_mmod_Potential_Energy-OPLS-2005>
-200.822525024414

> <r_mmod_Stretch_Energy-OPLS-2005>
62.5868301391602

> <r_mmod_Bend_Energy-OPLS-2005>
136.62467956543

> <r_mmod_Torsional_Energy-OPLS-2005>
253.49089050293

> <r_mmod_Improper_Torsional_Energy-OPLS-2005>
8.73973560333252

> <r_mmod_Van_der_Waal_Energy-OPLS-2005>
143.932647705078

> <r_mmod_Electrostatic_Energy-OPLS-2005>
-577.970336914062

> <r_mmod_Solvation_Energy-OPLS-2005>
-258.594818115234

> <b_mmod_Minimization_Converged-OPLS-2005>
0

> <r_mmod_RMS_Derivative-OPLS-2005>
0.978673815727234

$$$$
27
                    3D
 Structure written by MMmdl.
154162  0  0  1  0            999 V2000
  -30.6222  -14.5511   20.5318 C   0  0  0  0  0  0
  -30.4462  -12.3439   19.4243 C   0  0  0  0  0  0
  -29.5084  -12.5035   18.2071 C   0  0  0  0  0  0
  -28.0288  -12.3483   18.6186 C   0  0  0  0  0  0
  -27.6578  -13.1976   19.8626 C   0  0  2  0  0  0
  -28.7015  -12.9967   20.9858 C   0  0  0  0  0  0
  -25.2572  -13.8114   20.5634 C   0  0  0  0  0  0
  -24.1835  -13.0396   20.9179 C   0  0  0  0  0  0
  -24.6366  -11.6862   20.8714 C   0  0  0  0  0  0
  -23.9018  -10.4264   21.0405 C   0  0  0  0  0  0
  -24.3583   -9.4193   21.9186 C   0  0  0  0  0  0
  -23.6269   -8.2218   22.0747 C   0  0  0  0  0  0
  -22.4259   -8.0239   21.3539 C   0  0  0  0  0  0
  -21.9880   -9.0219   20.4644 C   0  0  0  0  0  0
  -22.7183  -10.2102   20.3056 C   0  0  0  0  0  0
  -21.6841   -6.0714   22.5287 C   0  0  0  0  0  0
  -21.3996   -6.5628   23.8220 C   0  0  0  0  0  0
  -21.3664   -5.6786   24.9184 C   0  0  0  0  0  0
  -21.6058   -4.3051   24.7237 C   0  0  0  0  0  0
  -21.8822   -3.8125   23.4349 C   0  0  0  0  0  0
  -21.9186   -4.6941   22.3403 C   0  0  0  0  0  0
  -22.7861  -13.5219   21.1858 C   0  0  0  0  0  0
  -22.1664   -4.2136   21.0979 F   0  0  0  0  0  0
  -21.5639   -3.4531   25.7740 F   0  0  0  0  0  0
  -30.0219  -13.3314   20.4278 N   0  0  0  0  0  0
  -26.2989  -12.9260   20.3259 N   0  0  0  0  0  0
  -25.9288  -11.6432   20.5692 N   0  0  0  0  0  0
  -22.0480  -12.8260   22.0419 N   0  0  0  0  0  0
  -25.4225  -15.1828   20.4015 N   0  0  0  0  0  0
  -31.7930  -14.7510   20.1897 O   0  0  0  0  0  0
  -21.6616   -6.8846   21.4244 O   0  0  0  0  0  0
  -22.3577  -14.5533   20.6688 O   0  0  0  0  0  0
  -24.6182  -31.8659   23.2078 C   0  0  0  0  0  0
  -25.9058  -32.4804   23.8395 C   0  0  1  0  0  0
  -27.2246  -27.3823   20.0985 C   0  0  0  0  0  0
  -25.5912  -33.8606   24.2319 N   0  0  0  0  0  0
  -23.4072  -30.4898   21.5503 C   0  0  2  0  0  0
  -24.8486  -28.9491   20.1160 C   0  0  0  0  0  0
  -22.7445  -29.4645   22.4982 C   0  0  0  0  0  0
  -18.0276  -28.1385   22.8483 C   0  0  0  0  0  0
  -24.1488  -36.7316   23.2639 C   0  0  0  0  0  0
  -25.9413  -30.8136   21.3682 C   0  0  0  0  0  0
  -26.0131  -29.4452   20.7129 C   0  0  0  0  0  0
  -27.2000  -28.6688   20.7012 C   0  0  0  0  0  0
  -26.0281  -26.9060   19.5126 C   0  0  0  0  0  0
  -24.8525  -27.6796   19.5172 C   0  0  0  0  0  0
  -23.6172  -29.8268   20.1640 C   0  0  0  0  0  0
  -25.4107  -36.3101   24.0335 C   0  0  1  0  0  0
  -20.5870  -28.3672   23.1320 C   0  0  2  0  0  0
  -20.6768  -26.9409   22.5423 C   0  0  0  0  0  0
  -19.5746  -26.6388   21.5220 C   0  0  0  0  0  0
  -18.1923  -26.7938   22.1621 C   0  0  0  0  0  0
  -19.1529  -28.8846   23.2893 C   0  0  0  0  0  0
  -18.9449  -30.1453   23.8904 C   0  0  0  0  0  0
  -17.6449  -30.6587   24.0553 C   0  0  0  0  0  0
  -25.9035  -34.9467   23.5120 C   0  0  0  0  0  0
  -16.5343  -29.9085   23.6323 C   0  0  0  0  0  0
  -16.7262  -28.6506   23.0342 C   0  0  0  0  0  0
  -26.4464  -31.6597   25.0748 C   0  0  0  0  0  0
  -25.3726  -31.3733   26.1506 C   0  0  0  0  0  0
  -27.0258  -30.3023   24.6148 C   0  0  0  0  0  0
  -27.6065  -32.4296   25.7489 C   0  0  0  0  0  0
  -27.5586  -37.1806   24.8457 C   0  0  0  0  0  0
  -21.4171  -29.3028   22.3735 N   0  0  0  0  0  0
  -26.4292  -37.3792   23.9408 N   0  0  0  0  0  0
  -24.6742  -31.0725   22.0996 N   0  0  0  0  0  0
  -23.4204  -28.8191   23.3033 O   0  0  0  0  0  0
  -28.3969  -26.6353   20.1308 O   0  0  0  0  0  0
  -26.5607  -34.8926   22.4685 O   0  0  0  0  0  0
  -23.5358  -32.1434   23.7440 O   0  0  0  0  0  0
  -29.6481  -19.2214   20.5885 C   0  0  0  0  0  0
  -30.2305  -19.2622   21.8491 C   0  0  0  0  0  0
  -29.9856  -16.9555   20.9701 C   0  0  0  0  0  0
  -29.2760  -20.4002   19.6929 C   0  0  0  0  0  0
  -28.4945  -24.0960   20.2503 C   0  0  0  0  0  0
  -28.5179  -25.3940   19.3819 C   0  0  0  0  0  0
  -28.3007  -22.7252   19.5185 C   0  0  2  0  0  0
  -26.8267  -22.4737   19.1069 C   0  0  0  0  0  0
  -29.4910  -17.8846   20.1337 N   0  0  0  0  0  0
  -30.5448  -20.3470   22.6729 N   0  0  0  0  0  0
  -29.7521  -15.5603   20.7758 N   0  0  0  0  0  0
  -28.8356  -21.5456   20.2628 N   0  0  0  0  0  0
  -29.3339  -20.2909   18.4635 O   0  0  0  0  0  0
  -28.6611  -24.1665   21.4741 O   0  0  0  0  0  0
  -26.6974  -21.3930   18.3381 F   0  0  0  0  0  0
  -26.3414  -23.5065   18.4201 F   0  0  0  0  0  0
  -26.0732  -22.3107   20.1959 F   0  0  0  0  0  0
  -30.6414  -17.6561   22.4392 S   0  0  0  0  0  0
  -31.4864  -12.4881   19.1273 H   0  0  0  0  0  0
  -30.3832  -11.3323   19.8308 H   0  0  0  0  0  0
  -29.7651  -11.7705   17.4412 H   0  0  0  0  0  0
  -29.6619  -13.4836   17.7542 H   0  0  0  0  0  0
  -27.8588  -11.2930   18.8304 H   0  0  0  0  0  0
  -27.3747  -12.6009   17.7831 H   0  0  0  0  0  0
  -27.6893  -14.2383   19.5423 H   0  0  0  0  0  0
  -28.6992  -11.9610   21.3279 H   0  0  0  0  0  0
  -28.4571  -13.5963   21.8641 H   0  0  0  0  0  0
  -25.2732   -9.5694   22.4752 H   0  0  0  0  0  0
  -23.9998   -7.4613   22.7464 H   0  0  0  0  0  0
  -21.0807   -8.8702   19.8967 H   0  0  0  0  0  0
  -22.3618  -10.9625   19.6157 H   0  0  0  0  0  0
  -21.1979   -7.6136   23.9717 H   0  0  0  0  0  0
  -21.1502   -6.0515   25.9100 H   0  0  0  0  0  0
  -22.0598   -2.7587   23.2835 H   0  0  0  0  0  0
  -22.4046  -11.9902   22.4824 H   0  0  0  0  0  0
  -21.1104  -13.1326   22.2586 H   0  0  0  0  0  0
  -24.6302  -15.8111   20.4880 H   0  0  0  0  0  0
  -26.2388  -15.6296   20.0031 H   0  0  0  0  0  0
  -26.7136  -32.5479   23.1154 H   0  0  0  0  0  0
  -25.0042  -33.9768   25.0452 H   0  0  0  0  0  0
  -22.6955  -31.3063   21.4137 H   0  0  0  0  0  0
  -23.3755  -35.9645   23.3280 H   0  0  0  0  0  0
  -24.3595  -36.8958   22.2064 H   0  0  0  0  0  0
  -23.7236  -37.6516   23.6660 H   0  0  0  0  0  0
  -26.0645  -31.5776   20.5994 H   0  0  0  0  0  0
  -26.8255  -30.8621   21.9921 H   0  0  0  0  0  0
  -28.0982  -29.0488   21.1679 H   0  0  0  0  0  0
  -25.9561  -25.9267   19.0676 H   0  0  0  0  0  0
  -23.9499  -27.2840   19.0714 H   0  0  0  0  0  0
  -23.7407  -30.6047   19.4101 H   0  0  0  0  0  0
  -22.7361  -29.2593   19.8593 H   0  0  0  0  0  0
  -25.1278  -36.1970   25.0828 H   0  0  0  0  0  0
  -20.9945  -28.3234   24.1448 H   0  0  0  0  0  0
  -20.5695  -26.2281   23.3611 H   0  0  0  0  0  0
  -21.6636  -26.7465   22.1204 H   0  0  0  0  0  0
  -19.6909  -25.6300   21.1250 H   0  0  0  0  0  0
  -19.6697  -27.3199   20.6752 H   0  0  0  0  0  0
  -17.4210  -26.6697   21.4005 H   0  0  0  0  0  0
  -18.0302  -26.0080   22.9012 H   0  0  0  0  0  0
  -19.7920  -30.7261   24.2291 H   0  0  0  0  0  0
  -17.5000  -31.6274   24.5150 H   0  0  0  0  0  0
  -15.5337  -30.2978   23.7653 H   0  0  0  0  0  0
  -15.8671  -28.0823   22.7042 H   0  0  0  0  0  0
  -24.5849  -30.7145   25.7840 H   0  0  0  0  0  0
  -24.8978  -32.2900   26.5014 H   0  0  0  0  0  0
  -25.8066  -30.8840   27.0237 H   0  0  0  0  0  0
  -26.2790  -29.6828   24.1173 H   0  0  0  0  0  0
  -27.3966  -29.7232   25.4616 H   0  0  0  0  0  0
  -27.8667  -30.4312   23.9333 H   0  0  0  0  0  0
  -27.2721  -33.3595   26.2101 H   0  0  0  0  0  0
  -28.3852  -32.6858   25.0291 H   0  0  0  0  0  0
  -28.0766  -31.8401   26.5373 H   0  0  0  0  0  0
  -28.2591  -38.0114   24.7504 H   0  0  0  0  0  0
  -28.1087  -36.2643   24.6250 H   0  0  0  0  0  0
  -27.2314  -37.1433   25.8865 H   0  0  0  0  0  0
  -20.9356  -29.8765   21.6961 H   0  0  0  0  0  0
  -26.0180  -38.2874   24.1402 H   0  0  0  0  0  0
  -27.8229  -25.3319   18.5492 H   0  0  0  0  0  0
  -29.5002  -25.4172   18.9121 H   0  0  0  0  0  0
  -28.8718  -22.8093   18.5928 H   0  0  0  0  0  0
  -30.5620  -21.3205   22.3859 H   0  0  0  0  0  0
  -30.9314  -20.2293   23.6064 H   0  0  0  0  0  0
  -28.7915  -15.2753   20.8651 H   0  0  0  0  0  0
  -28.7825  -21.5760   21.2714 H   0  0  0  0  0  0
  1 25  1  0  0  0
  1 30  2  0  0  0
  1 81  1  0  0  0
  2  3  1  0  0  0
  2 25  1  0  0  0
  2 89  1  0  0  0
  2 90  1  0  0  0
  3  4  1  0  0  0
  3 91  1  0  0  0
  3 92  1  0  0  0
  4  5  1  0  0  0
  4 93  1  0  0  0
  4 94  1  0  0  0
  5  6  1  0  0  0
  5 26  1  0  0  0
  5 95  1  0  0  0
  6 25  1  0  0  0
  6 96  1  0  0  0
  6 97  1  0  0  0
  7  8  2  0  0  0
  7 26  1  0  0  0
  7 29  1  0  0  0
  8  9  1  0  0  0
  8 22  1  0  0  0
  9 10  1  0  0  0
  9 27  2  0  0  0
 10 11  2  0  0  0
 10 15  1  0  0  0
 11 12  1  0  0  0
 11 98  1  0  0  0
 12 13  2  0  0  0
 12 99  1  0  0  0
 13 14  1  0  0  0
 13 31  1  0  0  0
 14 15  2  0  0  0
 14100  1  0  0  0
 15101  1  0  0  0
 16 17  2  0  0  0
 16 21  1  0  0  0
 16 31  1  0  0  0
 17 18  1  0  0  0
 17102  1  0  0  0
 18 19  2  0  0  0
 18103  1  0  0  0
 19 20  1  0  0  0
 19 24  1  0  0  0
 20 21  2  0  0  0
 20104  1  0  0  0
 21 23  1  0  0  0
 22 28  1  0  0  0
 22 32  2  0  0  0
 26 27  1  0  0  0
 28105  1  0  0  0
 28106  1  0  0  0
 29107  1  0  0  0
 29108  1  0  0  0
 33 34  1  0  0  0
 33 66  1  0  0  0
 33 70  2  0  0  0
 34 36  1  0  0  0
 34 59  1  0  0  0
 34109  1  0  0  0
 35 44  2  0  0  0
 35 45  1  0  0  0
 35 68  1  0  0  0
 36 56  1  0  0  0
 36110  1  0  0  0
 37 39  1  0  0  0
 37 47  1  0  0  0
 37 66  1  0  0  0
 37111  1  0  0  0
 38 43  2  0  0  0
 38 46  1  0  0  0
 38 47  1  0  0  0
 39 64  1  0  0  0
 39 67  2  0  0  0
 40 52  1  0  0  0
 40 53  2  0  0  0
 40 58  1  0  0  0
 41112  1  0  0  0
 41113  1  0  0  0
 41114  1  0  0  0
 41 48  1  0  0  0
 42 43  1  0  0  0
 42 66  1  0  0  0
 42115  1  0  0  0
 42116  1  0  0  0
 43 44  1  0  0  0
 44117  1  0  0  0
 45 46  2  0  0  0
 45118  1  0  0  0
 46119  1  0  0  0
 47120  1  0  0  0
 47121  1  0  0  0
 48 56  1  0  0  0
 48 65  1  0  0  0
 48122  1  0  0  0
 49 50  1  0  0  0
 49 53  1  0  0  0
 49 64  1  0  0  0
 49123  1  0  0  0
 50 51  1  0  0  0
 50124  1  0  0  0
 50125  1  0  0  0
 51 52  1  0  0  0
 51126  1  0  0  0
 51127  1  0  0  0
 52128  1  0  0  0
 52129  1  0  0  0
 53 54  1  0  0  0
 54 55  2  0  0  0
 54130  1  0  0  0
 55 57  1  0  0  0
 55131  1  0  0  0
 56 69  2  0  0  0
 57 58  2  0  0  0
 57132  1  0  0  0
 58133  1  0  0  0
 59 60  1  0  0  0
 59 61  1  0  0  0
 59 62  1  0  0  0
 60134  1  0  0  0
 60135  1  0  0  0
 60136  1  0  0  0
 61137  1  0  0  0
 61138  1  0  0  0
 61139  1  0  0  0
 62140  1  0  0  0
 62141  1  0  0  0
 62142  1  0  0  0
 63 65  1  0  0  0
 63143  1  0  0  0
 63144  1  0  0  0
 63145  1  0  0  0
 64146  1  0  0  0
 65147  1  0  0  0
 68 76  1  0  0  0
 71 72  2  0  0  0
 71 74  1  0  0  0
 71 79  1  0  0  0
 72 80  1  0  0  0
 72 88  1  0  0  0
 73 79  2  0  0  0
 73 81  1  0  0  0
 73 88  1  0  0  0
 74 82  1  0  0  0
 74 83  2  0  0  0
 75 76  1  0  0  0
 75 77  1  0  0  0
 75 84  2  0  0  0
 76148  1  0  0  0
 76149  1  0  0  0
 77 78  1  0  0  0
 77 82  1  0  0  0
 77150  1  0  0  0
 78 85  1  0  0  0
 78 86  1  0  0  0
 78 87  1  0  0  0
 80151  1  0  0  0
 80152  1  0  0  0
 81153  1  0  0  0
 82154  1  0  0  0
M  ISO  4   1 100  68 101  76 101  81 100
M  END
> <chiral flag>
0

> <version>
0

> <s_m_source_file>
/data/baiqing/PycharmProjects/Reinvent-master-3.2/result/LINK_invent/BTK/process_docking_weight1_custom_product_contain_oxygen_bond_distance_aromatic_linkinvent_7_9_3/rearranged_h_0174.sdf

> <i_m_source_file_index>
28

> <r_mmod_Potential_Energy-OPLS-2005>
-80.6983337402344

> <r_mmod_Stretch_Energy-OPLS-2005>
51.1260528564453

> <r_mmod_Bend_Energy-OPLS-2005>
122.88151550293

> <r_mmod_Torsional_Energy-OPLS-2005>
227.904479980469

> <r_mmod_Improper_Torsional_Energy-OPLS-2005>
8.90349388122559

> <r_mmod_Van_der_Waal_Energy-OPLS-2005>
128.108215332031

> <r_mmod_Electrostatic_Energy-OPLS-2005>
-391.661651611328

> <r_mmod_Solvation_Energy-OPLS-2005>
-254.186782836914

> <b_mmod_Minimization_Converged-OPLS-2005>
0

> <r_mmod_RMS_Derivative-OPLS-2005>
2.69686961174011

$$$$
28
                    3D
 Structure written by MMmdl.
152160  0  0  1  0            999 V2000
  -30.7772  -14.3381   20.6542 C   0  0  0  0  0  0
  -30.4052  -12.2612   19.3862 C   0  0  0  0  0  0
  -29.4754  -12.5233   18.1876 C   0  0  0  0  0  0
  -27.9988  -12.3975   18.6068 C   0  0  0  0  0  0
  -27.6699  -13.2023   19.8903 C   0  0  2  0  0  0
  -28.7104  -12.9256   20.9993 C   0  0  0  0  0  0
  -25.2615  -13.8170   20.5707 C   0  0  0  0  0  0
  -24.1850  -13.0462   20.9176 C   0  0  0  0  0  0
  -24.6386  -11.6912   20.8746 C   0  0  0  0  0  0
  -23.9057  -10.4297   21.0415 C   0  0  0  0  0  0
  -24.3608   -9.4208   21.9190 C   0  0  0  0  0  0
  -23.6286   -8.2241   22.0763 C   0  0  0  0  0  0
  -22.4264   -8.0273   21.3554 C   0  0  0  0  0  0
  -21.9911   -9.0253   20.4645 C   0  0  0  0  0  0
  -22.7236  -10.2145   20.3051 C   0  0  0  0  0  0
  -21.6850   -6.0739   22.5284 C   0  0  0  0  0  0
  -21.4003   -6.5646   23.8213 C   0  0  0  0  0  0
  -21.3659   -5.6804   24.9177 C   0  0  0  0  0  0
  -21.6046   -4.3064   24.7225 C   0  0  0  0  0  0
  -21.8818   -3.8157   23.4342 C   0  0  0  0  0  0
  -21.9190   -4.6970   22.3401 C   0  0  0  0  0  0
  -22.7869  -13.5246   21.1841 C   0  0  0  0  0  0
  -22.1660   -4.2157   21.0974 F   0  0  0  0  0  0
  -21.5642   -3.4546   25.7744 F   0  0  0  0  0  0
  -30.0543  -13.2062   20.4568 N   0  0  0  0  0  0
  -26.3061  -12.9327   20.3451 N   0  0  0  0  0  0
  -25.9318  -11.6492   20.5802 N   0  0  0  0  0  0
  -22.0521  -12.8209   22.0389 N   0  0  0  0  0  0
  -25.4365  -15.1883   20.4097 N   0  0  0  0  0  0
  -31.8178  -14.5916   20.0360 O   0  0  0  0  0  0
  -21.6633   -6.8875   21.4235 O   0  0  0  0  0  0
  -22.3559  -14.5579   20.6735 O   0  0  0  0  0  0
  -24.6131  -31.8703   23.2130 C   0  0  0  0  0  0
  -25.9036  -32.4840   23.8393 C   0  0  1  0  0  0
  -27.2421  -27.4551   20.0788 C   0  0  0  0  0  0
  -25.5933  -33.8640   24.2347 N   0  0  0  0  0  0
  -23.3995  -30.4933   21.5537 C   0  0  2  0  0  0
  -24.8448  -28.9599   20.1168 C   0  0  0  0  0  0
  -22.7411  -29.4656   22.5013 C   0  0  0  0  0  0
  -18.0283  -28.1382   22.8498 C   0  0  0  0  0  0
  -24.1467  -36.7268   23.2630 C   0  0  0  0  0  0
  -25.9252  -30.8401   21.3629 C   0  0  0  0  0  0
  -26.0038  -29.4760   20.7090 C   0  0  0  0  0  0
  -27.2000  -28.7277   20.6919 C   0  0  0  0  0  0
  -26.0568  -26.9421   19.4980 C   0  0  0  0  0  0
  -24.8653  -27.6901   19.5140 C   0  0  0  0  0  0
  -23.6059  -29.8263   20.1684 C   0  0  0  0  0  0
  -25.4097  -36.3121   24.0343 C   0  0  1  0  0  0
  -20.5870  -28.3664   23.1335 C   0  0  2  0  0  0
  -20.6762  -26.9408   22.5425 C   0  0  0  0  0  0
  -19.5753  -26.6400   21.5207 C   0  0  0  0  0  0
  -18.1934  -26.7937   22.1610 C   0  0  0  0  0  0
  -19.1527  -28.8841   23.2912 C   0  0  0  0  0  0
  -18.9452  -30.1442   23.8917 C   0  0  0  0  0  0
  -17.6462  -30.6588   24.0558 C   0  0  0  0  0  0
  -25.9052  -34.9489   23.5135 C   0  0  0  0  0  0
  -16.5362  -29.9091   23.6323 C   0  0  0  0  0  0
  -16.7269  -28.6500   23.0365 C   0  0  0  0  0  0
  -26.4492  -31.6611   25.0697 C   0  0  0  0  0  0
  -25.3775  -31.3679   26.1455 C   0  0  0  0  0  0
  -27.0301  -30.3065   24.6035 C   0  0  0  0  0  0
  -27.6075  -32.4300   25.7482 C   0  0  0  0  0  0
  -27.5606  -37.1752   24.8441 C   0  0  0  0  0  0
  -21.4146  -29.3015   22.3735 N   0  0  0  0  0  0
  -26.4260  -37.3838   23.9468 N   0  0  0  0  0  0
  -24.6635  -31.0811   22.1018 N   0  0  0  0  0  0
  -23.4186  -28.8202   23.3062 O   0  0  0  0  0  0
  -28.4413  -26.7741   20.0744 O   0  0  0  0  0  0
  -26.5603  -34.8941   22.4693 O   0  0  0  0  0  0
  -23.5327  -32.1441   23.7547 O   0  0  0  0  0  0
  -31.6252  -18.5712   21.4891 C   0  0  0  0  0  0
  -31.7372  -17.1601   21.6462 C   0  0  0  0  0  0
  -30.3311  -19.0003   21.3045 C   0  0  0  0  0  0
  -30.5326  -16.5051   21.5612 C   0  0  0  0  0  0
  -29.5072  -22.5863   20.7888 C   0  0  0  0  0  0
  -30.4741  -21.4290   21.1496 C   0  0  0  0  0  0
  -29.8553  -24.8452   19.7497 C   0  0  0  0  0  0
  -30.0155  -24.0116   21.0194 C   0  0  0  0  0  0
  -28.4868  -25.4785   19.4790 C   0  0  0  0  0  0
  -29.8441  -20.2464   21.0857 N   0  0  0  0  0  0
  -30.2896  -15.1750   21.5762 N   0  0  0  0  0  0
  -28.3592  -22.3695   20.3722 O   0  0  0  0  0  0
  -31.6551  -21.6012   21.4734 O   0  0  0  0  0  0
  -30.8066  -25.0186   18.9796 O   0  0  0  0  0  0
  -29.2319  -17.6454   21.3578 S   0  0  0  0  0  0
  -31.4490  -12.3423   19.0767 H   0  0  0  0  0  0
  -30.2816  -11.2375   19.7458 H   0  0  0  0  0  0
  -29.6914  -11.8271   17.3761 H   0  0  0  0  0  0
  -29.6589  -13.5232   17.7896 H   0  0  0  0  0  0
  -27.7806  -11.3419   18.7666 H   0  0  0  0  0  0
  -27.3506  -12.7186   17.7901 H   0  0  0  0  0  0
  -27.7364  -14.2602   19.6365 H   0  0  0  0  0  0
  -28.6630  -11.8778   21.3027 H   0  0  0  0  0  0
  -28.4744  -13.4910   21.9005 H   0  0  0  0  0  0
  -25.2742   -9.5694   22.4772 H   0  0  0  0  0  0
  -24.0005   -7.4629   22.7490 H   0  0  0  0  0  0
  -21.0860   -8.8756   19.8943 H   0  0  0  0  0  0
  -22.3678  -10.9684   19.6164 H   0  0  0  0  0  0
  -21.1985   -7.6151   23.9710 H   0  0  0  0  0  0
  -21.1495   -6.0537   25.9081 H   0  0  0  0  0  0
  -22.0603   -2.7621   23.2846 H   0  0  0  0  0  0
  -22.4147  -11.9827   22.4688 H   0  0  0  0  0  0
  -21.1147  -13.1225   22.2642 H   0  0  0  0  0  0
  -24.6794  -15.8527   20.5264 H   0  0  0  0  0  0
  -26.2992  -15.6201   20.1028 H   0  0  0  0  0  0
  -26.7098  -32.5586   23.1159 H   0  0  0  0  0  0
  -25.0123  -33.9798   25.0524 H   0  0  0  0  0  0
  -22.6861  -31.3095   21.4208 H   0  0  0  0  0  0
  -23.3832  -35.9485   23.3155 H   0  0  0  0  0  0
  -24.3608  -36.9038   22.2081 H   0  0  0  0  0  0
  -23.7076  -37.6364   23.6730 H   0  0  0  0  0  0
  -26.0360  -31.6085   20.5975 H   0  0  0  0  0  0
  -26.8134  -30.8917   21.9797 H   0  0  0  0  0  0
  -28.0963  -29.1263   21.1462 H   0  0  0  0  0  0
  -26.0289  -25.9704   19.0288 H   0  0  0  0  0  0
  -23.9722  -27.2824   19.0601 H   0  0  0  0  0  0
  -23.7129  -30.6052   19.4108 H   0  0  0  0  0  0
  -22.7269  -29.2494   19.8739 H   0  0  0  0  0  0
  -25.1245  -36.1962   25.0822 H   0  0  0  0  0  0
  -20.9972  -28.3214   24.1449 H   0  0  0  0  0  0
  -20.5681  -26.2249   23.3580 H   0  0  0  0  0  0
  -21.6633  -26.7446   22.1230 H   0  0  0  0  0  0
  -19.6923  -25.6328   21.1208 H   0  0  0  0  0  0
  -19.6707  -27.3209   20.6745 H   0  0  0  0  0  0
  -17.4216  -26.6708   21.4004 H   0  0  0  0  0  0
  -18.0314  -26.0073   22.8984 H   0  0  0  0  0  0
  -19.7934  -30.7250   24.2308 H   0  0  0  0  0  0
  -17.5024  -31.6281   24.5155 H   0  0  0  0  0  0
  -15.5369  -30.2996   23.7640 H   0  0  0  0  0  0
  -15.8671  -28.0818   22.7080 H   0  0  0  0  0  0
  -24.5950  -30.7018   25.7787 H   0  0  0  0  0  0
  -24.8965  -32.2810   26.4969 H   0  0  0  0  0  0
  -25.8151  -30.8807   27.0175 H   0  0  0  0  0  0
  -26.2787  -29.6837   24.1166 H   0  0  0  0  0  0
  -27.4167  -29.7310   25.4453 H   0  0  0  0  0  0
  -27.8591  -30.4413   23.9092 H   0  0  0  0  0  0
  -27.2741  -33.3628   26.2039 H   0  0  0  0  0  0
  -28.3925  -32.6792   25.0330 H   0  0  0  0  0  0
  -28.0675  -31.8413   26.5436 H   0  0  0  0  0  0
  -28.2495  -38.0189   24.7786 H   0  0  0  0  0  0
  -28.1255  -36.2767   24.5911 H   0  0  0  0  0  0
  -27.2375  -37.0953   25.8840 H   0  0  0  0  0  0
  -20.9306  -29.8712   21.6935 H   0  0  0  0  0  0
  -26.0152  -38.2865   24.1679 H   0  0  0  0  0  0
  -32.5033  -19.2007   21.4991 H   0  0  0  0  0  0
  -32.6955  -16.6770   21.7806 H   0  0  0  0  0  0
  -31.0633  -24.0068   21.3166 H   0  0  0  0  0  0
  -29.4533  -24.4670   21.8326 H   0  0  0  0  0  0
  -27.7047  -24.8342   19.8790 H   0  0  0  0  0  0
  -28.3386  -25.5638   18.4014 H   0  0  0  0  0  0
  -28.8649  -20.3226   20.8378 H   0  0  0  0  0  0
  -29.4370  -14.8666   22.0205 H   0  0  0  0  0  0
  1 25  1  0  0  0
  1 30  2  0  0  0
  1 81  1  0  0  0
  2  3  1  0  0  0
  2 25  1  0  0  0
  2 86  1  0  0  0
  2 87  1  0  0  0
  3  4  1  0  0  0
  3 88  1  0  0  0
  3 89  1  0  0  0
  4  5  1  0  0  0
  4 90  1  0  0  0
  4 91  1  0  0  0
  5  6  1  0  0  0
  5 26  1  0  0  0
  5 92  1  0  0  0
  6 25  1  0  0  0
  6 93  1  0  0  0
  6 94  1  0  0  0
  7  8  2  0  0  0
  7 26  1  0  0  0
  7 29  1  0  0  0
  8  9  1  0  0  0
  8 22  1  0  0  0
  9 10  1  0  0  0
  9 27  2  0  0  0
 10 11  2  0  0  0
 10 15  1  0  0  0
 11 12  1  0  0  0
 11 95  1  0  0  0
 12 13  2  0  0  0
 12 96  1  0  0  0
 13 14  1  0  0  0
 13 31  1  0  0  0
 14 15  2  0  0  0
 14 97  1  0  0  0
 15 98  1  0  0  0
 16 17  2  0  0  0
 16 21  1  0  0  0
 16 31  1  0  0  0
 17 18  1  0  0  0
 17 99  1  0  0  0
 18 19  2  0  0  0
 18100  1  0  0  0
 19 20  1  0  0  0
 19 24  1  0  0  0
 20 21  2  0  0  0
 20101  1  0  0  0
 21 23  1  0  0  0
 22 28  1  0  0  0
 22 32  2  0  0  0
 26 27  1  0  0  0
 28102  1  0  0  0
 28103  1  0  0  0
 29104  1  0  0  0
 29105  1  0  0  0
 33 34  1  0  0  0
 33 66  1  0  0  0
 33 70  2  0  0  0
 34 36  1  0  0  0
 34 59  1  0  0  0
 34106  1  0  0  0
 35 44  2  0  0  0
 35 45  1  0  0  0
 35 68  1  0  0  0
 36 56  1  0  0  0
 36107  1  0  0  0
 37 39  1  0  0  0
 37 47  1  0  0  0
 37 66  1  0  0  0
 37108  1  0  0  0
 38 43  2  0  0  0
 38 46  1  0  0  0
 38 47  1  0  0  0
 39 64  1  0  0  0
 39 67  2  0  0  0
 40 52  1  0  0  0
 40 53  2  0  0  0
 40 58  1  0  0  0
 41109  1  0  0  0
 41110  1  0  0  0
 41111  1  0  0  0
 41 48  1  0  0  0
 42 43  1  0  0  0
 42 66  1  0  0  0
 42112  1  0  0  0
 42113  1  0  0  0
 43 44  1  0  0  0
 44114  1  0  0  0
 45 46  2  0  0  0
 45115  1  0  0  0
 46116  1  0  0  0
 47117  1  0  0  0
 47118  1  0  0  0
 48 56  1  0  0  0
 48 65  1  0  0  0
 48119  1  0  0  0
 49 50  1  0  0  0
 49 53  1  0  0  0
 49 64  1  0  0  0
 49120  1  0  0  0
 50 51  1  0  0  0
 50121  1  0  0  0
 50122  1  0  0  0
 51 52  1  0  0  0
 51123  1  0  0  0
 51124  1  0  0  0
 52125  1  0  0  0
 52126  1  0  0  0
 53 54  1  0  0  0
 54 55  2  0  0  0
 54127  1  0  0  0
 55 57  1  0  0  0
 55128  1  0  0  0
 56 69  2  0  0  0
 57 58  2  0  0  0
 57129  1  0  0  0
 58130  1  0  0  0
 59 60  1  0  0  0
 59 61  1  0  0  0
 59 62  1  0  0  0
 60131  1  0  0  0
 60132  1  0  0  0
 60133  1  0  0  0
 61134  1  0  0  0
 61135  1  0  0  0
 61136  1  0  0  0
 62137  1  0  0  0
 62138  1  0  0  0
 62139  1  0  0  0
 63 65  1  0  0  0
 63140  1  0  0  0
 63141  1  0  0  0
 63142  1  0  0  0
 64143  1  0  0  0
 65144  1  0  0  0
 68 79  1  0  0  0
 71 72  1  0  0  0
 71 73  2  0  0  0
 71145  1  0  0  0
 72 74  2  0  0  0
 72146  1  0  0  0
 73 80  1  0  0  0
 73 85  1  0  0  0
 74 81  1  0  0  0
 74 85  1  0  0  0
 75 76  1  0  0  0
 75 78  1  0  0  0
 75 82  2  0  0  0
 76 80  1  0  0  0
 76 83  2  0  0  0
 77 78  1  0  0  0
 77 79  1  0  0  0
 77 84  2  0  0  0
 78147  1  0  0  0
 78148  1  0  0  0
 79149  1  0  0  0
 79150  1  0  0  0
 80151  1  0  0  0
 81152  1  0  0  0
M  ISO  4   1 100  68 101  79 101  81 100
M  END
> <chiral flag>
0

> <version>
0

> <s_m_source_file>
/data/baiqing/PycharmProjects/Reinvent-master-3.2/result/LINK_invent/BTK/process_docking_weight1_custom_product_contain_oxygen_bond_distance_aromatic_linkinvent_7_9_3/rearranged_h_0174.sdf

> <i_m_source_file_index>
29

> <r_mmod_Potential_Energy-OPLS-2005>
-137.942962646484

> <r_mmod_Stretch_Energy-OPLS-2005>
31.4769554138184

> <r_mmod_Bend_Energy-OPLS-2005>
102.243301391602

> <r_mmod_Torsional_Energy-OPLS-2005>
245.03742980957

> <r_mmod_Improper_Torsional_Energy-OPLS-2005>
3.65470862388611

> <r_mmod_Van_der_Waal_Energy-OPLS-2005>
142.56201171875

> <r_mmod_Electrostatic_Energy-OPLS-2005>
-429.048522949219

> <r_mmod_Solvation_Energy-OPLS-2005>
-242.120315551758

> <b_mmod_Minimization_Converged-OPLS-2005>
0

> <r_mmod_RMS_Derivative-OPLS-2005>
2.98127031326294

$$$$
29
                    3D
 Structure written by MMmdl.
153161  0  0  1  0            999 V2000
  -30.7170  -14.4093   20.6532 C   0  0  0  0  0  0
  -30.4351  -12.3040   19.3950 C   0  0  0  0  0  0
  -29.4999  -12.5254   18.1899 C   0  0  0  0  0  0
  -28.0203  -12.3811   18.6049 C   0  0  0  0  0  0
  -27.6673  -13.2034   19.8739 C   0  0  2  0  0  0
  -28.7050  -12.9288   20.9850 C   0  0  0  0  0  0
  -25.2562  -13.8112   20.5599 C   0  0  0  0  0  0
  -24.1800  -13.0395   20.9061 C   0  0  0  0  0  0
  -24.6359  -11.6869   20.8622 C   0  0  0  0  0  0
  -23.9016  -10.4253   21.0339 C   0  0  0  0  0  0
  -24.3554   -9.4188   21.9147 C   0  0  0  0  0  0
  -23.6226   -8.2229   22.0748 C   0  0  0  0  0  0
  -22.4211   -8.0249   21.3544 C   0  0  0  0  0  0
  -21.9823   -9.0218   20.4661 C   0  0  0  0  0  0
  -22.7155  -10.2095   20.3038 C   0  0  0  0  0  0
  -21.6848   -6.0690   22.5264 C   0  0  0  0  0  0
  -21.4030   -6.5606   23.8194 C   0  0  0  0  0  0
  -21.3655   -5.6767   24.9165 C   0  0  0  0  0  0
  -21.6034   -4.3030   24.7221 C   0  0  0  0  0  0
  -21.8828   -3.8111   23.4353 C   0  0  0  0  0  0
  -21.9189   -4.6918   22.3402 C   0  0  0  0  0  0
  -22.7841  -13.5221   21.1761 C   0  0  0  0  0  0
  -22.1655   -4.2096   21.0980 F   0  0  0  0  0  0
  -21.5612   -3.4530   25.7746 F   0  0  0  0  0  0
  -30.0476  -13.2454   20.4563 N   0  0  0  0  0  0
  -26.3032  -12.9305   20.3314 N   0  0  0  0  0  0
  -25.9299  -11.6456   20.5677 N   0  0  0  0  0  0
  -22.0475  -12.8277   22.0391 N   0  0  0  0  0  0
  -25.4255  -15.1822   20.4134 N   0  0  0  0  0  0
  -31.7819  -14.6855   20.0894 O   0  0  0  0  0  0
  -21.6608   -6.8823   21.4222 O   0  0  0  0  0  0
  -22.3516  -14.5510   20.6599 O   0  0  0  0  0  0
  -24.6115  -31.8665   23.2137 C   0  0  0  0  0  0
  -25.9019  -32.4810   23.8421 C   0  0  1  0  0  0
  -27.2375  -27.4273   20.1229 C   0  0  0  0  0  0
  -25.5883  -33.8607   24.2327 N   0  0  0  0  0  0
  -23.4023  -30.4925   21.5499 C   0  0  2  0  0  0
  -24.8556  -28.9518   20.1271 C   0  0  0  0  0  0
  -22.7351  -29.4681   22.4959 C   0  0  0  0  0  0
  -18.0250  -28.1322   22.8502 C   0  0  0  0  0  0
  -24.1498  -36.7323   23.2638 C   0  0  0  0  0  0
  -25.9326  -30.8310   21.3715 C   0  0  0  0  0  0
  -26.0132  -29.4612   20.7287 C   0  0  0  0  0  0
  -27.2091  -28.7031   20.7319 C   0  0  0  0  0  0
  -26.0713  -26.9387   19.5045 C   0  0  0  0  0  0
  -24.8755  -27.6822   19.5203 C   0  0  0  0  0  0
  -23.6165  -29.8228   20.1681 C   0  0  0  0  0  0
  -25.4106  -36.3098   24.0344 C   0  0  1  0  0  0
  -20.5834  -28.3619   23.1280 C   0  0  2  0  0  0
  -20.6722  -26.9349   22.5375 C   0  0  0  0  0  0
  -19.5728  -26.6349   21.5140 C   0  0  0  0  0  0
  -18.1908  -26.7887   22.1576 C   0  0  0  0  0  0
  -19.1503  -28.8773   23.2916 C   0  0  0  0  0  0
  -18.9445  -30.1364   23.8948 C   0  0  0  0  0  0
  -17.6461  -30.6563   24.0520 C   0  0  0  0  0  0
  -25.9034  -34.9458   23.5128 C   0  0  0  0  0  0
  -16.5341  -29.9053   23.6327 C   0  0  0  0  0  0
  -16.7241  -28.6440   23.0408 C   0  0  0  0  0  0
  -26.4491  -31.6608   25.0743 C   0  0  0  0  0  0
  -25.3800  -31.3666   26.1527 C   0  0  0  0  0  0
  -27.0298  -30.3049   24.6095 C   0  0  0  0  0  0
  -27.6113  -32.4305   25.7467 C   0  0  0  0  0  0
  -27.5605  -37.1782   24.8448 C   0  0  0  0  0  0
  -21.4077  -29.3040   22.3696 N   0  0  0  0  0  0
  -26.4281  -37.3793   23.9461 N   0  0  0  0  0  0
  -24.6670  -31.0762   22.1046 N   0  0  0  0  0  0
  -23.4119  -28.8212   23.3008 O   0  0  0  0  0  0
  -28.3945  -26.6822   20.0517 O   0  0  0  0  0  0
  -26.5613  -34.8912   22.4691 O   0  0  0  0  0  0
  -23.5304  -32.1427   23.7503 O   0  0  0  0  0  0
  -28.8231  -18.7088   21.0818 C   0  0  0  0  0  0
  -31.2806  -17.4380   21.6398 C   0  0  0  0  0  0
  -29.9797  -19.4980   21.2999 C   0  0  0  0  0  0
  -30.1269  -16.6594   21.4133 C   0  0  0  0  0  0
  -31.2022  -18.8455   21.5783 C   0  0  0  0  0  0
  -28.9020  -17.3014   21.1424 C   0  0  0  0  0  0
  -28.3189  -24.3735   20.9316 C   0  0  0  0  0  0
  -29.0925  -21.8261   20.8657 C   0  0  0  0  0  0
  -29.4387  -23.3145   21.1398 C   0  0  0  0  0  0
  -28.7007  -25.8482   21.1851 C   0  0  0  0  0  0
  -30.0037  -20.9291   21.3000 N   0  0  0  0  0  0
  -30.1236  -15.2469   21.5137 N   0  0  0  0  0  0
  -27.1573  -24.0900   20.6165 O   0  0  0  0  0  0
  -28.0887  -21.4893   20.2319 O   0  0  0  0  0  0
  -32.3171  -19.5831   21.7923 F   0  0  0  0  0  0
  -27.7956  -16.5489   20.9358 F   0  0  0  0  0  0
  -31.4789  -12.4197   19.0957 H   0  0  0  0  0  0
  -30.3490  -11.2795   19.7590 H   0  0  0  0  0  0
  -29.7315  -11.8100   17.3983 H   0  0  0  0  0  0
  -29.6765  -13.5140   17.7651 H   0  0  0  0  0  0
  -27.8342  -11.3225   18.7926 H   0  0  0  0  0  0
  -27.3718  -12.6639   17.7749 H   0  0  0  0  0  0
  -27.7215  -14.2585   19.6016 H   0  0  0  0  0  0
  -28.6801  -11.8747   21.2635 H   0  0  0  0  0  0
  -28.4481  -13.4662   21.8990 H   0  0  0  0  0  0
  -25.2716   -9.5669   22.4716 H   0  0  0  0  0  0
  -23.9921   -7.4644   22.7508 H   0  0  0  0  0  0
  -21.0728   -8.8743   19.9018 H   0  0  0  0  0  0
  -22.3590  -10.9611   19.6144 H   0  0  0  0  0  0
  -21.2056   -7.6128   23.9682 H   0  0  0  0  0  0
  -21.1460   -6.0511   25.9058 H   0  0  0  0  0  0
  -22.0612   -2.7572   23.2881 H   0  0  0  0  0  0
  -22.4011  -11.9938   22.4846 H   0  0  0  0  0  0
  -21.1147  -13.1437   22.2612 H   0  0  0  0  0  0
  -24.6875  -15.8422   20.6263 H   0  0  0  0  0  0
  -26.3356  -15.6275   20.3291 H   0  0  0  0  0  0
  -26.7058  -32.5530   23.1159 H   0  0  0  0  0  0
  -25.0008  -33.9757   25.0452 H   0  0  0  0  0  0
  -22.6915  -31.3079   21.4029 H   0  0  0  0  0  0
  -23.3753  -35.9655   23.3246 H   0  0  0  0  0  0
  -24.3633  -36.8993   22.2068 H   0  0  0  0  0  0
  -23.7240  -37.6497   23.6702 H   0  0  0  0  0  0
  -26.0351  -31.5961   20.6014 H   0  0  0  0  0  0
  -26.8187  -30.8872   21.9914 H   0  0  0  0  0  0
  -28.1035  -29.0988   21.1893 H   0  0  0  0  0  0
  -26.0862  -25.9774   19.0108 H   0  0  0  0  0  0
  -23.9866  -27.2774   19.0598 H   0  0  0  0  0  0
  -23.7242  -30.5959   19.4065 H   0  0  0  0  0  0
  -22.7393  -29.2488   19.8678 H   0  0  0  0  0  0
  -25.1262  -36.1928   25.0830 H   0  0  0  0  0  0
  -20.9939  -28.3160   24.1391 H   0  0  0  0  0  0
  -20.5472  -26.2237   23.3557 H   0  0  0  0  0  0
  -21.6615  -26.7308   22.1271 H   0  0  0  0  0  0
  -19.6893  -25.6249   21.1207 H   0  0  0  0  0  0
  -19.6678  -27.3115   20.6636 H   0  0  0  0  0  0
  -17.4151  -26.6580   21.4016 H   0  0  0  0  0  0
  -18.0382  -25.9983   22.8936 H   0  0  0  0  0  0
  -19.7934  -30.7131   24.2386 H   0  0  0  0  0  0
  -17.5040  -31.6294   24.5027 H   0  0  0  0  0  0
  -15.5344  -30.2972   23.7655 H   0  0  0  0  0  0
  -15.8634  -28.0729   22.7204 H   0  0  0  0  0  0
  -24.5917  -30.7076   25.7884 H   0  0  0  0  0  0
  -24.9051  -32.2774   26.5168 H   0  0  0  0  0  0
  -25.8197  -30.8694   27.0177 H   0  0  0  0  0  0
  -26.2779  -29.6785   24.1267 H   0  0  0  0  0  0
  -27.4177  -29.7329   25.4538 H   0  0  0  0  0  0
  -27.8606  -30.4370   23.9159 H   0  0  0  0  0  0
  -27.2786  -33.3567   26.2163 H   0  0  0  0  0  0
  -28.3867  -32.6910   25.0255 H   0  0  0  0  0  0
  -28.0863  -31.8346   26.5266 H   0  0  0  0  0  0
  -28.2543  -38.0162   24.7625 H   0  0  0  0  0  0
  -28.1162  -36.2693   24.6076 H   0  0  0  0  0  0
  -27.2355  -37.1227   25.8851 H   0  0  0  0  0  0
  -20.9143  -29.8804   21.7006 H   0  0  0  0  0  0
  -26.0145  -38.2842   24.1519 H   0  0  0  0  0  0
  -27.8623  -19.1546   20.8791 H   0  0  0  0  0  0
  -32.2222  -16.9629   21.8746 H   0  0  0  0  0  0
  -29.8016  -23.4010   22.1665 H   0  0  0  0  0  0
  -30.2775  -23.5764   20.4932 H   0  0  0  0  0  0
  -29.7737  -25.9037   21.3778 H   0  0  0  0  0  0
  -28.1955  -26.2013   22.0876 H   0  0  0  0  0  0
  -30.8646  -21.3217   21.6537 H   0  0  0  0  0  0
  -29.2758  -14.8618   21.9056 H   0  0  0  0  0  0
  1 25  1  0  0  0
  1 30  2  0  0  0
  1 82  1  0  0  0
  2  3  1  0  0  0
  2 25  1  0  0  0
  2 87  1  0  0  0
  2 88  1  0  0  0
  3  4  1  0  0  0
  3 89  1  0  0  0
  3 90  1  0  0  0
  4  5  1  0  0  0
  4 91  1  0  0  0
  4 92  1  0  0  0
  5  6  1  0  0  0
  5 26  1  0  0  0
  5 93  1  0  0  0
  6 25  1  0  0  0
  6 94  1  0  0  0
  6 95  1  0  0  0
  7  8  2  0  0  0
  7 26  1  0  0  0
  7 29  1  0  0  0
  8  9  1  0  0  0
  8 22  1  0  0  0
  9 10  1  0  0  0
  9 27  2  0  0  0
 10 11  2  0  0  0
 10 15  1  0  0  0
 11 12  1  0  0  0
 11 96  1  0  0  0
 12 13  2  0  0  0
 12 97  1  0  0  0
 13 14  1  0  0  0
 13 31  1  0  0  0
 14 15  2  0  0  0
 14 98  1  0  0  0
 15 99  1  0  0  0
 16 17  2  0  0  0
 16 21  1  0  0  0
 16 31  1  0  0  0
 17 18  1  0  0  0
 17100  1  0  0  0
 18 19  2  0  0  0
 18101  1  0  0  0
 19 20  1  0  0  0
 19 24  1  0  0  0
 20 21  2  0  0  0
 20102  1  0  0  0
 21 23  1  0  0  0
 22 28  1  0  0  0
 22 32  2  0  0  0
 26 27  1  0  0  0
 28103  1  0  0  0
 28104  1  0  0  0
 29105  1  0  0  0
 29106  1  0  0  0
 33 34  1  0  0  0
 33 66  1  0  0  0
 33 70  2  0  0  0
 34 36  1  0  0  0
 34 59  1  0  0  0
 34107  1  0  0  0
 35 44  2  0  0  0
 35 45  1  0  0  0
 35 68  1  0  0  0
 36 56  1  0  0  0
 36108  1  0  0  0
 37 39  1  0  0  0
 37 47  1  0  0  0
 37 66  1  0  0  0
 37109  1  0  0  0
 38 43  2  0  0  0
 38 46  1  0  0  0
 38 47  1  0  0  0
 39 64  1  0  0  0
 39 67  2  0  0  0
 40 52  1  0  0  0
 40 53  2  0  0  0
 40 58  1  0  0  0
 41110  1  0  0  0
 41111  1  0  0  0
 41112  1  0  0  0
 41 48  1  0  0  0
 42 43  1  0  0  0
 42 66  1  0  0  0
 42113  1  0  0  0
 42114  1  0  0  0
 43 44  1  0  0  0
 44115  1  0  0  0
 45 46  2  0  0  0
 45116  1  0  0  0
 46117  1  0  0  0
 47118  1  0  0  0
 47119  1  0  0  0
 48 56  1  0  0  0
 48 65  1  0  0  0
 48120  1  0  0  0
 49 50  1  0  0  0
 49 53  1  0  0  0
 49 64  1  0  0  0
 49121  1  0  0  0
 50 51  1  0  0  0
 50122  1  0  0  0
 50123  1  0  0  0
 51 52  1  0  0  0
 51124  1  0  0  0
 51125  1  0  0  0
 52126  1  0  0  0
 52127  1  0  0  0
 53 54  1  0  0  0
 54 55  2  0  0  0
 54128  1  0  0  0
 55 57  1  0  0  0
 55129  1  0  0  0
 56 69  2  0  0  0
 57 58  2  0  0  0
 57130  1  0  0  0
 58131  1  0  0  0
 59 60  1  0  0  0
 59 61  1  0  0  0
 59 62  1  0  0  0
 60132  1  0  0  0
 60133  1  0  0  0
 60134  1  0  0  0
 61135  1  0  0  0
 61136  1  0  0  0
 61137  1  0  0  0
 62138  1  0  0  0
 62139  1  0  0  0
 62140  1  0  0  0
 63 65  1  0  0  0
 63141  1  0  0  0
 63142  1  0  0  0
 63143  1  0  0  0
 64144  1  0  0  0
 65145  1  0  0  0
 68 80  1  0  0  0
 71 73  2  0  0  0
 71 76  1  0  0  0
 71146  1  0  0  0
 72 74  1  0  0  0
 72 75  2  0  0  0
 72147  1  0  0  0
 73 75  1  0  0  0
 73 81  1  0  0  0
 74 76  2  0  0  0
 74 82  1  0  0  0
 75 85  1  0  0  0
 76 86  1  0  0  0
 77 79  1  0  0  0
 77 80  1  0  0  0
 77 83  2  0  0  0
 78 79  1  0  0  0
 78 81  1  0  0  0
 78 84  2  0  0  0
 79148  1  0  0  0
 79149  1  0  0  0
 80150  1  0  0  0
 80151  1  0  0  0
 81152  1  0  0  0
 82153  1  0  0  0
M  ISO  4   1 100  68 101  80 101  82 100
M  END
> <chiral flag>
0

> <version>
0

> <s_m_source_file>
/data/baiqing/PycharmProjects/Reinvent-master-3.2/result/LINK_invent/BTK/process_docking_weight1_custom_product_contain_oxygen_bond_distance_aromatic_linkinvent_7_9_3/rearranged_h_0174.sdf

> <i_m_source_file_index>
30

> <r_mmod_Potential_Energy-OPLS-2005>
-121.485153198242

> <r_mmod_Stretch_Energy-OPLS-2005>
38.1270980834961

> <r_mmod_Bend_Energy-OPLS-2005>
109.459686279297

> <r_mmod_Torsional_Energy-OPLS-2005>
265.037231445312

> <r_mmod_Improper_Torsional_Energy-OPLS-2005>
5.73613786697388

> <r_mmod_Van_der_Waal_Energy-OPLS-2005>
154.10041809082

> <r_mmod_Electrostatic_Energy-OPLS-2005>
-455.798950195312

> <r_mmod_Solvation_Energy-OPLS-2005>
-246.981597900391

> <b_mmod_Minimization_Converged-OPLS-2005>
0

> <r_mmod_RMS_Derivative-OPLS-2005>
4.23513650894165

$$$$
30
                    3D
 Structure written by MMmdl.
160168  0  0  1  0            999 V2000
  -30.7445  -14.4993   20.5682 C   0  0  0  0  0  0
  -30.4126  -12.3321   19.4305 C   0  0  0  0  0  0
  -29.4899  -12.5076   18.2091 C   0  0  0  0  0  0
  -28.0141  -12.3688   18.6229 C   0  0  0  0  0  0
  -27.6565  -13.2223   19.8697 C   0  0  2  0  0  0
  -28.7035  -13.0563   20.9960 C   0  0  0  0  0  0
  -25.2543  -13.8185   20.5691 C   0  0  0  0  0  0
  -24.1825  -13.0438   20.9176 C   0  0  0  0  0  0
  -24.6405  -11.6914   20.8730 C   0  0  0  0  0  0
  -23.9073  -10.4288   21.0392 C   0  0  0  0  0  0
  -24.3618   -9.4207   21.9175 C   0  0  0  0  0  0
  -23.6293   -8.2251   22.0758 C   0  0  0  0  0  0
  -22.4280   -8.0274   21.3549 C   0  0  0  0  0  0
  -21.9913   -9.0244   20.4648 C   0  0  0  0  0  0
  -22.7242  -10.2124   20.3045 C   0  0  0  0  0  0
  -21.6850   -6.0721   22.5272 C   0  0  0  0  0  0
  -21.4016   -6.5627   23.8198 C   0  0  0  0  0  0
  -21.3661   -5.6792   24.9166 C   0  0  0  0  0  0
  -21.6044   -4.3052   24.7227 C   0  0  0  0  0  0
  -21.8824   -3.8137   23.4350 C   0  0  0  0  0  0
  -21.9194   -4.6950   22.3400 C   0  0  0  0  0  0
  -22.7838  -13.5205   21.1844 C   0  0  0  0  0  0
  -22.1662   -4.2130   21.0978 F   0  0  0  0  0  0
  -21.5631   -3.4538   25.7742 F   0  0  0  0  0  0
  -30.0294  -13.3464   20.4300 N   0  0  0  0  0  0
  -26.3007  -12.9399   20.3368 N   0  0  0  0  0  0
  -25.9341  -11.6538   20.5773 N   0  0  0  0  0  0
  -22.0500  -12.8191   22.0402 N   0  0  0  0  0  0
  -25.4212  -15.1919   20.4109 N   0  0  0  0  0  0
  -31.8699  -14.6217   20.0774 O   0  0  0  0  0  0
  -21.6646   -6.8870   21.4241 O   0  0  0  0  0  0
  -22.3520  -14.5515   20.6689 O   0  0  0  0  0  0
  -24.6160  -31.8665   23.2090 C   0  0  0  0  0  0
  -25.9045  -32.4822   23.8384 C   0  0  1  0  0  0
  -27.2178  -27.3979   20.0926 C   0  0  0  0  0  0
  -25.5921  -33.8615   24.2317 N   0  0  0  0  0  0
  -23.4042  -30.4909   21.5539 C   0  0  2  0  0  0
  -24.8480  -28.9586   20.1122 C   0  0  0  0  0  0
  -22.7419  -29.4639   22.5005 C   0  0  0  0  0  0
  -18.0272  -28.1384   22.8480 C   0  0  0  0  0  0
  -24.1495  -36.7313   23.2636 C   0  0  0  0  0  0
  -25.9359  -30.8188   21.3703 C   0  0  0  0  0  0
  -26.0125  -29.4506   20.7166 C   0  0  0  0  0  0
  -27.1993  -28.6752   20.7091 C   0  0  0  0  0  0
  -26.0345  -26.9428   19.4639 C   0  0  0  0  0  0
  -24.8541  -27.7045   19.4842 C   0  0  0  0  0  0
  -23.6154  -29.8336   20.1653 C   0  0  0  0  0  0
  -25.4114  -36.3107   24.0329 C   0  0  1  0  0  0
  -20.5857  -28.3672   23.1324 C   0  0  2  0  0  0
  -20.6773  -26.9418   22.5414 C   0  0  0  0  0  0
  -19.5760  -26.6397   21.5201 C   0  0  0  0  0  0
  -18.1931  -26.7934   22.1612 C   0  0  0  0  0  0
  -19.1518  -28.8841   23.2895 C   0  0  0  0  0  0
  -18.9462  -30.1449   23.8902 C   0  0  0  0  0  0
  -17.6466  -30.6593   24.0564 C   0  0  0  0  0  0
  -25.9038  -34.9475   23.5109 C   0  0  0  0  0  0
  -16.5351  -29.9091   23.6338 C   0  0  0  0  0  0
  -16.7261  -28.6519   23.0325 C   0  0  0  0  0  0
  -26.4486  -31.6587   25.0698 C   0  0  0  0  0  0
  -25.3770  -31.3639   26.1454 C   0  0  0  0  0  0
  -27.0313  -30.3047   24.6013 C   0  0  0  0  0  0
  -27.6056  -32.4301   25.7477 C   0  0  0  0  0  0
  -27.5584  -37.1799   24.8468 C   0  0  0  0  0  0
  -21.4142  -29.3030   22.3749 N   0  0  0  0  0  0
  -26.4307  -37.3783   23.9401 N   0  0  0  0  0  0
  -24.6705  -31.0719   22.1037 N   0  0  0  0  0  0
  -23.4178  -28.8182   23.3058 O   0  0  0  0  0  0
  -28.3624  -26.6118   20.1228 O   0  0  0  0  0  0
  -26.5595  -34.8931   22.4670 O   0  0  0  0  0  0
  -23.5348  -32.1463   23.7447 O   0  0  0  0  0  0
  -29.9814  -18.0643   21.1615 C   0  0  0  0  0  0
  -31.8968  -19.3935   21.8802 C   0  0  0  0  0  0
  -32.0299  -16.9594   21.8832 C   0  0  0  0  0  0
  -30.5663  -19.3459   21.3923 C   0  0  0  0  0  0
  -30.7101  -16.8590   21.3809 C   0  0  0  0  0  0
  -32.6200  -18.2121   22.1199 C   0  0  0  0  0  0
  -30.1099  -21.8490   21.2311 C   0  0  0  0  0  0
  -27.3175  -21.8467   22.8921 C   0  0  0  0  0  0
  -28.2639  -23.0008   22.5186 C   0  0  0  0  0  0
  -28.1435  -25.1771   20.1068 C   0  0  0  0  0  0
  -28.9449  -22.8782   21.1262 C   0  0  1  0  0  0
  -29.3482  -24.3024   20.5759 C   0  0  0  0  0  0
  -29.7805  -20.5314   21.1507 N   0  0  0  0  0  0
  -30.1211  -15.5646   21.1306 N   0  0  0  0  0  0
  -31.2648  -22.2540   21.3883 O   0  0  0  0  0  0
  -33.8913  -18.2834   22.5843 F   0  0  0  0  0  0
  -30.1405  -24.1681   19.5089 F   0  0  0  0  0  0
  -30.0269  -24.9677   21.5139 F   0  0  0  0  0  0
  -31.4574  -12.4102   19.1246 H   0  0  0  0  0  0
  -30.3038  -11.3328   19.8539 H   0  0  0  0  0  0
  -29.7327  -11.7698   17.4425 H   0  0  0  0  0  0
  -29.6540  -13.4857   17.7542 H   0  0  0  0  0  0
  -27.8259  -11.3144   18.8270 H   0  0  0  0  0  0
  -27.3635  -12.6348   17.7885 H   0  0  0  0  0  0
  -27.6831  -14.2637   19.5470 H   0  0  0  0  0  0
  -28.6896  -12.0378   21.3873 H   0  0  0  0  0  0
  -28.4672  -13.7038   21.8413 H   0  0  0  0  0  0
  -25.2761   -9.5680   22.4747 H   0  0  0  0  0  0
  -23.9981   -7.4653   22.7488 H   0  0  0  0  0  0
  -21.0837   -8.8772   19.8959 H   0  0  0  0  0  0
  -22.3699  -10.9662   19.6147 H   0  0  0  0  0  0
  -21.2015   -7.6136   23.9695 H   0  0  0  0  0  0
  -21.1479   -6.0522   25.9066 H   0  0  0  0  0  0
  -22.0604   -2.7597   23.2858 H   0  0  0  0  0  0
  -22.4139  -11.9834   22.4748 H   0  0  0  0  0  0
  -21.1119  -13.1209   22.2633 H   0  0  0  0  0  0
  -24.6480  -15.8393   20.5174 H   0  0  0  0  0  0
  -26.2661  -15.6388   20.0781 H   0  0  0  0  0  0
  -26.7099  -32.5536   23.1135 H   0  0  0  0  0  0
  -25.0091  -33.9769   25.0476 H   0  0  0  0  0  0
  -22.6936  -31.3090   21.4177 H   0  0  0  0  0  0
  -23.3761  -35.9642   23.3316 H   0  0  0  0  0  0
  -24.3588  -36.8921   22.2049 H   0  0  0  0  0  0
  -23.7257  -37.6512   23.6657 H   0  0  0  0  0  0
  -26.0358  -31.5820   20.5962 H   0  0  0  0  0  0
  -26.8268  -30.8771   21.9837 H   0  0  0  0  0  0
  -28.0881  -29.0381   21.2055 H   0  0  0  0  0  0
  -25.9940  -25.9959   18.9467 H   0  0  0  0  0  0
  -23.9612  -27.3247   19.0060 H   0  0  0  0  0  0
  -23.7410  -30.6178   19.4169 H   0  0  0  0  0  0
  -22.7336  -29.2689   19.8568 H   0  0  0  0  0  0
  -25.1291  -36.1969   25.0824 H   0  0  0  0  0  0
  -20.9895  -28.3244   24.1461 H   0  0  0  0  0  0
  -20.5737  -26.2265   23.3591 H   0  0  0  0  0  0
  -21.6650  -26.7517   22.1174 H   0  0  0  0  0  0
  -19.6953  -25.6305   21.1240 H   0  0  0  0  0  0
  -19.6718  -27.3227   20.6738 H   0  0  0  0  0  0
  -17.4206  -26.6671   21.4017 H   0  0  0  0  0  0
  -18.0338  -26.0074   22.9013 H   0  0  0  0  0  0
  -19.7940  -30.7239   24.2298 H   0  0  0  0  0  0
  -17.5032  -31.6279   24.5168 H   0  0  0  0  0  0
  -15.5352  -30.2992   23.7673 H   0  0  0  0  0  0
  -15.8660  -28.0860   22.6996 H   0  0  0  0  0  0
  -24.5959  -30.6980   25.7784 H   0  0  0  0  0  0
  -24.8947  -32.2760   26.4967 H   0  0  0  0  0  0
  -25.8151  -30.8770   27.0179 H   0  0  0  0  0  0
  -26.2810  -29.6790   24.1161 H   0  0  0  0  0  0
  -27.4234  -29.7283   25.4402 H   0  0  0  0  0  0
  -27.8593  -30.4410   23.9048 H   0  0  0  0  0  0
  -27.2673  -33.3597   26.2076 H   0  0  0  0  0  0
  -28.3860  -32.6872   25.0299 H   0  0  0  0  0  0
  -28.0735  -31.8417   26.5380 H   0  0  0  0  0  0
  -28.2579  -38.0111   24.7509 H   0  0  0  0  0  0
  -28.1098  -36.2636   24.6311 H   0  0  0  0  0  0
  -27.2286  -37.1456   25.8863 H   0  0  0  0  0  0
  -20.9325  -29.8764   21.6974 H   0  0  0  0  0  0
  -26.0205  -38.2857   24.1425 H   0  0  0  0  0  0
  -28.9657  -18.0049   20.7939 H   0  0  0  0  0  0
  -32.4002  -20.3217   22.0955 H   0  0  0  0  0  0
  -32.6106  -16.0734   22.0916 H   0  0  0  0  0  0
  -26.8556  -22.0330   23.8628 H   0  0  0  0  0  0
  -27.8362  -20.8909   22.9688 H   0  0  0  0  0  0
  -26.5161  -21.7417   22.1604 H   0  0  0  0  0  0
  -29.0325  -23.0911   23.2882 H   0  0  0  0  0  0
  -27.7001  -23.9290   22.5827 H   0  0  0  0  0  0
  -27.2801  -24.9587   20.7357 H   0  0  0  0  0  0
  -27.8671  -24.8590   19.0999 H   0  0  0  0  0  0
  -28.2243  -22.4638   20.4191 H   0  0  0  0  0  0
  -28.8021  -20.3630   20.9641 H   0  0  0  0  0  0
  -29.1404  -15.4519   21.3387 H   0  0  0  0  0  0
  1 25  1  0  0  0
  1 30  2  0  0  0
  1 84  1  0  0  0
  2  3  1  0  0  0
  2 25  1  0  0  0
  2 89  1  0  0  0
  2 90  1  0  0  0
  3  4  1  0  0  0
  3 91  1  0  0  0
  3 92  1  0  0  0
  4  5  1  0  0  0
  4 93  1  0  0  0
  4 94  1  0  0  0
  5  6  1  0  0  0
  5 26  1  0  0  0
  5 95  1  0  0  0
  6 25  1  0  0  0
  6 96  1  0  0  0
  6 97  1  0  0  0
  7  8  2  0  0  0
  7 26  1  0  0  0
  7 29  1  0  0  0
  8  9  1  0  0  0
  8 22  1  0  0  0
  9 10  1  0  0  0
  9 27  2  0  0  0
 10 11  2  0  0  0
 10 15  1  0  0  0
 11 12  1  0  0  0
 11 98  1  0  0  0
 12 13  2  0  0  0
 12 99  1  0  0  0
 13 14  1  0  0  0
 13 31  1  0  0  0
 14 15  2  0  0  0
 14100  1  0  0  0
 15101  1  0  0  0
 16 17  2  0  0  0
 16 21  1  0  0  0
 16 31  1  0  0  0
 17 18  1  0  0  0
 17102  1  0  0  0
 18 19  2  0  0  0
 18103  1  0  0  0
 19 20  1  0  0  0
 19 24  1  0  0  0
 20 21  2  0  0  0
 20104  1  0  0  0
 21 23  1  0  0  0
 22 28  1  0  0  0
 22 32  2  0  0  0
 26 27  1  0  0  0
 28105  1  0  0  0
 28106  1  0  0  0
 29107  1  0  0  0
 29108  1  0  0  0
 33 34  1  0  0  0
 33 66  1  0  0  0
 33 70  2  0  0  0
 34 36  1  0  0  0
 34 59  1  0  0  0
 34109  1  0  0  0
 35 44  2  0  0  0
 35 45  1  0  0  0
 35 68  1  0  0  0
 36 56  1  0  0  0
 36110  1  0  0  0
 37 39  1  0  0  0
 37 47  1  0  0  0
 37 66  1  0  0  0
 37111  1  0  0  0
 38 43  2  0  0  0
 38 46  1  0  0  0
 38 47  1  0  0  0
 39 64  1  0  0  0
 39 67  2  0  0  0
 40 52  1  0  0  0
 40 53  2  0  0  0
 40 58  1  0  0  0
 41112  1  0  0  0
 41113  1  0  0  0
 41114  1  0  0  0
 41 48  1  0  0  0
 42 43  1  0  0  0
 42 66  1  0  0  0
 42115  1  0  0  0
 42116  1  0  0  0
 43 44  1  0  0  0
 44117  1  0  0  0
 45 46  2  0  0  0
 45118  1  0  0  0
 46119  1  0  0  0
 47120  1  0  0  0
 47121  1  0  0  0
 48 56  1  0  0  0
 48 65  1  0  0  0
 48122  1  0  0  0
 49 50  1  0  0  0
 49 53  1  0  0  0
 49 64  1  0  0  0
 49123  1  0  0  0
 50 51  1  0  0  0
 50124  1  0  0  0
 50125  1  0  0  0
 51 52  1  0  0  0
 51126  1  0  0  0
 51127  1  0  0  0
 52128  1  0  0  0
 52129  1  0  0  0
 53 54  1  0  0  0
 54 55  2  0  0  0
 54130  1  0  0  0
 55 57  1  0  0  0
 55131  1  0  0  0
 56 69  2  0  0  0
 57 58  2  0  0  0
 57132  1  0  0  0
 58133  1  0  0  0
 59 60  1  0  0  0
 59 61  1  0  0  0
 59 62  1  0  0  0
 60134  1  0  0  0
 60135  1  0  0  0
 60136  1  0  0  0
 61137  1  0  0  0
 61138  1  0  0  0
 61139  1  0  0  0
 62140  1  0  0  0
 62141  1  0  0  0
 62142  1  0  0  0
 63 65  1  0  0  0
 63143  1  0  0  0
 63144  1  0  0  0
 63145  1  0  0  0
 64146  1  0  0  0
 65147  1  0  0  0
 68 80  1  0  0  0
 71 74  2  0  0  0
 71 75  1  0  0  0
 71148  1  0  0  0
 72 74  1  0  0  0
 72 76  2  0  0  0
 72149  1  0  0  0
 73 75  2  0  0  0
 73 76  1  0  0  0
 73150  1  0  0  0
 74 83  1  0  0  0
 75 84  1  0  0  0
 76 86  1  0  0  0
 77 81  1  0  0  0
 77 83  1  0  0  0
 77 85  2  0  0  0
 78 79  1  0  0  0
 78151  1  0  0  0
 78152  1  0  0  0
 78153  1  0  0  0
 79154  1  0  0  0
 79155  1  0  0  0
 79 81  1  0  0  0
 80 82  1  0  0  0
 80156  1  0  0  0
 80157  1  0  0  0
 81 82  1  0  0  0
 81158  1  0  0  0
 82 87  1  0  0  0
 82 88  1  0  0  0
 83159  1  0  0  0
 84160  1  0  0  0
M  ISO  4   1 100  68 101  80 101  84 100
M  END
> <chiral flag>
0

> <version>
0

> <s_m_source_file>
/data/baiqing/PycharmProjects/Reinvent-master-3.2/result/LINK_invent/BTK/process_docking_weight1_custom_product_contain_oxygen_bond_distance_aromatic_linkinvent_7_9_3/rearranged_h_0174.sdf

> <i_m_source_file_index>
31

> <r_mmod_Potential_Energy-OPLS-2005>
37.4574127197266

> <r_mmod_Stretch_Energy-OPLS-2005>
50.7981796264648

> <r_mmod_Bend_Energy-OPLS-2005>
107.295021057129

> <r_mmod_Torsional_Energy-OPLS-2005>
217.952911376953

> <r_mmod_Improper_Torsional_Energy-OPLS-2005>
3.26634621620178

> <r_mmod_Van_der_Waal_Energy-OPLS-2005>
169.193923950195

> <r_mmod_Electrostatic_Energy-OPLS-2005>
-292.505340576172

> <r_mmod_Solvation_Energy-OPLS-2005>
-238.894592285156

> <b_mmod_Minimization_Converged-OPLS-2005>
0

> <r_mmod_RMS_Derivative-OPLS-2005>
2.90788531303406

$$$$
31
                    3D
 Structure written by MMmdl.
150158  0  0  1  0            999 V2000
  -30.7152  -14.4922   20.5381 C   0  0  0  0  0  0
  -30.4163  -12.3137   19.4282 C   0  0  0  0  0  0
  -29.4954  -12.5112   18.2078 C   0  0  0  0  0  0
  -28.0136  -12.3808   18.6108 C   0  0  0  0  0  0
  -27.6579  -13.2174   19.8716 C   0  0  2  0  0  0
  -28.7027  -13.0231   20.9948 C   0  0  0  0  0  0
  -25.2567  -13.8176   20.5649 C   0  0  0  0  0  0
  -24.1828  -13.0452   20.9169 C   0  0  0  0  0  0
  -24.6394  -11.6929   20.8710 C   0  0  0  0  0  0
  -23.9058  -10.4314   21.0382 C   0  0  0  0  0  0
  -24.3622   -9.4237   21.9168 C   0  0  0  0  0  0
  -23.6317   -8.2250   22.0753 C   0  0  0  0  0  0
  -22.4292   -8.0280   21.3550 C   0  0  0  0  0  0
  -21.9918   -9.0247   20.4652 C   0  0  0  0  0  0
  -22.7224  -10.2138   20.3048 C   0  0  0  0  0  0
  -21.6864   -6.0742   22.5289 C   0  0  0  0  0  0
  -21.4014   -6.5652   23.8213 C   0  0  0  0  0  0
  -21.3666   -5.6809   24.9180 C   0  0  0  0  0  0
  -21.6039   -4.3064   24.7228 C   0  0  0  0  0  0
  -21.8815   -3.8157   23.4348 C   0  0  0  0  0  0
  -21.9194   -4.6975   22.3411 C   0  0  0  0  0  0
  -22.7846  -13.5245   21.1827 C   0  0  0  0  0  0
  -22.1649   -4.2157   21.0986 F   0  0  0  0  0  0
  -21.5637   -3.4552   25.7728 F   0  0  0  0  0  0
  -30.0328  -13.3169   20.4347 N   0  0  0  0  0  0
  -26.3020  -12.9365   20.3351 N   0  0  0  0  0  0
  -25.9336  -11.6524   20.5770 N   0  0  0  0  0  0
  -22.0494  -12.8253   22.0408 N   0  0  0  0  0  0
  -25.4297  -15.1891   20.4066 N   0  0  0  0  0  0
  -31.8672  -14.6072   20.1166 O   0  0  0  0  0  0
  -21.6669   -6.8873   21.4235 O   0  0  0  0  0  0
  -22.3526  -14.5547   20.6672 O   0  0  0  0  0  0
  -24.6146  -31.8674   23.2102 C   0  0  0  0  0  0
  -25.9055  -32.4805   23.8401 C   0  0  1  0  0  0
  -27.2239  -27.4362   20.0942 C   0  0  0  0  0  0
  -25.5918  -33.8608   24.2329 N   0  0  0  0  0  0
  -23.4021  -30.4956   21.5458 C   0  0  2  0  0  0
  -24.8476  -28.9666   20.1081 C   0  0  0  0  0  0
  -22.7414  -29.4673   22.4926 C   0  0  0  0  0  0
  -18.0289  -28.1377   22.8474 C   0  0  0  0  0  0
  -24.1494  -36.7336   23.2636 C   0  0  0  0  0  0
  -25.9321  -30.8350   21.3635 C   0  0  0  0  0  0
  -26.0094  -29.4719   20.7074 C   0  0  0  0  0  0
  -27.2055  -28.7158   20.6955 C   0  0  0  0  0  0
  -26.0513  -26.9556   19.4711 C   0  0  0  0  0  0
  -24.8636  -27.7071   19.4857 C   0  0  0  0  0  0
  -23.6102  -29.8335   20.1585 C   0  0  0  0  0  0
  -25.4103  -36.3102   24.0336 C   0  0  1  0  0  0
  -20.5872  -28.3671   23.1285 C   0  0  2  0  0  0
  -20.6771  -26.9400   22.5399 C   0  0  0  0  0  0
  -19.5754  -26.6370   21.5193 C   0  0  0  0  0  0
  -18.1935  -26.7922   22.1610 C   0  0  0  0  0  0
  -19.1534  -28.8837   23.2886 C   0  0  0  0  0  0
  -18.9462  -30.1436   23.8908 C   0  0  0  0  0  0
  -17.6468  -30.6577   24.0557 C   0  0  0  0  0  0
  -25.9029  -34.9463   23.5120 C   0  0  0  0  0  0
  -16.5359  -29.9075   23.6322 C   0  0  0  0  0  0
  -16.7278  -28.6498   23.0330 C   0  0  0  0  0  0
  -26.4480  -31.6588   25.0729 C   0  0  0  0  0  0
  -25.3758  -31.3720   26.1491 C   0  0  0  0  0  0
  -27.0293  -30.3018   24.6115 C   0  0  0  0  0  0
  -27.6054  -32.4296   25.7513 C   0  0  0  0  0  0
  -27.5585  -37.1808   24.8447 C   0  0  0  0  0  0
  -21.4138  -29.3056   22.3693 N   0  0  0  0  0  0
  -26.4283  -37.3788   23.9414 N   0  0  0  0  0  0
  -24.6673  -31.0801   22.0984 N   0  0  0  0  0  0
  -23.4191  -28.8199   23.2952 O   0  0  0  0  0  0
  -28.3537  -26.6497   20.1228 O   0  0  0  0  0  0
  -26.5581  -34.8920   22.4674 O   0  0  0  0  0  0
  -23.5341  -32.1433   23.7502 O   0  0  0  0  0  0
  -31.3024  -19.2099   20.6673 C   0  0  0  0  0  0
  -29.9741  -19.2082   21.0294 C   0  0  0  0  0  0
  -30.3659  -16.9377   20.8944 C   0  0  0  0  0  0
  -29.1773  -20.4229   21.2815 C   0  0  0  0  0  0
  -29.0731  -24.2650   20.2823 C   0  0  0  0  0  0
  -29.6902  -21.7579   20.6936 C   0  0  0  0  0  0
  -28.1257  -25.3791   20.7712 C   0  0  0  0  0  0
  -28.5755  -22.8148   20.4597 C   0  0  2  0  0  0
  -29.4675  -17.8943   21.1780 N   0  0  0  0  0  0
  -29.9984  -15.5571   20.9627 N   0  0  0  0  0  0
  -28.1211  -20.4212   21.9229 O   0  0  0  0  0  0
  -30.1729  -24.5183   19.7763 O   0  0  0  0  0  0
  -27.8340  -22.4594   19.4051 F   0  0  0  0  0  0
  -31.9403  -17.6016   20.4454 S   0  0  0  0  0  0
  -31.4616  -12.3966   19.1267 H   0  0  0  0  0  0
  -30.3051  -11.3073   19.8349 H   0  0  0  0  0  0
  -29.7409  -11.7895   17.4253 H   0  0  0  0  0  0
  -29.6678  -13.4982   17.7745 H   0  0  0  0  0  0
  -27.8050  -11.3249   18.7851 H   0  0  0  0  0  0
  -27.3743  -12.6797   17.7798 H   0  0  0  0  0  0
  -27.6942  -14.2646   19.5710 H   0  0  0  0  0  0
  -28.6791  -11.9972   21.3638 H   0  0  0  0  0  0
  -28.4740  -13.6521   21.8571 H   0  0  0  0  0  0
  -25.2763   -9.5736   22.4754 H   0  0  0  0  0  0
  -24.0050   -7.4651   22.7478 H   0  0  0  0  0  0
  -21.0845   -8.8763   19.8978 H   0  0  0  0  0  0
  -22.3669  -10.9676   19.6167 H   0  0  0  0  0  0
  -21.2015   -7.6166   23.9714 H   0  0  0  0  0  0
  -21.1480   -6.0542   25.9078 H   0  0  0  0  0  0
  -22.0590   -2.7620   23.2849 H   0  0  0  0  0  0
  -22.4121  -11.9926   22.4811 H   0  0  0  0  0  0
  -21.1102  -13.1251   22.2598 H   0  0  0  0  0  0
  -24.6691  -15.8499   20.5283 H   0  0  0  0  0  0
  -26.2861  -15.6288   20.0935 H   0  0  0  0  0  0
  -26.7124  -32.5513   23.1170 H   0  0  0  0  0  0
  -25.0067  -33.9781   25.0472 H   0  0  0  0  0  0
  -22.6905  -31.3115   21.4079 H   0  0  0  0  0  0
  -23.3735  -35.9688   23.3257 H   0  0  0  0  0  0
  -24.3599  -36.8990   22.2058 H   0  0  0  0  0  0
  -23.7262  -37.6536   23.6676 H   0  0  0  0  0  0
  -26.0479  -31.6021   20.5958 H   0  0  0  0  0  0
  -26.8193  -30.8837   21.9837 H   0  0  0  0  0  0
  -28.0976  -29.0976   21.1726 H   0  0  0  0  0  0
  -26.0474  -25.9933   18.9779 H   0  0  0  0  0  0
  -23.9734  -27.3137   19.0133 H   0  0  0  0  0  0
  -23.7228  -30.6102   19.4004 H   0  0  0  0  0  0
  -22.7343  -29.2542   19.8589 H   0  0  0  0  0  0
  -25.1271  -36.1951   25.0824 H   0  0  0  0  0  0
  -20.9992  -28.3245   24.1392 H   0  0  0  0  0  0
  -20.5632  -26.2293   23.3595 H   0  0  0  0  0  0
  -21.6645  -26.7413   22.1216 H   0  0  0  0  0  0
  -19.6909  -25.6273   21.1232 H   0  0  0  0  0  0
  -19.6696  -27.3168   20.6710 H   0  0  0  0  0  0
  -17.4197  -26.6654   21.4014 H   0  0  0  0  0  0
  -18.0355  -26.0065   22.9012 H   0  0  0  0  0  0
  -19.7940  -30.7241   24.2282 H   0  0  0  0  0  0
  -17.5026  -31.6259   24.5160 H   0  0  0  0  0  0
  -15.5355  -30.2983   23.7638 H   0  0  0  0  0  0
  -15.8680  -28.0825   22.7025 H   0  0  0  0  0  0
  -24.5889  -30.7104   25.7854 H   0  0  0  0  0  0
  -24.9014  -32.2890   26.4989 H   0  0  0  0  0  0
  -25.8119  -30.8849   27.0221 H   0  0  0  0  0  0
  -26.2832  -29.6785   24.1161 H   0  0  0  0  0  0
  -27.4033  -29.7248   25.4586 H   0  0  0  0  0  0
  -27.8696  -30.4316   23.9290 H   0  0  0  0  0  0
  -27.2660  -33.3564   26.2164 H   0  0  0  0  0  0
  -28.3864  -32.6892   25.0352 H   0  0  0  0  0  0
  -28.0731  -31.8363   26.5388 H   0  0  0  0  0  0
  -28.2555  -38.0151   24.7518 H   0  0  0  0  0  0
  -28.1121  -36.2672   24.6209 H   0  0  0  0  0  0
  -27.2317  -37.1390   25.8853 H   0  0  0  0  0  0
  -20.9271  -29.8827   21.6975 H   0  0  0  0  0  0
  -26.0157  -38.2860   24.1411 H   0  0  0  0  0  0
  -31.9515  -20.0619   20.5148 H   0  0  0  0  0  0
  -30.2185  -21.5636   19.7610 H   0  0  0  0  0  0
  -30.4280  -22.1562   21.3900 H   0  0  0  0  0  0
  -28.2747  -25.5150   21.8427 H   0  0  0  0  0  0
  -27.1013  -25.0263   20.6476 H   0  0  0  0  0  0
  -27.8937  -22.8152   21.3098 H   0  0  0  0  0  0
  -29.0549  -15.3663   21.2532 H   0  0  0  0  0  0
  1 25  1  0  0  0
  1 30  2  0  0  0
  1 80  1  0  0  0
  2  3  1  0  0  0
  2 25  1  0  0  0
  2 85  1  0  0  0
  2 86  1  0  0  0
  3  4  1  0  0  0
  3 87  1  0  0  0
  3 88  1  0  0  0
  4  5  1  0  0  0
  4 89  1  0  0  0
  4 90  1  0  0  0
  5  6  1  0  0  0
  5 26  1  0  0  0
  5 91  1  0  0  0
  6 25  1  0  0  0
  6 92  1  0  0  0
  6 93  1  0  0  0
  7  8  2  0  0  0
  7 26  1  0  0  0
  7 29  1  0  0  0
  8  9  1  0  0  0
  8 22  1  0  0  0
  9 10  1  0  0  0
  9 27  2  0  0  0
 10 11  2  0  0  0
 10 15  1  0  0  0
 11 12  1  0  0  0
 11 94  1  0  0  0
 12 13  2  0  0  0
 12 95  1  0  0  0
 13 14  1  0  0  0
 13 31  1  0  0  0
 14 15  2  0  0  0
 14 96  1  0  0  0
 15 97  1  0  0  0
 16 17  2  0  0  0
 16 21  1  0  0  0
 16 31  1  0  0  0
 17 18  1  0  0  0
 17 98  1  0  0  0
 18 19  2  0  0  0
 18 99  1  0  0  0
 19 20  1  0  0  0
 19 24  1  0  0  0
 20 21  2  0  0  0
 20100  1  0  0  0
 21 23  1  0  0  0
 22 28  1  0  0  0
 22 32  2  0  0  0
 26 27  1  0  0  0
 28101  1  0  0  0
 28102  1  0  0  0
 29103  1  0  0  0
 29104  1  0  0  0
 33 34  1  0  0  0
 33 66  1  0  0  0
 33 70  2  0  0  0
 34 36  1  0  0  0
 34 59  1  0  0  0
 34105  1  0  0  0
 35 44  2  0  0  0
 35 45  1  0  0  0
 35 68  1  0  0  0
 36 56  1  0  0  0
 36106  1  0  0  0
 37 39  1  0  0  0
 37 47  1  0  0  0
 37 66  1  0  0  0
 37107  1  0  0  0
 38 43  2  0  0  0
 38 46  1  0  0  0
 38 47  1  0  0  0
 39 64  1  0  0  0
 39 67  2  0  0  0
 40 52  1  0  0  0
 40 53  2  0  0  0
 40 58  1  0  0  0
 41108  1  0  0  0
 41109  1  0  0  0
 41110  1  0  0  0
 41 48  1  0  0  0
 42 43  1  0  0  0
 42 66  1  0  0  0
 42111  1  0  0  0
 42112  1  0  0  0
 43 44  1  0  0  0
 44113  1  0  0  0
 45 46  2  0  0  0
 45114  1  0  0  0
 46115  1  0  0  0
 47116  1  0  0  0
 47117  1  0  0  0
 48 56  1  0  0  0
 48 65  1  0  0  0
 48118  1  0  0  0
 49 50  1  0  0  0
 49 53  1  0  0  0
 49 64  1  0  0  0
 49119  1  0  0  0
 50 51  1  0  0  0
 50120  1  0  0  0
 50121  1  0  0  0
 51 52  1  0  0  0
 51122  1  0  0  0
 51123  1  0  0  0
 52124  1  0  0  0
 52125  1  0  0  0
 53 54  1  0  0  0
 54 55  2  0  0  0
 54126  1  0  0  0
 55 57  1  0  0  0
 55127  1  0  0  0
 56 69  2  0  0  0
 57 58  2  0  0  0
 57128  1  0  0  0
 58129  1  0  0  0
 59 60  1  0  0  0
 59 61  1  0  0  0
 59 62  1  0  0  0
 60130  1  0  0  0
 60131  1  0  0  0
 60132  1  0  0  0
 61133  1  0  0  0
 61134  1  0  0  0
 61135  1  0  0  0
 62136  1  0  0  0
 62137  1  0  0  0
 62138  1  0  0  0
 63 65  1  0  0  0
 63139  1  0  0  0
 63140  1  0  0  0
 63141  1  0  0  0
 64142  1  0  0  0
 65143  1  0  0  0
 68 77  1  0  0  0
 71 72  2  0  0  0
 71 84  1  0  0  0
 71144  1  0  0  0
 72 74  1  0  0  0
 72 79  1  0  0  0
 73 79  2  0  0  0
 73 80  1  0  0  0
 73 84  1  0  0  0
 74 76  1  0  0  0
 74 81  2  0  0  0
 75 77  1  0  0  0
 75 78  1  0  0  0
 75 82  2  0  0  0
 76 78  1  0  0  0
 76145  1  0  0  0
 76146  1  0  0  0
 77147  1  0  0  0
 77148  1  0  0  0
 78 83  1  0  0  0
 78149  1  0  0  0
 80150  1  0  0  0
M  ISO  4   1 100  68 101  77 101  80 100
M  END
> <chiral flag>
0

> <version>
0

> <s_m_source_file>
/data/baiqing/PycharmProjects/Reinvent-master-3.2/result/LINK_invent/BTK/process_docking_weight1_custom_product_contain_oxygen_bond_distance_aromatic_linkinvent_7_9_3/rearranged_h_0174.sdf

> <i_m_source_file_index>
32

> <r_mmod_Potential_Energy-OPLS-2005>
-141.537887573242

> <r_mmod_Stretch_Energy-OPLS-2005>
38.2766990661621

> <r_mmod_Bend_Energy-OPLS-2005>
93.1321411132812

> <r_mmod_Torsional_Energy-OPLS-2005>
238.454147338867

> <r_mmod_Improper_Torsional_Energy-OPLS-2005>
4.02539539337158

> <r_mmod_Van_der_Waal_Energy-OPLS-2005>
135.062454223633

> <r_mmod_Electrostatic_Energy-OPLS-2005>
-425.417510986328

> <r_mmod_Solvation_Energy-OPLS-2005>
-242.238632202148

> <b_mmod_Minimization_Converged-OPLS-2005>
0

> <r_mmod_RMS_Derivative-OPLS-2005>
3.34768295288086

$$$$
32
                    3D
 Structure written by MMmdl.
163171  0  0  1  0            999 V2000
  -30.7641  -14.3495   20.6891 C   0  0  0  0  0  0
  -30.4317  -12.2826   19.3978 C   0  0  0  0  0  0
  -29.5005  -12.5372   18.1984 C   0  0  0  0  0  0
  -28.0222  -12.3825   18.6111 C   0  0  0  0  0  0
  -27.6751  -13.1970   19.8848 C   0  0  2  0  0  0
  -28.7136  -12.9322   21.0009 C   0  0  0  0  0  0
  -25.2603  -13.8135   20.5619 C   0  0  0  0  0  0
  -24.1840  -13.0414   20.9188 C   0  0  0  0  0  0
  -24.6381  -11.6874   20.8652 C   0  0  0  0  0  0
  -23.9045  -10.4260   21.0322 C   0  0  0  0  0  0
  -24.3580   -9.4216   21.9161 C   0  0  0  0  0  0
  -23.6249   -8.2264   22.0762 C   0  0  0  0  0  0
  -22.4262   -8.0257   21.3537 C   0  0  0  0  0  0
  -21.9863   -9.0249   20.4643 C   0  0  0  0  0  0
  -22.7179  -10.2123   20.3035 C   0  0  0  0  0  0
  -21.6881   -6.0676   22.5249 C   0  0  0  0  0  0
  -21.4011   -6.5611   23.8160 C   0  0  0  0  0  0
  -21.3667   -5.6804   24.9170 C   0  0  0  0  0  0
  -21.6055   -4.3060   24.7247 C   0  0  0  0  0  0
  -21.8804   -3.8103   23.4386 C   0  0  0  0  0  0
  -21.9195   -4.6904   22.3411 C   0  0  0  0  0  0
  -22.7851  -13.5184   21.1906 C   0  0  0  0  0  0
  -22.1651   -4.2052   21.1012 F   0  0  0  0  0  0
  -21.5655   -3.4549   25.7776 F   0  0  0  0  0  0
  -30.0707  -13.2032   20.4808 N   0  0  0  0  0  0
  -26.3082  -12.9283   20.3393 N   0  0  0  0  0  0
  -25.9328  -11.6456   20.5747 N   0  0  0  0  0  0
  -22.0452  -12.8211   22.0456 N   0  0  0  0  0  0
  -25.4280  -15.1823   20.3932 N   0  0  0  0  0  0
  -31.7591  -14.6846   20.0400 O   0  0  0  0  0  0
  -21.6677   -6.8818   21.4184 O   0  0  0  0  0  0
  -22.3509  -14.5526   20.6788 O   0  0  0  0  0  0
  -24.6151  -31.8713   23.2156 C   0  0  0  0  0  0
  -25.9027  -32.4852   23.8454 C   0  0  1  0  0  0
  -27.2232  -27.4546   20.0750 C   0  0  0  0  0  0
  -25.5880  -33.8650   24.2375 N   0  0  0  0  0  0
  -23.4030  -30.4975   21.5528 C   0  0  2  0  0  0
  -24.8493  -28.9817   20.1030 C   0  0  0  0  0  0
  -22.7462  -29.4640   22.4963 C   0  0  0  0  0  0
  -18.0312  -28.1340   22.8551 C   0  0  0  0  0  0
  -24.1481  -36.7346   23.2623 C   0  0  0  0  0  0
  -25.9364  -30.8391   21.3707 C   0  0  0  0  0  0
  -26.0081  -29.4746   20.7179 C   0  0  0  0  0  0
  -27.1955  -28.7144   20.7141 C   0  0  0  0  0  0
  -26.0628  -27.0037   19.4071 C   0  0  0  0  0  0
  -24.8704  -27.7443   19.4429 C   0  0  0  0  0  0
  -23.6090  -29.8424   20.1632 C   0  0  0  0  0  0
  -25.4097  -36.3145   24.0339 C   0  0  1  0  0  0
  -20.5894  -28.3691   23.1340 C   0  0  2  0  0  0
  -20.6793  -26.9442   22.5401 C   0  0  0  0  0  0
  -19.5761  -26.6482   21.5171 C   0  0  0  0  0  0
  -18.2043  -26.7827   22.1820 C   0  0  0  0  0  0
  -19.1557  -28.8882   23.2902 C   0  0  0  0  0  0
  -18.9442  -30.1521   23.8827 C   0  0  0  0  0  0
  -17.6400  -30.6594   24.0476 C   0  0  0  0  0  0
  -25.9015  -34.9486   23.5148 C   0  0  0  0  0  0
  -16.5316  -29.9017   23.6305 C   0  0  0  0  0  0
  -16.7294  -28.6420   23.0388 C   0  0  0  0  0  0
  -26.4442  -31.6621   25.0780 C   0  0  0  0  0  0
  -25.3749  -31.3704   26.1574 C   0  0  0  0  0  0
  -27.0273  -30.3064   24.6148 C   0  0  0  0  0  0
  -27.6027  -32.4338   25.7509 C   0  0  0  0  0  0
  -27.5578  -37.1839   24.8452 C   0  0  0  0  0  0
  -21.4188  -29.3047   22.3771 N   0  0  0  0  0  0
  -26.4297  -37.3829   23.9386 N   0  0  0  0  0  0
  -24.6695  -31.0841   22.1030 N   0  0  0  0  0  0
  -23.4279  -28.8076   23.2887 O   0  0  0  0  0  0
  -28.3666  -26.6877   20.1532 O   0  0  0  0  0  0
  -26.5564  -34.8905   22.4697 O   0  0  0  0  0  0
  -23.5353  -32.1388   23.7568 O   0  0  0  0  0  0
  -28.9048  -16.9620   22.5389 C   0  0  0  0  0  0
  -29.5493  -17.0369   20.3653 C   0  0  0  0  0  0
  -29.6542  -16.3244   21.5244 C   0  0  0  0  0  0
  -28.3181  -18.0638   21.9706 C   0  0  0  0  0  0
  -27.4404  -19.0144   22.6800 C   0  0  0  0  0  0
  -27.1465  -21.4457   21.9903 C   0  0  0  0  0  0
  -27.2969  -24.7117   21.2377 C   0  0  0  0  0  0
  -28.3794  -19.0566   19.5608 C   0  0  0  0  0  0
  -26.5646  -20.0302   21.9519 C   0  0  0  0  0  0
  -26.1261  -22.5751   22.0528 C   0  0  0  0  0  0
  -28.2064  -25.2519   20.1028 C   0  0  0  0  0  0
  -26.2874  -23.5846   20.8908 C   0  0  1  0  0  0
  -28.7150  -18.1117   20.6164 N   0  0  0  0  0  0
  -30.3070  -15.0871   21.7046 N   0  0  0  0  0  0
  -24.9820  -24.2102   20.5824 N   0  3  0  0  0  0
  -27.3395  -18.9500   23.9108 O   0  0  0  0  0  0
  -28.3540  -21.6885   21.8957 O   0  0  0  0  0  0
  -27.3398  -25.2290   22.3570 O   0  0  0  0  0  0
  -31.4739  -12.3917   19.0883 H   0  0  0  0  0  0
  -30.3287  -11.2567   19.7530 H   0  0  0  0  0  0
  -29.7440  -11.8558   17.3784 H   0  0  0  0  0  0
  -29.6681  -13.5454   17.8147 H   0  0  0  0  0  0
  -27.8419  -11.3240   18.7926 H   0  0  0  0  0  0
  -27.3641  -12.6728   17.7905 H   0  0  0  0  0  0
  -27.7345  -14.2501   19.6105 H   0  0  0  0  0  0
  -28.6665  -11.8954   21.3383 H   0  0  0  0  0  0
  -28.4546  -13.5219   21.8807 H   0  0  0  0  0  0
  -25.2739   -9.5755   22.4697 H   0  0  0  0  0  0
  -23.9928   -7.4716   22.7569 H   0  0  0  0  0  0
  -21.0756   -8.8784   19.9021 H   0  0  0  0  0  0
  -22.3608  -10.9647   19.6152 H   0  0  0  0  0  0
  -21.1962   -7.6112   23.9607 H   0  0  0  0  0  0
  -21.1528   -6.0573   25.9061 H   0  0  0  0  0  0
  -22.0566   -2.7543   23.2951 H   0  0  0  0  0  0
  -22.3956  -11.9882   22.4988 H   0  0  0  0  0  0
  -21.1077  -13.1341   22.2550 H   0  0  0  0  0  0
  -24.6495  -15.8303   20.4194 H   0  0  0  0  0  0
  -26.2888  -15.6079   20.0667 H   0  0  0  0  0  0
  -26.7108  -32.5540   23.1231 H   0  0  0  0  0  0
  -25.0113  -33.9847   25.0583 H   0  0  0  0  0  0
  -22.6855  -31.3090   21.4244 H   0  0  0  0  0  0
  -23.3735  -35.9695   23.3313 H   0  0  0  0  0  0
  -24.3601  -36.8931   22.2038 H   0  0  0  0  0  0
  -23.7247  -37.6554   23.6629 H   0  0  0  0  0  0
  -26.0492  -31.6023   20.5962 H   0  0  0  0  0  0
  -26.8268  -30.8979   21.9874 H   0  0  0  0  0  0
  -28.0816  -29.0757   21.2164 H   0  0  0  0  0  0
  -26.0668  -26.0872   18.8334 H   0  0  0  0  0  0
  -23.9868  -27.3794   18.9344 H   0  0  0  0  0  0
  -23.7101  -30.6156   19.4020 H   0  0  0  0  0  0
  -22.7352  -29.2543   19.8755 H   0  0  0  0  0  0
  -25.1300  -36.2017   25.0852 H   0  0  0  0  0  0
  -21.0014  -28.3162   24.1441 H   0  0  0  0  0  0
  -20.5712  -26.2318   23.3597 H   0  0  0  0  0  0
  -21.6656  -26.7432   22.1207 H   0  0  0  0  0  0
  -19.6918  -25.6452   21.1038 H   0  0  0  0  0  0
  -19.6536  -27.3478   20.6807 H   0  0  0  0  0  0
  -17.4134  -26.6140   21.4477 H   0  0  0  0  0  0
  -18.0922  -26.0086   22.9424 H   0  0  0  0  0  0
  -19.7877  -30.7439   24.2126 H   0  0  0  0  0  0
  -17.4904  -31.6343   24.4940 H   0  0  0  0  0  0
  -15.5307  -30.2896   23.7607 H   0  0  0  0  0  0
  -15.8715  -28.0708   22.7118 H   0  0  0  0  0  0
  -24.5878  -30.7102   25.7909 H   0  0  0  0  0  0
  -24.9023  -32.2882   26.5101 H   0  0  0  0  0  0
  -25.8161  -30.8809   27.0275 H   0  0  0  0  0  0
  -26.2848  -29.6826   24.1174 H   0  0  0  0  0  0
  -27.3999  -29.7284   25.4604 H   0  0  0  0  0  0
  -27.8688  -30.4369   23.9339 H   0  0  0  0  0  0
  -27.2635  -33.3590   26.2165 H   0  0  0  0  0  0
  -28.3760  -32.6976   25.0290 H   0  0  0  0  0  0
  -28.0778  -31.8443   26.5354 H   0  0  0  0  0  0
  -28.2632  -38.0096   24.7504 H   0  0  0  0  0  0
  -28.1046  -36.2658   24.6304 H   0  0  0  0  0  0
  -27.2314  -37.1515   25.8852 H   0  0  0  0  0  0
  -20.9353  -29.8889   21.7099 H   0  0  0  0  0  0
  -26.0185  -38.2902   24.1391 H   0  0  0  0  0  0
  -28.7873  -16.6507   23.5703 H   0  0  0  0  0  0
  -29.9576  -16.8649   19.3777 H   0  0  0  0  0  0
  -28.9798  -18.8503   18.6735 H   0  0  0  0  0  0
  -28.5917  -20.0797   19.8609 H   0  0  0  0  0  0
  -27.3346  -18.9390   19.2730 H   0  0  0  0  0  0
  -25.5978  -20.0480   22.4555 H   0  0  0  0  0  0
  -26.3522  -19.7271   20.9330 H   0  0  0  0  0  0
  -26.2023  -23.0619   23.0260 H   0  0  0  0  0  0
  -25.1352  -22.1249   22.0166 H   0  0  0  0  0  0
  -27.8524  -24.9233   19.1257 H   0  0  0  0  0  0
  -29.1919  -24.8032   20.2360 H   0  0  0  0  0  0
  -26.6246  -23.0651   19.9924 H   0  0  0  0  0  0
  -29.8807  -14.5211   22.4221 H   0  0  0  0  0  0
  -24.7467  -24.8926   21.2813 H   0  0  0  0  0  0
  -24.2598  -23.5105   20.5611 H   0  0  0  0  0  0
  -24.9787  -24.6585   19.6828 H   0  0  0  0  0  0
  1 25  1  0  0  0
  1 30  2  0  0  0
  1 84  1  0  0  0
  2  3  1  0  0  0
  2 25  1  0  0  0
  2 89  1  0  0  0
  2 90  1  0  0  0
  3  4  1  0  0  0
  3 91  1  0  0  0
  3 92  1  0  0  0
  4  5  1  0  0  0
  4 93  1  0  0  0
  4 94  1  0  0  0
  5  6  1  0  0  0
  5 26  1  0  0  0
  5 95  1  0  0  0
  6 25  1  0  0  0
  6 96  1  0  0  0
  6 97  1  0  0  0
  7  8  2  0  0  0
  7 26  1  0  0  0
  7 29  1  0  0  0
  8  9  1  0  0  0
  8 22  1  0  0  0
  9 10  1  0  0  0
  9 27  2  0  0  0
 10 11  2  0  0  0
 10 15  1  0  0  0
 11 12  1  0  0  0
 11 98  1  0  0  0
 12 13  2  0  0  0
 12 99  1  0  0  0
 13 14  1  0  0  0
 13 31  1  0  0  0
 14 15  2  0  0  0
 14100  1  0  0  0
 15101  1  0  0  0
 16 17  2  0  0  0
 16 21  1  0  0  0
 16 31  1  0  0  0
 17 18  1  0  0  0
 17102  1  0  0  0
 18 19  2  0  0  0
 18103  1  0  0  0
 19 20  1  0  0  0
 19 24  1  0  0  0
 20 21  2  0  0  0
 20104  1  0  0  0
 21 23  1  0  0  0
 22 28  1  0  0  0
 22 32  2  0  0  0
 26 27  1  0  0  0
 28105  1  0  0  0
 28106  1  0  0  0
 29107  1  0  0  0
 29108  1  0  0  0
 33 34  1  0  0  0
 33 66  1  0  0  0
 33 70  2  0  0  0
 34 36  1  0  0  0
 34 59  1  0  0  0
 34109  1  0  0  0
 35 44  2  0  0  0
 35 45  1  0  0  0
 35 68  1  0  0  0
 36 56  1  0  0  0
 36110  1  0  0  0
 37 39  1  0  0  0
 37 47  1  0  0  0
 37 66  1  0  0  0
 37111  1  0  0  0
 38 43  2  0  0  0
 38 46  1  0  0  0
 38 47  1  0  0  0
 39 64  1  0  0  0
 39 67  2  0  0  0
 40 52  1  0  0  0
 40 53  2  0  0  0
 40 58  1  0  0  0
 41112  1  0  0  0
 41113  1  0  0  0
 41114  1  0  0  0
 41 48  1  0  0  0
 42 43  1  0  0  0
 42 66  1  0  0  0
 42115  1  0  0  0
 42116  1  0  0  0
 43 44  1  0  0  0
 44117  1  0  0  0
 45 46  2  0  0  0
 45118  1  0  0  0
 46119  1  0  0  0
 47120  1  0  0  0
 47121  1  0  0  0
 48 56  1  0  0  0
 48 65  1  0  0  0
 48122  1  0  0  0
 49 50  1  0  0  0
 49 53  1  0  0  0
 49 64  1  0  0  0
 49123  1  0  0  0
 50 51  1  0  0  0
 50124  1  0  0  0
 50125  1  0  0  0
 51 52  1  0  0  0
 51126  1  0  0  0
 51127  1  0  0  0
 52128  1  0  0  0
 52129  1  0  0  0
 53 54  1  0  0  0
 54 55  2  0  0  0
 54130  1  0  0  0
 55 57  1  0  0  0
 55131  1  0  0  0
 56 69  2  0  0  0
 57 58  2  0  0  0
 57132  1  0  0  0
 58133  1  0  0  0
 59 60  1  0  0  0
 59 61  1  0  0  0
 59 62  1  0  0  0
 60134  1  0  0  0
 60135  1  0  0  0
 60136  1  0  0  0
 61137  1  0  0  0
 61138  1  0  0  0
 61139  1  0  0  0
 62140  1  0  0  0
 62141  1  0  0  0
 62142  1  0  0  0
 63 65  1  0  0  0
 63143  1  0  0  0
 63144  1  0  0  0
 63145  1  0  0  0
 64146  1  0  0  0
 65147  1  0  0  0
 68 81  1  0  0  0
 71 73  1  0  0  0
 71 74  2  0  0  0
 71148  1  0  0  0
 72 73  2  0  0  0
 72 83  1  0  0  0
 72149  1  0  0  0
 73 84  1  0  0  0
 74 75  1  0  0  0
 74 83  1  0  0  0
 75 79  1  0  0  0
 75 86  2  0  0  0
 76 79  1  0  0  0
 76 80  1  0  0  0
 76 87  2  0  0  0
 77 81  1  0  0  0
 77 82  1  0  0  0
 77 88  2  0  0  0
 78 83  1  0  0  0
 78150  1  0  0  0
 78151  1  0  0  0
 78152  1  0  0  0
 79153  1  0  0  0
 79154  1  0  0  0
 80 82  1  0  0  0
 80155  1  0  0  0
 80156  1  0  0  0
 81157  1  0  0  0
 81158  1  0  0  0
 82 85  1  0  0  0
 82159  1  0  0  0
 84160  1  0  0  0
 85161  1  0  0  0
 85162  1  0  0  0
 85163  1  0  0  0
M  CHG  1  85   1
M  ISO  4   1 100  68 101  81 101  84 100
M  END
> <chiral flag>
0

> <version>
0

> <s_m_source_file>
/data/baiqing/PycharmProjects/Reinvent-master-3.2/result/LINK_invent/BTK/process_docking_weight1_custom_product_contain_oxygen_bond_distance_aromatic_linkinvent_7_9_3/rearranged_h_0174.sdf

> <i_m_source_file_index>
33

> <r_mmod_Potential_Energy-OPLS-2005>
-377.473968505859

> <r_mmod_Stretch_Energy-OPLS-2005>
37.8136749267578

> <r_mmod_Bend_Energy-OPLS-2005>
117.748504638672

> <r_mmod_Torsional_Energy-OPLS-2005>
258.470855712891

> <r_mmod_Improper_Torsional_Energy-OPLS-2005>
7.65988254547119

> <r_mmod_Van_der_Waal_Energy-OPLS-2005>
138.388717651367

> <r_mmod_Electrostatic_Energy-OPLS-2005>
-367.792816162109

> <r_mmod_Solvation_Energy-OPLS-2005>
-582.013366699219

> <b_mmod_Minimization_Converged-OPLS-2005>
0

> <r_mmod_RMS_Derivative-OPLS-2005>
6.42584753036499

$$$$
33
                    3D
 Structure written by MMmdl.
164172  0  0  1  0            999 V2000
  -30.6902  -14.4704   20.4891 C   0  0  0  0  0  0
  -30.4191  -12.2817   19.4308 C   0  0  0  0  0  0
  -29.4970  -12.4737   18.2079 C   0  0  0  0  0  0
  -28.0161  -12.3413   18.6200 C   0  0  0  0  0  0
  -27.6567  -13.1987   19.8634 C   0  0  2  0  0  0
  -28.6989  -13.0003   20.9864 C   0  0  0  0  0  0
  -25.2603  -13.8142   20.5685 C   0  0  0  0  0  0
  -24.1844  -13.0433   20.9172 C   0  0  0  0  0  0
  -24.6383  -11.6897   20.8728 C   0  0  0  0  0  0
  -23.9042  -10.4290   21.0408 C   0  0  0  0  0  0
  -24.3595   -9.4210   21.9188 C   0  0  0  0  0  0
  -23.6276   -8.2242   22.0757 C   0  0  0  0  0  0
  -22.4259   -8.0274   21.3546 C   0  0  0  0  0  0
  -21.9893   -9.0253   20.4651 C   0  0  0  0  0  0
  -22.7213  -10.2139   20.3060 C   0  0  0  0  0  0
  -21.6855   -6.0727   22.5280 C   0  0  0  0  0  0
  -21.4010   -6.5633   23.8211 C   0  0  0  0  0  0
  -21.3661   -5.6789   24.9175 C   0  0  0  0  0  0
  -21.6043   -4.3051   24.7232 C   0  0  0  0  0  0
  -21.8818   -3.8140   23.4353 C   0  0  0  0  0  0
  -21.9194   -4.6954   22.3406 C   0  0  0  0  0  0
  -22.7873  -13.5251   21.1840 C   0  0  0  0  0  0
  -22.1665   -4.2136   21.0988 F   0  0  0  0  0  0
  -21.5630   -3.4535   25.7746 F   0  0  0  0  0  0
  -30.0267  -13.2871   20.4274 N   0  0  0  0  0  0
  -26.3008  -12.9286   20.3323 N   0  0  0  0  0  0
  -25.9299  -11.6455   20.5744 N   0  0  0  0  0  0
  -22.0505  -12.8249   22.0394 N   0  0  0  0  0  0
  -25.4369  -15.1855   20.4137 N   0  0  0  0  0  0
  -31.8797  -14.5960   20.1983 O   0  0  0  0  0  0
  -21.6632   -6.8867   21.4240 O   0  0  0  0  0  0
  -22.3569  -14.5567   20.6701 O   0  0  0  0  0  0
  -24.6125  -31.8701   23.2116 C   0  0  0  0  0  0
  -25.9030  -32.4836   23.8401 C   0  0  1  0  0  0
  -27.2313  -27.4484   20.1058 C   0  0  0  0  0  0
  -25.5896  -33.8631   24.2339 N   0  0  0  0  0  0
  -23.3988  -30.4921   21.5520 C   0  0  2  0  0  0
  -24.8449  -28.9548   20.1202 C   0  0  0  0  0  0
  -22.7395  -29.4665   22.5016 C   0  0  0  0  0  0
  -18.0269  -28.1380   22.8495 C   0  0  0  0  0  0
  -24.1485  -36.7324   23.2638 C   0  0  0  0  0  0
  -25.9239  -30.8396   21.3624 C   0  0  0  0  0  0
  -26.0016  -29.4720   20.7176 C   0  0  0  0  0  0
  -27.1997  -28.7259   20.7060 C   0  0  0  0  0  0
  -26.0665  -26.9445   19.4930 C   0  0  0  0  0  0
  -24.8709  -27.6892   19.5058 C   0  0  0  0  0  0
  -23.6062  -29.8205   20.1674 C   0  0  0  0  0  0
  -25.4105  -36.3124   24.0340 C   0  0  1  0  0  0
  -20.5853  -28.3664   23.1334 C   0  0  2  0  0  0
  -20.6762  -26.9405   22.5424 C   0  0  0  0  0  0
  -19.5741  -26.6390   21.5221 C   0  0  0  0  0  0
  -18.1915  -26.7923   22.1627 C   0  0  0  0  0  0
  -19.1516  -28.8836   23.2911 C   0  0  0  0  0  0
  -18.9446  -30.1441   23.8922 C   0  0  0  0  0  0
  -17.6450  -30.6586   24.0564 C   0  0  0  0  0  0
  -25.9032  -34.9487   23.5138 C   0  0  0  0  0  0
  -16.5341  -29.9089   23.6322 C   0  0  0  0  0  0
  -16.7257  -28.6504   23.0346 C   0  0  0  0  0  0
  -26.4467  -31.6600   25.0715 C   0  0  0  0  0  0
  -25.3737  -31.3698   26.1467 C   0  0  0  0  0  0
  -27.0293  -30.3044   24.6068 C   0  0  0  0  0  0
  -27.6054  -32.4311   25.7468 C   0  0  0  0  0  0
  -27.5579  -37.1811   24.8465 C   0  0  0  0  0  0
  -21.4127  -29.3035   22.3744 N   0  0  0  0  0  0
  -26.4298  -37.3801   23.9407 N   0  0  0  0  0  0
  -24.6630  -31.0816   22.1011 N   0  0  0  0  0  0
  -23.4174  -28.8223   23.3059 O   0  0  0  0  0  0
  -28.4115  -26.7425   20.0524 O   0  0  0  0  0  0
  -26.5591  -34.8936   22.4696 O   0  0  0  0  0  0
  -23.5324  -32.1450   23.7528 O   0  0  0  0  0  0
  -28.4612  -17.4160   20.8220 C   0  0  0  0  0  0
  -29.1655  -16.0114   22.6916 C   0  0  0  0  0  0
  -27.7008  -18.2234   21.6935 C   0  0  0  0  0  0
  -29.1815  -16.3019   21.3067 C   0  0  0  0  0  0
  -28.4076  -16.8161   23.5691 C   0  0  0  0  0  0
  -27.6722  -17.9127   23.0703 C   0  0  0  0  0  0
  -28.0806  -23.0387   21.2047 C   0  0  0  0  0  0
  -27.2579  -21.8238   20.6932 C   0  0  0  0  0  0
  -28.2734  -26.0629   22.4063 C   0  0  0  0  0  0
  -30.1492  -25.4465   20.8343 C   0  0  0  0  0  0
  -26.9015  -19.3990   21.1451 C   0  0  0  0  0  0
  -27.8287  -24.3844   20.4887 C   0  0  0  0  0  0
  -28.6247  -25.6425   20.9599 C   0  0  0  0  0  0
  -28.3785  -16.5334   24.9360 N   0  0  0  0  0  0
  -29.9124  -15.5549   20.3456 N   0  0  0  0  0  0
  -27.5541  -20.6903   21.3465 N   0  0  0  0  0  0
  -28.8801  -22.9176   22.1421 O   0  0  0  0  0  0
  -26.4162  -21.9069   19.7932 O   0  0  0  0  0  0
  -26.9345  -18.6663   23.9226 F   0  0  0  0  0  0
  -31.4664  -12.3688   19.1344 H   0  0  0  0  0  0
  -30.3062  -11.2784   19.8443 H   0  0  0  0  0  0
  -29.7359  -11.7384   17.4381 H   0  0  0  0  0  0
  -29.6692  -13.4529   17.7597 H   0  0  0  0  0  0
  -27.8321  -11.2878   18.8353 H   0  0  0  0  0  0
  -27.3660  -12.5954   17.7826 H   0  0  0  0  0  0
  -27.6891  -14.2403   19.5454 H   0  0  0  0  0  0
  -28.6711  -11.9750   21.3570 H   0  0  0  0  0  0
  -28.4671  -13.6269   21.8441 H   0  0  0  0  0  0
  -25.2742   -9.5687   22.4756 H   0  0  0  0  0  0
  -23.9984   -7.4637   22.7477 H   0  0  0  0  0  0
  -21.0822   -8.8778   19.8960 H   0  0  0  0  0  0
  -22.3675  -10.9678   19.6167 H   0  0  0  0  0  0
  -21.1996   -7.6140   23.9711 H   0  0  0  0  0  0
  -21.1483   -6.0522   25.9080 H   0  0  0  0  0  0
  -22.0593   -2.7598   23.2863 H   0  0  0  0  0  0
  -22.4103  -11.9902   22.4778 H   0  0  0  0  0  0
  -21.1134  -13.1313   22.2594 H   0  0  0  0  0  0
  -24.6803  -15.8469   20.5428 H   0  0  0  0  0  0
  -26.3105  -15.6217   20.1484 H   0  0  0  0  0  0
  -26.7094  -32.5565   23.1168 H   0  0  0  0  0  0
  -25.0046  -33.9792   25.0482 H   0  0  0  0  0  0
  -22.6868  -31.3085   21.4134 H   0  0  0  0  0  0
  -23.3746  -35.9661   23.3325 H   0  0  0  0  0  0
  -24.3573  -36.8914   22.2048 H   0  0  0  0  0  0
  -23.7247  -37.6540   23.6635 H   0  0  0  0  0  0
  -26.0277  -31.6026   20.5900 H   0  0  0  0  0  0
  -26.8155  -30.9008   21.9743 H   0  0  0  0  0  0
  -28.0975  -29.1242   21.1578 H   0  0  0  0  0  0
  -26.0861  -25.9879   18.9912 H   0  0  0  0  0  0
  -23.9849  -27.2900   19.0315 H   0  0  0  0  0  0
  -23.7144  -30.5952   19.4071 H   0  0  0  0  0  0
  -22.7303  -29.2388   19.8731 H   0  0  0  0  0  0
  -25.1279  -36.1992   25.0834 H   0  0  0  0  0  0
  -20.9939  -28.3238   24.1458 H   0  0  0  0  0  0
  -20.5679  -26.2277   23.3613 H   0  0  0  0  0  0
  -21.6631  -26.7462   22.1207 H   0  0  0  0  0  0
  -19.6910  -25.6310   21.1230 H   0  0  0  0  0  0
  -19.6678  -27.3223   20.6765 H   0  0  0  0  0  0
  -17.4187  -26.6684   21.4023 H   0  0  0  0  0  0
  -18.0308  -26.0064   22.9019 H   0  0  0  0  0  0
  -19.7924  -30.7243   24.2309 H   0  0  0  0  0  0
  -17.5007  -31.6268   24.5166 H   0  0  0  0  0  0
  -15.5341  -30.2998   23.7634 H   0  0  0  0  0  0
  -15.8658  -28.0828   22.7051 H   0  0  0  0  0  0
  -24.5904  -30.7058   25.7796 H   0  0  0  0  0  0
  -24.8935  -32.2852   26.4936 H   0  0  0  0  0  0
  -25.8090  -30.8844   27.0209 H   0  0  0  0  0  0
  -26.2829  -29.6811   24.1128 H   0  0  0  0  0  0
  -27.4085  -29.7271   25.4511 H   0  0  0  0  0  0
  -27.8654  -30.4377   23.9198 H   0  0  0  0  0  0
  -27.2676  -33.3591   26.2093 H   0  0  0  0  0  0
  -28.3830  -32.6901   25.0269 H   0  0  0  0  0  0
  -28.0763  -31.8406   26.5336 H   0  0  0  0  0  0
  -28.2610  -38.0093   24.7493 H   0  0  0  0  0  0
  -28.1058  -36.2622   24.6312 H   0  0  0  0  0  0
  -27.2292  -37.1494   25.8867 H   0  0  0  0  0  0
  -20.9302  -29.8742   21.6947 H   0  0  0  0  0  0
  -26.0198  -38.2889   24.1394 H   0  0  0  0  0  0
  -28.4819  -17.6537   19.7669 H   0  0  0  0  0  0
  -29.7327  -15.1807   23.0855 H   0  0  0  0  0  0
  -28.5837  -25.3144   23.1348 H   0  0  0  0  0  0
  -27.1999  -26.2094   22.5344 H   0  0  0  0  0  0
  -28.7685  -26.9951   22.6766 H   0  0  0  0  0  0
  -30.5391  -24.7142   21.5399 H   0  0  0  0  0  0
  -30.6795  -26.3794   21.0306 H   0  0  0  0  0  0
  -30.4263  -25.1208   19.8317 H   0  0  0  0  0  0
  -25.9215  -19.4182   21.6253 H   0  0  0  0  0  0
  -26.7123  -19.2391   20.0817 H   0  0  0  0  0  0
  -26.7611  -24.5775   20.5807 H   0  0  0  0  0  0
  -28.0132  -24.2214   19.4273 H   0  0  0  0  0  0
  -28.5674  -15.5837   25.2348 H   0  0  0  0  0  0
  -27.6288  -16.9717   25.4624 H   0  0  0  0  0  0
  -30.2545  -16.1404   19.5980 H   0  0  0  0  0  0
  -28.2537  -20.7757   22.0729 H   0  0  0  0  0  0
  1 25  1  0  0  0
  1 30  2  0  0  0
  1 85  1  0  0  0
  2  3  1  0  0  0
  2 25  1  0  0  0
  2 90  1  0  0  0
  2 91  1  0  0  0
  3  4  1  0  0  0
  3 92  1  0  0  0
  3 93  1  0  0  0
  4  5  1  0  0  0
  4 94  1  0  0  0
  4 95  1  0  0  0
  5  6  1  0  0  0
  5 26  1  0  0  0
  5 96  1  0  0  0
  6 25  1  0  0  0
  6 97  1  0  0  0
  6 98  1  0  0  0
  7  8  2  0  0  0
  7 26  1  0  0  0
  7 29  1  0  0  0
  8  9  1  0  0  0
  8 22  1  0  0  0
  9 10  1  0  0  0
  9 27  2  0  0  0
 10 11  2  0  0  0
 10 15  1  0  0  0
 11 12  1  0  0  0
 11 99  1  0  0  0
 12 13  2  0  0  0
 12100  1  0  0  0
 13 14  1  0  0  0
 13 31  1  0  0  0
 14 15  2  0  0  0
 14101  1  0  0  0
 15102  1  0  0  0
 16 17  2  0  0  0
 16 21  1  0  0  0
 16 31  1  0  0  0
 17 18  1  0  0  0
 17103  1  0  0  0
 18 19  2  0  0  0
 18104  1  0  0  0
 19 20  1  0  0  0
 19 24  1  0  0  0
 20 21  2  0  0  0
 20105  1  0  0  0
 21 23  1  0  0  0
 22 28  1  0  0  0
 22 32  2  0  0  0
 26 27  1  0  0  0
 28106  1  0  0  0
 28107  1  0  0  0
 29108  1  0  0  0
 29109  1  0  0  0
 33 34  1  0  0  0
 33 66  1  0  0  0
 33 70  2  0  0  0
 34 36  1  0  0  0
 34 59  1  0  0  0
 34110  1  0  0  0
 35 44  2  0  0  0
 35 45  1  0  0  0
 35 68  1  0  0  0
 36 56  1  0  0  0
 36111  1  0  0  0
 37 39  1  0  0  0
 37 47  1  0  0  0
 37 66  1  0  0  0
 37112  1  0  0  0
 38 43  2  0  0  0
 38 46  1  0  0  0
 38 47  1  0  0  0
 39 64  1  0  0  0
 39 67  2  0  0  0
 40 52  1  0  0  0
 40 53  2  0  0  0
 40 58  1  0  0  0
 41113  1  0  0  0
 41114  1  0  0  0
 41115  1  0  0  0
 41 48  1  0  0  0
 42 43  1  0  0  0
 42 66  1  0  0  0
 42116  1  0  0  0
 42117  1  0  0  0
 43 44  1  0  0  0
 44118  1  0  0  0
 45 46  2  0  0  0
 45119  1  0  0  0
 46120  1  0  0  0
 47121  1  0  0  0
 47122  1  0  0  0
 48 56  1  0  0  0
 48 65  1  0  0  0
 48123  1  0  0  0
 49 50  1  0  0  0
 49 53  1  0  0  0
 49 64  1  0  0  0
 49124  1  0  0  0
 50 51  1  0  0  0
 50125  1  0  0  0
 50126  1  0  0  0
 51 52  1  0  0  0
 51127  1  0  0  0
 51128  1  0  0  0
 52129  1  0  0  0
 52130  1  0  0  0
 53 54  1  0  0  0
 54 55  2  0  0  0
 54131  1  0  0  0
 55 57  1  0  0  0
 55132  1  0  0  0
 56 69  2  0  0  0
 57 58  2  0  0  0
 57133  1  0  0  0
 58134  1  0  0  0
 59 60  1  0  0  0
 59 61  1  0  0  0
 59 62  1  0  0  0
 60135  1  0  0  0
 60136  1  0  0  0
 60137  1  0  0  0
 61138  1  0  0  0
 61139  1  0  0  0
 61140  1  0  0  0
 62141  1  0  0  0
 62142  1  0  0  0
 62143  1  0  0  0
 63 65  1  0  0  0
 63144  1  0  0  0
 63145  1  0  0  0
 63146  1  0  0  0
 64147  1  0  0  0
 65148  1  0  0  0
 68 83  1  0  0  0
 71 73  2  0  0  0
 71 74  1  0  0  0
 71149  1  0  0  0
 72 74  2  0  0  0
 72 75  1  0  0  0
 72150  1  0  0  0
 73 76  1  0  0  0
 73 81  1  0  0  0
 74 85  1  0  0  0
 75 76  2  0  0  0
 75 84  1  0  0  0
 76 89  1  0  0  0
 77 78  1  0  0  0
 77 82  1  0  0  0
 77 87  2  0  0  0
 78 86  1  0  0  0
 78 88  2  0  0  0
 79151  1  0  0  0
 79152  1  0  0  0
 79153  1  0  0  0
 79 83  1  0  0  0
 80 83  1  0  0  0
 80154  1  0  0  0
 80155  1  0  0  0
 80156  1  0  0  0
 81 86  1  0  0  0
 81157  1  0  0  0
 81158  1  0  0  0
 82 83  1  0  0  0
 82159  1  0  0  0
 82160  1  0  0  0
 84161  1  0  0  0
 84162  1  0  0  0
 85163  1  0  0  0
 86164  1  0  0  0
M  ISO  4   1 100  68 101  83 101  85 100
M  END
> <chiral flag>
0

> <version>
0

> <s_m_source_file>
/data/baiqing/PycharmProjects/Reinvent-master-3.2/result/LINK_invent/BTK/process_docking_weight1_custom_product_contain_oxygen_bond_distance_aromatic_linkinvent_7_9_3/rearranged_h_0174.sdf

> <i_m_source_file_index>
34

> <r_mmod_Potential_Energy-OPLS-2005>
-14.2151041030884

> <r_mmod_Stretch_Energy-OPLS-2005>
35.9898376464844

> <r_mmod_Bend_Energy-OPLS-2005>
119.997772216797

> <r_mmod_Torsional_Energy-OPLS-2005>
269.358428955078

> <r_mmod_Improper_Torsional_Energy-OPLS-2005>
23.2745323181152

> <r_mmod_Van_der_Waal_Energy-OPLS-2005>
143.798461914062

> <r_mmod_Electrostatic_Energy-OPLS-2005>
-399.458190917969

> <r_mmod_Solvation_Energy-OPLS-2005>
-224.094299316406

> <b_mmod_Minimization_Converged-OPLS-2005>
0

> <r_mmod_RMS_Derivative-OPLS-2005>
1.34276926517487

$$$$
34
                    3D
 Structure written by MMmdl.
155163  0  0  1  0            999 V2000
  -30.5717  -14.8217   20.4433 C   0  0  0  0  0  0
  -30.4319  -12.4968   19.5078 C   0  0  0  0  0  0
  -29.5235  -12.5430   18.2572 C   0  0  0  0  0  0
  -28.0509  -12.3440   18.6604 C   0  0  0  0  0  0
  -27.6407  -13.2434   19.8572 C   0  0  2  0  0  0
  -28.6765  -13.2007   21.0018 C   0  0  0  0  0  0
  -25.2488  -13.8219   20.5657 C   0  0  0  0  0  0
  -24.1798  -13.0450   20.9159 C   0  0  0  0  0  0
  -24.6401  -11.6928   20.8689 C   0  0  0  0  0  0
  -23.9073  -10.4302   21.0353 C   0  0  0  0  0  0
  -24.3617   -9.4231   21.9138 C   0  0  0  0  0  0
  -23.6296   -8.2269   22.0724 C   0  0  0  0  0  0
  -22.4273   -8.0297   21.3510 C   0  0  0  0  0  0
  -21.9902   -9.0268   20.4604 C   0  0  0  0  0  0
  -22.7235  -10.2144   20.3016 C   0  0  0  0  0  0
  -21.6861   -6.0747   22.5281 C   0  0  0  0  0  0
  -21.4036   -6.5644   23.8216 C   0  0  0  0  0  0
  -21.3668   -5.6780   24.9171 C   0  0  0  0  0  0
  -21.6057   -4.3050   24.7217 C   0  0  0  0  0  0
  -21.8819   -3.8149   23.4335 C   0  0  0  0  0  0
  -21.9179   -4.6971   22.3393 C   0  0  0  0  0  0
  -22.7816  -13.5219   21.1855 C   0  0  0  0  0  0
  -22.1638   -4.2161   21.0962 F   0  0  0  0  0  0
  -21.5643   -3.4530   25.7731 F   0  0  0  0  0  0
  -29.9788  -13.5696   20.4331 N   0  0  0  0  0  0
  -26.2929  -12.9447   20.3270 N   0  0  0  0  0  0
  -25.9344  -11.6573   20.5731 N   0  0  0  0  0  0
  -22.0460  -12.8197   22.0406 N   0  0  0  0  0  0
  -25.4172  -15.1950   20.4082 N   0  0  0  0  0  0
  -31.7417  -14.9190   20.0553 O   0  0  0  0  0  0
  -21.6643   -6.8885   21.4224 O   0  0  0  0  0  0
  -22.3505  -14.5542   20.6735 O   0  0  0  0  0  0
  -24.6387  -31.8494   23.1954 C   0  0  0  0  0  0
  -25.9182  -32.4737   23.8315 C   0  0  1  0  0  0
  -27.2181  -27.1949   20.1321 C   0  0  0  0  0  0
  -25.5965  -33.8541   24.2240 N   0  0  0  0  0  0
  -23.4403  -30.4698   21.5387 C   0  0  2  0  0  0
  -24.8903  -28.9122   20.1067 C   0  0  0  0  0  0
  -22.7552  -29.4565   22.4883 C   0  0  0  0  0  0
  -18.0290  -28.1408   22.8491 C   0  0  0  0  0  0
  -24.1487  -36.7289   23.2639 C   0  0  0  0  0  0
  -25.9922  -30.7353   21.3939 C   0  0  0  0  0  0
  -26.0615  -29.3518   20.7368 C   0  0  0  0  0  0
  -27.2228  -28.5011   20.7493 C   0  0  0  0  0  0
  -26.0339  -26.8651   19.4342 C   0  0  0  0  0  0
  -24.8847  -27.6791   19.4431 C   0  0  0  0  0  0
  -23.6642  -29.8038   20.1561 C   0  0  0  0  0  0
  -25.4119  -36.3066   24.0313 C   0  0  1  0  0  0
  -20.5907  -28.3737   23.1259 C   0  0  2  0  0  0
  -20.6783  -26.9447   22.5404 C   0  0  0  0  0  0
  -19.5743  -26.6383   21.5232 C   0  0  0  0  0  0
  -18.1919  -26.7955   22.1629 C   0  0  0  0  0  0
  -19.1547  -28.8891   23.2865 C   0  0  0  0  0  0
  -18.9464  -30.1500   23.8869 C   0  0  0  0  0  0
  -17.6459  -30.6608   24.0565 C   0  0  0  0  0  0
  -25.9051  -34.9428   23.5072 C   0  0  0  0  0  0
  -16.5352  -29.9092   23.6352 C   0  0  0  0  0  0
  -16.7280  -28.6514   23.0368 C   0  0  0  0  0  0
  -26.4519  -31.6613   25.0752 C   0  0  0  0  0  0
  -25.3715  -31.3797   26.1459 C   0  0  0  0  0  0
  -27.0411  -30.3023   24.6328 C   0  0  0  0  0  0
  -27.6044  -32.4387   25.7550 C   0  0  0  0  0  0
  -27.5581  -37.1796   24.8454 C   0  0  0  0  0  0
  -21.4242  -29.3071   22.3647 N   0  0  0  0  0  0
  -26.4292  -37.3765   23.9401 N   0  0  0  0  0  0
  -24.7093  -31.0380   22.0984 N   0  0  0  0  0  0
  -23.4223  -28.8091   23.2996 O   0  0  0  0  0  0
  -28.2808  -26.2382   20.1910 O   0  0  0  0  0  0
  -26.5601  -34.8904   22.4626 O   0  0  0  0  0  0
  -23.5512  -32.1349   23.7190 O   0  0  0  0  0  0
  -28.6937  -19.5055   18.6295 C   0  0  0  0  0  0
  -29.0927  -17.1109   18.8014 C   0  0  0  0  0  0
  -28.6385  -18.2178   18.0642 C   0  0  0  0  0  0
  -29.1868  -19.7235   19.9337 C   0  0  0  0  0  0
  -29.5939  -17.2590   20.1074 C   0  0  0  0  0  0
  -28.0210  -24.8095   20.1618 C   0  0  0  0  0  0
  -28.8784  -23.7031   20.2529 C   0  0  0  0  0  0
  -28.4025  -22.2531   20.1003 C   0  0  0  0  0  0
  -26.5187  -18.1360   16.6946 C   0  0  0  0  0  0
  -28.0474  -18.0154   16.6795 C   0  0  0  0  0  0
  -29.6249  -18.5737   20.6352 N   0  0  0  0  0  0
  -29.2681  -21.1734   20.3477 N   0  0  0  0  0  0
  -29.8253  -15.9523   20.8060 N   0  0  0  0  0  0
  -27.2373  -22.0156   19.7701 O   0  0  0  0  0  0
  -30.1883  -23.9145   20.4500 O   0  0  0  0  0  0
  -31.4807  -12.6119   19.2259 H   0  0  0  0  0  0
  -30.3642  -11.5225   19.9958 H   0  0  0  0  0  0
  -29.8200  -11.7804   17.5357 H   0  0  0  0  0  0
  -29.6407  -13.5060   17.7569 H   0  0  0  0  0  0
  -27.9217  -11.2937   18.9259 H   0  0  0  0  0  0
  -27.3988  -12.5268   17.8066 H   0  0  0  0  0  0
  -27.6230  -14.2632   19.4704 H   0  0  0  0  0  0
  -28.7191  -12.2088   21.4534 H   0  0  0  0  0  0
  -28.3945  -13.8842   21.8050 H   0  0  0  0  0  0
  -25.2748   -9.5761   22.4713 H   0  0  0  0  0  0
  -24.0014   -7.4671   22.7452 H   0  0  0  0  0  0
  -21.0839   -8.8795   19.8890 H   0  0  0  0  0  0
  -22.3678  -10.9691   19.6142 H   0  0  0  0  0  0
  -21.2051   -7.6150   23.9755 H   0  0  0  0  0  0
  -21.1480   -6.0489   25.9083 H   0  0  0  0  0  0
  -22.0585   -2.7619   23.2833 H   0  0  0  0  0  0
  -22.4066  -11.9803   22.4700 H   0  0  0  0  0  0
  -21.1110  -13.1270   22.2701 H   0  0  0  0  0  0
  -24.6400  -15.8408   20.4995 H   0  0  0  0  0  0
  -26.2608  -15.6403   20.0713 H   0  0  0  0  0  0
  -26.7263  -32.5363   23.1058 H   0  0  0  0  0  0
  -25.0236  -33.9700   25.0469 H   0  0  0  0  0  0
  -22.7409  -31.2947   21.3875 H   0  0  0  0  0  0
  -23.3761  -35.9606   23.3269 H   0  0  0  0  0  0
  -24.3581  -36.8951   22.2061 H   0  0  0  0  0  0
  -23.7226  -37.6465   23.6701 H   0  0  0  0  0  0
  -26.1407  -31.4888   20.6197 H   0  0  0  0  0  0
  -26.8658  -30.7863   22.0318 H   0  0  0  0  0  0
  -28.1115  -28.8235   21.2729 H   0  0  0  0  0  0
  -25.9627  -25.9461   18.8738 H   0  0  0  0  0  0
  -23.9989  -27.3503   18.9162 H   0  0  0  0  0  0
  -23.7905  -30.5779   19.3988 H   0  0  0  0  0  0
  -22.7833  -29.2357   19.8525 H   0  0  0  0  0  0
  -25.1299  -36.1899   25.0801 H   0  0  0  0  0  0
  -20.9987  -28.3300   24.1389 H   0  0  0  0  0  0
  -20.5733  -26.2332   23.3607 H   0  0  0  0  0  0
  -21.6638  -26.7473   22.1173 H   0  0  0  0  0  0
  -19.6899  -25.6277   21.1296 H   0  0  0  0  0  0
  -19.6688  -27.3164   20.6737 H   0  0  0  0  0  0
  -17.4204  -26.6754   21.4012 H   0  0  0  0  0  0
  -18.0278  -26.0089   22.9007 H   0  0  0  0  0  0
  -19.7930  -30.7354   24.2202 H   0  0  0  0  0  0
  -17.4995  -31.6289   24.5169 H   0  0  0  0  0  0
  -15.5349  -30.2985   23.7691 H   0  0  0  0  0  0
  -15.8680  -28.0834   22.7089 H   0  0  0  0  0  0
  -24.5899  -30.7134   25.7797 H   0  0  0  0  0  0
  -24.8902  -32.2982   26.4827 H   0  0  0  0  0  0
  -25.7999  -30.9023   27.0284 H   0  0  0  0  0  0
  -26.3046  -29.6746   24.1309 H   0  0  0  0  0  0
  -27.4021  -29.7321   25.4902 H   0  0  0  0  0  0
  -27.8938  -30.4294   23.9656 H   0  0  0  0  0  0
  -27.2635  -33.3714   26.2054 H   0  0  0  0  0  0
  -28.3900  -32.6913   25.0419 H   0  0  0  0  0  0
  -28.0668  -31.8572   26.5535 H   0  0  0  0  0  0
  -28.2561  -38.0134   24.7551 H   0  0  0  0  0  0
  -28.1113  -36.2661   24.6218 H   0  0  0  0  0  0
  -27.2299  -37.1363   25.8857 H   0  0  0  0  0  0
  -20.9434  -29.8841   21.6888 H   0  0  0  0  0  0
  -26.0162  -38.2824   24.1429 H   0  0  0  0  0  0
  -28.3483  -20.3400   18.0361 H   0  0  0  0  0  0
  -29.0064  -16.1260   18.3615 H   0  0  0  0  0  0
  -26.9697  -24.5995   20.0459 H   0  0  0  0  0  0
  -26.0981  -17.9326   15.7092 H   0  0  0  0  0  0
  -26.2071  -19.1391   16.9883 H   0  0  0  0  0  0
  -26.0766  -17.4311   17.4006 H   0  0  0  0  0  0
  -28.3341  -17.0356   16.2942 H   0  0  0  0  0  0
  -28.4732  -18.7463   15.9918 H   0  0  0  0  0  0
  -30.1292  -21.4424   20.8005 H   0  0  0  0  0  0
  -29.0383  -15.6966   21.3802 H   0  0  0  0  0  0
  -30.3146  -24.8555   20.4771 H   0  0  0  0  0  0
  1 25  1  0  0  0
  1 30  2  0  0  0
  1 83  1  0  0  0
  2  3  1  0  0  0
  2 25  1  0  0  0
  2 86  1  0  0  0
  2 87  1  0  0  0
  3  4  1  0  0  0
  3 88  1  0  0  0
  3 89  1  0  0  0
  4  5  1  0  0  0
  4 90  1  0  0  0
  4 91  1  0  0  0
  5  6  1  0  0  0
  5 26  1  0  0  0
  5 92  1  0  0  0
  6 25  1  0  0  0
  6 93  1  0  0  0
  6 94  1  0  0  0
  7  8  2  0  0  0
  7 26  1  0  0  0
  7 29  1  0  0  0
  8  9  1  0  0  0
  8 22  1  0  0  0
  9 10  1  0  0  0
  9 27  2  0  0  0
 10 11  2  0  0  0
 10 15  1  0  0  0
 11 12  1  0  0  0
 11 95  1  0  0  0
 12 13  2  0  0  0
 12 96  1  0  0  0
 13 14  1  0  0  0
 13 31  1  0  0  0
 14 15  2  0  0  0
 14 97  1  0  0  0
 15 98  1  0  0  0
 16 17  2  0  0  0
 16 21  1  0  0  0
 16 31  1  0  0  0
 17 18  1  0  0  0
 17 99  1  0  0  0
 18 19  2  0  0  0
 18100  1  0  0  0
 19 20  1  0  0  0
 19 24  1  0  0  0
 20 21  2  0  0  0
 20101  1  0  0  0
 21 23  1  0  0  0
 22 28  1  0  0  0
 22 32  2  0  0  0
 26 27  1  0  0  0
 28102  1  0  0  0
 28103  1  0  0  0
 29104  1  0  0  0
 29105  1  0  0  0
 33 34  1  0  0  0
 33 66  1  0  0  0
 33 70  2  0  0  0
 34 36  1  0  0  0
 34 59  1  0  0  0
 34106  1  0  0  0
 35 44  2  0  0  0
 35 45  1  0  0  0
 35 68  1  0  0  0
 36 56  1  0  0  0
 36107  1  0  0  0
 37 39  1  0  0  0
 37 47  1  0  0  0
 37 66  1  0  0  0
 37108  1  0  0  0
 38 43  2  0  0  0
 38 46  1  0  0  0
 38 47  1  0  0  0
 39 64  1  0  0  0
 39 67  2  0  0  0
 40 52  1  0  0  0
 40 53  2  0  0  0
 40 58  1  0  0  0
 41109  1  0  0  0
 41110  1  0  0  0
 41111  1  0  0  0
 41 48  1  0  0  0
 42 43  1  0  0  0
 42 66  1  0  0  0
 42112  1  0  0  0
 42113  1  0  0  0
 43 44  1  0  0  0
 44114  1  0  0  0
 45 46  2  0  0  0
 45115  1  0  0  0
 46116  1  0  0  0
 47117  1  0  0  0
 47118  1  0  0  0
 48 56  1  0  0  0
 48 65  1  0  0  0
 48119  1  0  0  0
 49 50  1  0  0  0
 49 53  1  0  0  0
 49 64  1  0  0  0
 49120  1  0  0  0
 50 51  1  0  0  0
 50121  1  0  0  0
 50122  1  0  0  0
 51 52  1  0  0  0
 51123  1  0  0  0
 51124  1  0  0  0
 52125  1  0  0  0
 52126  1  0  0  0
 53 54  1  0  0  0
 54 55  2  0  0  0
 54127  1  0  0  0
 55 57  1  0  0  0
 55128  1  0  0  0
 56 69  2  0  0  0
 57 58  2  0  0  0
 57129  1  0  0  0
 58130  1  0  0  0
 59 60  1  0  0  0
 59 61  1  0  0  0
 59 62  1  0  0  0
 60131  1  0  0  0
 60132  1  0  0  0
 60133  1  0  0  0
 61134  1  0  0  0
 61135  1  0  0  0
 61136  1  0  0  0
 62137  1  0  0  0
 62138  1  0  0  0
 62139  1  0  0  0
 63 65  1  0  0  0
 63140  1  0  0  0
 63141  1  0  0  0
 63142  1  0  0  0
 64143  1  0  0  0
 65144  1  0  0  0
 68 76  1  0  0  0
 71 73  2  0  0  0
 71 74  1  0  0  0
 71145  1  0  0  0
 72 73  1  0  0  0
 72 75  2  0  0  0
 72146  1  0  0  0
 73 80  1  0  0  0
 74 81  2  0  0  0
 74 82  1  0  0  0
 75 81  1  0  0  0
 75 83  1  0  0  0
 76 77  2  0  0  0
 76147  1  0  0  0
 77 78  1  0  0  0
 77 85  1  0  0  0
 78 82  1  0  0  0
 78 84  2  0  0  0
 79 80  1  0  0  0
 79148  1  0  0  0
 79149  1  0  0  0
 79150  1  0  0  0
 80151  1  0  0  0
 80152  1  0  0  0
 82153  1  0  0  0
 83154  1  0  0  0
 85155  1  0  0  0
M  ISO  4   1 100  68 101  76 101  83 100
M  END
> <chiral flag>
0

> <version>
0

> <s_m_source_file>
/data/baiqing/PycharmProjects/Reinvent-master-3.2/result/LINK_invent/BTK/process_docking_weight1_custom_product_contain_oxygen_bond_distance_aromatic_linkinvent_7_9_3/rearranged_h_0174.sdf

> <i_m_source_file_index>
35

> <r_mmod_Potential_Energy-OPLS-2005>
68.3906784057617

> <r_mmod_Stretch_Energy-OPLS-2005>
166.008804321289

> <r_mmod_Bend_Energy-OPLS-2005>
182.406295776367

> <r_mmod_Torsional_Energy-OPLS-2005>
262.725158691406

> <r_mmod_Improper_Torsional_Energy-OPLS-2005>
6.10625314712524

> <r_mmod_Van_der_Waal_Energy-OPLS-2005>
139.188690185547

> <r_mmod_Electrostatic_Energy-OPLS-2005>
-579.848083496094

> <r_mmod_Solvation_Energy-OPLS-2005>
-236.431900024414

> <b_mmod_Minimization_Converged-OPLS-2005>
0

> <r_mmod_RMS_Derivative-OPLS-2005>
2.49323844909668

$$$$
35
                    3D
 Structure written by MMmdl.
156164  0  0  1  0            999 V2000
  -30.7011  -14.4208   20.6765 C   0  0  0  0  0  0
  -30.4403  -12.3158   19.3949 C   0  0  0  0  0  0
  -29.4934  -12.5290   18.1954 C   0  0  0  0  0  0
  -28.0166  -12.3781   18.6101 C   0  0  0  0  0  0
  -27.6718  -13.1950   19.8824 C   0  0  2  0  0  0
  -28.7086  -12.9117   20.9899 C   0  0  0  0  0  0
  -25.2648  -13.8137   20.5675 C   0  0  0  0  0  0
  -24.1876  -13.0436   20.9156 C   0  0  0  0  0  0
  -24.6406  -11.6891   20.8723 C   0  0  0  0  0  0
  -23.9059  -10.4288   21.0401 C   0  0  0  0  0  0
  -24.3609   -9.4204   21.9183 C   0  0  0  0  0  0
  -23.6285   -8.2241   22.0752 C   0  0  0  0  0  0
  -22.4271   -8.0278   21.3536 C   0  0  0  0  0  0
  -21.9900   -9.0253   20.4641 C   0  0  0  0  0  0
  -22.7228  -10.2135   20.3051 C   0  0  0  0  0  0
  -21.6853   -6.0735   22.5278 C   0  0  0  0  0  0
  -21.4011   -6.5643   23.8210 C   0  0  0  0  0  0
  -21.3659   -5.6793   24.9177 C   0  0  0  0  0  0
  -21.6050   -4.3055   24.7225 C   0  0  0  0  0  0
  -21.8820   -3.8147   23.4344 C   0  0  0  0  0  0
  -21.9192   -4.6963   22.3402 C   0  0  0  0  0  0
  -22.7900  -13.5248   21.1832 C   0  0  0  0  0  0
  -22.1664   -4.2148   21.0976 F   0  0  0  0  0  0
  -21.5626   -3.4538   25.7739 F   0  0  0  0  0  0
  -30.0536  -13.2415   20.4690 N   0  0  0  0  0  0
  -26.3076  -12.9284   20.3379 N   0  0  0  0  0  0
  -25.9331  -11.6455   20.5749 N   0  0  0  0  0  0
  -22.0539  -12.8237   22.0385 N   0  0  0  0  0  0
  -25.4402  -15.1852   20.4108 N   0  0  0  0  0  0
  -31.7137  -14.7646   20.0542 O   0  0  0  0  0  0
  -21.6637   -6.8873   21.4237 O   0  0  0  0  0  0
  -22.3582  -14.5558   20.6690 O   0  0  0  0  0  0
  -24.6126  -31.8686   23.2099 C   0  0  0  0  0  0
  -25.9030  -32.4819   23.8388 C   0  0  1  0  0  0
  -27.2431  -27.4498   20.1089 C   0  0  0  0  0  0
  -25.5901  -33.8614   24.2320 N   0  0  0  0  0  0
  -23.3995  -30.4907   21.5500 C   0  0  2  0  0  0
  -24.8480  -28.9533   20.1200 C   0  0  0  0  0  0
  -22.7395  -29.4665   22.5004 C   0  0  0  0  0  0
  -18.0266  -28.1372   22.8495 C   0  0  0  0  0  0
  -24.1495  -36.7313   23.2638 C   0  0  0  0  0  0
  -25.9235  -30.8431   21.3562 C   0  0  0  0  0  0
  -26.0050  -29.4749   20.7124 C   0  0  0  0  0  0
  -27.2060  -28.7344   20.6994 C   0  0  0  0  0  0
  -26.0741  -26.9407   19.5088 C   0  0  0  0  0  0
  -24.8760  -27.6839   19.5143 C   0  0  0  0  0  0
  -23.6076  -29.8176   20.1662 C   0  0  0  0  0  0
  -25.4115  -36.3103   24.0336 C   0  0  1  0  0  0
  -20.5857  -28.3648   23.1332 C   0  0  2  0  0  0
  -20.6761  -26.9391   22.5419 C   0  0  0  0  0  0
  -19.5738  -26.6387   21.5214 C   0  0  0  0  0  0
  -18.1917  -26.7924   22.1626 C   0  0  0  0  0  0
  -19.1516  -28.8827   23.2914 C   0  0  0  0  0  0
  -18.9449  -30.1437   23.8914 C   0  0  0  0  0  0
  -17.6449  -30.6579   24.0565 C   0  0  0  0  0  0
  -25.9032  -34.9471   23.5117 C   0  0  0  0  0  0
  -16.5339  -29.9081   23.6330 C   0  0  0  0  0  0
  -16.7260  -28.6500   23.0346 C   0  0  0  0  0  0
  -26.4483  -31.6589   25.0695 C   0  0  0  0  0  0
  -25.3768  -31.3666   26.1453 C   0  0  0  0  0  0
  -27.0326  -30.3042   24.6030 C   0  0  0  0  0  0
  -27.6054  -32.4319   25.7447 C   0  0  0  0  0  0
  -27.5589  -37.1805   24.8465 C   0  0  0  0  0  0
  -21.4123  -29.3028   22.3745 N   0  0  0  0  0  0
  -26.4302  -37.3789   23.9411 N   0  0  0  0  0  0
  -24.6638  -31.0813   22.0978 N   0  0  0  0  0  0
  -23.4177  -28.8216   23.3050 O   0  0  0  0  0  0
  -28.3955  -26.6985   20.0428 O   0  0  0  0  0  0
  -26.5590  -34.8920   22.4674 O   0  0  0  0  0  0
  -23.5333  -32.1421   23.7526 O   0  0  0  0  0  0
  -28.5778  -18.2119   22.2584 C   0  0  0  0  0  0
  -28.7409  -16.8219   22.4974 C   0  0  0  0  0  0
  -29.5319  -18.5543   21.3330 C   0  0  0  0  0  0
  -29.7803  -16.4251   21.7032 C   0  0  0  0  0  0
  -29.6288  -22.2206   20.5054 C   0  0  0  0  0  0
  -28.9282  -20.8761   20.8717 C   0  0  0  0  0  0
  -29.6664  -27.0382   22.0889 C   0  0  0  0  0  0
  -28.7972  -23.5122   20.6748 C   0  0  0  0  0  0
  -29.6428  -24.7926   20.8948 C   0  0  0  0  0  0
  -28.8229  -26.0601   21.2521 C   0  0  2  0  0  0
  -29.7692  -19.8156   20.8697 N   0  0  0  0  0  0
  -30.1899  -15.1310   21.6936 N   0  0  0  0  0  0
  -30.7987  -22.2598   20.1039 O   0  0  0  0  0  0
  -27.7163  -20.8215   21.1143 O   0  0  0  0  0  0
  -30.3010  -17.4670   20.9759 O   0  0  0  0  0  0
  -31.4780  -12.4578   19.0864 H   0  0  0  0  0  0
  -30.3751  -11.2878   19.7530 H   0  0  0  0  0  0
  -29.7305  -11.8193   17.4016 H   0  0  0  0  0  0
  -29.6518  -13.5220   17.7723 H   0  0  0  0  0  0
  -27.8249  -11.3194   18.7893 H   0  0  0  0  0  0
  -27.3631  -12.6691   17.7874 H   0  0  0  0  0  0
  -27.7347  -14.2520   19.6241 H   0  0  0  0  0  0
  -28.6816  -11.8561   21.2636 H   0  0  0  0  0  0
  -28.4351  -13.4416   21.9028 H   0  0  0  0  0  0
  -25.2757   -9.5690   22.4751 H   0  0  0  0  0  0
  -24.0001   -7.4639   22.7473 H   0  0  0  0  0  0
  -21.0828   -8.8771   19.8951 H   0  0  0  0  0  0
  -22.3684  -10.9674   19.6159 H   0  0  0  0  0  0
  -21.2002   -7.6151   23.9711 H   0  0  0  0  0  0
  -21.1482   -6.0525   25.9076 H   0  0  0  0  0  0
  -22.0600   -2.7606   23.2848 H   0  0  0  0  0  0
  -22.4138  -11.9888   22.4769 H   0  0  0  0  0  0
  -21.1165  -13.1271   22.2606 H   0  0  0  0  0  0
  -24.6809  -15.8467   20.5276 H   0  0  0  0  0  0
  -26.3051  -15.6232   20.1187 H   0  0  0  0  0  0
  -26.7105  -32.5547   23.1166 H   0  0  0  0  0  0
  -25.0092  -33.9782   25.0488 H   0  0  0  0  0  0
  -22.6869  -31.3056   21.4091 H   0  0  0  0  0  0
  -23.3746  -35.9658   23.3324 H   0  0  0  0  0  0
  -24.3585  -36.8901   22.2045 H   0  0  0  0  0  0
  -23.7263  -37.6536   23.6635 H   0  0  0  0  0  0
  -26.0237  -31.6067   20.5841 H   0  0  0  0  0  0
  -26.8160  -30.9046   21.9665 H   0  0  0  0  0  0
  -28.1015  -29.1620   21.1250 H   0  0  0  0  0  0
  -26.0945  -25.9687   19.0356 H   0  0  0  0  0  0
  -23.9888  -27.2751   19.0503 H   0  0  0  0  0  0
  -23.7114  -30.5882   19.4012 H   0  0  0  0  0  0
  -22.7333  -29.2325   19.8764 H   0  0  0  0  0  0
  -25.1296  -36.1968   25.0832 H   0  0  0  0  0  0
  -20.9949  -28.3211   24.1452 H   0  0  0  0  0  0
  -20.5668  -26.2255   23.3601 H   0  0  0  0  0  0
  -21.6636  -26.7446   22.1209 H   0  0  0  0  0  0
  -19.6901  -25.6303   21.1230 H   0  0  0  0  0  0
  -19.6685  -27.3213   20.6760 H   0  0  0  0  0  0
  -17.4193  -26.6678   21.4024 H   0  0  0  0  0  0
  -18.0317  -26.0059   22.9014 H   0  0  0  0  0  0
  -19.7921  -30.7249   24.2301 H   0  0  0  0  0  0
  -17.5001  -31.6265   24.5156 H   0  0  0  0  0  0
  -15.5338  -30.2982   23.7638 H   0  0  0  0  0  0
  -15.8666  -28.0819   22.7048 H   0  0  0  0  0  0
  -24.5962  -30.6984   25.7806 H   0  0  0  0  0  0
  -24.8939  -32.2807   26.4914 H   0  0  0  0  0  0
  -25.8146  -30.8838   27.0200 H   0  0  0  0  0  0
  -26.2868  -29.6783   24.1109 H   0  0  0  0  0  0
  -27.4145  -29.7277   25.4466 H   0  0  0  0  0  0
  -27.8664  -30.4391   23.9134 H   0  0  0  0  0  0
  -28.0779  -31.8423   26.5312 H   0  0  0  0  0  0
  -27.2652  -33.3596   26.2074 H   0  0  0  0  0  0
  -28.3813  -32.6954   25.0244 H   0  0  0  0  0  0
  -28.2622  -38.0087   24.7491 H   0  0  0  0  0  0
  -28.1061  -36.2619   24.6312 H   0  0  0  0  0  0
  -27.2297  -37.1488   25.8862 H   0  0  0  0  0  0
  -20.9271  -29.8741   21.6966 H   0  0  0  0  0  0
  -26.0191  -38.2867   24.1416 H   0  0  0  0  0  0
  -27.8564  -18.8690   22.7237 H   0  0  0  0  0  0
  -28.1616  -16.2001   23.1660 H   0  0  0  0  0  0
  -29.0554  -27.8168   22.5413 H   0  0  0  0  0  0
  -30.4380  -27.5161   21.4849 H   0  0  0  0  0  0
  -30.1604  -26.5263   22.9150 H   0  0  0  0  0  0
  -28.1345  -23.3732   21.5302 H   0  0  0  0  0  0
  -28.1555  -23.6293   19.8020 H   0  0  0  0  0  0
  -30.2674  -24.9931   20.0221 H   0  0  0  0  0  0
  -30.3390  -24.5831   21.7078 H   0  0  0  0  0  0
  -27.9577  -25.7598   21.8484 H   0  0  0  0  0  0
  -30.6967  -20.0163   20.5189 H   0  0  0  0  0  0
  -29.6324  -14.5442   22.2933 H   0  0  0  0  0  0
  1 25  1  0  0  0
  1 30  2  0  0  0
  1 82  1  0  0  0
  2  3  1  0  0  0
  2 25  1  0  0  0
  2 86  1  0  0  0
  2 87  1  0  0  0
  3  4  1  0  0  0
  3 88  1  0  0  0
  3 89  1  0  0  0
  4  5  1  0  0  0
  4 90  1  0  0  0
  4 91  1  0  0  0
  5  6  1  0  0  0
  5 26  1  0  0  0
  5 92  1  0  0  0
  6 25  1  0  0  0
  6 93  1  0  0  0
  6 94  1  0  0  0
  7  8  2  0  0  0
  7 26  1  0  0  0
  7 29  1  0  0  0
  8  9  1  0  0  0
  8 22  1  0  0  0
  9 10  1  0  0  0
  9 27  2  0  0  0
 10 11  2  0  0  0
 10 15  1  0  0  0
 11 12  1  0  0  0
 11 95  1  0  0  0
 12 13  2  0  0  0
 12 96  1  0  0  0
 13 14  1  0  0  0
 13 31  1  0  0  0
 14 15  2  0  0  0
 14 97  1  0  0  0
 15 98  1  0  0  0
 16 17  2  0  0  0
 16 21  1  0  0  0
 16 31  1  0  0  0
 17 18  1  0  0  0
 17 99  1  0  0  0
 18 19  2  0  0  0
 18100  1  0  0  0
 19 20  1  0  0  0
 19 24  1  0  0  0
 20 21  2  0  0  0
 20101  1  0  0  0
 21 23  1  0  0  0
 22 28  1  0  0  0
 22 32  2  0  0  0
 26 27  1  0  0  0
 28102  1  0  0  0
 28103  1  0  0  0
 29104  1  0  0  0
 29105  1  0  0  0
 33 34  1  0  0  0
 33 66  1  0  0  0
 33 70  2  0  0  0
 34 36  1  0  0  0
 34 59  1  0  0  0
 34106  1  0  0  0
 35 44  2  0  0  0
 35 45  1  0  0  0
 35 68  1  0  0  0
 36 56  1  0  0  0
 36107  1  0  0  0
 37 39  1  0  0  0
 37 47  1  0  0  0
 37 66  1  0  0  0
 37108  1  0  0  0
 38 43  2  0  0  0
 38 46  1  0  0  0
 38 47  1  0  0  0
 39 64  1  0  0  0
 39 67  2  0  0  0
 40 52  1  0  0  0
 40 53  2  0  0  0
 40 58  1  0  0  0
 41109  1  0  0  0
 41110  1  0  0  0
 41111  1  0  0  0
 41 48  1  0  0  0
 42 43  1  0  0  0
 42 66  1  0  0  0
 42112  1  0  0  0
 42113  1  0  0  0
 43 44  1  0  0  0
 44114  1  0  0  0
 45 46  2  0  0  0
 45115  1  0  0  0
 46116  1  0  0  0
 47117  1  0  0  0
 47118  1  0  0  0
 48 56  1  0  0  0
 48 65  1  0  0  0
 48119  1  0  0  0
 49 50  1  0  0  0
 49 53  1  0  0  0
 49 64  1  0  0  0
 49120  1  0  0  0
 50 51  1  0  0  0
 50121  1  0  0  0
 50122  1  0  0  0
 51 52  1  0  0  0
 51123  1  0  0  0
 51124  1  0  0  0
 52125  1  0  0  0
 52126  1  0  0  0
 53 54  1  0  0  0
 54 55  2  0  0  0
 54127  1  0  0  0
 55 57  1  0  0  0
 55128  1  0  0  0
 56 69  2  0  0  0
 57 58  2  0  0  0
 57129  1  0  0  0
 58130  1  0  0  0
 59 60  1  0  0  0
 59 61  1  0  0  0
 59 62  1  0  0  0
 60131  1  0  0  0
 60132  1  0  0  0
 60133  1  0  0  0
 61134  1  0  0  0
 61135  1  0  0  0
 61136  1  0  0  0
 62137  1  0  0  0
 62138  1  0  0  0
 62139  1  0  0  0
 63 65  1  0  0  0
 63140  1  0  0  0
 63141  1  0  0  0
 63142  1  0  0  0
 64143  1  0  0  0
 65144  1  0  0  0
 68 80  1  0  0  0
 71 72  1  0  0  0
 71 73  2  0  0  0
 71145  1  0  0  0
 72 74  2  0  0  0
 72146  1  0  0  0
 73 81  1  0  0  0
 73 85  1  0  0  0
 74 82  1  0  0  0
 74 85  1  0  0  0
 75 76  1  0  0  0
 75 78  1  0  0  0
 75 83  2  0  0  0
 76 81  1  0  0  0
 76 84  2  0  0  0
 77147  1  0  0  0
 77148  1  0  0  0
 77149  1  0  0  0
 77 80  1  0  0  0
 78 79  1  0  0  0
 78150  1  0  0  0
 78151  1  0  0  0
 79 80  1  0  0  0
 79152  1  0  0  0
 79153  1  0  0  0
 80154  1  0  0  0
 81155  1  0  0  0
 82156  1  0  0  0
M  ISO  4   1 100  68 101  80 101  82 100
M  END
> <chiral flag>
0

> <version>
0

> <s_m_source_file>
/data/baiqing/PycharmProjects/Reinvent-master-3.2/result/LINK_invent/BTK/process_docking_weight1_custom_product_contain_oxygen_bond_distance_aromatic_linkinvent_7_9_3/rearranged_h_0174.sdf

> <i_m_source_file_index>
36

> <r_mmod_Potential_Energy-OPLS-2005>
-98.5395584106445

> <r_mmod_Stretch_Energy-OPLS-2005>
36.5751724243164

> <r_mmod_Bend_Energy-OPLS-2005>
114.906608581543

> <r_mmod_Torsional_Energy-OPLS-2005>
255.397216796875

> <r_mmod_Improper_Torsional_Energy-OPLS-2005>
5.38198328018188

> <r_mmod_Van_der_Waal_Energy-OPLS-2005>
132.26091003418

> <r_mmod_Electrostatic_Energy-OPLS-2005>
-420.150268554688

> <r_mmod_Solvation_Energy-OPLS-2005>
-232.142471313477

> <b_mmod_Minimization_Converged-OPLS-2005>
0

> <r_mmod_RMS_Derivative-OPLS-2005>
1.76209557056427

$$$$
36
                    3D
 Structure written by MMmdl.
155163  0  0  1  0            999 V2000
  -30.7292  -14.4277   20.6087 C   0  0  0  0  0  0
  -30.4173  -12.2940   19.4103 C   0  0  0  0  0  0
  -29.4886  -12.5096   18.1993 C   0  0  0  0  0  0
  -28.0107  -12.3719   18.6140 C   0  0  0  0  0  0
  -27.6626  -13.2049   19.8766 C   0  0  2  0  0  0
  -28.7033  -12.9698   20.9943 C   0  0  0  0  0  0
  -25.2592  -13.8158   20.5678 C   0  0  0  0  0  0
  -24.1840  -13.0438   20.9178 C   0  0  0  0  0  0
  -24.6390  -11.6903   20.8733 C   0  0  0  0  0  0
  -23.9055  -10.4289   21.0400 C   0  0  0  0  0  0
  -24.3610   -9.4207   21.9179 C   0  0  0  0  0  0
  -23.6288   -8.2242   22.0750 C   0  0  0  0  0  0
  -22.4270   -8.0279   21.3542 C   0  0  0  0  0  0
  -21.9902   -9.0251   20.4645 C   0  0  0  0  0  0
  -22.7227  -10.2131   20.3052 C   0  0  0  0  0  0
  -21.6852   -6.0735   22.5280 C   0  0  0  0  0  0
  -21.4011   -6.5640   23.8212 C   0  0  0  0  0  0
  -21.3658   -5.6793   24.9176 C   0  0  0  0  0  0
  -21.6044   -4.3054   24.7226 C   0  0  0  0  0  0
  -21.8821   -3.8146   23.4347 C   0  0  0  0  0  0
  -21.9192   -4.6963   22.3404 C   0  0  0  0  0  0
  -22.7864  -13.5238   21.1845 C   0  0  0  0  0  0
  -22.1661   -4.2147   21.0980 F   0  0  0  0  0  0
  -21.5630   -3.4538   25.7739 F   0  0  0  0  0  0
  -30.0373  -13.2686   20.4445 N   0  0  0  0  0  0
  -26.3028  -12.9326   20.3370 N   0  0  0  0  0  0
  -25.9315  -11.6486   20.5764 N   0  0  0  0  0  0
  -22.0501  -12.8231   22.0401 N   0  0  0  0  0  0
  -25.4328  -15.1874   20.4085 N   0  0  0  0  0  0
  -31.8290  -14.6239   20.0836 O   0  0  0  0  0  0
  -21.6636   -6.8876   21.4240 O   0  0  0  0  0  0
  -22.3552  -14.5548   20.6701 O   0  0  0  0  0  0
  -24.6129  -31.8693   23.2113 C   0  0  0  0  0  0
  -25.9034  -32.4827   23.8403 C   0  0  1  0  0  0
  -27.2348  -27.4587   20.0915 C   0  0  0  0  0  0
  -25.5901  -33.8625   24.2343 N   0  0  0  0  0  0
  -23.4001  -30.4920   21.5510 C   0  0  2  0  0  0
  -24.8480  -28.9598   20.1146 C   0  0  0  0  0  0
  -22.7404  -29.4661   22.5000 C   0  0  0  0  0  0
  -18.0271  -28.1374   22.8493 C   0  0  0  0  0  0
  -24.1486  -36.7315   23.2637 C   0  0  0  0  0  0
  -25.9262  -30.8425   21.3601 C   0  0  0  0  0  0
  -26.0067  -29.4786   20.7075 C   0  0  0  0  0  0
  -27.2070  -28.7352   20.6922 C   0  0  0  0  0  0
  -26.0646  -26.9466   19.4948 C   0  0  0  0  0  0
  -24.8704  -27.6920   19.5053 C   0  0  0  0  0  0
  -23.6077  -29.8229   20.1656 C   0  0  0  0  0  0
  -25.4104  -36.3115   24.0344 C   0  0  1  0  0  0
  -20.5859  -28.3659   23.1327 C   0  0  2  0  0  0
  -20.6760  -26.9398   22.5420 C   0  0  0  0  0  0
  -19.5743  -26.6386   21.5213 C   0  0  0  0  0  0
  -18.1921  -26.7925   22.1621 C   0  0  0  0  0  0
  -19.1519  -28.8835   23.2905 C   0  0  0  0  0  0
  -18.9447  -30.1443   23.8911 C   0  0  0  0  0  0
  -17.6451  -30.6582   24.0566 C   0  0  0  0  0  0
  -25.9032  -34.9479   23.5139 C   0  0  0  0  0  0
  -16.5340  -29.9085   23.6326 C   0  0  0  0  0  0
  -16.7262  -28.6502   23.0347 C   0  0  0  0  0  0
  -26.4469  -31.6592   25.0718 C   0  0  0  0  0  0
  -25.3749  -31.3686   26.1477 C   0  0  0  0  0  0
  -27.0289  -30.3040   24.6065 C   0  0  0  0  0  0
  -27.6063  -32.4292   25.7469 C   0  0  0  0  0  0
  -27.5586  -37.1802   24.8460 C   0  0  0  0  0  0
  -21.4135  -29.3028   22.3737 N   0  0  0  0  0  0
  -26.4291  -37.3799   23.9419 N   0  0  0  0  0  0
  -24.6646  -31.0813   22.1000 N   0  0  0  0  0  0
  -23.4187  -28.8210   23.3038 O   0  0  0  0  0  0
  -28.3807  -26.7047   20.0975 O   0  0  0  0  0  0
  -26.5587  -34.8930   22.4695 O   0  0  0  0  0  0
  -23.5328  -32.1430   23.7525 O   0  0  0  0  0  0
  -31.8727  -17.0293   21.8315 C   0  0  0  0  0  0
  -32.2665  -18.3490   22.1233 C   0  0  0  0  0  0
  -29.5654  -17.7741   21.5752 C   0  0  0  0  0  0
  -30.5188  -16.7281   21.5460 C   0  0  0  0  0  0
  -31.3164  -19.3864   22.1505 C   0  0  0  0  0  0
  -29.9631  -19.1002   21.8688 C   0  0  0  0  0  0
  -28.7436  -24.2823   20.3908 C   0  0  0  0  0  0
  -28.3101  -23.0072   21.1225 C   0  0  0  0  0  0
  -28.3072  -25.6127   21.0240 C   0  0  0  0  0  0
  -29.2264  -21.7849   20.8885 C   0  0  0  0  0  0
  -30.0804  -15.3948   21.2864 N   0  0  0  0  0  0
  -29.4144  -24.2332   19.3537 O   0  0  0  0  0  0
  -27.4445  -19.8854   21.4451 O   0  0  0  0  0  0
  -28.7058  -20.9163   23.3647 O   0  0  0  0  0  0
  -31.7228  -20.6423   22.4577 F   0  0  0  0  0  0
  -28.7163  -20.4005   21.9841 S   0  0  0  0  0  0
  -31.4617  -12.3866   19.1071 H   0  0  0  0  0  0
  -30.3123  -11.2794   19.7976 H   0  0  0  0  0  0
  -29.7231  -11.7925   17.4115 H   0  0  0  0  0  0
  -29.6610  -13.4992   17.7735 H   0  0  0  0  0  0
  -27.8169  -11.3155   18.8031 H   0  0  0  0  0  0
  -27.3595  -12.6548   17.7861 H   0  0  0  0  0  0
  -27.7123  -14.2552   19.5887 H   0  0  0  0  0  0
  -28.6733  -11.9303   21.3243 H   0  0  0  0  0  0
  -28.4628  -13.5580   21.8808 H   0  0  0  0  0  0
  -25.2757   -9.5684   22.4750 H   0  0  0  0  0  0
  -24.0000   -7.4631   22.7467 H   0  0  0  0  0  0
  -21.0834   -8.8769   19.8951 H   0  0  0  0  0  0
  -22.3687  -10.9668   19.6160 H   0  0  0  0  0  0
  -21.2000   -7.6148   23.9717 H   0  0  0  0  0  0
  -21.1479   -6.0522   25.9079 H   0  0  0  0  0  0
  -22.0599   -2.7608   23.2847 H   0  0  0  0  0  0
  -22.4109  -11.9886   22.4782 H   0  0  0  0  0  0
  -21.1123  -13.1267   22.2613 H   0  0  0  0  0  0
  -24.6670  -15.8440   20.5137 H   0  0  0  0  0  0
  -26.2848  -15.6233   20.0785 H   0  0  0  0  0  0
  -26.7108  -32.5552   23.1176 H   0  0  0  0  0  0
  -25.0081  -33.9787   25.0507 H   0  0  0  0  0  0
  -22.6878  -31.3080   21.4127 H   0  0  0  0  0  0
  -23.3753  -35.9642   23.3289 H   0  0  0  0  0  0
  -24.3590  -36.8935   22.2053 H   0  0  0  0  0  0
  -23.7227  -37.6515   23.6650 H   0  0  0  0  0  0
  -26.0334  -31.6097   20.5921 H   0  0  0  0  0  0
  -26.8158  -30.8977   21.9755 H   0  0  0  0  0  0
  -28.1034  -29.1301   21.1502 H   0  0  0  0  0  0
  -26.0778  -25.9729   19.0254 H   0  0  0  0  0  0
  -23.9796  -27.2870   19.0449 H   0  0  0  0  0  0
  -23.7131  -30.5969   19.4046 H   0  0  0  0  0  0
  -22.7328  -29.2401   19.8716 H   0  0  0  0  0  0
  -25.1272  -36.1982   25.0836 H   0  0  0  0  0  0
  -20.9951  -28.3217   24.1448 H   0  0  0  0  0  0
  -20.5664  -26.2265   23.3603 H   0  0  0  0  0  0
  -21.6631  -26.7447   22.1212 H   0  0  0  0  0  0
  -19.6903  -25.6302   21.1231 H   0  0  0  0  0  0
  -19.6687  -27.3206   20.6753 H   0  0  0  0  0  0
  -17.4196  -26.6687   21.4016 H   0  0  0  0  0  0
  -18.0312  -26.0057   22.9006 H   0  0  0  0  0  0
  -19.7922  -30.7253   24.2286 H   0  0  0  0  0  0
  -17.5005  -31.6265   24.5163 H   0  0  0  0  0  0
  -15.5340  -30.2991   23.7643 H   0  0  0  0  0  0
  -15.8661  -28.0828   22.7050 H   0  0  0  0  0  0
  -24.5926  -30.7026   25.7817 H   0  0  0  0  0  0
  -24.8936  -32.2836   26.4939 H   0  0  0  0  0  0
  -25.8118  -30.8849   27.0224 H   0  0  0  0  0  0
  -26.2817  -29.6805   24.1142 H   0  0  0  0  0  0
  -27.4095  -29.7266   25.4500 H   0  0  0  0  0  0
  -27.8637  -30.4362   23.9178 H   0  0  0  0  0  0
  -27.2708  -33.3587   26.2078 H   0  0  0  0  0  0
  -28.3857  -32.6852   25.0279 H   0  0  0  0  0  0
  -28.0749  -31.8390   26.5355 H   0  0  0  0  0  0
  -28.2587  -38.0116   24.7540 H   0  0  0  0  0  0
  -28.1098  -36.2652   24.6238 H   0  0  0  0  0  0
  -27.2317  -37.1395   25.8865 H   0  0  0  0  0  0
  -20.9298  -29.8744   21.6954 H   0  0  0  0  0  0
  -26.0182  -38.2875   24.1437 H   0  0  0  0  0  0
  -32.6261  -16.2545   21.8443 H   0  0  0  0  0  0
  -33.3015  -18.5668   22.3422 H   0  0  0  0  0  0
  -28.5219  -17.5693   21.3853 H   0  0  0  0  0  0
  -27.2891  -22.7690   20.8242 H   0  0  0  0  0  0
  -28.2720  -23.2350   22.1879 H   0  0  0  0  0  0
  -28.9607  -25.8271   21.8698 H   0  0  0  0  0  0
  -27.3011  -25.4895   21.4287 H   0  0  0  0  0  0
  -30.2612  -22.0347   21.1147 H   0  0  0  0  0  0
  -29.1902  -21.4385   19.8569 H   0  0  0  0  0  0
  -29.1345  -15.1649   21.5514 H   0  0  0  0  0  0
  1 25  1  0  0  0
  1 30  2  0  0  0
  1 81  1  0  0  0
  2  3  1  0  0  0
  2 25  1  0  0  0
  2 87  1  0  0  0
  2 88  1  0  0  0
  3  4  1  0  0  0
  3 89  1  0  0  0
  3 90  1  0  0  0
  4  5  1  0  0  0
  4 91  1  0  0  0
  4 92  1  0  0  0
  5  6  1  0  0  0
  5 26  1  0  0  0
  5 93  1  0  0  0
  6 25  1  0  0  0
  6 94  1  0  0  0
  6 95  1  0  0  0
  7  8  2  0  0  0
  7 26  1  0  0  0
  7 29  1  0  0  0
  8  9  1  0  0  0
  8 22  1  0  0  0
  9 10  1  0  0  0
  9 27  2  0  0  0
 10 11  2  0  0  0
 10 15  1  0  0  0
 11 12  1  0  0  0
 11 96  1  0  0  0
 12 13  2  0  0  0
 12 97  1  0  0  0
 13 14  1  0  0  0
 13 31  1  0  0  0
 14 15  2  0  0  0
 14 98  1  0  0  0
 15 99  1  0  0  0
 16 17  2  0  0  0
 16 21  1  0  0  0
 16 31  1  0  0  0
 17 18  1  0  0  0
 17100  1  0  0  0
 18 19  2  0  0  0
 18101  1  0  0  0
 19 20  1  0  0  0
 19 24  1  0  0  0
 20 21  2  0  0  0
 20102  1  0  0  0
 21 23  1  0  0  0
 22 28  1  0  0  0
 22 32  2  0  0  0
 26 27  1  0  0  0
 28103  1  0  0  0
 28104  1  0  0  0
 29105  1  0  0  0
 29106  1  0  0  0
 33 34  1  0  0  0
 33 66  1  0  0  0
 33 70  2  0  0  0
 34 36  1  0  0  0
 34 59  1  0  0  0
 34107  1  0  0  0
 35 44  2  0  0  0
 35 45  1  0  0  0
 35 68  1  0  0  0
 36 56  1  0  0  0
 36108  1  0  0  0
 37 39  1  0  0  0
 37 47  1  0  0  0
 37 66  1  0  0  0
 37109  1  0  0  0
 38 43  2  0  0  0
 38 46  1  0  0  0
 38 47  1  0  0  0
 39 64  1  0  0  0
 39 67  2  0  0  0
 40 52  1  0  0  0
 40 53  2  0  0  0
 40 58  1  0  0  0
 41110  1  0  0  0
 41111  1  0  0  0
 41112  1  0  0  0
 41 48  1  0  0  0
 42 43  1  0  0  0
 42 66  1  0  0  0
 42113  1  0  0  0
 42114  1  0  0  0
 43 44  1  0  0  0
 44115  1  0  0  0
 45 46  2  0  0  0
 45116  1  0  0  0
 46117  1  0  0  0
 47118  1  0  0  0
 47119  1  0  0  0
 48 56  1  0  0  0
 48 65  1  0  0  0
 48120  1  0  0  0
 49 50  1  0  0  0
 49 53  1  0  0  0
 49 64  1  0  0  0
 49121  1  0  0  0
 50 51  1  0  0  0
 50122  1  0  0  0
 50123  1  0  0  0
 51 52  1  0  0  0
 51124  1  0  0  0
 51125  1  0  0  0
 52126  1  0  0  0
 52127  1  0  0  0
 53 54  1  0  0  0
 54 55  2  0  0  0
 54128  1  0  0  0
 55 57  1  0  0  0
 55129  1  0  0  0
 56 69  2  0  0  0
 57 58  2  0  0  0
 57130  1  0  0  0
 58131  1  0  0  0
 59 60  1  0  0  0
 59 61  1  0  0  0
 59 62  1  0  0  0
 60132  1  0  0  0
 60133  1  0  0  0
 60134  1  0  0  0
 61135  1  0  0  0
 61136  1  0  0  0
 61137  1  0  0  0
 62138  1  0  0  0
 62139  1  0  0  0
 62140  1  0  0  0
 63 65  1  0  0  0
 63141  1  0  0  0
 63142  1  0  0  0
 63143  1  0  0  0
 64144  1  0  0  0
 65145  1  0  0  0
 68 79  1  0  0  0
 71 72  2  0  0  0
 71 74  1  0  0  0
 71146  1  0  0  0
 72 75  1  0  0  0
 72147  1  0  0  0
 73 74  2  0  0  0
 73 76  1  0  0  0
 73148  1  0  0  0
 74 81  1  0  0  0
 75 76  2  0  0  0
 75 85  1  0  0  0
 76 86  1  0  0  0
 77 78  1  0  0  0
 77 79  1  0  0  0
 77 82  2  0  0  0
 78 80  1  0  0  0
 78149  1  0  0  0
 78150  1  0  0  0
 79151  1  0  0  0
 79152  1  0  0  0
 80153  1  0  0  0
 80154  1  0  0  0
 80 86  1  0  0  0
 81155  1  0  0  0
 83 86  2  0  0  0
 84 86  2  0  0  0
M  ISO  4   1 100  68 101  79 101  81 100
M  END
> <chiral flag>
0

> <version>
0

> <s_m_source_file>
/data/baiqing/PycharmProjects/Reinvent-master-3.2/result/LINK_invent/BTK/process_docking_weight1_custom_product_contain_oxygen_bond_distance_aromatic_linkinvent_7_9_3/rearranged_h_0174.sdf

> <i_m_source_file_index>
37

> <r_mmod_Potential_Energy-OPLS-2005>
-226.09912109375

> <r_mmod_Stretch_Energy-OPLS-2005>
34.0941429138184

> <r_mmod_Bend_Energy-OPLS-2005>
90.7709579467773

> <r_mmod_Torsional_Energy-OPLS-2005>
240.311508178711

> <r_mmod_Improper_Torsional_Energy-OPLS-2005>
3.01215600967407

> <r_mmod_Van_der_Waal_Energy-OPLS-2005>
146.996459960938

> <r_mmod_Electrostatic_Energy-OPLS-2005>
-486.830017089844

> <r_mmod_Solvation_Energy-OPLS-2005>
-263.718536376953

> <b_mmod_Minimization_Converged-OPLS-2005>
0

> <r_mmod_RMS_Derivative-OPLS-2005>
0.547646701335907

$$$$
37
                    3D
 Structure written by MMmdl.
161169  0  0  1  0            999 V2000
  -30.7833  -14.3866   20.6435 C   0  0  0  0  0  0
  -30.4076  -12.2823   19.4157 C   0  0  0  0  0  0
  -29.4893  -12.5104   18.2017 C   0  0  0  0  0  0
  -28.0121  -12.3722   18.6154 C   0  0  0  0  0  0
  -27.6659  -13.2101   19.8762 C   0  0  2  0  0  0
  -28.7031  -12.9882   20.9991 C   0  0  0  0  0  0
  -25.2621  -13.8177   20.5682 C   0  0  0  0  0  0
  -24.1860  -13.0447   20.9147 C   0  0  0  0  0  0
  -24.6414  -11.6916   20.8720 C   0  0  0  0  0  0
  -23.9087  -10.4303   21.0397 C   0  0  0  0  0  0
  -24.3633   -9.4217   21.9177 C   0  0  0  0  0  0
  -23.6301   -8.2259   22.0759 C   0  0  0  0  0  0
  -22.4284   -8.0303   21.3548 C   0  0  0  0  0  0
  -21.9930   -9.0273   20.4645 C   0  0  0  0  0  0
  -22.7262  -10.2145   20.3040 C   0  0  0  0  0  0
  -21.6859   -6.0750   22.5276 C   0  0  0  0  0  0
  -21.4003   -6.5654   23.8209 C   0  0  0  0  0  0
  -21.3635   -5.6804   24.9166 C   0  0  0  0  0  0
  -21.6033   -4.3066   24.7222 C   0  0  0  0  0  0
  -21.8829   -3.8160   23.4341 C   0  0  0  0  0  0
  -21.9208   -4.6979   22.3400 C   0  0  0  0  0  0
  -22.7880  -13.5237   21.1808 C   0  0  0  0  0  0
  -22.1676   -4.2171   21.0979 F   0  0  0  0  0  0
  -21.5618   -3.4534   25.7727 F   0  0  0  0  0  0
  -30.0430  -13.2620   20.4511 N   0  0  0  0  0  0
  -26.3057  -12.9358   20.3365 N   0  0  0  0  0  0
  -25.9349  -11.6514   20.5770 N   0  0  0  0  0  0
  -22.0536  -12.8224   22.0377 N   0  0  0  0  0  0
  -25.4378  -15.1890   20.4095 N   0  0  0  0  0  0
  -31.8343  -14.6023   20.0329 O   0  0  0  0  0  0
  -21.6643   -6.8902   21.4238 O   0  0  0  0  0  0
  -22.3560  -14.5545   20.6669 O   0  0  0  0  0  0
  -24.6143  -31.8692   23.2115 C   0  0  0  0  0  0
  -25.9049  -32.4816   23.8409 C   0  0  1  0  0  0
  -27.2289  -27.4390   20.1000 C   0  0  0  0  0  0
  -25.5904  -33.8613   24.2339 N   0  0  0  0  0  0
  -23.3998  -30.4965   21.5519 C   0  0  2  0  0  0
  -24.8441  -28.9648   20.1134 C   0  0  0  0  0  0
  -22.7395  -29.4691   22.4986 C   0  0  0  0  0  0
  -18.0267  -28.1377   22.8507 C   0  0  0  0  0  0
  -24.1452  -36.7269   23.2653 C   0  0  0  0  0  0
  -25.9295  -30.8360   21.3654 C   0  0  0  0  0  0
  -26.0043  -29.4735   20.7090 C   0  0  0  0  0  0
  -27.1999  -28.7200   20.6971 C   0  0  0  0  0  0
  -26.0504  -26.9485   19.4890 C   0  0  0  0  0  0
  -24.8626  -27.7022   19.4992 C   0  0  0  0  0  0
  -23.6052  -29.8292   20.1658 C   0  0  0  0  0  0
  -25.4083  -36.3093   24.0357 C   0  0  1  0  0  0
  -20.5859  -28.3666   23.1311 C   0  0  2  0  0  0
  -20.6760  -26.9401   22.5405 C   0  0  0  0  0  0
  -19.5725  -26.6385   21.5214 C   0  0  0  0  0  0
  -18.1903  -26.7931   22.1628 C   0  0  0  0  0  0
  -19.1515  -28.8840   23.2906 C   0  0  0  0  0  0
  -18.9455  -30.1445   23.8910 C   0  0  0  0  0  0
  -17.6458  -30.6595   24.0570 C   0  0  0  0  0  0
  -25.9032  -34.9467   23.5142 C   0  0  0  0  0  0
  -16.5341  -29.9092   23.6356 C   0  0  0  0  0  0
  -16.7253  -28.6506   23.0379 C   0  0  0  0  0  0
  -26.4474  -31.6588   25.0743 C   0  0  0  0  0  0
  -25.3732  -31.3663   26.1480 C   0  0  0  0  0  0
  -27.0343  -30.3042   24.6132 C   0  0  0  0  0  0
  -27.6051  -32.4318   25.7500 C   0  0  0  0  0  0
  -27.5557  -37.1778   24.8488 C   0  0  0  0  0  0
  -21.4129  -29.3023   22.3708 N   0  0  0  0  0  0
  -26.4259  -37.3795   23.9451 N   0  0  0  0  0  0
  -24.6656  -31.0824   22.0998 N   0  0  0  0  0  0
  -23.4180  -28.8247   23.3038 O   0  0  0  0  0  0
  -28.3984  -26.7064   20.1356 O   0  0  0  0  0  0
  -26.5589  -34.8927   22.4701 O   0  0  0  0  0  0
  -23.5342  -32.1442   23.7523 O   0  0  0  0  0  0
  -32.5933  -18.5687   22.9248 C   0  0  0  0  0  0
  -32.2624  -16.1687   22.6939 C   0  0  0  0  0  0
  -30.5914  -17.7226   21.8106 C   0  0  0  0  0  0
  -33.0420  -17.2514   23.1458 C   0  0  0  0  0  0
  -31.3781  -18.8209   22.2525 C   0  0  0  0  0  0
  -31.0479  -16.3957   22.0077 C   0  0  0  0  0  0
  -29.3767  -23.0651   20.7557 C   0  0  0  0  0  0
  -30.2659  -22.2681   21.4007 C   0  0  0  0  0  0
  -29.4326  -24.5481   20.7236 C   0  0  0  0  0  0
  -30.0962  -20.8116   21.3470 C   0  0  0  0  0  0
  -34.3759  -17.0032   23.8351 C   0  0  0  0  0  0
  -28.2571  -25.2782   20.0541 C   0  0  0  0  0  0
  -31.0539  -20.1956   22.0597 N   0  0  0  0  0  0
  -30.3017  -15.2865   21.5168 N   0  0  0  0  0  0
  -34.2579  -17.1074   25.2941 N   0  3  0  0  0  0
  -30.3645  -25.1968   21.2155 O   0  0  0  0  0  0
  -29.2039  -20.2197   20.7362 O   0  0  0  0  0  0
  -31.3067  -22.7788   22.0921 O   0  0  0  0  0  0
  -31.4545  -12.3520   19.1161 H   0  0  0  0  0  0
  -30.2821  -11.2704   19.8038 H   0  0  0  0  0  0
  -29.7275  -11.7982   17.4096 H   0  0  0  0  0  0
  -29.6661  -13.5040   17.7873 H   0  0  0  0  0  0
  -27.8187  -11.3171   18.8083 H   0  0  0  0  0  0
  -27.3611  -12.6534   17.7870 H   0  0  0  0  0  0
  -27.7156  -14.2595   19.5831 H   0  0  0  0  0  0
  -28.6614  -11.9576   21.3544 H   0  0  0  0  0  0
  -28.4619  -13.6067   21.8640 H   0  0  0  0  0  0
  -25.2780   -9.5693   22.4747 H   0  0  0  0  0  0
  -24.0004   -7.4657   22.7491 H   0  0  0  0  0  0
  -21.0862   -8.8798   19.8948 H   0  0  0  0  0  0
  -22.3733  -10.9688   19.6140 H   0  0  0  0  0  0
  -21.1978   -7.6162   23.9717 H   0  0  0  0  0  0
  -21.1427   -6.0525   25.9072 H   0  0  0  0  0  0
  -22.0623   -2.7632   23.2831 H   0  0  0  0  0  0
  -22.4142  -11.9855   22.4719 H   0  0  0  0  0  0
  -21.1158  -13.1248   22.2614 H   0  0  0  0  0  0
  -24.6774  -15.8517   20.5144 H   0  0  0  0  0  0
  -26.3030  -15.6228   20.1113 H   0  0  0  0  0  0
  -26.7125  -32.5516   23.1178 H   0  0  0  0  0  0
  -25.0057  -33.9770   25.0488 H   0  0  0  0  0  0
  -22.6879  -31.3140   21.4159 H   0  0  0  0  0  0
  -23.3751  -35.9562   23.3304 H   0  0  0  0  0  0
  -24.3543  -36.8892   22.2071 H   0  0  0  0  0  0
  -23.7157  -37.6450   23.6672 H   0  0  0  0  0  0
  -26.0522  -31.6040   20.6000 H   0  0  0  0  0  0
  -26.8138  -30.8788   21.9889 H   0  0  0  0  0  0
  -28.0931  -29.1104   21.1634 H   0  0  0  0  0  0
  -26.0292  -25.9863   18.9961 H   0  0  0  0  0  0
  -23.9721  -27.3075   19.0296 H   0  0  0  0  0  0
  -23.7055  -30.6032   19.4036 H   0  0  0  0  0  0
  -22.7287  -29.2461   19.8770 H   0  0  0  0  0  0
  -25.1250  -36.1941   25.0858 H   0  0  0  0  0  0
  -20.9969  -28.3222   24.1423 H   0  0  0  0  0  0
  -20.5669  -26.2275   23.3590 H   0  0  0  0  0  0
  -21.6621  -26.7449   22.1178 H   0  0  0  0  0  0
  -19.6874  -25.6294   21.1242 H   0  0  0  0  0  0
  -19.6669  -27.3205   20.6747 H   0  0  0  0  0  0
  -17.4179  -26.6712   21.4011 H   0  0  0  0  0  0
  -18.0281  -26.0056   22.9002 H   0  0  0  0  0  0
  -19.7934  -30.7253   24.2279 H   0  0  0  0  0  0
  -17.5022  -31.6284   24.5154 H   0  0  0  0  0  0
  -15.5348  -30.2997   23.7685 H   0  0  0  0  0  0
  -15.8647  -28.0823   22.7104 H   0  0  0  0  0  0
  -24.5892  -30.7050   25.7770 H   0  0  0  0  0  0
  -24.8939  -32.2805   26.4994 H   0  0  0  0  0  0
  -25.8062  -30.8752   27.0205 H   0  0  0  0  0  0
  -26.2895  -29.6740   24.1264 H   0  0  0  0  0  0
  -27.4205  -29.7340   25.4588 H   0  0  0  0  0  0
  -27.8678  -30.4365   23.9235 H   0  0  0  0  0  0
  -27.2679  -33.3625   26.2073 H   0  0  0  0  0  0
  -28.3859  -32.6869   25.0320 H   0  0  0  0  0  0
  -28.0730  -31.8452   26.5416 H   0  0  0  0  0  0
  -28.2583  -38.0070   24.7569 H   0  0  0  0  0  0
  -28.1044  -36.2617   24.6270 H   0  0  0  0  0  0
  -27.2288  -37.1357   25.8891 H   0  0  0  0  0  0
  -20.9290  -29.8682   21.6876 H   0  0  0  0  0  0
  -26.0141  -38.2859   24.1496 H   0  0  0  0  0  0
  -33.2027  -19.3965   23.2603 H   0  0  0  0  0  0
  -32.6122  -15.1557   22.8484 H   0  0  0  0  0  0
  -29.6591  -17.8807   21.2902 H   0  0  0  0  0  0
  -28.5534  -22.6185   20.2152 H   0  0  0  0  0  0
  -35.1137  -17.7196   23.4720 H   0  0  0  0  0  0
  -34.7517  -16.0139   23.5714 H   0  0  0  0  0  0
  -27.3492  -24.9520   20.5631 H   0  0  0  0  0  0
  -28.1854  -24.9698   19.0110 H   0  0  0  0  0  0
  -31.6870  -20.8718   22.4706 H   0  0  0  0  0  0
  -29.3676  -15.1469   21.8702 H   0  0  0  0  0  0
  -34.0533  -18.0521   25.5629 H   0  0  0  0  0  0
  -35.1229  -16.8380   25.7250 H   0  0  0  0  0  0
  -33.5316  -16.5032   25.6307 H   0  0  0  0  0  0
  -31.2586  -23.7268   22.0050 H   0  0  0  0  0  0
  1 25  1  0  0  0
  1 30  2  0  0  0
  1 84  1  0  0  0
  2  3  1  0  0  0
  2 25  1  0  0  0
  2 89  1  0  0  0
  2 90  1  0  0  0
  3  4  1  0  0  0
  3 91  1  0  0  0
  3 92  1  0  0  0
  4  5  1  0  0  0
  4 93  1  0  0  0
  4 94  1  0  0  0
  5  6  1  0  0  0
  5 26  1  0  0  0
  5 95  1  0  0  0
  6 25  1  0  0  0
  6 96  1  0  0  0
  6 97  1  0  0  0
  7  8  2  0  0  0
  7 26  1  0  0  0
  7 29  1  0  0  0
  8  9  1  0  0  0
  8 22  1  0  0  0
  9 10  1  0  0  0
  9 27  2  0  0  0
 10 11  2  0  0  0
 10 15  1  0  0  0
 11 12  1  0  0  0
 11 98  1  0  0  0
 12 13  2  0  0  0
 12 99  1  0  0  0
 13 14  1  0  0  0
 13 31  1  0  0  0
 14 15  2  0  0  0
 14100  1  0  0  0
 15101  1  0  0  0
 16 17  2  0  0  0
 16 21  1  0  0  0
 16 31  1  0  0  0
 17 18  1  0  0  0
 17102  1  0  0  0
 18 19  2  0  0  0
 18103  1  0  0  0
 19 20  1  0  0  0
 19 24  1  0  0  0
 20 21  2  0  0  0
 20104  1  0  0  0
 21 23  1  0  0  0
 22 28  1  0  0  0
 22 32  2  0  0  0
 26 27  1  0  0  0
 28105  1  0  0  0
 28106  1  0  0  0
 29107  1  0  0  0
 29108  1  0  0  0
 33 34  1  0  0  0
 33 66  1  0  0  0
 33 70  2  0  0  0
 34 36  1  0  0  0
 34 59  1  0  0  0
 34109  1  0  0  0
 35 44  2  0  0  0
 35 45  1  0  0  0
 35 68  1  0  0  0
 36 56  1  0  0  0
 36110  1  0  0  0
 37 39  1  0  0  0
 37 47  1  0  0  0
 37 66  1  0  0  0
 37111  1  0  0  0
 38 43  2  0  0  0
 38 46  1  0  0  0
 38 47  1  0  0  0
 39 64  1  0  0  0
 39 67  2  0  0  0
 40 52  1  0  0  0
 40 53  2  0  0  0
 40 58  1  0  0  0
 41112  1  0  0  0
 41113  1  0  0  0
 41114  1  0  0  0
 41 48  1  0  0  0
 42 43  1  0  0  0
 42 66  1  0  0  0
 42115  1  0  0  0
 42116  1  0  0  0
 43 44  1  0  0  0
 44117  1  0  0  0
 45 46  2  0  0  0
 45118  1  0  0  0
 46119  1  0  0  0
 47120  1  0  0  0
 47121  1  0  0  0
 48 56  1  0  0  0
 48 65  1  0  0  0
 48122  1  0  0  0
 49 50  1  0  0  0
 49 53  1  0  0  0
 49 64  1  0  0  0
 49123  1  0  0  0
 50 51  1  0  0  0
 50124  1  0  0  0
 50125  1  0  0  0
 51 52  1  0  0  0
 51126  1  0  0  0
 51127  1  0  0  0
 52128  1  0  0  0
 52129  1  0  0  0
 53 54  1  0  0  0
 54 55  2  0  0  0
 54130  1  0  0  0
 55 57  1  0  0  0
 55131  1  0  0  0
 56 69  2  0  0  0
 57 58  2  0  0  0
 57132  1  0  0  0
 58133  1  0  0  0
 59 60  1  0  0  0
 59 61  1  0  0  0
 59 62  1  0  0  0
 60134  1  0  0  0
 60135  1  0  0  0
 60136  1  0  0  0
 61137  1  0  0  0
 61138  1  0  0  0
 61139  1  0  0  0
 62140  1  0  0  0
 62141  1  0  0  0
 62142  1  0  0  0
 63 65  1  0  0  0
 63143  1  0  0  0
 63144  1  0  0  0
 63145  1  0  0  0
 64146  1  0  0  0
 65147  1  0  0  0
 68 82  1  0  0  0
 71 74  2  0  0  0
 71 75  1  0  0  0
 71148  1  0  0  0
 72 74  1  0  0  0
 72 76  2  0  0  0
 72149  1  0  0  0
 73 75  2  0  0  0
 73 76  1  0  0  0
 73150  1  0  0  0
 74 81  1  0  0  0
 75 83  1  0  0  0
 76 84  1  0  0  0
 77 78  2  0  0  0
 77 79  1  0  0  0
 77151  1  0  0  0
 78 80  1  0  0  0
 78 88  1  0  0  0
 79 82  1  0  0  0
 79 86  2  0  0  0
 80 83  1  0  0  0
 80 87  2  0  0  0
 81 85  1  0  0  0
 81152  1  0  0  0
 81153  1  0  0  0
 82154  1  0  0  0
 82155  1  0  0  0
 83156  1  0  0  0
 84157  1  0  0  0
 85158  1  0  0  0
 85159  1  0  0  0
 85160  1  0  0  0
 88161  1  0  0  0
M  CHG  1  85   1
M  ISO  4   1 100  68 101  82 101  84 100
M  END
> <chiral flag>
0

> <version>
0

> <s_m_source_file>
/data/baiqing/PycharmProjects/Reinvent-master-3.2/result/LINK_invent/BTK/process_docking_weight1_custom_product_contain_oxygen_bond_distance_aromatic_linkinvent_7_9_3/rearranged_h_0174.sdf

> <i_m_source_file_index>
38

> <r_mmod_Potential_Energy-OPLS-2005>
-427.487457275391

> <r_mmod_Stretch_Energy-OPLS-2005>
38.3087310791016

> <r_mmod_Bend_Energy-OPLS-2005>
105.28409576416

> <r_mmod_Torsional_Energy-OPLS-2005>
215.023178100586

> <r_mmod_Improper_Torsional_Energy-OPLS-2005>
1.77779352664948

> <r_mmod_Van_der_Waal_Energy-OPLS-2005>
178.852798461914

> <r_mmod_Electrostatic_Energy-OPLS-2005>
-425.512420654297

> <r_mmod_Solvation_Energy-OPLS-2005>
-551.448547363281

> <b_mmod_Minimization_Converged-OPLS-2005>
0

> <r_mmod_RMS_Derivative-OPLS-2005>
2.19051027297974

$$$$
38
                    3D
 Structure written by MMmdl.
159167  0  0  1  0            999 V2000
  -30.6786  -14.4628   20.6120 C   0  0  0  0  0  0
  -30.4116  -12.2768   19.4643 C   0  0  0  0  0  0
  -29.5112  -12.4893   18.2297 C   0  0  0  0  0  0
  -28.0206  -12.3625   18.6109 C   0  0  0  0  0  0
  -27.6578  -13.1995   19.8696 C   0  0  2  0  0  0
  -28.6848  -12.9666   21.0014 C   0  0  0  0  0  0
  -25.2566  -13.8141   20.5616 C   0  0  0  0  0  0
  -24.1814  -13.0438   20.9125 C   0  0  0  0  0  0
  -24.6347  -11.6886   20.8656 C   0  0  0  0  0  0
  -23.8998  -10.4271   21.0341 C   0  0  0  0  0  0
  -24.3573   -9.4229   21.9132 C   0  0  0  0  0  0
  -23.6289   -8.2223   22.0724 C   0  0  0  0  0  0
  -22.4276   -8.0233   21.3522 C   0  0  0  0  0  0
  -21.9858   -9.0197   20.4614 C   0  0  0  0  0  0
  -22.7145  -10.2097   20.3015 C   0  0  0  0  0  0
  -21.6852   -6.0704   22.5274 C   0  0  0  0  0  0
  -21.4037   -6.5622   23.8205 C   0  0  0  0  0  0
  -21.3688   -5.6795   24.9172 C   0  0  0  0  0  0
  -21.6037   -4.3050   24.7221 C   0  0  0  0  0  0
  -21.8830   -3.8136   23.4347 C   0  0  0  0  0  0
  -21.9207   -4.6931   22.3399 C   0  0  0  0  0  0
  -22.7846  -13.5200   21.1840 C   0  0  0  0  0  0
  -22.1663   -4.2144   21.0968 F   0  0  0  0  0  0
  -21.5635   -3.4539   25.7728 F   0  0  0  0  0  0
  -30.0241  -13.2741   20.4735 N   0  0  0  0  0  0
  -26.2969  -12.9302   20.3264 N   0  0  0  0  0  0
  -25.9267  -11.6461   20.5664 N   0  0  0  0  0  0
  -22.0539  -12.8192   22.0426 N   0  0  0  0  0  0
  -25.4360  -15.1875   20.4081 N   0  0  0  0  0  0
  -31.7988  -14.6277   20.1190 O   0  0  0  0  0  0
  -21.6639   -6.8835   21.4222 O   0  0  0  0  0  0
  -22.3523  -14.5539   20.6739 O   0  0  0  0  0  0
  -24.6104  -31.8695   23.2120 C   0  0  0  0  0  0
  -25.9004  -32.4842   23.8358 C   0  0  1  0  0  0
  -27.2302  -27.4563   20.0697 C   0  0  0  0  0  0
  -25.5857  -33.8633   24.2280 N   0  0  0  0  0  0
  -23.3940  -30.4905   21.5593 C   0  0  2  0  0  0
  -24.8367  -28.9529   20.1239 C   0  0  0  0  0  0
  -22.7354  -29.4659   22.5087 C   0  0  0  0  0  0
  -18.0244  -28.1349   22.8576 C   0  0  0  0  0  0
  -24.1478  -36.7376   23.2627 C   0  0  0  0  0  0
  -25.9195  -30.8344   21.3575 C   0  0  0  0  0  0
  -25.9965  -29.4651   20.7177 C   0  0  0  0  0  0
  -27.1922  -28.7172   20.7007 C   0  0  0  0  0  0
  -26.0423  -26.9351   19.5014 C   0  0  0  0  0  0
  -24.8496  -27.6809   19.5248 C   0  0  0  0  0  0
  -23.5929  -29.8137   20.1786 C   0  0  0  0  0  0
  -25.4092  -36.3124   24.0311 C   0  0  1  0  0  0
  -20.5829  -28.3612   23.1397 C   0  0  2  0  0  0
  -20.6728  -26.9356   22.5473 C   0  0  0  0  0  0
  -19.5703  -26.6365   21.5258 C   0  0  0  0  0  0
  -18.1868  -26.7925   22.1638 C   0  0  0  0  0  0
  -19.1488  -28.8794   23.2999 C   0  0  0  0  0  0
  -18.9422  -30.1427   23.8983 C   0  0  0  0  0  0
  -17.6413  -30.6573   24.0569 C   0  0  0  0  0  0
  -25.9019  -34.9480   23.5096 C   0  0  0  0  0  0
  -16.5315  -29.9068   23.6330 C   0  0  0  0  0  0
  -16.7229  -28.6469   23.0405 C   0  0  0  0  0  0
  -26.4442  -31.6651   25.0718 C   0  0  0  0  0  0
  -25.3719  -31.3779   26.1486 C   0  0  0  0  0  0
  -27.0278  -30.3074   24.6138 C   0  0  0  0  0  0
  -27.6002  -32.4427   25.7489 C   0  0  0  0  0  0
  -27.5608  -37.1759   24.8382 C   0  0  0  0  0  0
  -21.4078  -29.3026   22.3838 N   0  0  0  0  0  0
  -26.4248  -37.3827   23.9440 N   0  0  0  0  0  0
  -24.6614  -31.0760   22.1051 N   0  0  0  0  0  0
  -23.4165  -28.8220   23.3097 O   0  0  0  0  0  0
  -28.4262  -26.7735   20.0170 O   0  0  0  0  0  0
  -26.5620  -34.8917   22.4683 O   0  0  0  0  0  0
  -23.5304  -32.1459   23.7521 O   0  0  0  0  0  0
  -31.5920  -21.7565   20.6081 C   0  0  0  0  0  0
  -30.3620  -22.1041   20.1070 C   0  0  0  0  0  0
  -29.9139  -19.9394   20.7016 C   0  0  0  0  0  0
  -29.1739  -18.6376   20.8556 C   0  0  0  0  0  0
  -30.4080  -16.5406   21.7164 C   0  0  0  0  0  0
  -30.6277  -24.5461   19.6301 C   0  0  0  0  0  0
  -31.8952  -16.7834   22.0127 C   0  0  0  0  0  0
  -29.6115  -18.4441   23.4005 C   0  0  0  0  0  0
  -30.1540  -25.6636   18.6878 C   0  0  0  0  0  0
  -28.6682  -26.0274   18.8215 C   0  0  0  0  0  0
  -29.4330  -17.6933   22.0559 C   0  0  1  0  0  0
  -29.4276  -21.0659   20.1437 N   0  0  0  0  0  0
  -29.9067  -15.4621   21.2183 N   0  0  0  0  0  0
  -30.0451  -23.3380   19.4877 N   0  0  0  0  0  0
  -28.2808  -18.3608   20.0443 O   0  0  0  0  0  0
  -31.5205  -24.7882   20.4499 O   0  0  0  0  0  0
  -31.6107  -20.1019   21.1687 S   0  0  0  0  0  0
  -31.4713  -12.3326   19.2028 H   0  0  0  0  0  0
  -30.2628  -11.2733   19.8705 H   0  0  0  0  0  0
  -29.7643  -11.7573   17.4627 H   0  0  0  0  0  0
  -29.7065  -13.4747   17.8021 H   0  0  0  0  0  0
  -27.8136  -11.3086   18.7973 H   0  0  0  0  0  0
  -27.3915  -12.6486   17.7673 H   0  0  0  0  0  0
  -27.7075  -14.2485   19.5804 H   0  0  0  0  0  0
  -28.6487  -11.9243   21.3234 H   0  0  0  0  0  0
  -28.4283  -13.5482   21.8889 H   0  0  0  0  0  0
  -25.2722   -9.5746   22.4694 H   0  0  0  0  0  0
  -24.0060   -7.4619   22.7438 H   0  0  0  0  0  0
  -21.0789   -8.8615   19.8935 H   0  0  0  0  0  0
  -22.3528  -10.9595   19.6119 H   0  0  0  0  0  0
  -21.2027   -7.6140   23.9696 H   0  0  0  0  0  0
  -21.1516   -6.0525   25.9078 H   0  0  0  0  0  0
  -22.0596   -2.7595   23.2827 H   0  0  0  0  0  0
  -22.4234  -11.9883   22.4824 H   0  0  0  0  0  0
  -21.1153  -13.1160   22.2653 H   0  0  0  0  0  0
  -24.6832  -15.8545   20.5385 H   0  0  0  0  0  0
  -26.3100  -15.6183   20.1330 H   0  0  0  0  0  0
  -26.7098  -32.5516   23.1117 H   0  0  0  0  0  0
  -24.9863  -33.9816   25.0311 H   0  0  0  0  0  0
  -22.6835  -31.3077   21.4217 H   0  0  0  0  0  0
  -23.3759  -35.9678   23.3144 H   0  0  0  0  0  0
  -24.3588  -36.9194   22.2076 H   0  0  0  0  0  0
  -23.7189  -37.6497   23.6785 H   0  0  0  0  0  0
  -26.0031  -31.5825   20.5686 H   0  0  0  0  0  0
  -26.8203  -30.9086   21.9570 H   0  0  0  0  0  0
  -28.0963  -29.1151   21.1425 H   0  0  0  0  0  0
  -26.0203  -25.9586   19.0455 H   0  0  0  0  0  0
  -23.9467  -27.2745   19.0910 H   0  0  0  0  0  0
  -23.6797  -30.5806   19.4085 H   0  0  0  0  0  0
  -22.7163  -29.2205   19.9072 H   0  0  0  0  0  0
  -25.1258  -36.1935   25.0797 H   0  0  0  0  0  0
  -20.9908  -28.3154   24.1508 H   0  0  0  0  0  0
  -20.5602  -26.2217   23.3648 H   0  0  0  0  0  0
  -21.6601  -26.7398   22.1262 H   0  0  0  0  0  0
  -19.6845  -25.6278   21.1265 H   0  0  0  0  0  0
  -19.6639  -27.3211   20.6815 H   0  0  0  0  0  0
  -17.4163  -26.6771   21.4008 H   0  0  0  0  0  0
  -18.0213  -26.0015   22.8971 H   0  0  0  0  0  0
  -19.7883  -30.7262   24.2366 H   0  0  0  0  0  0
  -17.4938  -31.6255   24.5193 H   0  0  0  0  0  0
  -15.5306  -30.2971   23.7613 H   0  0  0  0  0  0
  -15.8649  -28.0780   22.7111 H   0  0  0  0  0  0
  -24.5833  -30.7206   25.7828 H   0  0  0  0  0  0
  -24.8971  -32.2945   26.4977 H   0  0  0  0  0  0
  -25.8052  -30.8890   27.0220 H   0  0  0  0  0  0
  -26.2802  -29.6818   24.1238 H   0  0  0  0  0  0
  -27.4067  -29.7354   25.4624 H   0  0  0  0  0  0
  -27.8621  -30.4382   23.9250 H   0  0  0  0  0  0
  -27.2550  -33.3654   26.2157 H   0  0  0  0  0  0
  -28.3718  -32.7147   25.0294 H   0  0  0  0  0  0
  -28.0760  -31.8538   26.5327 H   0  0  0  0  0  0
  -28.2450  -38.0226   24.7711 H   0  0  0  0  0  0
  -28.1301  -36.2794   24.5845 H   0  0  0  0  0  0
  -27.2400  -37.0967   25.8783 H   0  0  0  0  0  0
  -20.9202  -29.8772   21.7117 H   0  0  0  0  0  0
  -26.0134  -38.2874   24.1620 H   0  0  0  0  0  0
  -32.4957  -22.3526   20.6538 H   0  0  0  0  0  0
  -32.0554  -17.5216   22.7928 H   0  0  0  0  0  0
  -32.4118  -17.1258   21.1171 H   0  0  0  0  0  0
  -32.3810  -15.8722   22.3632 H   0  0  0  0  0  0
  -28.8882  -19.2618   23.4745 H   0  0  0  0  0  0
  -30.5929  -18.8928   23.5364 H   0  0  0  0  0  0
  -29.4137  -17.7947   24.2530 H   0  0  0  0  0  0
  -30.3481  -25.3336   17.6705 H   0  0  0  0  0  0
  -30.7567  -26.5595   18.8286 H   0  0  0  0  0  0
  -28.0648  -25.1214   18.7903 H   0  0  0  0  0  0
  -28.3834  -26.6289   17.9555 H   0  0  0  0  0  0
  -28.4684  -17.2031   22.1794 H   0  0  0  0  0  0
  -29.2753  -23.3011   18.8377 H   0  0  0  0  0  0
  1 25  1  0  0  0
  1 30  2  0  0  0
  1 83  1  0  0  0
  2  3  1  0  0  0
  2 25  1  0  0  0
  2 88  1  0  0  0
  2 89  1  0  0  0
  3  4  1  0  0  0
  3 90  1  0  0  0
  3 91  1  0  0  0
  4  5  1  0  0  0
  4 92  1  0  0  0
  4 93  1  0  0  0
  5  6  1  0  0  0
  5 26  1  0  0  0
  5 94  1  0  0  0
  6 25  1  0  0  0
  6 95  1  0  0  0
  6 96  1  0  0  0
  7  8  2  0  0  0
  7 26  1  0  0  0
  7 29  1  0  0  0
  8  9  1  0  0  0
  8 22  1  0  0  0
  9 10  1  0  0  0
  9 27  2  0  0  0
 10 11  2  0  0  0
 10 15  1  0  0  0
 11 12  1  0  0  0
 11 97  1  0  0  0
 12 13  2  0  0  0
 12 98  1  0  0  0
 13 14  1  0  0  0
 13 31  1  0  0  0
 14 15  2  0  0  0
 14 99  1  0  0  0
 15100  1  0  0  0
 16 17  2  0  0  0
 16 21  1  0  0  0
 16 31  1  0  0  0
 17 18  1  0  0  0
 17101  1  0  0  0
 18 19  2  0  0  0
 18102  1  0  0  0
 19 20  1  0  0  0
 19 24  1  0  0  0
 20 21  2  0  0  0
 20103  1  0  0  0
 21 23  1  0  0  0
 22 28  1  0  0  0
 22 32  2  0  0  0
 26 27  1  0  0  0
 28104  1  0  0  0
 28105  1  0  0  0
 29106  1  0  0  0
 29107  1  0  0  0
 33 34  1  0  0  0
 33 66  1  0  0  0
 33 70  2  0  0  0
 34 36  1  0  0  0
 34 59  1  0  0  0
 34108  1  0  0  0
 35 44  2  0  0  0
 35 45  1  0  0  0
 35 68  1  0  0  0
 36 56  1  0  0  0
 36109  1  0  0  0
 37 39  1  0  0  0
 37 47  1  0  0  0
 37 66  1  0  0  0
 37110  1  0  0  0
 38 43  2  0  0  0
 38 46  1  0  0  0
 38 47  1  0  0  0
 39 64  1  0  0  0
 39 67  2  0  0  0
 40 52  1  0  0  0
 40 53  2  0  0  0
 40 58  1  0  0  0
 41111  1  0  0  0
 41112  1  0  0  0
 41113  1  0  0  0
 41 48  1  0  0  0
 42 43  1  0  0  0
 42 66  1  0  0  0
 42114  1  0  0  0
 42115  1  0  0  0
 43 44  1  0  0  0
 44116  1  0  0  0
 45 46  2  0  0  0
 45117  1  0  0  0
 46118  1  0  0  0
 47119  1  0  0  0
 47120  1  0  0  0
 48 56  1  0  0  0
 48 65  1  0  0  0
 48121  1  0  0  0
 49 50  1  0  0  0
 49 53  1  0  0  0
 49 64  1  0  0  0
 49122  1  0  0  0
 50 51  1  0  0  0
 50123  1  0  0  0
 50124  1  0  0  0
 51 52  1  0  0  0
 51125  1  0  0  0
 51126  1  0  0  0
 52127  1  0  0  0
 52128  1  0  0  0
 53 54  1  0  0  0
 54 55  2  0  0  0
 54129  1  0  0  0
 55 57  1  0  0  0
 55130  1  0  0  0
 56 69  2  0  0  0
 57 58  2  0  0  0
 57131  1  0  0  0
 58132  1  0  0  0
 59 60  1  0  0  0
 59 61  1  0  0  0
 59 62  1  0  0  0
 60133  1  0  0  0
 60134  1  0  0  0
 60135  1  0  0  0
 61136  1  0  0  0
 61137  1  0  0  0
 61138  1  0  0  0
 62139  1  0  0  0
 62140  1  0  0  0
 62141  1  0  0  0
 63 65  1  0  0  0
 63142  1  0  0  0
 63143  1  0  0  0
 63144  1  0  0  0
 64145  1  0  0  0
 65146  1  0  0  0
 68 80  1  0  0  0
 71 72  2  0  0  0
 71 87  1  0  0  0
 71147  1  0  0  0
 72 82  1  0  0  0
 72 84  1  0  0  0
 73 74  1  0  0  0
 73 82  2  0  0  0
 73 87  1  0  0  0
 74 81  1  0  0  0
 74 85  2  0  0  0
 75 77  1  0  0  0
 75 81  1  0  0  0
 75 83  2  0  0  0
 76 79  1  0  0  0
 76 84  1  0  0  0
 76 86  2  0  0  0
 77148  1  0  0  0
 77149  1  0  0  0
 77150  1  0  0  0
 78151  1  0  0  0
 78152  1  0  0  0
 78153  1  0  0  0
 78 81  1  0  0  0
 79 80  1  0  0  0
 79154  1  0  0  0
 79155  1  0  0  0
 80156  1  0  0  0
 80157  1  0  0  0
 81158  1  0  0  0
 84159  1  0  0  0
M  ISO  4   1 100  68 101  80 101  83 100
M  END
> <chiral flag>
0

> <version>
0

> <s_m_source_file>
/data/baiqing/PycharmProjects/Reinvent-master-3.2/result/LINK_invent/BTK/process_docking_weight1_custom_product_contain_oxygen_bond_distance_aromatic_linkinvent_7_9_3/rearranged_h_0174.sdf

> <i_m_source_file_index>
39

> <r_mmod_Potential_Energy-OPLS-2005>
-38.0533332824707

> <r_mmod_Stretch_Energy-OPLS-2005>
40.8070831298828

> <r_mmod_Bend_Energy-OPLS-2005>
131.961029052734

> <r_mmod_Torsional_Energy-OPLS-2005>
201.510238647461

> <r_mmod_Improper_Torsional_Energy-OPLS-2005>
4.23361825942993

> <r_mmod_Van_der_Waal_Energy-OPLS-2005>
145.517105102539

> <r_mmod_Electrostatic_Energy-OPLS-2005>
-347.294860839844

> <r_mmod_Solvation_Energy-OPLS-2005>
-227.010498046875

> <b_mmod_Minimization_Converged-OPLS-2005>
0

> <r_mmod_RMS_Derivative-OPLS-2005>
6.46961975097656

$$$$
39
                    3D
 Structure written by MMmdl.
158166  0  0  1  0            999 V2000
  -30.7077  -14.5043   20.5708 C   0  0  0  0  0  0
  -30.4234  -12.3385   19.4127 C   0  0  0  0  0  0
  -29.4908  -12.5248   18.1983 C   0  0  0  0  0  0
  -28.0144  -12.3842   18.6154 C   0  0  0  0  0  0
  -27.6627  -13.2177   19.8761 C   0  0  2  0  0  0
  -28.7106  -13.0188   20.9954 C   0  0  0  0  0  0
  -25.2606  -13.8159   20.5700 C   0  0  0  0  0  0
  -24.1879  -13.0434   20.9175 C   0  0  0  0  0  0
  -24.6445  -11.6897   20.8758 C   0  0  0  0  0  0
  -23.9114  -10.4281   21.0422 C   0  0  0  0  0  0
  -24.3650   -9.4190   21.9205 C   0  0  0  0  0  0
  -23.6308   -8.2247   22.0770 C   0  0  0  0  0  0
  -22.4298   -8.0291   21.3556 C   0  0  0  0  0  0
  -21.9943   -9.0268   20.4662 C   0  0  0  0  0  0
  -22.7279  -10.2137   20.3067 C   0  0  0  0  0  0
  -21.6858   -6.0754   22.5282 C   0  0  0  0  0  0
  -21.4006   -6.5653   23.8203 C   0  0  0  0  0  0
  -21.3659   -5.6806   24.9169 C   0  0  0  0  0  0
  -21.6030   -4.3066   24.7210 C   0  0  0  0  0  0
  -21.8825   -3.8167   23.4331 C   0  0  0  0  0  0
  -21.9189   -4.6990   22.3390 C   0  0  0  0  0  0
  -22.7891  -13.5225   21.1815 C   0  0  0  0  0  0
  -22.1672   -4.2172   21.0976 F   0  0  0  0  0  0
  -21.5621   -3.4548   25.7727 F   0  0  0  0  0  0
  -30.0342  -13.3290   20.4312 N   0  0  0  0  0  0
  -26.3065  -12.9366   20.3414 N   0  0  0  0  0  0
  -25.9376  -11.6514   20.5787 N   0  0  0  0  0  0
  -22.0535  -12.8229   22.0367 N   0  0  0  0  0  0
  -25.4274  -15.1885   20.4124 N   0  0  0  0  0  0
  -31.8378  -14.6806   20.1122 O   0  0  0  0  0  0
  -21.6654   -6.8905   21.4247 O   0  0  0  0  0  0
  -22.3586  -14.5542   20.6663 O   0  0  0  0  0  0
  -24.6223  -31.8692   23.2074 C   0  0  0  0  0  0
  -25.9108  -32.4814   23.8392 C   0  0  1  0  0  0
  -27.2274  -27.4119   20.0929 C   0  0  0  0  0  0
  -25.5920  -33.8609   24.2320 N   0  0  0  0  0  0
  -23.4064  -30.4978   21.5509 C   0  0  2  0  0  0
  -24.8499  -28.9686   20.1114 C   0  0  0  0  0  0
  -22.7432  -29.4691   22.4987 C   0  0  0  0  0  0
  -18.0239  -28.1390   22.8471 C   0  0  0  0  0  0
  -24.1466  -36.7323   23.2642 C   0  0  0  0  0  0
  -25.9393  -30.8284   21.3575 C   0  0  0  0  0  0
  -26.0158  -29.4616   20.7087 C   0  0  0  0  0  0
  -27.2079  -28.6918   20.7022 C   0  0  0  0  0  0
  -26.0453  -26.9641   19.4504 C   0  0  0  0  0  0
  -24.8595  -27.7161   19.4823 C   0  0  0  0  0  0
  -23.6141  -29.8410   20.1640 C   0  0  0  0  0  0
  -25.4086  -36.3096   24.0342 C   0  0  1  0  0  0
  -20.5851  -28.3698   23.1278 C   0  0  2  0  0  0
  -20.6749  -26.9433   22.5395 C   0  0  0  0  0  0
  -19.5742  -26.6394   21.5200 C   0  0  0  0  0  0
  -18.1907  -26.7918   22.1608 C   0  0  0  0  0  0
  -19.1494  -28.8852   23.2859 C   0  0  0  0  0  0
  -18.9453  -30.1437   23.8900 C   0  0  0  0  0  0
  -17.6469  -30.6595   24.0570 C   0  0  0  0  0  0
  -25.9042  -34.9480   23.5136 C   0  0  0  0  0  0
  -16.5341  -29.9125   23.6337 C   0  0  0  0  0  0
  -16.7239  -28.6536   23.0370 C   0  0  0  0  0  0
  -26.4510  -31.6581   25.0725 C   0  0  0  0  0  0
  -25.3783  -31.3693   26.1491 C   0  0  0  0  0  0
  -27.0340  -30.3014   24.6089 C   0  0  0  0  0  0
  -27.6097  -32.4304   25.7501 C   0  0  0  0  0  0
  -27.5578  -37.1795   24.8476 C   0  0  0  0  0  0
  -21.4164  -29.3065   22.3702 N   0  0  0  0  0  0
  -26.4262  -37.3806   23.9449 N   0  0  0  0  0  0
  -24.6748  -31.0787   22.0981 N   0  0  0  0  0  0
  -23.4176  -28.8235   23.3048 O   0  0  0  0  0  0
  -28.3579  -26.6038   20.1386 O   0  0  0  0  0  0
  -26.5632  -34.8955   22.4715 O   0  0  0  0  0  0
  -23.5426  -32.1481   23.7458 O   0  0  0  0  0  0
  -29.0624  -17.7133   19.4300 C   0  0  0  0  0  0
  -28.6345  -20.0619   18.9762 C   0  0  0  0  0  0
  -29.8218  -18.0506   20.5733 C   0  0  0  0  0  0
  -30.0033  -19.4410   20.9151 C   0  0  0  0  0  0
  -29.3560  -20.4626   20.1299 C   0  0  0  0  0  0
  -28.4963  -18.7104   18.6264 C   0  0  0  0  0  0
  -28.1483  -25.2317   20.2492 C   0  0  0  0  0  0
  -29.0802  -24.2480   20.1745 C   0  0  0  0  0  0
  -28.5742  -22.8570   20.1488 C   0  0  0  0  0  0
  -30.5714  -24.5397   20.0536 C   0  0  0  0  0  0
  -30.4898  -16.9024   21.3749 C   0  0  0  0  0  0
  -30.9215  -19.7964   22.1008 C   0  0  0  0  0  0
  -29.4829  -21.8833   20.4001 N   0  0  0  0  0  0
  -30.0117  -15.5214   21.1268 N   0  0  0  0  0  0
  -27.3943  -22.5741   19.9168 O   0  0  0  0  0  0
  -27.8307  -18.3641   17.4978 F   0  0  0  0  0  0
  -32.1065  -19.2050   21.9347 F   0  0  0  0  0  0
  -31.1668  -21.1007   22.2312 F   0  0  0  0  0  0
  -30.3865  -19.3719   23.2455 F   0  0  0  0  0  0
  -31.4659  -12.4407   19.1053 H   0  0  0  0  0  0
  -30.3296  -11.3274   19.8108 H   0  0  0  0  0  0
  -29.7291  -11.7945   17.4228 H   0  0  0  0  0  0
  -29.6570  -13.5079   17.7535 H   0  0  0  0  0  0
  -27.8234  -11.3282   18.8036 H   0  0  0  0  0  0
  -27.3634  -12.6703   17.7887 H   0  0  0  0  0  0
  -27.6994  -14.2653   19.5774 H   0  0  0  0  0  0
  -28.6966  -11.9900   21.3583 H   0  0  0  0  0  0
  -28.4747  -13.6370   21.8644 H   0  0  0  0  0  0
  -25.2779   -9.5675   22.4796 H   0  0  0  0  0  0
  -24.0005   -7.4646   22.7505 H   0  0  0  0  0  0
  -21.0866   -8.8794   19.8980 H   0  0  0  0  0  0
  -22.3730  -10.9695   19.6196 H   0  0  0  0  0  0
  -21.2004   -7.6159   23.9714 H   0  0  0  0  0  0
  -21.1471   -6.0540   25.9070 H   0  0  0  0  0  0
  -22.0602   -2.7637   23.2820 H   0  0  0  0  0  0
  -22.4153  -11.9864   22.4727 H   0  0  0  0  0  0
  -21.1148  -13.1272   22.2567 H   0  0  0  0  0  0
  -24.6484  -15.8298   20.5019 H   0  0  0  0  0  0
  -26.2713  -15.6360   20.0805 H   0  0  0  0  0  0
  -26.7187  -32.5505   23.1174 H   0  0  0  0  0  0
  -25.0074  -33.9732   25.0465 H   0  0  0  0  0  0
  -22.6928  -31.3150   21.4140 H   0  0  0  0  0  0
  -23.3744  -35.9647   23.3296 H   0  0  0  0  0  0
  -24.3547  -36.8952   22.2056 H   0  0  0  0  0  0
  -23.7225  -37.6528   23.6674 H   0  0  0  0  0  0
  -26.0428  -31.5857   20.5769 H   0  0  0  0  0  0
  -26.8312  -30.8888   21.9711 H   0  0  0  0  0  0
  -28.1025  -29.0750   21.1738 H   0  0  0  0  0  0
  -26.0154  -26.0185   18.9256 H   0  0  0  0  0  0
  -23.9642  -27.3366   19.0088 H   0  0  0  0  0  0
  -23.7257  -30.6266   19.4138 H   0  0  0  0  0  0
  -22.7331  -29.2703   19.8628 H   0  0  0  0  0  0
  -25.1239  -36.1965   25.0828 H   0  0  0  0  0  0
  -20.9900  -28.3275   24.1419 H   0  0  0  0  0  0
  -20.5651  -26.2350   23.3606 H   0  0  0  0  0  0
  -21.6627  -26.7479   22.1187 H   0  0  0  0  0  0
  -19.6951  -25.6312   21.1236 H   0  0  0  0  0  0
  -19.6679  -27.3207   20.6733 H   0  0  0  0  0  0
  -17.4172  -26.6649   21.3994 H   0  0  0  0  0  0
  -18.0301  -26.0042   22.8988 H   0  0  0  0  0  0
  -19.7934  -30.7204   24.2328 H   0  0  0  0  0  0
  -17.5052  -31.6296   24.5167 H   0  0  0  0  0  0
  -15.5361  -30.3071   23.7679 H   0  0  0  0  0  0
  -15.8610  -28.0886   22.7141 H   0  0  0  0  0  0
  -24.5942  -30.7039   25.7858 H   0  0  0  0  0  0
  -24.8991  -32.2836   26.4980 H   0  0  0  0  0  0
  -25.8143  -30.8852   27.0242 H   0  0  0  0  0  0
  -26.2861  -29.6729   24.1231 H   0  0  0  0  0  0
  -27.4223  -29.7280   25.4524 H   0  0  0  0  0  0
  -27.8647  -30.4344   23.9165 H   0  0  0  0  0  0
  -27.2771  -33.3705   26.1951 H   0  0  0  0  0  0
  -28.3992  -32.6695   25.0348 H   0  0  0  0  0  0
  -28.0666  -31.8480   26.5516 H   0  0  0  0  0  0
  -28.2580  -38.0104   24.7542 H   0  0  0  0  0  0
  -28.1071  -36.2635   24.6248 H   0  0  0  0  0  0
  -27.2302  -37.1398   25.8877 H   0  0  0  0  0  0
  -20.9373  -29.8847   21.6936 H   0  0  0  0  0  0
  -26.0152  -38.2901   24.1425 H   0  0  0  0  0  0
  -28.9328  -16.6879   19.1240 H   0  0  0  0  0  0
  -28.1856  -20.7892   18.3150 H   0  0  0  0  0  0
  -27.1098  -24.9740   20.3990 H   0  0  0  0  0  0
  -30.9568  -24.2189   19.0862 H   0  0  0  0  0  0
  -31.1425  -24.0366   20.8346 H   0  0  0  0  0  0
  -30.7648  -25.6085   20.1442 H   0  0  0  0  0  0
  -30.3767  -17.0865   22.4444 H   0  0  0  0  0  0
  -31.5613  -16.9540   21.1784 H   0  0  0  0  0  0
  -30.3242  -22.1886   20.8771 H   0  0  0  0  0  0
  -29.0737  -15.3062   21.4314 H   0  0  0  0  0  0
  1 25  1  0  0  0
  1 30  2  0  0  0
  1 84  1  0  0  0
  2  3  1  0  0  0
  2 25  1  0  0  0
  2 90  1  0  0  0
  2 91  1  0  0  0
  3  4  1  0  0  0
  3 92  1  0  0  0
  3 93  1  0  0  0
  4  5  1  0  0  0
  4 94  1  0  0  0
  4 95  1  0  0  0
  5  6  1  0  0  0
  5 26  1  0  0  0
  5 96  1  0  0  0
  6 25  1  0  0  0
  6 97  1  0  0  0
  6 98  1  0  0  0
  7  8  2  0  0  0
  7 26  1  0  0  0
  7 29  1  0  0  0
  8  9  1  0  0  0
  8 22  1  0  0  0
  9 10  1  0  0  0
  9 27  2  0  0  0
 10 11  2  0  0  0
 10 15  1  0  0  0
 11 12  1  0  0  0
 11 99  1  0  0  0
 12 13  2  0  0  0
 12100  1  0  0  0
 13 14  1  0  0  0
 13 31  1  0  0  0
 14 15  2  0  0  0
 14101  1  0  0  0
 15102  1  0  0  0
 16 17  2  0  0  0
 16 21  1  0  0  0
 16 31  1  0  0  0
 17 18  1  0  0  0
 17103  1  0  0  0
 18 19  2  0  0  0
 18104  1  0  0  0
 19 20  1  0  0  0
 19 24  1  0  0  0
 20 21  2  0  0  0
 20105  1  0  0  0
 21 23  1  0  0  0
 22 28  1  0  0  0
 22 32  2  0  0  0
 26 27  1  0  0  0
 28106  1  0  0  0
 28107  1  0  0  0
 29108  1  0  0  0
 29109  1  0  0  0
 33 34  1  0  0  0
 33 66  1  0  0  0
 33 70  2  0  0  0
 34 36  1  0  0  0
 34 59  1  0  0  0
 34110  1  0  0  0
 35 44  2  0  0  0
 35 45  1  0  0  0
 35 68  1  0  0  0
 36 56  1  0  0  0
 36111  1  0  0  0
 37 39  1  0  0  0
 37 47  1  0  0  0
 37 66  1  0  0  0
 37112  1  0  0  0
 38 43  2  0  0  0
 38 46  1  0  0  0
 38 47  1  0  0  0
 39 64  1  0  0  0
 39 67  2  0  0  0
 40 52  1  0  0  0
 40 53  2  0  0  0
 40 58  1  0  0  0
 41113  1  0  0  0
 41114  1  0  0  0
 41115  1  0  0  0
 41 48  1  0  0  0
 42 43  1  0  0  0
 42 66  1  0  0  0
 42116  1  0  0  0
 42117  1  0  0  0
 43 44  1  0  0  0
 44118  1  0  0  0
 45 46  2  0  0  0
 45119  1  0  0  0
 46120  1  0  0  0
 47121  1  0  0  0
 47122  1  0  0  0
 48 56  1  0  0  0
 48 65  1  0  0  0
 48123  1  0  0  0
 49 50  1  0  0  0
 49 53  1  0  0  0
 49 64  1  0  0  0
 49124  1  0  0  0
 50 51  1  0  0  0
 50125  1  0  0  0
 50126  1  0  0  0
 51 52  1  0  0  0
 51127  1  0  0  0
 51128  1  0  0  0
 52129  1  0  0  0
 52130  1  0  0  0
 53 54  1  0  0  0
 54 55  2  0  0  0
 54131  1  0  0  0
 55 57  1  0  0  0
 55132  1  0  0  0
 56 69  2  0  0  0
 57 58  2  0  0  0
 57133  1  0  0  0
 58134  1  0  0  0
 59 60  1  0  0  0
 59 61  1  0  0  0
 59 62  1  0  0  0
 60135  1  0  0  0
 60136  1  0  0  0
 60137  1  0  0  0
 61138  1  0  0  0
 61139  1  0  0  0
 61140  1  0  0  0
 62141  1  0  0  0
 62142  1  0  0  0
 62143  1  0  0  0
 63 65  1  0  0  0
 63144  1  0  0  0
 63145  1  0  0  0
 63146  1  0  0  0
 64147  1  0  0  0
 65148  1  0  0  0
 68 77  1  0  0  0
 71 73  2  0  0  0
 71 76  1  0  0  0
 71149  1  0  0  0
 72 75  1  0  0  0
 72 76  2  0  0  0
 72150  1  0  0  0
 73 74  1  0  0  0
 73 81  1  0  0  0
 74 75  2  0  0  0
 74 82  1  0  0  0
 75 83  1  0  0  0
 76 86  1  0  0  0
 77 78  2  0  0  0
 77151  1  0  0  0
 78 79  1  0  0  0
 78 80  1  0  0  0
 79 83  1  0  0  0
 79 85  2  0  0  0
 80152  1  0  0  0
 80153  1  0  0  0
 80154  1  0  0  0
 81 84  1  0  0  0
 81155  1  0  0  0
 81156  1  0  0  0
 82 87  1  0  0  0
 82 88  1  0  0  0
 82 89  1  0  0  0
 83157  1  0  0  0
 84158  1  0  0  0
M  ISO  4   1 100  68 101  77 101  84 100
M  END
> <chiral flag>
0

> <version>
0

> <s_m_source_file>
/data/baiqing/PycharmProjects/Reinvent-master-3.2/result/LINK_invent/BTK/process_docking_weight1_custom_product_contain_oxygen_bond_distance_aromatic_linkinvent_7_9_3/rearranged_h_0174.sdf

> <i_m_source_file_index>
40

> <r_mmod_Potential_Energy-OPLS-2005>
-29.0227451324463

> <r_mmod_Stretch_Energy-OPLS-2005>
55.2167167663574

> <r_mmod_Bend_Energy-OPLS-2005>
106.186424255371

> <r_mmod_Torsional_Energy-OPLS-2005>
224.064971923828

> <r_mmod_Improper_Torsional_Energy-OPLS-2005>
3.76499104499817

> <r_mmod_Van_der_Waal_Energy-OPLS-2005>
181.668502807617

> <r_mmod_Electrostatic_Energy-OPLS-2005>
-407.740997314453

> <r_mmod_Solvation_Energy-OPLS-2005>
-211.120483398438

> <b_mmod_Minimization_Converged-OPLS-2005>
0

> <r_mmod_RMS_Derivative-OPLS-2005>
5.04143047332764

$$$$
40
                    3D
 Structure written by MMmdl.
160168  0  0  1  0            999 V2000
  -30.7799  -14.3545   20.6933 C   0  0  0  0  0  0
  -30.4124  -12.2923   19.3885 C   0  0  0  0  0  0
  -29.4786  -12.5262   18.1876 C   0  0  0  0  0  0
  -28.0049  -12.3793   18.6080 C   0  0  0  0  0  0
  -27.6637  -13.2029   19.8777 C   0  0  2  0  0  0
  -28.7026  -12.9478   20.9915 C   0  0  0  0  0  0
  -25.2596  -13.8159   20.5680 C   0  0  0  0  0  0
  -24.1839  -13.0439   20.9167 C   0  0  0  0  0  0
  -24.6389  -11.6905   20.8727 C   0  0  0  0  0  0
  -23.9055  -10.4292   21.0401 C   0  0  0  0  0  0
  -24.3609   -9.4210   21.9181 C   0  0  0  0  0  0
  -23.6287   -8.2245   22.0753 C   0  0  0  0  0  0
  -22.4270   -8.0281   21.3544 C   0  0  0  0  0  0
  -21.9904   -9.0253   20.4645 C   0  0  0  0  0  0
  -22.7229  -10.2134   20.3052 C   0  0  0  0  0  0
  -21.6852   -6.0736   22.5279 C   0  0  0  0  0  0
  -21.4012   -6.5639   23.8213 C   0  0  0  0  0  0
  -21.3658   -5.6792   24.9176 C   0  0  0  0  0  0
  -21.6045   -4.3055   24.7227 C   0  0  0  0  0  0
  -21.8819   -3.8146   23.4349 C   0  0  0  0  0  0
  -21.9191   -4.6963   22.3404 C   0  0  0  0  0  0
  -22.7864  -13.5240   21.1838 C   0  0  0  0  0  0
  -22.1661   -4.2149   21.0981 F   0  0  0  0  0  0
  -21.5630   -3.4539   25.7740 F   0  0  0  0  0  0
  -30.0436  -13.2396   20.4503 N   0  0  0  0  0  0
  -26.3030  -12.9323   20.3374 N   0  0  0  0  0  0
  -25.9312  -11.6485   20.5755 N   0  0  0  0  0  0
  -22.0501  -12.8228   22.0392 N   0  0  0  0  0  0
  -25.4338  -15.1878   20.4109 N   0  0  0  0  0  0
  -31.8057  -14.6353   20.0653 O   0  0  0  0  0  0
  -21.6637   -6.8877   21.4241 O   0  0  0  0  0  0
  -22.3553  -14.5552   20.6699 O   0  0  0  0  0  0
  -24.6099  -31.8708   23.2127 C   0  0  0  0  0  0
  -25.9013  -32.4839   23.8411 C   0  0  1  0  0  0
  -27.2375  -27.4737   20.0883 C   0  0  0  0  0  0
  -25.5889  -33.8637   24.2349 N   0  0  0  0  0  0
  -23.3964  -30.4925   21.5526 C   0  0  2  0  0  0
  -24.8448  -28.9592   20.1185 C   0  0  0  0  0  0
  -22.7384  -29.4665   22.5021 C   0  0  0  0  0  0
  -18.0265  -28.1368   22.8498 C   0  0  0  0  0  0
  -24.1485  -36.7319   23.2638 C   0  0  0  0  0  0
  -25.9200  -30.8457   21.3612 C   0  0  0  0  0  0
  -26.0003  -29.4797   20.7158 C   0  0  0  0  0  0
  -27.2010  -28.7402   20.7067 C   0  0  0  0  0  0
  -26.0735  -26.9571   19.4863 C   0  0  0  0  0  0
  -24.8728  -27.6928   19.5056 C   0  0  0  0  0  0
  -23.6040  -29.8213   20.1680 C   0  0  0  0  0  0
  -25.4104  -36.3123   24.0345 C   0  0  1  0  0  0
  -20.5851  -28.3649   23.1337 C   0  0  2  0  0  0
  -20.6756  -26.9395   22.5419 C   0  0  0  0  0  0
  -19.5738  -26.6384   21.5209 C   0  0  0  0  0  0
  -18.1914  -26.7918   22.1618 C   0  0  0  0  0  0
  -19.1514  -28.8824   23.2915 C   0  0  0  0  0  0
  -18.9446  -30.1432   23.8924 C   0  0  0  0  0  0
  -17.6451  -30.6582   24.0567 C   0  0  0  0  0  0
  -25.9030  -34.9485   23.5143 C   0  0  0  0  0  0
  -16.5342  -29.9086   23.6325 C   0  0  0  0  0  0
  -16.7254  -28.6496   23.0356 C   0  0  0  0  0  0
  -26.4461  -31.6601   25.0717 C   0  0  0  0  0  0
  -25.3747  -31.3683   26.1478 C   0  0  0  0  0  0
  -27.0287  -30.3057   24.6045 C   0  0  0  0  0  0
  -27.6044  -32.4311   25.7479 C   0  0  0  0  0  0
  -27.5582  -37.1815   24.8466 C   0  0  0  0  0  0
  -21.4120  -29.3023   22.3752 N   0  0  0  0  0  0
  -26.4294  -37.3802   23.9412 N   0  0  0  0  0  0
  -24.6602  -31.0832   22.1015 N   0  0  0  0  0  0
  -23.4173  -28.8211   23.3052 O   0  0  0  0  0  0
  -28.3987  -26.7486   20.0430 O   0  0  0  0  0  0
  -26.5587  -34.8929   22.4703 O   0  0  0  0  0  0
  -23.5304  -32.1453   23.7543 O   0  0  0  0  0  0
  -32.2157  -18.3714   23.6705 C   0  0  0  0  0  0
  -32.3871  -16.2230   22.5330 C   0  0  0  0  0  0
  -30.8239  -18.3907   23.4370 C   0  0  0  0  0  0
  -30.9899  -16.2259   22.2993 C   0  0  0  0  0  0
  -32.9948  -17.2942   23.2137 C   0  0  0  0  0  0
  -30.2120  -17.3122   22.7554 C   0  0  0  0  0  0
  -30.0509  -19.5296   23.9295 C   0  0  0  0  0  0
  -28.1951  -24.5521   21.0852 C   0  0  0  0  0  0
  -28.5549  -21.4555   23.3682 C   0  0  0  0  0  0
  -28.0665  -23.7366   22.3715 C   0  0  0  0  0  0
  -28.6548  -26.0092   21.2366 C   0  0  0  0  0  0
  -28.0113  -22.2070   22.1531 C   0  0  0  0  0  0
  -30.3187  -15.1375   21.6774 N   0  0  0  0  0  0
  -29.3335  -20.2871   23.0694 N   0  0  0  0  0  0
  -30.1299  -19.8226   25.2345 N   0  3  0  0  0  0
  -27.9397  -24.0596   19.9802 O   0  0  0  0  0  0
  -28.3638  -21.8540   24.5237 O   0  0  0  0  0  0
  -34.3306  -17.2850   23.4385 F   0  0  0  0  0  0
  -28.8718  -17.3006   22.5465 F   0  0  0  0  0  0
  -31.4552  -12.3904   19.0805 H   0  0  0  0  0  0
  -30.3102  -11.2698   19.7553 H   0  0  0  0  0  0
  -29.7101  -11.8228   17.3865 H   0  0  0  0  0  0
  -29.6468  -13.5234   17.7774 H   0  0  0  0  0  0
  -27.8141  -11.3209   18.7899 H   0  0  0  0  0  0
  -27.3489  -12.6678   17.7861 H   0  0  0  0  0  0
  -27.7205  -14.2562   19.6029 H   0  0  0  0  0  0
  -28.6652  -11.9042   21.3074 H   0  0  0  0  0  0
  -28.4487  -13.5238   21.8814 H   0  0  0  0  0  0
  -25.2754   -9.5691   22.4757 H   0  0  0  0  0  0
  -24.0001   -7.4638   22.7470 H   0  0  0  0  0  0
  -21.0837   -8.8771   19.8949 H   0  0  0  0  0  0
  -22.3687  -10.9674   19.6161 H   0  0  0  0  0  0
  -21.2003   -7.6147   23.9717 H   0  0  0  0  0  0
  -21.1480   -6.0522   25.9080 H   0  0  0  0  0  0
  -22.0598   -2.7608   23.2849 H   0  0  0  0  0  0
  -22.4107  -11.9878   22.4769 H   0  0  0  0  0  0
  -21.1122  -13.1262   22.2600 H   0  0  0  0  0  0
  -24.6720  -15.8475   20.5239 H   0  0  0  0  0  0
  -26.2971  -15.6272   20.1158 H   0  0  0  0  0  0
  -26.7088  -32.5572   23.1184 H   0  0  0  0  0  0
  -25.0062  -33.9805   25.0510 H   0  0  0  0  0  0
  -22.6834  -31.3078   21.4134 H   0  0  0  0  0  0
  -23.3745  -35.9658   23.3311 H   0  0  0  0  0  0
  -24.3581  -36.8915   22.2052 H   0  0  0  0  0  0
  -23.7235  -37.6528   23.6638 H   0  0  0  0  0  0
  -26.0228  -31.6090   20.5889 H   0  0  0  0  0  0
  -26.8118  -30.9063   21.9729 H   0  0  0  0  0  0
  -28.0967  -29.1396   21.1622 H   0  0  0  0  0  0
  -26.0986  -25.9888   19.0056 H   0  0  0  0  0  0
  -23.9848  -27.2853   19.0429 H   0  0  0  0  0  0
  -23.7083  -30.5948   19.4061 H   0  0  0  0  0  0
  -22.7297  -29.2367   19.8755 H   0  0  0  0  0  0
  -25.1279  -36.1998   25.0837 H   0  0  0  0  0  0
  -20.9937  -28.3205   24.1460 H   0  0  0  0  0  0
  -20.5657  -26.2257   23.3599 H   0  0  0  0  0  0
  -21.6632  -26.7440   22.1218 H   0  0  0  0  0  0
  -19.6905  -25.6299   21.1226 H   0  0  0  0  0  0
  -19.6679  -27.3209   20.6749 H   0  0  0  0  0  0
  -17.4186  -26.6673   21.4013 H   0  0  0  0  0  0
  -18.0313  -26.0047   22.8999 H   0  0  0  0  0  0
  -19.7923  -30.7236   24.2311 H   0  0  0  0  0  0
  -17.5008  -31.6269   24.5157 H   0  0  0  0  0  0
  -15.5346  -30.3000   23.7628 H   0  0  0  0  0  0
  -15.8652  -28.0820   22.7069 H   0  0  0  0  0  0
  -24.5927  -30.7017   25.7820 H   0  0  0  0  0  0
  -24.8928  -32.2827   26.4948 H   0  0  0  0  0  0
  -25.8123  -30.8847   27.0220 H   0  0  0  0  0  0
  -26.2810  -29.6824   24.1122 H   0  0  0  0  0  0
  -27.4108  -29.7279   25.4470 H   0  0  0  0  0  0
  -27.8621  -30.4397   23.9146 H   0  0  0  0  0  0
  -27.2670  -33.3599   26.2090 H   0  0  0  0  0  0
  -28.3840  -32.6885   25.0297 H   0  0  0  0  0  0
  -28.0725  -31.8411   26.5369 H   0  0  0  0  0  0
  -28.2608  -38.0106   24.7522 H   0  0  0  0  0  0
  -28.1072  -36.2640   24.6284 H   0  0  0  0  0  0
  -27.2304  -37.1457   25.8870 H   0  0  0  0  0  0
  -20.9274  -29.8751   21.6986 H   0  0  0  0  0  0
  -26.0190  -38.2887   24.1406 H   0  0  0  0  0  0
  -32.6963  -19.1872   24.1919 H   0  0  0  0  0  0
  -33.0064  -15.3983   22.2147 H   0  0  0  0  0  0
  -27.1772  -24.0684   22.9078 H   0  0  0  0  0  0
  -28.9199  -23.9942   23.0004 H   0  0  0  0  0  0
  -29.7272  -26.0173   21.4320 H   0  0  0  0  0  0
  -28.1672  -26.4608   22.1016 H   0  0  0  0  0  0
  -26.9863  -21.8886   21.9629 H   0  0  0  0  0  0
  -28.5970  -21.9217   21.2778 H   0  0  0  0  0  0
  -29.3888  -14.9361   22.0116 H   0  0  0  0  0  0
  -29.4424  -19.9770   22.1161 H   0  0  0  0  0  0
  -30.6341  -19.2295   25.8755 H   0  0  0  0  0  0
  -29.5931  -20.6054   25.5880 H   0  0  0  0  0  0
  1 25  1  0  0  0
  1 30  2  0  0  0
  1 83  1  0  0  0
  2  3  1  0  0  0
  2 25  1  0  0  0
  2 90  1  0  0  0
  2 91  1  0  0  0
  3  4  1  0  0  0
  3 92  1  0  0  0
  3 93  1  0  0  0
  4  5  1  0  0  0
  4 94  1  0  0  0
  4 95  1  0  0  0
  5  6  1  0  0  0
  5 26  1  0  0  0
  5 96  1  0  0  0
  6 25  1  0  0  0
  6 97  1  0  0  0
  6 98  1  0  0  0
  7  8  2  0  0  0
  7 26  1  0  0  0
  7 29  1  0  0  0
  8  9  1  0  0  0
  8 22  1  0  0  0
  9 10  1  0  0  0
  9 27  2  0  0  0
 10 11  2  0  0  0
 10 15  1  0  0  0
 11 12  1  0  0  0
 11 99  1  0  0  0
 12 13  2  0  0  0
 12100  1  0  0  0
 13 14  1  0  0  0
 13 31  1  0  0  0
 14 15  2  0  0  0
 14101  1  0  0  0
 15102  1  0  0  0
 16 17  2  0  0  0
 16 21  1  0  0  0
 16 31  1  0  0  0
 17 18  1  0  0  0
 17103  1  0  0  0
 18 19  2  0  0  0
 18104  1  0  0  0
 19 20  1  0  0  0
 19 24  1  0  0  0
 20 21  2  0  0  0
 20105  1  0  0  0
 21 23  1  0  0  0
 22 28  1  0  0  0
 22 32  2  0  0  0
 26 27  1  0  0  0
 28106  1  0  0  0
 28107  1  0  0  0
 29108  1  0  0  0
 29109  1  0  0  0
 33 34  1  0  0  0
 33 66  1  0  0  0
 33 70  2  0  0  0
 34 36  1  0  0  0
 34 59  1  0  0  0
 34110  1  0  0  0
 35 44  2  0  0  0
 35 45  1  0  0  0
 35 68  1  0  0  0
 36 56  1  0  0  0
 36111  1  0  0  0
 37 39  1  0  0  0
 37 47  1  0  0  0
 37 66  1  0  0  0
 37112  1  0  0  0
 38 43  2  0  0  0
 38 46  1  0  0  0
 38 47  1  0  0  0
 39 64  1  0  0  0
 39 67  2  0  0  0
 40 52  1  0  0  0
 40 53  2  0  0  0
 40 58  1  0  0  0
 41113  1  0  0  0
 41114  1  0  0  0
 41115  1  0  0  0
 41 48  1  0  0  0
 42 43  1  0  0  0
 42 66  1  0  0  0
 42116  1  0  0  0
 42117  1  0  0  0
 43 44  1  0  0  0
 44118  1  0  0  0
 45 46  2  0  0  0
 45119  1  0  0  0
 46120  1  0  0  0
 47121  1  0  0  0
 47122  1  0  0  0
 48 56  1  0  0  0
 48 65  1  0  0  0
 48123  1  0  0  0
 49 50  1  0  0  0
 49 53  1  0  0  0
 49 64  1  0  0  0
 49124  1  0  0  0
 50 51  1  0  0  0
 50125  1  0  0  0
 50126  1  0  0  0
 51 52  1  0  0  0
 51127  1  0  0  0
 51128  1  0  0  0
 52129  1  0  0  0
 52130  1  0  0  0
 53 54  1  0  0  0
 54 55  2  0  0  0
 54131  1  0  0  0
 55 57  1  0  0  0
 55132  1  0  0  0
 56 69  2  0  0  0
 57 58  2  0  0  0
 57133  1  0  0  0
 58134  1  0  0  0
 59 60  1  0  0  0
 59 61  1  0  0  0
 59 62  1  0  0  0
 60135  1  0  0  0
 60136  1  0  0  0
 60137  1  0  0  0
 61138  1  0  0  0
 61139  1  0  0  0
 61140  1  0  0  0
 62141  1  0  0  0
 62142  1  0  0  0
 62143  1  0  0  0
 63 65  1  0  0  0
 63144  1  0  0  0
 63145  1  0  0  0
 63146  1  0  0  0
 64147  1  0  0  0
 65148  1  0  0  0
 68 81  1  0  0  0
 71 73  2  0  0  0
 71 75  1  0  0  0
 71149  1  0  0  0
 72 74  1  0  0  0
 72 75  2  0  0  0
 72150  1  0  0  0
 73 76  1  0  0  0
 73 77  1  0  0  0
 74 76  2  0  0  0
 74 83  1  0  0  0
 75 88  1  0  0  0
 76 89  1  0  0  0
 77 84  1  0  0  0
 77 85  2  0  0  0
 78 80  1  0  0  0
 78 81  1  0  0  0
 78 86  2  0  0  0
 79 82  1  0  0  0
 79 84  1  0  0  0
 79 87  2  0  0  0
 80 82  1  0  0  0
 80151  1  0  0  0
 80152  1  0  0  0
 81153  1  0  0  0
 81154  1  0  0  0
 82155  1  0  0  0
 82156  1  0  0  0
 83157  1  0  0  0
 84158  1  0  0  0
 85159  1  0  0  0
 85160  1  0  0  0
M  CHG  1  85   1
M  ISO  4   1 100  68 101  81 101  83 100
M  END
> <chiral flag>
0

> <version>
0

> <s_m_source_file>
/data/baiqing/PycharmProjects/Reinvent-master-3.2/result/LINK_invent/BTK/process_docking_weight1_custom_product_contain_oxygen_bond_distance_aromatic_linkinvent_7_9_3/rearranged_h_0174.sdf

> <i_m_source_file_index>
41

> <r_mmod_Potential_Energy-OPLS-2005>
-479.201568603516

> <r_mmod_Stretch_Energy-OPLS-2005>
32.3045616149902

> <r_mmod_Bend_Energy-OPLS-2005>
98.7854843139648

> <r_mmod_Torsional_Energy-OPLS-2005>
241.224456787109

> <r_mmod_Improper_Torsional_Energy-OPLS-2005>
2.09084033966064

> <r_mmod_Van_der_Waal_Energy-OPLS-2005>
169.404876708984

> <r_mmod_Electrostatic_Energy-OPLS-2005>
-556.275207519531

> <r_mmod_Solvation_Energy-OPLS-2005>
-473.123931884766

> <b_mmod_Minimization_Converged-OPLS-2005>
0

> <r_mmod_RMS_Derivative-OPLS-2005>
0.697506248950958

$$$$
41
                    3D
 Structure written by MMmdl.
156164  0  0  1  0            999 V2000
  -30.7164  -14.4905   20.5602 C   0  0  0  0  0  0
  -30.4151  -12.3158   19.4313 C   0  0  0  0  0  0
  -29.4920  -12.4990   18.2101 C   0  0  0  0  0  0
  -28.0145  -12.3598   18.6242 C   0  0  0  0  0  0
  -27.6573  -13.2136   19.8710 C   0  0  2  0  0  0
  -28.7004  -13.0272   20.9965 C   0  0  0  0  0  0
  -25.2571  -13.8180   20.5694 C   0  0  0  0  0  0
  -24.1828  -13.0444   20.9176 C   0  0  0  0  0  0
  -24.6393  -11.6914   20.8734 C   0  0  0  0  0  0
  -23.9064  -10.4295   21.0401 C   0  0  0  0  0  0
  -24.3615   -9.4211   21.9181 C   0  0  0  0  0  0
  -23.6292   -8.2245   22.0752 C   0  0  0  0  0  0
  -22.4274   -8.0281   21.3542 C   0  0  0  0  0  0
  -21.9908   -9.0254   20.4645 C   0  0  0  0  0  0
  -22.7236  -10.2134   20.3053 C   0  0  0  0  0  0
  -21.6853   -6.0736   22.5279 C   0  0  0  0  0  0
  -21.4014   -6.5639   23.8212 C   0  0  0  0  0  0
  -21.3659   -5.6792   24.9175 C   0  0  0  0  0  0
  -21.6044   -4.3055   24.7226 C   0  0  0  0  0  0
  -21.8820   -3.8147   23.4347 C   0  0  0  0  0  0
  -21.9194   -4.6963   22.3403 C   0  0  0  0  0  0
  -22.7852  -13.5236   21.1844 C   0  0  0  0  0  0
  -22.1662   -4.2148   21.0981 F   0  0  0  0  0  0
  -21.5628   -3.4539   25.7740 F   0  0  0  0  0  0
  -30.0279  -13.3217   20.4354 N   0  0  0  0  0  0
  -26.3006  -12.9361   20.3366 N   0  0  0  0  0  0
  -25.9323  -11.6513   20.5772 N   0  0  0  0  0  0
  -22.0499  -12.8223   22.0402 N   0  0  0  0  0  0
  -25.4294  -15.1901   20.4138 N   0  0  0  0  0  0
  -31.8495  -14.6273   20.0925 O   0  0  0  0  0  0
  -21.6640   -6.8878   21.4240 O   0  0  0  0  0  0
  -22.3533  -14.5543   20.6701 O   0  0  0  0  0  0
  -24.6157  -31.8674   23.2087 C   0  0  0  0  0  0
  -25.9046  -32.4822   23.8391 C   0  0  1  0  0  0
  -27.2315  -27.4260   20.1000 C   0  0  0  0  0  0
  -25.5895  -33.8620   24.2326 N   0  0  0  0  0  0
  -23.4055  -30.4899   21.5494 C   0  0  2  0  0  0
  -24.8539  -28.9559   20.1122 C   0  0  0  0  0  0
  -22.7421  -29.4653   22.4981 C   0  0  0  0  0  0
  -18.0273  -28.1375   22.8494 C   0  0  0  0  0  0
  -24.1486  -36.7314   23.2640 C   0  0  0  0  0  0
  -25.9350  -30.8309   21.3633 C   0  0  0  0  0  0
  -26.0151  -29.4648   20.7095 C   0  0  0  0  0  0
  -27.2115  -28.7075   20.6997 C   0  0  0  0  0  0
  -26.0584  -26.9355   19.4913 C   0  0  0  0  0  0
  -24.8708  -27.6911   19.4983 C   0  0  0  0  0  0
  -23.6148  -29.8224   20.1641 C   0  0  0  0  0  0
  -25.4107  -36.3113   24.0338 C   0  0  1  0  0  0
  -20.5865  -28.3669   23.1312 C   0  0  2  0  0  0
  -20.6765  -26.9405   22.5416 C   0  0  0  0  0  0
  -19.5745  -26.6386   21.5213 C   0  0  0  0  0  0
  -18.1922  -26.7924   22.1621 C   0  0  0  0  0  0
  -19.1523  -28.8838   23.2901 C   0  0  0  0  0  0
  -18.9452  -30.1443   23.8914 C   0  0  0  0  0  0
  -17.6457  -30.6588   24.0564 C   0  0  0  0  0  0
  -25.9031  -34.9477   23.5131 C   0  0  0  0  0  0
  -16.5346  -29.9089   23.6328 C   0  0  0  0  0  0
  -16.7261  -28.6502   23.0355 C   0  0  0  0  0  0
  -26.4471  -31.6595   25.0721 C   0  0  0  0  0  0
  -25.3738  -31.3694   26.1472 C   0  0  0  0  0  0
  -27.0299  -30.3036   24.6090 C   0  0  0  0  0  0
  -27.6051  -32.4313   25.7482 C   0  0  0  0  0  0
  -27.5580  -37.1809   24.8466 C   0  0  0  0  0  0
  -21.4146  -29.3033   22.3718 N   0  0  0  0  0  0
  -26.4296  -37.3793   23.9407 N   0  0  0  0  0  0
  -24.6705  -31.0765   22.0992 N   0  0  0  0  0  0
  -23.4188  -28.8199   23.3032 O   0  0  0  0  0  0
  -28.3523  -26.6257   20.1273 O   0  0  0  0  0  0
  -26.5601  -34.8930   22.4698 O   0  0  0  0  0  0
  -23.5344  -32.1429   23.7472 O   0  0  0  0  0  0
  -31.8159  -17.2494   21.4163 C   0  0  0  0  0  0
  -32.2017  -18.5949   21.5182 C   0  0  0  0  0  0
  -29.8771  -19.3319   21.2055 C   0  0  0  0  0  0
  -30.4653  -16.9086   21.1789 C   0  0  0  0  0  0
  -31.2517  -19.6256   21.4157 C   0  0  0  0  0  0
  -29.5044  -17.9528   21.0875 C   0  0  0  0  0  0
  -28.8355  -20.4460   21.1992 C   0  0  0  0  0  0
  -28.8251  -24.1980   20.6135 C   0  0  0  0  0  0
  -28.2196  -25.5481   21.0797 C   0  0  0  0  0  0
  -28.4821  -22.9273   21.4590 C   0  0  2  0  0  0
  -28.6178  -23.1475   22.9905 C   0  0  0  0  0  0
  -30.0348  -15.5394   21.0757 N   0  0  0  0  0  0
  -29.2543  -21.7223   21.0633 N   0  0  0  0  0  0
  -27.6391  -20.1954   21.3584 O   0  0  0  0  0  0
  -29.5364  -24.1529   19.6015 O   0  0  0  0  0  0
  -31.6949  -20.9022   21.5408 F   0  0  0  0  0  0
  -28.2124  -17.5919   20.8826 F   0  0  0  0  0  0
  -28.3679  -22.0309   23.6767 F   0  0  0  0  0  0
  -27.7675  -24.0768   23.4254 F   0  0  0  0  0  0
  -29.8567  -23.5466   23.2811 F   0  0  0  0  0  0
  -31.4605  -12.3993   19.1295 H   0  0  0  0  0  0
  -30.3074  -11.3125   19.8464 H   0  0  0  0  0  0
  -29.7336  -11.7640   17.4410 H   0  0  0  0  0  0
  -29.6595  -13.4792   17.7608 H   0  0  0  0  0  0
  -27.8300  -11.3054   18.8337 H   0  0  0  0  0  0
  -27.3626  -12.6206   17.7895 H   0  0  0  0  0  0
  -27.6915  -14.2565   19.5547 H   0  0  0  0  0  0
  -28.6796  -12.0024   21.3702 H   0  0  0  0  0  0
  -28.4637  -13.6574   21.8549 H   0  0  0  0  0  0
  -25.2760   -9.5689   22.4754 H   0  0  0  0  0  0
  -24.0003   -7.4638   22.7472 H   0  0  0  0  0  0
  -21.0840   -8.8772   19.8952 H   0  0  0  0  0  0
  -22.3692  -10.9672   19.6160 H   0  0  0  0  0  0
  -21.2005   -7.6148   23.9715 H   0  0  0  0  0  0
  -21.1480   -6.0523   25.9077 H   0  0  0  0  0  0
  -22.0600   -2.7609   23.2849 H   0  0  0  0  0  0
  -22.4115  -11.9878   22.4782 H   0  0  0  0  0  0
  -21.1119  -13.1249   22.2618 H   0  0  0  0  0  0
  -24.6673  -15.8472   20.5391 H   0  0  0  0  0  0
  -26.2935  -15.6394   20.1366 H   0  0  0  0  0  0
  -26.7124  -32.5536   23.1159 H   0  0  0  0  0  0
  -25.0044  -33.9779   25.0470 H   0  0  0  0  0  0
  -22.6946  -31.3069   21.4099 H   0  0  0  0  0  0
  -23.3746  -35.9650   23.3316 H   0  0  0  0  0  0
  -24.3576  -36.8916   22.2052 H   0  0  0  0  0  0
  -23.7243  -37.6524   23.6648 H   0  0  0  0  0  0
  -26.0464  -31.5972   20.5947 H   0  0  0  0  0  0
  -26.8227  -30.8856   21.9817 H   0  0  0  0  0  0
  -28.1068  -29.0906   21.1693 H   0  0  0  0  0  0
  -26.0604  -25.9615   19.0223 H   0  0  0  0  0  0
  -23.9785  -27.2939   19.0338 H   0  0  0  0  0  0
  -23.7217  -30.5981   19.4046 H   0  0  0  0  0  0
  -22.7389  -29.2413   19.8693 H   0  0  0  0  0  0
  -25.1281  -36.1982   25.0830 H   0  0  0  0  0  0
  -20.9950  -28.3241   24.1435 H   0  0  0  0  0  0
  -20.5674  -26.2277   23.3602 H   0  0  0  0  0  0
  -21.6636  -26.7456   22.1206 H   0  0  0  0  0  0
  -19.6914  -25.6302   21.1233 H   0  0  0  0  0  0
  -19.6688  -27.3205   20.6751 H   0  0  0  0  0  0
  -17.4193  -26.6673   21.4022 H   0  0  0  0  0  0
  -18.0325  -26.0061   22.9010 H   0  0  0  0  0  0
  -19.7933  -30.7244   24.2297 H   0  0  0  0  0  0
  -17.5020  -31.6272   24.5159 H   0  0  0  0  0  0
  -15.5349  -30.2999   23.7647 H   0  0  0  0  0  0
  -15.8658  -28.0826   22.7069 H   0  0  0  0  0  0
  -24.5911  -30.7043   25.7807 H   0  0  0  0  0  0
  -24.8929  -32.2844   26.4942 H   0  0  0  0  0  0
  -25.8096  -30.8851   27.0221 H   0  0  0  0  0  0
  -26.2838  -29.6797   24.1156 H   0  0  0  0  0  0
  -27.4084  -29.7273   25.4541 H   0  0  0  0  0  0
  -27.8668  -30.4354   23.9228 H   0  0  0  0  0  0
  -27.2676  -33.3608   26.2083 H   0  0  0  0  0  0
  -28.3848  -32.6881   25.0298 H   0  0  0  0  0  0
  -28.0734  -31.8423   26.5376 H   0  0  0  0  0  0
  -28.2606  -38.0100   24.7508 H   0  0  0  0  0  0
  -28.1069  -36.2630   24.6299 H   0  0  0  0  0  0
  -27.2296  -37.1469   25.8870 H   0  0  0  0  0  0
  -20.9308  -29.8754   21.6938 H   0  0  0  0  0  0
  -26.0189  -38.2874   24.1406 H   0  0  0  0  0  0
  -32.5770  -16.4917   21.5279 H   0  0  0  0  0  0
  -33.2392  -18.8420   21.6916 H   0  0  0  0  0  0
  -28.7221  -25.8561   21.9964 H   0  0  0  0  0  0
  -27.1732  -25.3770   21.3373 H   0  0  0  0  0  0
  -27.4286  -22.7200   21.2662 H   0  0  0  0  0  0
  -29.0631  -15.3696   21.2865 H   0  0  0  0  0  0
  -30.2501  -21.8581   20.9361 H   0  0  0  0  0  0
  1 25  1  0  0  0
  1 30  2  0  0  0
  1 82  1  0  0  0
  2  3  1  0  0  0
  2 25  1  0  0  0
  2 91  1  0  0  0
  2 92  1  0  0  0
  3  4  1  0  0  0
  3 93  1  0  0  0
  3 94  1  0  0  0
  4  5  1  0  0  0
  4 95  1  0  0  0
  4 96  1  0  0  0
  5  6  1  0  0  0
  5 26  1  0  0  0
  5 97  1  0  0  0
  6 25  1  0  0  0
  6 98  1  0  0  0
  6 99  1  0  0  0
  7  8  2  0  0  0
  7 26  1  0  0  0
  7 29  1  0  0  0
  8  9  1  0  0  0
  8 22  1  0  0  0
  9 10  1  0  0  0
  9 27  2  0  0  0
 10 11  2  0  0  0
 10 15  1  0  0  0
 11 12  1  0  0  0
 11100  1  0  0  0
 12 13  2  0  0  0
 12101  1  0  0  0
 13 14  1  0  0  0
 13 31  1  0  0  0
 14 15  2  0  0  0
 14102  1  0  0  0
 15103  1  0  0  0
 16 17  2  0  0  0
 16 21  1  0  0  0
 16 31  1  0  0  0
 17 18  1  0  0  0
 17104  1  0  0  0
 18 19  2  0  0  0
 18105  1  0  0  0
 19 20  1  0  0  0
 19 24  1  0  0  0
 20 21  2  0  0  0
 20106  1  0  0  0
 21 23  1  0  0  0
 22 28  1  0  0  0
 22 32  2  0  0  0
 26 27  1  0  0  0
 28107  1  0  0  0
 28108  1  0  0  0
 29109  1  0  0  0
 29110  1  0  0  0
 33 34  1  0  0  0
 33 66  1  0  0  0
 33 70  2  0  0  0
 34 36  1  0  0  0
 34 59  1  0  0  0
 34111  1  0  0  0
 35 44  2  0  0  0
 35 45  1  0  0  0
 35 68  1  0  0  0
 36 56  1  0  0  0
 36112  1  0  0  0
 37 39  1  0  0  0
 37 47  1  0  0  0
 37 66  1  0  0  0
 37113  1  0  0  0
 38 43  2  0  0  0
 38 46  1  0  0  0
 38 47  1  0  0  0
 39 64  1  0  0  0
 39 67  2  0  0  0
 40 52  1  0  0  0
 40 53  2  0  0  0
 40 58  1  0  0  0
 41114  1  0  0  0
 41115  1  0  0  0
 41116  1  0  0  0
 41 48  1  0  0  0
 42 43  1  0  0  0
 42 66  1  0  0  0
 42117  1  0  0  0
 42118  1  0  0  0
 43 44  1  0  0  0
 44119  1  0  0  0
 45 46  2  0  0  0
 45120  1  0  0  0
 46121  1  0  0  0
 47122  1  0  0  0
 47123  1  0  0  0
 48 56  1  0  0  0
 48 65  1  0  0  0
 48124  1  0  0  0
 49 50  1  0  0  0
 49 53  1  0  0  0
 49 64  1  0  0  0
 49125  1  0  0  0
 50 51  1  0  0  0
 50126  1  0  0  0
 50127  1  0  0  0
 51 52  1  0  0  0
 51128  1  0  0  0
 51129  1  0  0  0
 52130  1  0  0  0
 52131  1  0  0  0
 53 54  1  0  0  0
 54 55  2  0  0  0
 54132  1  0  0  0
 55 57  1  0  0  0
 55133  1  0  0  0
 56 69  2  0  0  0
 57 58  2  0  0  0
 57134  1  0  0  0
 58135  1  0  0  0
 59 60  1  0  0  0
 59 61  1  0  0  0
 59 62  1  0  0  0
 60136  1  0  0  0
 60137  1  0  0  0
 60138  1  0  0  0
 61139  1  0  0  0
 61140  1  0  0  0
 61141  1  0  0  0
 62142  1  0  0  0
 62143  1  0  0  0
 62144  1  0  0  0
 63 65  1  0  0  0
 63145  1  0  0  0
 63146  1  0  0  0
 63147  1  0  0  0
 64148  1  0  0  0
 65149  1  0  0  0
 68 79  1  0  0  0
 71 72  2  0  0  0
 71 74  1  0  0  0
 71150  1  0  0  0
 72 75  1  0  0  0
 72151  1  0  0  0
 73 75  2  0  0  0
 73 76  1  0  0  0
 73 77  1  0  0  0
 74 76  2  0  0  0
 74 82  1  0  0  0
 75 86  1  0  0  0
 76 87  1  0  0  0
 77 83  1  0  0  0
 77 84  2  0  0  0
 78 79  1  0  0  0
 78 80  1  0  0  0
 78 85  2  0  0  0
 79152  1  0  0  0
 79153  1  0  0  0
 80 81  1  0  0  0
 80 83  1  0  0  0
 80154  1  0  0  0
 81 88  1  0  0  0
 81 89  1  0  0  0
 81 90  1  0  0  0
 82155  1  0  0  0
 83156  1  0  0  0
M  ISO  4   1 100  68 101  79 101  82 100
M  END
> <chiral flag>
0

> <version>
0

> <s_m_source_file>
/data/baiqing/PycharmProjects/Reinvent-master-3.2/result/LINK_invent/BTK/process_docking_weight1_custom_product_contain_oxygen_bond_distance_aromatic_linkinvent_7_9_3/rearranged_h_0174.sdf

> <i_m_source_file_index>
42

> <r_mmod_Potential_Energy-OPLS-2005>
-200.219741821289

> <r_mmod_Stretch_Energy-OPLS-2005>
46.7518844604492

> <r_mmod_Bend_Energy-OPLS-2005>
99.9013366699219

> <r_mmod_Torsional_Energy-OPLS-2005>
240.17301940918

> <r_mmod_Improper_Torsional_Energy-OPLS-2005>
4.7773871421814

> <r_mmod_Van_der_Waal_Energy-OPLS-2005>
168.587509155273

> <r_mmod_Electrostatic_Energy-OPLS-2005>
-556.887878417969

> <r_mmod_Solvation_Energy-OPLS-2005>
-220.302322387695

> <b_mmod_Minimization_Converged-OPLS-2005>
0

> <r_mmod_RMS_Derivative-OPLS-2005>
0.540728032588959

$$$$
42
                    3D
 Structure written by MMmdl.
160168  0  0  1  0            999 V2000
  -30.6554  -14.4899   20.6288 C   0  0  0  0  0  0
  -30.4407  -12.3346   19.4235 C   0  0  0  0  0  0
  -29.5014  -12.5116   18.2094 C   0  0  0  0  0  0
  -28.0217  -12.3541   18.6179 C   0  0  0  0  0  0
  -27.6607  -13.1926   19.8722 C   0  0  2  0  0  0
  -28.6956  -12.9446   20.9924 C   0  0  0  0  0  0
  -25.2602  -13.8105   20.5664 C   0  0  0  0  0  0
  -24.1834  -13.0411   20.9165 C   0  0  0  0  0  0
  -24.6358  -11.6873   20.8726 C   0  0  0  0  0  0
  -23.9011  -10.4279   21.0394 C   0  0  0  0  0  0
  -24.3571   -9.4211   21.9176 C   0  0  0  0  0  0
  -23.6266   -8.2245   22.0736 C   0  0  0  0  0  0
  -22.4241   -8.0281   21.3541 C   0  0  0  0  0  0
  -21.9865   -9.0241   20.4633 C   0  0  0  0  0  0
  -22.7182  -10.2127   20.3042 C   0  0  0  0  0  0
  -21.6841   -6.0735   22.5298 C   0  0  0  0  0  0
  -21.4012   -6.5636   23.8235 C   0  0  0  0  0  0
  -21.3667   -5.6783   24.9192 C   0  0  0  0  0  0
  -21.6055   -4.3051   24.7230 C   0  0  0  0  0  0
  -21.8814   -3.8138   23.4353 C   0  0  0  0  0  0
  -21.9193   -4.6964   22.3412 C   0  0  0  0  0  0
  -22.7878  -13.5251   21.1856 C   0  0  0  0  0  0
  -22.1636   -4.2145   21.0981 F   0  0  0  0  0  0
  -21.5648   -3.4534   25.7734 F   0  0  0  0  0  0
  -30.0276  -13.2918   20.4614 N   0  0  0  0  0  0
  -26.2995  -12.9250   20.3310 N   0  0  0  0  0  0
  -25.9266  -11.6426   20.5698 N   0  0  0  0  0  0
  -22.0483  -12.8270   22.0406 N   0  0  0  0  0  0
  -25.4387  -15.1812   20.4109 N   0  0  0  0  0  0
  -31.7595  -14.7387   20.1315 O   0  0  0  0  0  0
  -21.6632   -6.8863   21.4248 O   0  0  0  0  0  0
  -22.3606  -14.5570   20.6704 O   0  0  0  0  0  0
  -24.6154  -31.8679   23.2122 C   0  0  0  0  0  0
  -25.9042  -32.4840   23.8423 C   0  0  1  0  0  0
  -27.2378  -27.4335   20.1075 C   0  0  0  0  0  0
  -25.5888  -33.8638   24.2341 N   0  0  0  0  0  0
  -23.4056  -30.4913   21.5516 C   0  0  2  0  0  0
  -24.8543  -28.9544   20.1184 C   0  0  0  0  0  0
  -22.7429  -29.4655   22.4996 C   0  0  0  0  0  0
  -18.0270  -28.1380   22.8513 C   0  0  0  0  0  0
  -24.1470  -36.7328   23.2636 C   0  0  0  0  0  0
  -25.9341  -30.8346   21.3657 C   0  0  0  0  0  0
  -26.0137  -29.4669   20.7160 C   0  0  0  0  0  0
  -27.2111  -28.7136   20.7070 C   0  0  0  0  0  0
  -26.0670  -26.9340   19.5029 C   0  0  0  0  0  0
  -24.8752  -27.6864   19.5092 C   0  0  0  0  0  0
  -23.6165  -29.8227   20.1654 C   0  0  0  0  0  0
  -25.4088  -36.3136   24.0350 C   0  0  1  0  0  0
  -20.5863  -28.3663   23.1335 C   0  0  2  0  0  0
  -20.6757  -26.9400   22.5437 C   0  0  0  0  0  0
  -19.5729  -26.6379   21.5238 C   0  0  0  0  0  0
  -18.1907  -26.7927   22.1650 C   0  0  0  0  0  0
  -19.1523  -28.8838   23.2918 C   0  0  0  0  0  0
  -18.9449  -30.1444   23.8926 C   0  0  0  0  0  0
  -17.6453  -30.6595   24.0565 C   0  0  0  0  0  0
  -25.9021  -34.9495   23.5139 C   0  0  0  0  0  0
  -16.5340  -29.9102   23.6325 C   0  0  0  0  0  0
  -16.7259  -28.6515   23.0348 C   0  0  0  0  0  0
  -26.4458  -31.6636   25.0764 C   0  0  0  0  0  0
  -25.3737  -31.3778   26.1540 C   0  0  0  0  0  0
  -27.0264  -30.3072   24.6148 C   0  0  0  0  0  0
  -27.6054  -32.4350   25.7499 C   0  0  0  0  0  0
  -27.5586  -37.1798   24.8450 C   0  0  0  0  0  0
  -21.4153  -29.3032   22.3746 N   0  0  0  0  0  0
  -26.4271  -37.3829   23.9438 N   0  0  0  0  0  0
  -24.6704  -31.0772   22.1031 N   0  0  0  0  0  0
  -23.4199  -28.8177   23.3026 O   0  0  0  0  0  0
  -28.3851  -26.6755   20.0728 O   0  0  0  0  0  0
  -26.5589  -34.8942   22.4702 O   0  0  0  0  0  0
  -23.5345  -32.1418   23.7521 O   0  0  0  0  0  0
  -29.1162  -19.0860   21.4232 C   0  0  0  0  0  0
  -28.9960  -17.6907   21.2173 C   0  0  0  0  0  0
  -30.3324  -19.6638   21.8588 C   0  0  0  0  0  0
  -30.0942  -16.8215   21.4153 C   0  0  0  0  0  0
  -31.4401  -18.7823   22.0842 C   0  0  0  0  0  0
  -31.3097  -17.3846   21.8701 C   0  0  0  0  0  0
  -30.3606  -21.1235   22.1593 C   0  0  0  0  0  0
  -28.9061  -24.3359   20.6995 C   0  0  0  0  0  0
  -28.5233  -25.7597   21.1729 C   0  0  0  0  0  0
  -29.9861  -23.5647   21.5062 C   0  0  2  0  0  0
  -31.3971  -24.0276   21.0554 C   0  0  0  0  0  0
  -32.6869  -19.2130   22.5685 N   0  0  0  0  0  0
  -29.8977  -15.4110   21.2631 N   0  0  0  0  0  0
  -29.8387  -22.0805   21.3558 N   0  0  0  0  0  0
  -30.9232  -21.5083   23.3052 N   0  3  0  0  0  0
  -28.3419  -23.8337   19.7198 O   0  0  0  0  0  0
  -32.3638  -16.5821   22.1650 F   0  0  0  0  0  0
  -32.3454  -23.4695   21.8076 F   0  0  0  0  0  0
  -31.5251  -25.3494   21.1644 F   0  0  0  0  0  0
  -31.6151  -23.6901   19.7829 F   0  0  0  0  0  0
  -31.4823  -12.4724   19.1238 H   0  0  0  0  0  0
  -30.3771  -11.3178   19.8139 H   0  0  0  0  0  0
  -29.7553  -11.7867   17.4361 H   0  0  0  0  0  0
  -29.6581  -13.4965   17.7672 H   0  0  0  0  0  0
  -27.8453  -11.2965   18.8199 H   0  0  0  0  0  0
  -27.3666  -12.6127   17.7860 H   0  0  0  0  0  0
  -27.7108  -14.2432   19.5851 H   0  0  0  0  0  0
  -28.6840  -11.8919   21.2817 H   0  0  0  0  0  0
  -28.4342  -13.4911   21.9006 H   0  0  0  0  0  0
  -25.2708   -9.5714   22.4748 H   0  0  0  0  0  0
  -23.9996   -7.4639   22.7449 H   0  0  0  0  0  0
  -21.0791   -8.8728   19.8953 H   0  0  0  0  0  0
  -22.3612  -10.9644   19.6153 H   0  0  0  0  0  0
  -21.1996   -7.6132   23.9736 H   0  0  0  0  0  0
  -21.1493   -6.0502   25.9085 H   0  0  0  0  0  0
  -22.0589   -2.7602   23.2851 H   0  0  0  0  0  0
  -22.4014  -11.9896   22.4797 H   0  0  0  0  0  0
  -21.1141  -13.1378   22.2624 H   0  0  0  0  0  0
  -24.6751  -15.8396   20.5205 H   0  0  0  0  0  0
  -26.2825  -15.6097   20.0546 H   0  0  0  0  0  0
  -26.7125  -32.5543   23.1202 H   0  0  0  0  0  0
  -25.0040  -33.9803   25.0487 H   0  0  0  0  0  0
  -22.6967  -31.3089   21.4121 H   0  0  0  0  0  0
  -23.3756  -35.9630   23.3252 H   0  0  0  0  0  0
  -24.3589  -36.8986   22.2062 H   0  0  0  0  0  0
  -23.7171  -37.6502   23.6668 H   0  0  0  0  0  0
  -26.0415  -31.5990   20.5939 H   0  0  0  0  0  0
  -26.8243  -30.8921   21.9807 H   0  0  0  0  0  0
  -28.1096  -29.1090   21.1599 H   0  0  0  0  0  0
  -26.0747  -25.9618   19.0291 H   0  0  0  0  0  0
  -23.9824  -27.2872   19.0468 H   0  0  0  0  0  0
  -23.7332  -30.5984   19.4087 H   0  0  0  0  0  0
  -22.7390  -29.2479   19.8654 H   0  0  0  0  0  0
  -25.1250  -36.2005   25.0841 H   0  0  0  0  0  0
  -20.9958  -28.3208   24.1451 H   0  0  0  0  0  0
  -20.5665  -26.2263   23.3618 H   0  0  0  0  0  0
  -21.6614  -26.7449   22.1201 H   0  0  0  0  0  0
  -19.6876  -25.6289   21.1248 H   0  0  0  0  0  0
  -19.6659  -27.3203   20.6777 H   0  0  0  0  0  0
  -17.4180  -26.6698   21.4041 H   0  0  0  0  0  0
  -18.0292  -26.0060   22.9038 H   0  0  0  0  0  0
  -19.7919  -30.7252   24.2304 H   0  0  0  0  0  0
  -17.5008  -31.6281   24.5157 H   0  0  0  0  0  0
  -15.5341  -30.3015   23.7633 H   0  0  0  0  0  0
  -15.8653  -28.0849   22.7043 H   0  0  0  0  0  0
  -24.5840  -30.7198   25.7902 H   0  0  0  0  0  0
  -24.9013  -32.2956   26.5060 H   0  0  0  0  0  0
  -25.8091  -30.8889   27.0267 H   0  0  0  0  0  0
  -26.2803  -29.6863   24.1179 H   0  0  0  0  0  0
  -27.3987  -29.7300   25.4624 H   0  0  0  0  0  0
  -27.8665  -30.4388   23.9325 H   0  0  0  0  0  0
  -27.2705  -33.3663   26.2082 H   0  0  0  0  0  0
  -28.3852  -32.6891   25.0307 H   0  0  0  0  0  0
  -28.0730  -31.8468   26.5409 H   0  0  0  0  0  0
  -28.2565  -38.0142   24.7601 H   0  0  0  0  0  0
  -28.1122  -36.2686   24.6129 H   0  0  0  0  0  0
  -27.2332  -37.1276   25.8857 H   0  0  0  0  0  0
  -20.9312  -29.8799   21.7008 H   0  0  0  0  0  0
  -26.0164  -38.2894   24.1510 H   0  0  0  0  0  0
  -28.2413  -19.7064   21.2897 H   0  0  0  0  0  0
  -28.0366  -17.2939   20.9174 H   0  0  0  0  0  0
  -29.2753  -26.1403   21.8637 H   0  0  0  0  0  0
  -27.5892  -25.6866   21.7324 H   0  0  0  0  0  0
  -29.8576  -23.8250   22.5572 H   0  0  0  0  0  0
  -33.1679  -19.8776   21.9719 H   0  0  0  0  0  0
  -33.3075  -18.4203   22.7137 H   0  0  0  0  0  0
  -28.9898  -15.0680   21.5327 H   0  0  0  0  0  0
  -29.4272  -21.7838   20.4799 H   0  0  0  0  0  0
  -31.5217  -20.8223   23.7520 H   0  0  0  0  0  0
  -30.8733  -22.4425   23.6706 H   0  0  0  0  0  0
  1 25  1  0  0  0
  1 30  2  0  0  0
  1 83  1  0  0  0
  2  3  1  0  0  0
  2 25  1  0  0  0
  2 91  1  0  0  0
  2 92  1  0  0  0
  3  4  1  0  0  0
  3 93  1  0  0  0
  3 94  1  0  0  0
  4  5  1  0  0  0
  4 95  1  0  0  0
  4 96  1  0  0  0
  5  6  1  0  0  0
  5 26  1  0  0  0
  5 97  1  0  0  0
  6 25  1  0  0  0
  6 98  1  0  0  0
  6 99  1  0  0  0
  7  8  2  0  0  0
  7 26  1  0  0  0
  7 29  1  0  0  0
  8  9  1  0  0  0
  8 22  1  0  0  0
  9 10  1  0  0  0
  9 27  2  0  0  0
 10 11  2  0  0  0
 10 15  1  0  0  0
 11 12  1  0  0  0
 11100  1  0  0  0
 12 13  2  0  0  0
 12101  1  0  0  0
 13 14  1  0  0  0
 13 31  1  0  0  0
 14 15  2  0  0  0
 14102  1  0  0  0
 15103  1  0  0  0
 16 17  2  0  0  0
 16 21  1  0  0  0
 16 31  1  0  0  0
 17 18  1  0  0  0
 17104  1  0  0  0
 18 19  2  0  0  0
 18105  1  0  0  0
 19 20  1  0  0  0
 19 24  1  0  0  0
 20 21  2  0  0  0
 20106  1  0  0  0
 21 23  1  0  0  0
 22 28  1  0  0  0
 22 32  2  0  0  0
 26 27  1  0  0  0
 28107  1  0  0  0
 28108  1  0  0  0
 29109  1  0  0  0
 29110  1  0  0  0
 33 34  1  0  0  0
 33 66  1  0  0  0
 33 70  2  0  0  0
 34 36  1  0  0  0
 34 59  1  0  0  0
 34111  1  0  0  0
 35 44  2  0  0  0
 35 45  1  0  0  0
 35 68  1  0  0  0
 36 56  1  0  0  0
 36112  1  0  0  0
 37 39  1  0  0  0
 37 47  1  0  0  0
 37 66  1  0  0  0
 37113  1  0  0  0
 38 43  2  0  0  0
 38 46  1  0  0  0
 38 47  1  0  0  0
 39 64  1  0  0  0
 39 67  2  0  0  0
 40 52  1  0  0  0
 40 53  2  0  0  0
 40 58  1  0  0  0
 41114  1  0  0  0
 41115  1  0  0  0
 41116  1  0  0  0
 41 48  1  0  0  0
 42 43  1  0  0  0
 42 66  1  0  0  0
 42117  1  0  0  0
 42118  1  0  0  0
 43 44  1  0  0  0
 44119  1  0  0  0
 45 46  2  0  0  0
 45120  1  0  0  0
 46121  1  0  0  0
 47122  1  0  0  0
 47123  1  0  0  0
 48 56  1  0  0  0
 48 65  1  0  0  0
 48124  1  0  0  0
 49 50  1  0  0  0
 49 53  1  0  0  0
 49 64  1  0  0  0
 49125  1  0  0  0
 50 51  1  0  0  0
 50126  1  0  0  0
 50127  1  0  0  0
 51 52  1  0  0  0
 51128  1  0  0  0
 51129  1  0  0  0
 52130  1  0  0  0
 52131  1  0  0  0
 53 54  1  0  0  0
 54 55  2  0  0  0
 54132  1  0  0  0
 55 57  1  0  0  0
 55133  1  0  0  0
 56 69  2  0  0  0
 57 58  2  0  0  0
 57134  1  0  0  0
 58135  1  0  0  0
 59 60  1  0  0  0
 59 61  1  0  0  0
 59 62  1  0  0  0
 60136  1  0  0  0
 60137  1  0  0  0
 60138  1  0  0  0
 61139  1  0  0  0
 61140  1  0  0  0
 61141  1  0  0  0
 62142  1  0  0  0
 62143  1  0  0  0
 62144  1  0  0  0
 63 65  1  0  0  0
 63145  1  0  0  0
 63146  1  0  0  0
 63147  1  0  0  0
 64148  1  0  0  0
 65149  1  0  0  0
 68 79  1  0  0  0
 71 72  2  0  0  0
 71 73  1  0  0  0
 71150  1  0  0  0
 72 74  1  0  0  0
 72151  1  0  0  0
 73 75  2  0  0  0
 73 77  1  0  0  0
 74 76  2  0  0  0
 74 83  1  0  0  0
 75 76  1  0  0  0
 75 82  1  0  0  0
 76 87  1  0  0  0
 77 84  1  0  0  0
 77 85  2  0  0  0
 78 79  1  0  0  0
 78 80  1  0  0  0
 78 86  2  0  0  0
 79152  1  0  0  0
 79153  1  0  0  0
 80 81  1  0  0  0
 80 84  1  0  0  0
 80154  1  0  0  0
 81 88  1  0  0  0
 81 89  1  0  0  0
 81 90  1  0  0  0
 82155  1  0  0  0
 82156  1  0  0  0
 83157  1  0  0  0
 84158  1  0  0  0
 85159  1  0  0  0
 85160  1  0  0  0
M  CHG  1  85   1
M  ISO  4   1 100  68 101  79 101  83 100
M  END
> <chiral flag>
0

> <version>
0

> <s_m_source_file>
/data/baiqing/PycharmProjects/Reinvent-master-3.2/result/LINK_invent/BTK/process_docking_weight1_custom_product_contain_oxygen_bond_distance_aromatic_linkinvent_7_9_3/rearranged_h_0174.sdf

> <i_m_source_file_index>
43

> <r_mmod_Potential_Energy-OPLS-2005>
-263.618682861328

> <r_mmod_Stretch_Energy-OPLS-2005>
45.1074638366699

> <r_mmod_Bend_Energy-OPLS-2005>
101.643775939941

> <r_mmod_Torsional_Energy-OPLS-2005>
256.268493652344

> <r_mmod_Improper_Torsional_Energy-OPLS-2005>
10.7675552368164

> <r_mmod_Van_der_Waal_Energy-OPLS-2005>
159.424560546875

> <r_mmod_Electrostatic_Energy-OPLS-2005>
-398.002868652344

> <r_mmod_Solvation_Energy-OPLS-2005>
-452.840087890625

> <b_mmod_Minimization_Converged-OPLS-2005>
0

> <r_mmod_RMS_Derivative-OPLS-2005>
3.10581922531128

$$$$
43
                    3D
 Structure written by MMmdl.
156164  0  0  1  0            999 V2000
  -30.6840  -14.5134   20.5372 C   0  0  0  0  0  0
  -30.4202  -12.3109   19.4620 C   0  0  0  0  0  0
  -29.5047  -12.4832   18.2314 C   0  0  0  0  0  0
  -28.0273  -12.3419   18.6444 C   0  0  0  0  0  0
  -27.6627  -13.2053   19.8793 C   0  0  2  0  0  0
  -28.6998  -13.0297   21.0115 C   0  0  0  0  0  0
  -25.2592  -13.8173   20.5729 C   0  0  0  0  0  0
  -24.1820  -13.0480   20.9182 C   0  0  0  0  0  0
  -24.6371  -11.6938   20.8748 C   0  0  0  0  0  0
  -23.9050  -10.4303   21.0430 C   0  0  0  0  0  0
  -24.3605   -9.4233   21.9200 C   0  0  0  0  0  0
  -23.6322   -8.2248   22.0773 C   0  0  0  0  0  0
  -22.4296   -8.0271   21.3558 C   0  0  0  0  0  0
  -21.9907   -9.0247   20.4652 C   0  0  0  0  0  0
  -22.7222  -10.2150   20.3081 C   0  0  0  0  0  0
  -21.6850   -6.0758   22.5274 C   0  0  0  0  0  0
  -21.3999   -6.5666   23.8213 C   0  0  0  0  0  0
  -21.3672   -5.6801   24.9165 C   0  0  0  0  0  0
  -21.6049   -4.3071   24.7215 C   0  0  0  0  0  0
  -21.8813   -3.8172   23.4343 C   0  0  0  0  0  0
  -21.9209   -4.6986   22.3402 C   0  0  0  0  0  0
  -22.7820  -13.5283   21.1862 C   0  0  0  0  0  0
  -22.1661   -4.2197   21.0979 F   0  0  0  0  0  0
  -21.5680   -3.4549   25.7741 F   0  0  0  0  0  0
  -30.0327  -13.3213   20.4590 N   0  0  0  0  0  0
  -26.3031  -12.9329   20.3431 N   0  0  0  0  0  0
  -25.9297  -11.6524   20.5775 N   0  0  0  0  0  0
  -22.0506  -12.8210   22.0419 N   0  0  0  0  0  0
  -25.4315  -15.1880   20.4164 N   0  0  0  0  0  0
  -31.8185  -14.6871   20.0754 O   0  0  0  0  0  0
  -21.6654   -6.8897   21.4238 O   0  0  0  0  0  0
  -22.3521  -14.5633   20.6788 O   0  0  0  0  0  0
  -24.6158  -31.8723   23.2115 C   0  0  0  0  0  0
  -25.9059  -32.4828   23.8422 C   0  0  1  0  0  0
  -27.2230  -27.4307   20.1069 C   0  0  0  0  0  0
  -25.5937  -33.8628   24.2367 N   0  0  0  0  0  0
  -23.4036  -30.4960   21.5570 C   0  0  2  0  0  0
  -24.8478  -28.9623   20.1175 C   0  0  0  0  0  0
  -22.7448  -29.4658   22.5053 C   0  0  0  0  0  0
  -18.0286  -28.1337   22.8530 C   0  0  0  0  0  0
  -24.1498  -36.7300   23.2639 C   0  0  0  0  0  0
  -25.9346  -30.8324   21.3705 C   0  0  0  0  0  0
  -26.0083  -29.4667   20.7183 C   0  0  0  0  0  0
  -27.2016  -28.7072   20.7128 C   0  0  0  0  0  0
  -26.0542  -26.9507   19.4828 C   0  0  0  0  0  0
  -24.8661  -27.7027   19.4931 C   0  0  0  0  0  0
  -23.6097  -29.8272   20.1720 C   0  0  0  0  0  0
  -25.4123  -36.3147   24.0356 C   0  0  1  0  0  0
  -20.5877  -28.3634   23.1355 C   0  0  2  0  0  0
  -20.6787  -26.9368   22.5448 C   0  0  0  0  0  0
  -19.5754  -26.6363   21.5244 C   0  0  0  0  0  0
  -18.1932  -26.7902   22.1643 C   0  0  0  0  0  0
  -19.1526  -28.8822   23.2926 C   0  0  0  0  0  0
  -18.9448  -30.1436   23.8919 C   0  0  0  0  0  0
  -17.6441  -30.6557   24.0557 C   0  0  0  0  0  0
  -25.9066  -34.9489   23.5169 C   0  0  0  0  0  0
  -16.5341  -29.9059   23.6292 C   0  0  0  0  0  0
  -16.7276  -28.6460   23.0362 C   0  0  0  0  0  0
  -26.4476  -31.6598   25.0741 C   0  0  0  0  0  0
  -25.3720  -31.3677   26.1472 C   0  0  0  0  0  0
  -27.0297  -30.3061   24.6067 C   0  0  0  0  0  0
  -27.6076  -32.4297   25.7466 C   0  0  0  0  0  0
  -27.5597  -37.1814   24.8482 C   0  0  0  0  0  0
  -21.4176  -29.2991   22.3768 N   0  0  0  0  0  0
  -26.4338  -37.3811   23.9400 N   0  0  0  0  0  0
  -24.6688  -31.0822   22.1022 N   0  0  0  0  0  0
  -23.4233  -28.8213   23.3099 O   0  0  0  0  0  0
  -28.3704  -26.6711   20.0596 O   0  0  0  0  0  0
  -26.5609  -34.8936   22.4720 O   0  0  0  0  0  0
  -23.5373  -32.1461   23.7556 O   0  0  0  0  0  0
  -29.7312  -18.0640   20.9224 C   0  0  0  0  0  0
  -29.4914  -16.7327   18.9058 C   0  0  0  0  0  0
  -29.3559  -19.1863   18.7629 C   0  0  0  0  0  0
  -29.7624  -16.7899   20.2860 C   0  0  0  0  0  0
  -29.5393  -19.2761   20.1875 C   0  0  0  0  0  0
  -29.2852  -17.9047   18.1607 C   0  0  0  0  0  0
  -29.0475  -23.0064   21.0874 C   0  0  0  0  0  0
  -28.1937  -24.2209   20.5573 C   0  0  0  0  0  0
  -28.5438  -21.5623   20.8040 C   0  0  0  0  0  0
  -28.5050  -25.6489   21.0753 C   0  0  0  0  0  0
  -29.2576  -20.4037   17.8287 C   0  0  0  0  0  0
  -29.9631  -15.5583   21.0062 N   0  0  0  0  0  0
  -29.5742  -20.4962   20.9224 N   0  0  0  0  0  0
  -30.1026  -23.1856   21.7113 O   0  0  0  0  0  0
  -27.2861  -24.0296   19.7421 O   0  0  0  0  0  0
  -29.0298  -17.7677   16.8366 F   0  0  0  0  0  0
  -29.8957  -21.4774   18.2942 F   0  0  0  0  0  0
  -29.8114  -20.1525   16.6386 F   0  0  0  0  0  0
  -27.9734  -20.7194   17.6333 F   0  0  0  0  0  0
  -31.4695  -12.3846   19.1827 H   0  0  0  0  0  0
  -30.2977  -11.3158   19.8919 H   0  0  0  0  0  0
  -29.7556  -11.7301   17.4826 H   0  0  0  0  0  0
  -29.6653  -13.4544   17.7635 H   0  0  0  0  0  0
  -27.8558  -11.2913   18.8770 H   0  0  0  0  0  0
  -27.3699  -12.5775   17.8088 H   0  0  0  0  0  0
  -27.6969  -14.2420   19.5552 H   0  0  0  0  0  0
  -28.6807  -12.0149   21.4070 H   0  0  0  0  0  0
  -28.4605  -13.6696   21.8575 H   0  0  0  0  0  0
  -25.2764   -9.5751   22.4752 H   0  0  0  0  0  0
  -24.0093   -7.4653   22.7458 H   0  0  0  0  0  0
  -21.0877   -8.8733   19.8925 H   0  0  0  0  0  0
  -22.3682  -10.9686   19.6189 H   0  0  0  0  0  0
  -21.1906   -7.6162   23.9721 H   0  0  0  0  0  0
  -21.1521   -6.0540   25.9088 H   0  0  0  0  0  0
  -22.0574   -2.7650   23.2815 H   0  0  0  0  0  0
  -22.4153  -11.9827   22.4691 H   0  0  0  0  0  0
  -21.1135  -13.1180   22.2722 H   0  0  0  0  0  0
  -24.6635  -15.8416   20.5063 H   0  0  0  0  0  0
  -26.2959  -15.6214   20.1175 H   0  0  0  0  0  0
  -26.7146  -32.5596   23.1206 H   0  0  0  0  0  0
  -25.0120  -33.9783   25.0563 H   0  0  0  0  0  0
  -22.6937  -31.3163   21.4277 H   0  0  0  0  0  0
  -23.3796  -35.9609   23.3335 H   0  0  0  0  0  0
  -24.3582  -36.8876   22.2051 H   0  0  0  0  0  0
  -23.7242  -37.6512   23.6616 H   0  0  0  0  0  0
  -26.0624  -31.5938   20.6010 H   0  0  0  0  0  0
  -26.8229  -30.8801   21.9906 H   0  0  0  0  0  0
  -28.1027  -29.0946   21.1692 H   0  0  0  0  0  0
  -26.0575  -25.9998   18.9726 H   0  0  0  0  0  0
  -23.9816  -27.3051   19.0089 H   0  0  0  0  0  0
  -23.7183  -30.6072   19.4184 H   0  0  0  0  0  0
  -22.7303  -29.2524   19.8721 H   0  0  0  0  0  0
  -25.1301  -36.2007   25.0858 H   0  0  0  0  0  0
  -20.9965  -28.3183   24.1472 H   0  0  0  0  0  0
  -20.5745  -26.2211   23.3620 H   0  0  0  0  0  0
  -21.6655  -26.7454   22.1180 H   0  0  0  0  0  0
  -19.6898  -25.6289   21.1236 H   0  0  0  0  0  0
  -19.6668  -27.3228   20.6812 H   0  0  0  0  0  0
  -17.4200  -26.6695   21.4022 H   0  0  0  0  0  0
  -18.0280  -26.0031   22.9018 H   0  0  0  0  0  0
  -19.7928  -30.7253   24.2271 H   0  0  0  0  0  0
  -17.4989  -31.6242   24.5156 H   0  0  0  0  0  0
  -15.5338  -30.2949   23.7592 H   0  0  0  0  0  0
  -15.8691  -28.0774   22.7044 H   0  0  0  0  0  0
  -24.5923  -30.6988   25.7774 H   0  0  0  0  0  0
  -24.8852  -32.2807   26.4906 H   0  0  0  0  0  0
  -25.8034  -30.8844   27.0246 H   0  0  0  0  0  0
  -26.2807  -29.6840   24.1121 H   0  0  0  0  0  0
  -27.4128  -29.7248   25.4467 H   0  0  0  0  0  0
  -27.8638  -30.4441   23.9175 H   0  0  0  0  0  0
  -27.2742  -33.3625   26.2016 H   0  0  0  0  0  0
  -28.3840  -32.6796   25.0222 H   0  0  0  0  0  0
  -28.0776  -31.8431   26.5369 H   0  0  0  0  0  0
  -28.2638  -38.0088   24.7509 H   0  0  0  0  0  0
  -28.1048  -36.2611   24.6318 H   0  0  0  0  0  0
  -27.2285  -37.1491   25.8880 H   0  0  0  0  0  0
  -20.9363  -29.8676   21.6944 H   0  0  0  0  0  0
  -26.0225  -38.2909   24.1351 H   0  0  0  0  0  0
  -29.8740  -18.1165   21.9951 H   0  0  0  0  0  0
  -29.4432  -15.7872   18.3857 H   0  0  0  0  0  0
  -28.0548  -21.5528   19.8354 H   0  0  0  0  0  0
  -27.7489  -21.3675   21.5309 H   0  0  0  0  0  0
  -27.8431  -25.8593   21.9159 H   0  0  0  0  0  0
  -29.5220  -25.6936   21.4633 H   0  0  0  0  0  0
  -29.2162  -15.3062   21.6353 H   0  0  0  0  0  0
  -30.4399  -20.7751   21.3922 H   0  0  0  0  0  0
  1 25  1  0  0  0
  1 30  2  0  0  0
  1 82  1  0  0  0
  2  3  1  0  0  0
  2 25  1  0  0  0
  2 90  1  0  0  0
  2 91  1  0  0  0
  3  4  1  0  0  0
  3 92  1  0  0  0
  3 93  1  0  0  0
  4  5  1  0  0  0
  4 94  1  0  0  0
  4 95  1  0  0  0
  5  6  1  0  0  0
  5 26  1  0  0  0
  5 96  1  0  0  0
  6 25  1  0  0  0
  6 97  1  0  0  0
  6 98  1  0  0  0
  7  8  2  0  0  0
  7 26  1  0  0  0
  7 29  1  0  0  0
  8  9  1  0  0  0
  8 22  1  0  0  0
  9 10  1  0  0  0
  9 27  2  0  0  0
 10 11  2  0  0  0
 10 15  1  0  0  0
 11 12  1  0  0  0
 11 99  1  0  0  0
 12 13  2  0  0  0
 12100  1  0  0  0
 13 14  1  0  0  0
 13 31  1  0  0  0
 14 15  2  0  0  0
 14101  1  0  0  0
 15102  1  0  0  0
 16 17  2  0  0  0
 16 21  1  0  0  0
 16 31  1  0  0  0
 17 18  1  0  0  0
 17103  1  0  0  0
 18 19  2  0  0  0
 18104  1  0  0  0
 19 20  1  0  0  0
 19 24  1  0  0  0
 20 21  2  0  0  0
 20105  1  0  0  0
 21 23  1  0  0  0
 22 28  1  0  0  0
 22 32  2  0  0  0
 26 27  1  0  0  0
 28106  1  0  0  0
 28107  1  0  0  0
 29108  1  0  0  0
 29109  1  0  0  0
 33 34  1  0  0  0
 33 66  1  0  0  0
 33 70  2  0  0  0
 34 36  1  0  0  0
 34 59  1  0  0  0
 34110  1  0  0  0
 35 44  2  0  0  0
 35 45  1  0  0  0
 35 68  1  0  0  0
 36 56  1  0  0  0
 36111  1  0  0  0
 37 39  1  0  0  0
 37 47  1  0  0  0
 37 66  1  0  0  0
 37112  1  0  0  0
 38 43  2  0  0  0
 38 46  1  0  0  0
 38 47  1  0  0  0
 39 64  1  0  0  0
 39 67  2  0  0  0
 40 52  1  0  0  0
 40 53  2  0  0  0
 40 58  1  0  0  0
 41113  1  0  0  0
 41114  1  0  0  0
 41115  1  0  0  0
 41 48  1  0  0  0
 42 43  1  0  0  0
 42 66  1  0  0  0
 42116  1  0  0  0
 42117  1  0  0  0
 43 44  1  0  0  0
 44118  1  0  0  0
 45 46  2  0  0  0
 45119  1  0  0  0
 46120  1  0  0  0
 47121  1  0  0  0
 47122  1  0  0  0
 48 56  1  0  0  0
 48 65  1  0  0  0
 48123  1  0  0  0
 49 50  1  0  0  0
 49 53  1  0  0  0
 49 64  1  0  0  0
 49124  1  0  0  0
 50 51  1  0  0  0
 50125  1  0  0  0
 50126  1  0  0  0
 51 52  1  0  0  0
 51127  1  0  0  0
 51128  1  0  0  0
 52129  1  0  0  0
 52130  1  0  0  0
 53 54  1  0  0  0
 54 55  2  0  0  0
 54131  1  0  0  0
 55 57  1  0  0  0
 55132  1  0  0  0
 56 69  2  0  0  0
 57 58  2  0  0  0
 57133  1  0  0  0
 58134  1  0  0  0
 59 60  1  0  0  0
 59 61  1  0  0  0
 59 62  1  0  0  0
 60135  1  0  0  0
 60136  1  0  0  0
 60137  1  0  0  0
 61138  1  0  0  0
 61139  1  0  0  0
 61140  1  0  0  0
 62141  1  0  0  0
 62142  1  0  0  0
 62143  1  0  0  0
 63 65  1  0  0  0
 63144  1  0  0  0
 63145  1  0  0  0
 63146  1  0  0  0
 64147  1  0  0  0
 65148  1  0  0  0
 68 80  1  0  0  0
 71 74  2  0  0  0
 71 75  1  0  0  0
 71149  1  0  0  0
 72 74  1  0  0  0
 72 76  2  0  0  0
 72150  1  0  0  0
 73 75  2  0  0  0
 73 76  1  0  0  0
 73 81  1  0  0  0
 74 82  1  0  0  0
 75 83  1  0  0  0
 76 86  1  0  0  0
 77 78  1  0  0  0
 77 79  1  0  0  0
 77 84  2  0  0  0
 78 80  1  0  0  0
 78 85  2  0  0  0
 79 83  1  0  0  0
 79151  1  0  0  0
 79152  1  0  0  0
 80153  1  0  0  0
 80154  1  0  0  0
 81 87  1  0  0  0
 81 88  1  0  0  0
 81 89  1  0  0  0
 82155  1  0  0  0
 83156  1  0  0  0
M  ISO  4   1 100  68 101  80 101  82 100
M  END
> <chiral flag>
0

> <version>
0

> <s_m_source_file>
/data/baiqing/PycharmProjects/Reinvent-master-3.2/result/LINK_invent/BTK/process_docking_weight1_custom_product_contain_oxygen_bond_distance_aromatic_linkinvent_7_9_3/rearranged_h_0174.sdf

> <i_m_source_file_index>
44

> <r_mmod_Potential_Energy-OPLS-2005>
311.307342529297

> <r_mmod_Stretch_Energy-OPLS-2005>
52.5109062194824

> <r_mmod_Bend_Energy-OPLS-2005>
115.059242248535

> <r_mmod_Torsional_Energy-OPLS-2005>
291.717864990234

> <r_mmod_Improper_Torsional_Energy-OPLS-2005>
6.47478294372559

> <r_mmod_Van_der_Waal_Energy-OPLS-2005>
149.345993041992

> <r_mmod_Electrostatic_Energy-OPLS-2005>
-86.7740097045898

> <r_mmod_Solvation_Energy-OPLS-2005>
-233.607330322266

> <b_mmod_Minimization_Converged-OPLS-2005>
0

> <r_mmod_RMS_Derivative-OPLS-2005>
6.50526666641235

$$$$
44
                    3D
 Structure written by MMmdl.
161169  0  0  1  0            999 V2000
  -30.7320  -14.4165   20.5783 C   0  0  0  0  0  0
  -30.4105  -12.2737   19.4195 C   0  0  0  0  0  0
  -29.4911  -12.5046   18.2040 C   0  0  0  0  0  0
  -28.0107  -12.3758   18.6134 C   0  0  0  0  0  0
  -27.6628  -13.2081   19.8780 C   0  0  2  0  0  0
  -28.7014  -12.9751   20.9986 C   0  0  0  0  0  0
  -25.2581  -13.8170   20.5674 C   0  0  0  0  0  0
  -24.1831  -13.0445   20.9165 C   0  0  0  0  0  0
  -24.6391  -11.6911   20.8728 C   0  0  0  0  0  0
  -23.9057  -10.4290   21.0402 C   0  0  0  0  0  0
  -24.3612   -9.4209   21.9184 C   0  0  0  0  0  0
  -23.6286   -8.2246   22.0754 C   0  0  0  0  0  0
  -22.4267   -8.0282   21.3543 C   0  0  0  0  0  0
  -21.9906   -9.0252   20.4643 C   0  0  0  0  0  0
  -22.7235  -10.2132   20.3051 C   0  0  0  0  0  0
  -21.6854   -6.0738   22.5279 C   0  0  0  0  0  0
  -21.4008   -6.5639   23.8214 C   0  0  0  0  0  0
  -21.3655   -5.6789   24.9175 C   0  0  0  0  0  0
  -21.6046   -4.3059   24.7224 C   0  0  0  0  0  0
  -21.8823   -3.8152   23.4347 C   0  0  0  0  0  0
  -21.9193   -4.6964   22.3401 C   0  0  0  0  0  0
  -22.7854  -13.5242   21.1839 C   0  0  0  0  0  0
  -22.1664   -4.2151   21.0978 F   0  0  0  0  0  0
  -21.5628   -3.4542   25.7740 F   0  0  0  0  0  0
  -30.0394  -13.2550   20.4500 N   0  0  0  0  0  0
  -26.3026  -12.9345   20.3381 N   0  0  0  0  0  0
  -25.9318  -11.6503   20.5766 N   0  0  0  0  0  0
  -22.0494  -12.8223   22.0392 N   0  0  0  0  0  0
  -25.4295  -15.1890   20.4072 N   0  0  0  0  0  0
  -31.8562  -14.5731   20.0939 O   0  0  0  0  0  0
  -21.6637   -6.8879   21.4242 O   0  0  0  0  0  0
  -22.3533  -14.5554   20.6706 O   0  0  0  0  0  0
  -24.6101  -31.8706   23.2132 C   0  0  0  0  0  0
  -25.9013  -32.4839   23.8410 C   0  0  1  0  0  0
  -27.2522  -27.4755   20.0936 C   0  0  0  0  0  0
  -25.5894  -33.8636   24.2354 N   0  0  0  0  0  0
  -23.3966  -30.4919   21.5522 C   0  0  2  0  0  0
  -24.8473  -28.9603   20.1190 C   0  0  0  0  0  0
  -22.7385  -29.4663   22.5016 C   0  0  0  0  0  0
  -18.0268  -28.1373   22.8491 C   0  0  0  0  0  0
  -24.1475  -36.7306   23.2637 C   0  0  0  0  0  0
  -25.9185  -30.8501   21.3591 C   0  0  0  0  0  0
  -26.0007  -29.4843   20.7145 C   0  0  0  0  0  0
  -27.2046  -28.7514   20.7054 C   0  0  0  0  0  0
  -26.0820  -26.9610   19.4985 C   0  0  0  0  0  0
  -24.8793  -27.6936   19.5104 C   0  0  0  0  0  0
  -23.6043  -29.8195   20.1674 C   0  0  0  0  0  0
  -25.4101  -36.3124   24.0345 C   0  0  1  0  0  0
  -20.5856  -28.3651   23.1336 C   0  0  2  0  0  0
  -20.6763  -26.9397   22.5421 C   0  0  0  0  0  0
  -19.5748  -26.6386   21.5214 C   0  0  0  0  0  0
  -18.1915  -26.7920   22.1614 C   0  0  0  0  0  0
  -19.1515  -28.8825   23.2914 C   0  0  0  0  0  0
  -18.9448  -30.1429   23.8932 C   0  0  0  0  0  0
  -17.6455  -30.6582   24.0570 C   0  0  0  0  0  0
  -25.9028  -34.9485   23.5143 C   0  0  0  0  0  0
  -16.5343  -29.9093   23.6320 C   0  0  0  0  0  0
  -16.7258  -28.6506   23.0347 C   0  0  0  0  0  0
  -26.4462  -31.6596   25.0712 C   0  0  0  0  0  0
  -25.3751  -31.3689   26.1473 C   0  0  0  0  0  0
  -27.0276  -30.3048   24.6035 C   0  0  0  0  0  0
  -27.6047  -32.4296   25.7473 C   0  0  0  0  0  0
  -27.5582  -37.1801   24.8465 C   0  0  0  0  0  0
  -21.4119  -29.3023   22.3750 N   0  0  0  0  0  0
  -26.4284  -37.3812   23.9425 N   0  0  0  0  0  0
  -24.6596  -31.0838   22.1014 N   0  0  0  0  0  0
  -23.4166  -28.8214   23.3055 O   0  0  0  0  0  0
  -28.3786  -26.6878   20.0284 O   0  0  0  0  0  0
  -26.5581  -34.8927   22.4699 O   0  0  0  0  0  0
  -23.5307  -32.1434   23.7558 O   0  0  0  0  0  0
  -31.1251  -17.4052   20.0789 C   0  0  0  0  0  0
  -30.0777  -19.0371   22.0962 C   0  0  0  0  0  0
  -31.4041  -18.7908   20.0456 C   0  0  0  0  0  0
  -30.3747  -16.8165   21.1257 C   0  0  0  0  0  0
  -30.8609  -19.6165   21.0688 C   0  0  0  0  0  0
  -29.8437  -17.6467   22.1332 C   0  0  0  0  0  0
  -32.2389  -19.3377   18.9381 C   0  0  0  0  0  0
  -30.5192  -25.9318   20.8897 C   0  0  0  0  0  0
  -30.3081  -22.0287   21.1871 C   0  0  0  0  0  0
  -30.0339  -24.5137   20.5659 C   0  0  0  0  0  0
  -29.5200  -27.0889   20.7792 C   0  0  0  0  0  0
  -30.9357  -23.4227   21.1831 C   0  0  0  0  0  0
  -32.8293  -18.6552   18.0479 N   0  0  0  0  0  0
  -29.1061  -17.0880   23.1792 N   0  0  0  0  0  0
  -31.1707  -21.0051   21.1169 N   0  0  0  0  0  0
  -30.0786  -15.4212   21.1830 N   0  0  0  0  0  0
  -31.6901  -26.1435   21.2206 O   0  0  0  0  0  0
  -29.0846  -21.8864   21.2516 O   0  0  0  0  0  0
  -31.4584  -12.3466   19.1229 H   0  0  0  0  0  0
  -30.2846  -11.2617   19.8068 H   0  0  0  0  0  0
  -29.7233  -11.7893   17.4138 H   0  0  0  0  0  0
  -29.6725  -13.4955   17.7836 H   0  0  0  0  0  0
  -27.8105  -11.3191   18.7982 H   0  0  0  0  0  0
  -27.3647  -12.6661   17.7831 H   0  0  0  0  0  0
  -27.7123  -14.2590   19.5916 H   0  0  0  0  0  0
  -28.6611  -11.9406   21.3416 H   0  0  0  0  0  0
  -28.4691  -13.5790   21.8764 H   0  0  0  0  0  0
  -25.2757   -9.5693   22.4752 H   0  0  0  0  0  0
  -24.0003   -7.4642   22.7477 H   0  0  0  0  0  0
  -21.0843   -8.8771   19.8944 H   0  0  0  0  0  0
  -22.3703  -10.9668   19.6151 H   0  0  0  0  0  0
  -21.1994   -7.6142   23.9719 H   0  0  0  0  0  0
  -21.1470   -6.0517   25.9077 H   0  0  0  0  0  0
  -22.0606   -2.7612   23.2849 H   0  0  0  0  0  0
  -22.4105  -11.9881   22.4780 H   0  0  0  0  0  0
  -21.1113  -13.1249   22.2602 H   0  0  0  0  0  0
  -24.6684  -15.8486   20.5245 H   0  0  0  0  0  0
  -26.2932  -15.6309   20.1167 H   0  0  0  0  0  0
  -26.7089  -32.5582   23.1187 H   0  0  0  0  0  0
  -25.0069  -33.9808   25.0513 H   0  0  0  0  0  0
  -22.6837  -31.3069   21.4120 H   0  0  0  0  0  0
  -23.3754  -35.9620   23.3300 H   0  0  0  0  0  0
  -24.3572  -36.8918   22.2050 H   0  0  0  0  0  0
  -23.7195  -37.6499   23.6645 H   0  0  0  0  0  0
  -26.0177  -31.6140   20.5866 H   0  0  0  0  0  0
  -26.8107  -30.9135   21.9701 H   0  0  0  0  0  0
  -28.0822  -29.1855   21.1625 H   0  0  0  0  0  0
  -26.1031  -25.9895   19.0255 H   0  0  0  0  0  0
  -23.9925  -27.2812   19.0489 H   0  0  0  0  0  0
  -23.7072  -30.5912   19.4036 H   0  0  0  0  0  0
  -22.7308  -29.2333   19.8744 H   0  0  0  0  0  0
  -25.1272  -36.1996   25.0839 H   0  0  0  0  0  0
  -20.9935  -28.3214   24.1461 H   0  0  0  0  0  0
  -20.5674  -26.2261   23.3602 H   0  0  0  0  0  0
  -21.6642  -26.7449   22.1210 H   0  0  0  0  0  0
  -19.6913  -25.6300   21.1233 H   0  0  0  0  0  0
  -19.6697  -27.3211   20.6757 H   0  0  0  0  0  0
  -17.4196  -26.6681   21.4007 H   0  0  0  0  0  0
  -18.0301  -26.0050   22.8993 H   0  0  0  0  0  0
  -19.7927  -30.7229   24.2324 H   0  0  0  0  0  0
  -17.5015  -31.6270   24.5158 H   0  0  0  0  0  0
  -15.5348  -30.3015   23.7624 H   0  0  0  0  0  0
  -15.8652  -28.0843   22.7052 H   0  0  0  0  0  0
  -24.5897  -30.7073   25.7808 H   0  0  0  0  0  0
  -24.8977  -32.2847   26.4969 H   0  0  0  0  0  0
  -25.8108  -30.8809   27.0199 H   0  0  0  0  0  0
  -26.2789  -29.6830   24.1113 H   0  0  0  0  0  0
  -27.4094  -29.7261   25.4455 H   0  0  0  0  0  0
  -27.8605  -30.4385   23.9129 H   0  0  0  0  0  0
  -27.2677  -33.3586   26.2085 H   0  0  0  0  0  0
  -28.3847  -32.6871   25.0296 H   0  0  0  0  0  0
  -28.0721  -31.8393   26.5366 H   0  0  0  0  0  0
  -28.2594  -38.0107   24.7545 H   0  0  0  0  0  0
  -28.1082  -36.2639   24.6250 H   0  0  0  0  0  0
  -27.2302  -37.1409   25.8868 H   0  0  0  0  0  0
  -20.9278  -29.8715   21.6950 H   0  0  0  0  0  0
  -26.0179  -38.2883   24.1474 H   0  0  0  0  0  0
  -31.4981  -16.7914   19.2754 H   0  0  0  0  0  0
  -29.6814  -19.6678   22.8797 H   0  0  0  0  0  0
  -32.3441  -20.4246   18.9021 H   0  0  0  0  0  0
  -29.9936  -24.3960   19.4834 H   0  0  0  0  0  0
  -29.0126  -24.4133   20.9338 H   0  0  0  0  0  0
  -29.9994  -27.9458   20.3054 H   0  0  0  0  0  0
  -29.2313  -27.3737   21.7913 H   0  0  0  0  0  0
  -31.8878  -23.3964   20.6499 H   0  0  0  0  0  0
  -31.1665  -23.6696   22.2203 H   0  0  0  0  0  0
  -32.6750  -17.6609   18.1726 H   0  0  0  0  0  0
  -28.9334  -17.6856   23.9811 H   0  0  0  0  0  0
  -29.3872  -16.1597   23.4745 H   0  0  0  0  0  0
  -32.1418  -21.2586   20.9926 H   0  0  0  0  0  0
  -29.2283  -15.1846   21.6712 H   0  0  0  0  0  0
  1 25  1  0  0  0
  1 30  2  0  0  0
  1 86  1  0  0  0
  2  3  1  0  0  0
  2 25  1  0  0  0
  2 89  1  0  0  0
  2 90  1  0  0  0
  3  4  1  0  0  0
  3 91  1  0  0  0
  3 92  1  0  0  0
  4  5  1  0  0  0
  4 93  1  0  0  0
  4 94  1  0  0  0
  5  6  1  0  0  0
  5 26  1  0  0  0
  5 95  1  0  0  0
  6 25  1  0  0  0
  6 96  1  0  0  0
  6 97  1  0  0  0
  7  8  2  0  0  0
  7 26  1  0  0  0
  7 29  1  0  0  0
  8  9  1  0  0  0
  8 22  1  0  0  0
  9 10  1  0  0  0
  9 27  2  0  0  0
 10 11  2  0  0  0
 10 15  1  0  0  0
 11 12  1  0  0  0
 11 98  1  0  0  0
 12 13  2  0  0  0
 12 99  1  0  0  0
 13 14  1  0  0  0
 13 31  1  0  0  0
 14 15  2  0  0  0
 14100  1  0  0  0
 15101  1  0  0  0
 16 17  2  0  0  0
 16 21  1  0  0  0
 16 31  1  0  0  0
 17 18  1  0  0  0
 17102  1  0  0  0
 18 19  2  0  0  0
 18103  1  0  0  0
 19 20  1  0  0  0
 19 24  1  0  0  0
 20 21  2  0  0  0
 20104  1  0  0  0
 21 23  1  0  0  0
 22 28  1  0  0  0
 22 32  2  0  0  0
 26 27  1  0  0  0
 28105  1  0  0  0
 28106  1  0  0  0
 29107  1  0  0  0
 29108  1  0  0  0
 33 34  1  0  0  0
 33 66  1  0  0  0
 33 70  2  0  0  0
 34 36  1  0  0  0
 34 59  1  0  0  0
 34109  1  0  0  0
 35 44  2  0  0  0
 35 45  1  0  0  0
 35 68  1  0  0  0
 36 56  1  0  0  0
 36110  1  0  0  0
 37 39  1  0  0  0
 37 47  1  0  0  0
 37 66  1  0  0  0
 37111  1  0  0  0
 38 43  2  0  0  0
 38 46  1  0  0  0
 38 47  1  0  0  0
 39 64  1  0  0  0
 39 67  2  0  0  0
 40 52  1  0  0  0
 40 53  2  0  0  0
 40 58  1  0  0  0
 41112  1  0  0  0
 41113  1  0  0  0
 41114  1  0  0  0
 41 48  1  0  0  0
 42 43  1  0  0  0
 42 66  1  0  0  0
 42115  1  0  0  0
 42116  1  0  0  0
 43 44  1  0  0  0
 44117  1  0  0  0
 45 46  2  0  0  0
 45118  1  0  0  0
 46119  1  0  0  0
 47120  1  0  0  0
 47121  1  0  0  0
 48 56  1  0  0  0
 48 65  1  0  0  0
 48122  1  0  0  0
 49 50  1  0  0  0
 49 53  1  0  0  0
 49 64  1  0  0  0
 49123  1  0  0  0
 50 51  1  0  0  0
 50124  1  0  0  0
 50125  1  0  0  0
 51 52  1  0  0  0
 51126  1  0  0  0
 51127  1  0  0  0
 52128  1  0  0  0
 52129  1  0  0  0
 53 54  1  0  0  0
 54 55  2  0  0  0
 54130  1  0  0  0
 55 57  1  0  0  0
 55131  1  0  0  0
 56 69  2  0  0  0
 57 58  2  0  0  0
 57132  1  0  0  0
 58133  1  0  0  0
 59 60  1  0  0  0
 59 61  1  0  0  0
 59 62  1  0  0  0
 60134  1  0  0  0
 60135  1  0  0  0
 60136  1  0  0  0
 61137  1  0  0  0
 61138  1  0  0  0
 61139  1  0  0  0
 62140  1  0  0  0
 62141  1  0  0  0
 62142  1  0  0  0
 63 65  1  0  0  0
 63143  1  0  0  0
 63144  1  0  0  0
 63145  1  0  0  0
 64146  1  0  0  0
 65147  1  0  0  0
 68 81  1  0  0  0
 71 73  2  0  0  0
 71 74  1  0  0  0
 71148  1  0  0  0
 72 75  2  0  0  0
 72 76  1  0  0  0
 72149  1  0  0  0
 73 75  1  0  0  0
 73 77  1  0  0  0
 74 76  2  0  0  0
 74 86  1  0  0  0
 75 85  1  0  0  0
 76 84  1  0  0  0
 77 83  2  0  0  0
 77150  1  0  0  0
 78 80  1  0  0  0
 78 81  1  0  0  0
 78 87  2  0  0  0
 79 82  1  0  0  0
 79 85  1  0  0  0
 79 88  2  0  0  0
 80 82  1  0  0  0
 80151  1  0  0  0
 80152  1  0  0  0
 81153  1  0  0  0
 81154  1  0  0  0
 82155  1  0  0  0
 82156  1  0  0  0
 83157  1  0  0  0
 84158  1  0  0  0
 84159  1  0  0  0
 85160  1  0  0  0
 86161  1  0  0  0
M  ISO  4   1 100  68 101  81 101  86 100
M  END
> <chiral flag>
0

> <version>
0

> <s_m_source_file>
/data/baiqing/PycharmProjects/Reinvent-master-3.2/result/LINK_invent/BTK/process_docking_weight1_custom_product_contain_oxygen_bond_distance_aromatic_linkinvent_7_9_3/rearranged_h_0174.sdf

> <i_m_source_file_index>
45

> <r_mmod_Potential_Energy-OPLS-2005>
-226.501235961914

> <r_mmod_Stretch_Energy-OPLS-2005>
35.001636505127

> <r_mmod_Bend_Energy-OPLS-2005>
98.2050704956055

> <r_mmod_Torsional_Energy-OPLS-2005>
241.943588256836

> <r_mmod_Improper_Torsional_Energy-OPLS-2005>
7.34219312667847

> <r_mmod_Van_der_Waal_Energy-OPLS-2005>
176.778396606445

> <r_mmod_Electrostatic_Energy-OPLS-2005>
-532.927124023438

> <r_mmod_Solvation_Energy-OPLS-2005>
-261.844665527344

> <b_mmod_Minimization_Converged-OPLS-2005>
0

> <r_mmod_RMS_Derivative-OPLS-2005>
1.24703133106232

$$$$
45
                    3D
 Structure written by MMmdl.
156164  0  0  1  0            999 V2000
  -30.6904  -14.5656   20.5206 C   0  0  0  0  0  0
  -30.4134  -12.3523   19.4455 C   0  0  0  0  0  0
  -29.4946  -12.4972   18.2158 C   0  0  0  0  0  0
  -28.0179  -12.3508   18.6295 C   0  0  0  0  0  0
  -27.6488  -13.2215   19.8611 C   0  0  2  0  0  0
  -28.6934  -13.0799   20.9924 C   0  0  0  0  0  0
  -25.2536  -13.8188   20.5681 C   0  0  0  0  0  0
  -24.1815  -13.0448   20.9194 C   0  0  0  0  0  0
  -24.6396  -11.6921   20.8760 C   0  0  0  0  0  0
  -23.9079  -10.4300   21.0425 C   0  0  0  0  0  0
  -24.3630   -9.4212   21.9195 C   0  0  0  0  0  0
  -23.6298   -8.2250   22.0761 C   0  0  0  0  0  0
  -22.4279   -8.0292   21.3552 C   0  0  0  0  0  0
  -21.9925   -9.0268   20.4657 C   0  0  0  0  0  0
  -22.7258  -10.2147   20.3067 C   0  0  0  0  0  0
  -21.6849   -6.0750   22.5281 C   0  0  0  0  0  0
  -21.4013   -6.5653   23.8215 C   0  0  0  0  0  0
  -21.3654   -5.6802   24.9174 C   0  0  0  0  0  0
  -21.6037   -4.3065   24.7224 C   0  0  0  0  0  0
  -21.8817   -3.8161   23.4345 C   0  0  0  0  0  0
  -21.9190   -4.6979   22.3401 C   0  0  0  0  0  0
  -22.7840  -13.5235   21.1854 C   0  0  0  0  0  0
  -22.1658   -4.2171   21.0977 F   0  0  0  0  0  0
  -21.5628   -3.4541   25.7733 F   0  0  0  0  0  0
  -30.0112  -13.3847   20.4203 N   0  0  0  0  0  0
  -26.2965  -12.9390   20.3322 N   0  0  0  0  0  0
  -25.9321  -11.6540   20.5766 N   0  0  0  0  0  0
  -22.0478  -12.8226   22.0412 N   0  0  0  0  0  0
  -25.4240  -15.1908   20.4069 N   0  0  0  0  0  0
  -31.8464  -14.6640   20.1024 O   0  0  0  0  0  0
  -21.6636   -6.8898   21.4248 O   0  0  0  0  0  0
  -22.3526  -14.5537   20.6694 O   0  0  0  0  0  0
  -24.6198  -31.8620   23.2047 C   0  0  0  0  0  0
  -25.9073  -32.4776   23.8357 C   0  0  1  0  0  0
  -27.2283  -27.3711   20.0966 C   0  0  0  0  0  0
  -25.5925  -33.8584   24.2287 N   0  0  0  0  0  0
  -23.4097  -30.4857   21.5469 C   0  0  2  0  0  0
  -24.8550  -28.9431   20.1108 C   0  0  0  0  0  0
  -22.7444  -29.4629   22.4963 C   0  0  0  0  0  0
  -18.0272  -28.1377   22.8483 C   0  0  0  0  0  0
  -24.1492  -36.7304   23.2635 C   0  0  0  0  0  0
  -25.9443  -30.8080   21.3678 C   0  0  0  0  0  0
  -26.0181  -29.4369   20.7137 C   0  0  0  0  0  0
  -27.2035  -28.6558   20.7069 C   0  0  0  0  0  0
  -26.0422  -26.9095   19.4810 C   0  0  0  0  0  0
  -24.8649  -27.6814   19.4918 C   0  0  0  0  0  0
  -23.6200  -29.8175   20.1617 C   0  0  0  0  0  0
  -25.4122  -36.3086   24.0323 C   0  0  1  0  0  0
  -20.5866  -28.3671   23.1309 C   0  0  2  0  0  0
  -20.6765  -26.9399   22.5424 C   0  0  0  0  0  0
  -19.5747  -26.6379   21.5211 C   0  0  0  0  0  0
  -18.1919  -26.7925   22.1610 C   0  0  0  0  0  0
  -19.1520  -28.8840   23.2890 C   0  0  0  0  0  0
  -18.9454  -30.1447   23.8896 C   0  0  0  0  0  0
  -17.6458  -30.6588   24.0558 C   0  0  0  0  0  0
  -25.9047  -34.9449   23.5096 C   0  0  0  0  0  0
  -16.5347  -29.9088   23.6327 C   0  0  0  0  0  0
  -16.7261  -28.6508   23.0336 C   0  0  0  0  0  0
  -26.4490  -31.6585   25.0710 C   0  0  0  0  0  0
  -25.3745  -31.3722   26.1457 C   0  0  0  0  0  0
  -27.0332  -30.3015   24.6136 C   0  0  0  0  0  0
  -27.6052  -32.4322   25.7478 C   0  0  0  0  0  0
  -27.5580  -37.1809   24.8460 C   0  0  0  0  0  0
  -21.4163  -29.3024   22.3704 N   0  0  0  0  0  0
  -26.4305  -37.3778   23.9398 N   0  0  0  0  0  0
  -24.6763  -31.0679   22.0972 N   0  0  0  0  0  0
  -23.4189  -28.8160   23.3021 O   0  0  0  0  0  0
  -28.3857  -26.6001   20.1479 O   0  0  0  0  0  0
  -26.5616  -34.8904   22.4664 O   0  0  0  0  0  0
  -23.5380  -32.1397   23.7420 O   0  0  0  0  0  0
  -29.6340  -18.1961   20.9678 C   0  0  0  0  0  0
  -31.8153  -17.2534   21.4671 C   0  0  0  0  0  0
  -31.4956  -19.6826   21.6030 C   0  0  0  0  0  0
  -30.4721  -17.0351   21.0885 C   0  0  0  0  0  0
  -30.1330  -19.5242   21.2090 C   0  0  0  0  0  0
  -32.3226  -18.5388   21.7091 C   0  0  0  0  0  0
  -28.7652  -23.0573   20.7177 C   0  0  0  0  0  0
  -29.0372  -21.5699   20.2137 C   0  0  0  0  0  0
  -27.8791  -24.0233   19.8780 C   0  0  0  0  0  0
  -28.5190  -25.3720   19.3737 C   0  0  0  0  0  0
  -32.0606  -21.0690   21.9497 C   0  0  0  0  0  0
  -29.2789  -20.6970   21.2255 N   0  0  0  0  0  0
  -29.9826  -15.6734   20.9024 N   0  0  0  0  0  0
  -29.2330  -23.4496   21.7918 O   0  0  0  0  0  0
  -29.0077  -21.2483   19.0219 O   0  0  0  0  0  0
  -33.6240  -18.6352   22.0758 F   0  0  0  0  0  0
  -31.3233  -21.6229   22.9144 F   0  0  0  0  0  0
  -33.3191  -21.0572   22.3858 F   0  0  0  0  0  0
  -32.0230  -21.8585   20.8750 F   0  0  0  0  0  0
  -31.4597  -12.4350   19.1470 H   0  0  0  0  0  0
  -30.3116  -11.3604   19.8867 H   0  0  0  0  0  0
  -29.7483  -11.7497   17.4632 H   0  0  0  0  0  0
  -29.6512  -13.4692   17.7464 H   0  0  0  0  0  0
  -27.8431  -11.2980   18.8548 H   0  0  0  0  0  0
  -27.3652  -12.5910   17.7897 H   0  0  0  0  0  0
  -27.6680  -14.2569   19.5205 H   0  0  0  0  0  0
  -28.6893  -12.0660   21.3943 H   0  0  0  0  0  0
  -28.4535  -13.7371   21.8295 H   0  0  0  0  0  0
  -25.2777   -9.5675   22.4770 H   0  0  0  0  0  0
  -24.0003   -7.4640   22.7477 H   0  0  0  0  0  0
  -21.0860   -8.8802   19.8956 H   0  0  0  0  0  0
  -22.3730  -10.9694   19.6177 H   0  0  0  0  0  0
  -21.2008   -7.6158   23.9728 H   0  0  0  0  0  0
  -21.1473   -6.0526   25.9076 H   0  0  0  0  0  0
  -22.0601   -2.7627   23.2833 H   0  0  0  0  0  0
  -22.4085  -11.9874   22.4790 H   0  0  0  0  0  0
  -21.1097  -13.1267   22.2625 H   0  0  0  0  0  0
  -24.6537  -15.8428   20.5059 H   0  0  0  0  0  0
  -26.2655  -15.6290   20.0553 H   0  0  0  0  0  0
  -26.7140  -32.5456   23.1106 H   0  0  0  0  0  0
  -25.0069  -33.9739   25.0428 H   0  0  0  0  0  0
  -22.7016  -31.3039   21.4056 H   0  0  0  0  0  0
  -23.3725  -35.9659   23.3312 H   0  0  0  0  0  0
  -24.3572  -36.8917   22.2042 H   0  0  0  0  0  0
  -23.7265  -37.6520   23.6658 H   0  0  0  0  0  0
  -26.0668  -31.5736   20.6001 H   0  0  0  0  0  0
  -26.8285  -30.8561   21.9927 H   0  0  0  0  0  0
  -28.1004  -29.0274   21.1826 H   0  0  0  0  0  0
  -25.9979  -25.9418   19.0034 H   0  0  0  0  0  0
  -23.9691  -27.2952   19.0233 H   0  0  0  0  0  0
  -23.7316  -30.5916   19.4014 H   0  0  0  0  0  0
  -22.7417  -29.2415   19.8634 H   0  0  0  0  0  0
  -25.1296  -36.1954   25.0814 H   0  0  0  0  0  0
  -20.9950  -28.3258   24.1433 H   0  0  0  0  0  0
  -20.5683  -26.2273   23.3609 H   0  0  0  0  0  0
  -21.6635  -26.7455   22.1205 H   0  0  0  0  0  0
  -19.6911  -25.6292   21.1227 H   0  0  0  0  0  0
  -19.6693  -27.3194   20.6739 H   0  0  0  0  0  0
  -17.4192  -26.6648   21.4011 H   0  0  0  0  0  0
  -18.0312  -26.0081   22.9017 H   0  0  0  0  0  0
  -19.7940  -30.7250   24.2263 H   0  0  0  0  0  0
  -17.5013  -31.6264   24.5159 H   0  0  0  0  0  0
  -15.5344  -30.2973   23.7673 H   0  0  0  0  0  0
  -15.8654  -28.0845   22.7034 H   0  0  0  0  0  0
  -24.5916  -30.7073   25.7784 H   0  0  0  0  0  0
  -24.8932  -32.2880   26.4895 H   0  0  0  0  0  0
  -25.8070  -30.8896   27.0226 H   0  0  0  0  0  0
  -26.2893  -29.6754   24.1191 H   0  0  0  0  0  0
  -27.4069  -29.7289   25.4631 H   0  0  0  0  0  0
  -27.8737  -30.4285   23.9308 H   0  0  0  0  0  0
  -27.2675  -33.3634   26.2047 H   0  0  0  0  0  0
  -28.3870  -32.6876   25.0308 H   0  0  0  0  0  0
  -28.0708  -31.8456   26.5410 H   0  0  0  0  0  0
  -28.2603  -38.0098   24.7507 H   0  0  0  0  0  0
  -28.1077  -36.2638   24.6305 H   0  0  0  0  0  0
  -27.2302  -37.1483   25.8863 H   0  0  0  0  0  0
  -20.9327  -29.8766   21.6944 H   0  0  0  0  0  0
  -26.0187  -38.2851   24.1395 H   0  0  0  0  0  0
  -28.5915  -18.0705   20.7129 H   0  0  0  0  0  0
  -32.4998  -16.4326   21.6118 H   0  0  0  0  0  0
  -26.9651  -24.2255   20.4341 H   0  0  0  0  0  0
  -27.5709  -23.4575   18.9993 H   0  0  0  0  0  0
  -28.1697  -25.5706   18.3587 H   0  0  0  0  0  0
  -29.5902  -25.2098   19.2509 H   0  0  0  0  0  0
  -29.2396  -21.1826   22.1151 H   0  0  0  0  0  0
  -28.9961  -15.5228   21.0517 H   0  0  0  0  0  0
  1 25  1  0  0  0
  1 30  2  0  0  0
  1 83  1  0  0  0
  2  3  1  0  0  0
  2 25  1  0  0  0
  2 90  1  0  0  0
  2 91  1  0  0  0
  3  4  1  0  0  0
  3 92  1  0  0  0
  3 93  1  0  0  0
  4  5  1  0  0  0
  4 94  1  0  0  0
  4 95  1  0  0  0
  5  6  1  0  0  0
  5 26  1  0  0  0
  5 96  1  0  0  0
  6 25  1  0  0  0
  6 97  1  0  0  0
  6 98  1  0  0  0
  7  8  2  0  0  0
  7 26  1  0  0  0
  7 29  1  0  0  0
  8  9  1  0  0  0
  8 22  1  0  0  0
  9 10  1  0  0  0
  9 27  2  0  0  0
 10 11  2  0  0  0
 10 15  1  0  0  0
 11 12  1  0  0  0
 11 99  1  0  0  0
 12 13  2  0  0  0
 12100  1  0  0  0
 13 14  1  0  0  0
 13 31  1  0  0  0
 14 15  2  0  0  0
 14101  1  0  0  0
 15102  1  0  0  0
 16 17  2  0  0  0
 16 21  1  0  0  0
 16 31  1  0  0  0
 17 18  1  0  0  0
 17103  1  0  0  0
 18 19  2  0  0  0
 18104  1  0  0  0
 19 20  1  0  0  0
 19 24  1  0  0  0
 20 21  2  0  0  0
 20105  1  0  0  0
 21 23  1  0  0  0
 22 28  1  0  0  0
 22 32  2  0  0  0
 26 27  1  0  0  0
 28106  1  0  0  0
 28107  1  0  0  0
 29108  1  0  0  0
 29109  1  0  0  0
 33 34  1  0  0  0
 33 66  1  0  0  0
 33 70  2  0  0  0
 34 36  1  0  0  0
 34 59  1  0  0  0
 34110  1  0  0  0
 35 44  2  0  0  0
 35 45  1  0  0  0
 35 68  1  0  0  0
 36 56  1  0  0  0
 36111  1  0  0  0
 37 39  1  0  0  0
 37 47  1  0  0  0
 37 66  1  0  0  0
 37112  1  0  0  0
 38 43  2  0  0  0
 38 46  1  0  0  0
 38 47  1  0  0  0
 39 64  1  0  0  0
 39 67  2  0  0  0
 40 52  1  0  0  0
 40 53  2  0  0  0
 40 58  1  0  0  0
 41113  1  0  0  0
 41114  1  0  0  0
 41115  1  0  0  0
 41 48  1  0  0  0
 42 43  1  0  0  0
 42 66  1  0  0  0
 42116  1  0  0  0
 42117  1  0  0  0
 43 44  1  0  0  0
 44118  1  0  0  0
 45 46  2  0  0  0
 45119  1  0  0  0
 46120  1  0  0  0
 47121  1  0  0  0
 47122  1  0  0  0
 48 56  1  0  0  0
 48 65  1  0  0  0
 48123  1  0  0  0
 49 50  1  0  0  0
 49 53  1  0  0  0
 49 64  1  0  0  0
 49124  1  0  0  0
 50 51  1  0  0  0
 50125  1  0  0  0
 50126  1  0  0  0
 51 52  1  0  0  0
 51127  1  0  0  0
 51128  1  0  0  0
 52129  1  0  0  0
 52130  1  0  0  0
 53 54  1  0  0  0
 54 55  2  0  0  0
 54131  1  0  0  0
 55 57  1  0  0  0
 55132  1  0  0  0
 56 69  2  0  0  0
 57 58  2  0  0  0
 57133  1  0  0  0
 58134  1  0  0  0
 59 60  1  0  0  0
 59 61  1  0  0  0
 59 62  1  0  0  0
 60135  1  0  0  0
 60136  1  0  0  0
 60137  1  0  0  0
 61138  1  0  0  0
 61139  1  0  0  0
 61140  1  0  0  0
 62141  1  0  0  0
 62142  1  0  0  0
 62143  1  0  0  0
 63 65  1  0  0  0
 63144  1  0  0  0
 63145  1  0  0  0
 63146  1  0  0  0
 64147  1  0  0  0
 65148  1  0  0  0
 68 80  1  0  0  0
 71 74  2  0  0  0
 71 75  1  0  0  0
 71149  1  0  0  0
 72 74  1  0  0  0
 72 76  2  0  0  0
 72150  1  0  0  0
 73 75  2  0  0  0
 73 76  1  0  0  0
 73 81  1  0  0  0
 74 83  1  0  0  0
 75 82  1  0  0  0
 76 86  1  0  0  0
 77 78  1  0  0  0
 77 79  1  0  0  0
 77 84  2  0  0  0
 78 82  1  0  0  0
 78 85  2  0  0  0
 79 80  1  0  0  0
 79151  1  0  0  0
 79152  1  0  0  0
 80153  1  0  0  0
 80154  1  0  0  0
 81 87  1  0  0  0
 81 88  1  0  0  0
 81 89  1  0  0  0
 82155  1  0  0  0
 83156  1  0  0  0
M  ISO  4   1 100  68 101  80 101  83 100
M  END
> <chiral flag>
0

> <version>
0

> <s_m_source_file>
/data/baiqing/PycharmProjects/Reinvent-master-3.2/result/LINK_invent/BTK/process_docking_weight1_custom_product_contain_oxygen_bond_distance_aromatic_linkinvent_7_9_3/rearranged_h_0174.sdf

> <i_m_source_file_index>
46

> <r_mmod_Potential_Energy-OPLS-2005>
117.907485961914

> <r_mmod_Stretch_Energy-OPLS-2005>
65.3173828125

> <r_mmod_Bend_Energy-OPLS-2005>
133.313217163086

> <r_mmod_Torsional_Energy-OPLS-2005>
249.99006652832

> <r_mmod_Improper_Torsional_Energy-OPLS-2005>
7.6455774307251

> <r_mmod_Van_der_Waal_Energy-OPLS-2005>
154.862670898438

> <r_mmod_Electrostatic_Energy-OPLS-2005>
-286.050750732422

> <r_mmod_Solvation_Energy-OPLS-2005>
-236.195770263672

> <b_mmod_Minimization_Converged-OPLS-2005>
0

> <r_mmod_RMS_Derivative-OPLS-2005>
1.88539469242096

$$$$
46
                    3D
 Structure written by MMmdl.
163171  0  0  1  0            999 V2000
  -31.2120  -14.3645   20.8842 C   0  0  0  0  0  0
  -30.9955  -12.7664   18.9660 C   0  0  0  0  0  0
  -29.6428  -12.4727   17.5904 C   0  0  0  0  0  0
  -27.7061  -12.5703   18.1533 C   0  0  0  0  0  0
  -27.3450  -13.2157   19.9406 C   0  0  2  0  0  0
  -28.7814  -13.3457   21.2323 C   0  0  0  0  0  0
  -25.0759  -13.8291   20.6634 C   0  0  0  0  0  0
  -24.0301  -13.0364   20.9780 C   0  0  0  0  0  0
  -24.4998  -11.6890   20.9230 C   0  0  0  0  0  0
  -23.8210  -10.4185   21.0649 C   0  0  0  0  0  0
  -24.3128   -9.4167   21.9281 C   0  0  0  0  0  0
  -23.6071   -8.2081   22.0727 C   0  0  0  0  0  0
  -22.4084   -8.0041   21.3498 C   0  0  0  0  0  0
  -21.9529   -8.9924   20.4605 C   0  0  0  0  0  0
  -22.6579  -10.1940   20.3124 C   0  0  0  0  0  0
  -21.6799   -6.0590   22.5286 C   0  0  0  0  0  0
  -21.3948   -6.5551   23.8191 C   0  0  0  0  0  0
  -21.3680   -5.6753   24.9195 C   0  0  0  0  0  0
  -21.6055   -4.3010   24.7277 C   0  0  0  0  0  0
  -21.8836   -3.8055   23.4425 C   0  0  0  0  0  0
  -21.9171   -4.6833   22.3446 C   0  0  0  0  0  0
  -22.6481  -13.5150   21.2205 C   0  0  0  0  0  0
  -22.1656   -4.2012   21.1026 F   0  0  0  0  0  0
  -21.5642   -3.4531   25.7806 F   0  0  0  0  0  0
  -30.5018  -13.2880   20.6342 N   0  0  0  0  0  0
  -26.0886  -12.9288   20.4333 N   0  0  0  0  0  0
  -25.7622  -11.6500   20.6104 N   0  0  0  0  0  0
  -21.9207  -12.8160   22.0758 N   0  0  0  0  0  0
  -25.2235  -15.2143   20.5286 N   0  0  0  0  0  0
  -32.3298  -14.5928   20.4464 O   0  0  0  0  0  0
  -21.6556   -6.8624   21.4207 O   0  0  0  0  0  0
  -22.2391  -14.5485   20.6949 O   0  0  0  0  0  0
  -24.6244  -31.8605   23.2079 C   0  0  0  0  0  0
  -25.9103  -32.4777   23.8388 C   0  0  1  0  0  0
  -27.1917  -27.3207   20.0838 C   0  0  0  0  0  0
  -25.5926  -33.8578   24.2311 N   0  0  0  0  0  0
  -23.4153  -30.4872   21.5514 C   0  0  2  0  0  0
  -24.8532  -28.9447   20.1151 C   0  0  0  0  0  0
  -22.7459  -29.4610   22.4959 C   0  0  0  0  0  0
  -18.0277  -28.1370   22.8495 C   0  0  0  0  0  0
  -24.1491  -36.7297   23.2641 C   0  0  0  0  0  0
  -25.9600  -30.7854   21.3843 C   0  0  0  0  0  0
  -26.0275  -29.4168   20.7168 C   0  0  0  0  0  0
  -27.2069  -28.6146   20.6934 C   0  0  0  0  0  0
  -25.9949  -26.8933   19.4801 C   0  0  0  0  0  0
  -24.8362  -27.6868   19.4949 C   0  0  0  0  0  0
  -23.6293  -29.8322   20.1638 C   0  0  0  0  0  0
  -25.4114  -36.3091   24.0338 C   0  0  1  0  0  0
  -20.5876  -28.3660   23.1300 C   0  0  2  0  0  0
  -20.6769  -26.9389   22.5406 C   0  0  0  0  0  0
  -19.5741  -26.6373   21.5215 C   0  0  0  0  0  0
  -18.1923  -26.7910   22.1632 C   0  0  0  0  0  0
  -19.1530  -28.8840   23.2887 C   0  0  0  0  0  0
  -18.9453  -30.1449   23.8892 C   0  0  0  0  0  0
  -17.6454  -30.6578   24.0561 C   0  0  0  0  0  0
  -25.9046  -34.9450   23.5127 C   0  0  0  0  0  0
  -16.5344  -29.9076   23.6338 C   0  0  0  0  0  0
  -16.7264  -28.6494   23.0355 C   0  0  0  0  0  0
  -26.4494  -31.6588   25.0762 C   0  0  0  0  0  0
  -25.3733  -31.3742   26.1492 C   0  0  0  0  0  0
  -27.0357  -30.3009   24.6255 C   0  0  0  0  0  0
  -27.6047  -32.4346   25.7517 C   0  0  0  0  0  0
  -27.5584  -37.1811   24.8469 C   0  0  0  0  0  0
  -21.4176  -29.3027   22.3712 N   0  0  0  0  0  0
  -26.4306  -37.3780   23.9407 N   0  0  0  0  0  0
  -24.6850  -31.0614   22.1031 N   0  0  0  0  0  0
  -23.4207  -28.8137   23.3007 O   0  0  0  0  0  0
  -28.2915  -26.4643   20.0364 O   0  0  0  0  0  0
  -26.5599  -34.8913   22.4684 O   0  0  0  0  0  0
  -23.5409  -32.1419   23.7411 O   0  0  0  0  0  0
  -28.3307  -16.5407   17.6978 C   0  0  0  0  0  0
  -29.2081  -16.9072   19.7707 C   0  0  0  0  0  0
  -29.1613  -14.3309   18.9875 C   0  0  0  0  0  0
  -28.5598  -17.4898   18.6980 C   0  0  0  0  0  0
  -28.6266  -15.1262   17.7845 C   0  0  0  0  0  0
  -29.5469  -15.5174   19.8821 C   0  0  0  0  0  0
  -28.2472  -22.4675   19.7210 C   0  0  0  0  0  0
  -28.0542  -21.3424   18.9382 C   0  0  0  0  0  0
  -28.0179  -23.9307   19.3463 C   0  0  0  0  0  0
  -28.3593  -19.9749   19.4652 C   0  0  0  0  0  0
  -30.6922  -16.3564   22.0796 C   0  0  0  0  0  0
  -28.0863  -25.0567   20.4582 C   0  0  0  0  0  0
  -29.1205  -11.7331   19.6766 C   0  0  0  0  0  0
  -28.2687  -14.6913   16.4949 N   0  0  0  0  0  0
  -28.2642  -18.9335   18.5673 N   0  0  0  0  0  0
  -30.4004  -15.3639   21.0284 N   0  0  0  0  0  0
  -27.7488  -24.2563   18.1851 O   0  0  0  0  0  0
  -28.6586  -19.7854   20.6452 O   0  0  0  0  0  0
  -27.5815  -21.4414   17.6825 O   0  0  0  0  0  0
  -30.0581  -11.0352   20.4160 F   0  0  0  0  0  0
  -28.2041  -11.0831   20.4359 F   0  0  0  0  0  0
  -29.0848  -10.6231   18.8634 F   0  0  0  0  0  0
  -31.6805  -13.4801   18.5046 H   0  0  0  0  0  0
  -31.6435  -11.8899   19.0316 H   0  0  0  0  0  0
  -29.8426  -11.5390   17.0529 H   0  0  0  0  0  0
  -29.9385  -13.1006   16.7563 H   0  0  0  0  0  0
  -27.2723  -11.5705   18.0824 H   0  0  0  0  0  0
  -26.9963  -12.9966   17.4505 H   0  0  0  0  0  0
  -27.1175  -14.2501   19.7386 H   0  0  0  0  0  0
  -28.7029  -12.5676   21.9960 H   0  0  0  0  0  0
  -28.5395  -14.1884   21.8820 H   0  0  0  0  0  0
  -25.2230   -9.5845   22.4887 H   0  0  0  0  0  0
  -23.9892   -7.4492   22.7393 H   0  0  0  0  0  0
  -21.0492   -8.8304   19.8900 H   0  0  0  0  0  0
  -22.2904  -10.9500   19.6311 H   0  0  0  0  0  0
  -21.1894   -7.6058   23.9622 H   0  0  0  0  0  0
  -21.1532   -6.0531   25.9090 H   0  0  0  0  0  0
  -22.0611   -2.7506   23.2976 H   0  0  0  0  0  0
  -22.2882  -11.9886   22.5195 H   0  0  0  0  0  0
  -20.9827  -13.1191   22.2979 H   0  0  0  0  0  0
  -24.4391  -15.8474   20.6394 H   0  0  0  0  0  0
  -26.0654  -15.6889   20.2314 H   0  0  0  0  0  0
  -26.7146  -32.5445   23.1122 H   0  0  0  0  0  0
  -25.0111  -33.9737   25.0483 H   0  0  0  0  0  0
  -22.7076  -31.3080   21.4139 H   0  0  0  0  0  0
  -23.3755  -35.9626   23.3308 H   0  0  0  0  0  0
  -24.3584  -36.8909   22.2054 H   0  0  0  0  0  0
  -23.7239  -37.6502   23.6653 H   0  0  0  0  0  0
  -26.1068  -31.5569   20.6279 H   0  0  0  0  0  0
  -26.8332  -30.8188   22.0243 H   0  0  0  0  0  0
  -28.1121  -28.9697   21.1678 H   0  0  0  0  0  0
  -25.9459  -25.9353   18.9838 H   0  0  0  0  0  0
  -23.9349  -27.3213   19.0238 H   0  0  0  0  0  0
  -23.7618  -30.6153   19.4155 H   0  0  0  0  0  0
  -22.7459  -29.2724   19.8522 H   0  0  0  0  0  0
  -25.1297  -36.1956   25.0828 H   0  0  0  0  0  0
  -20.9958  -28.3213   24.1426 H   0  0  0  0  0  0
  -20.5691  -26.2260   23.3593 H   0  0  0  0  0  0
  -21.6633  -26.7436   22.1182 H   0  0  0  0  0  0
  -19.6899  -25.6294   21.1231 H   0  0  0  0  0  0
  -19.6676  -27.3200   20.6756 H   0  0  0  0  0  0
  -17.4192  -26.6663   21.4032 H   0  0  0  0  0  0
  -18.0319  -26.0051   22.9025 H   0  0  0  0  0  0
  -19.7929  -30.7262   24.2257 H   0  0  0  0  0  0
  -17.5008  -31.6258   24.5153 H   0  0  0  0  0  0
  -15.5345  -30.2970   23.7663 H   0  0  0  0  0  0
  -15.8662  -28.0806   22.7073 H   0  0  0  0  0  0
  -24.5877  -30.7120   25.7841 H   0  0  0  0  0  0
  -24.8961  -32.2910   26.4952 H   0  0  0  0  0  0
  -25.8055  -30.8894   27.0257 H   0  0  0  0  0  0
  -26.2958  -29.6736   24.1269 H   0  0  0  0  0  0
  -27.4018  -29.7290   25.4797 H   0  0  0  0  0  0
  -27.8839  -30.4283   23.9532 H   0  0  0  0  0  0
  -27.2635  -33.3632   26.2108 H   0  0  0  0  0  0
  -28.3834  -32.6931   25.0334 H   0  0  0  0  0  0
  -28.0737  -31.8473   26.5428 H   0  0  0  0  0  0
  -28.2611  -38.0102   24.7508 H   0  0  0  0  0  0
  -28.1076  -36.2633   24.6311 H   0  0  0  0  0  0
  -27.2300  -37.1478   25.8874 H   0  0  0  0  0  0
  -20.9348  -29.8779   21.6957 H   0  0  0  0  0  0
  -26.0191  -38.2861   24.1389 H   0  0  0  0  0  0
  -27.8991  -16.9536   16.7943 H   0  0  0  0  0  0
  -29.5066  -17.6171   20.5150 H   0  0  0  0  0  0
  -28.6116  -22.3205   20.7281 H   0  0  0  0  0  0
  -31.2151  -15.9069   22.9268 H   0  0  0  0  0  0
  -29.7703  -16.7792   22.4833 H   0  0  0  0  0  0
  -31.3246  -17.1560   21.6930 H   0  0  0  0  0  0
  -28.9096  -24.8009   21.1274 H   0  0  0  0  0  0
  -27.1802  -24.9876   21.0620 H   0  0  0  0  0  0
  -27.6556  -15.2996   15.9639 H   0  0  0  0  0  0
  -27.9634  -13.7271   16.4403 H   0  0  0  0  0  0
  -27.9450  -19.2477   17.6593 H   0  0  0  0  0  0
  -27.4169  -22.3664   17.5177 H   0  0  0  0  0  0
  1 25  1  0  0  0
  1 30  2  0  0  0
  1 86  1  0  0  0
  2  3  1  0  0  0
  2 25  1  0  0  0
  2 93  1  0  0  0
  2 94  1  0  0  0
  3  4  1  0  0  0
  3 95  1  0  0  0
  3 96  1  0  0  0
  4  5  1  0  0  0
  4 97  1  0  0  0
  4 98  1  0  0  0
  5  6  1  0  0  0
  5 26  1  0  0  0
  5 99  1  0  0  0
  6 25  1  0  0  0
  6100  1  0  0  0
  6101  1  0  0  0
  7  8  2  0  0  0
  7 26  1  0  0  0
  7 29  1  0  0  0
  8  9  1  0  0  0
  8 22  1  0  0  0
  9 10  1  0  0  0
  9 27  2  0  0  0
 10 11  2  0  0  0
 10 15  1  0  0  0
 11 12  1  0  0  0
 11102  1  0  0  0
 12 13  2  0  0  0
 12103  1  0  0  0
 13 14  1  0  0  0
 13 31  1  0  0  0
 14 15  2  0  0  0
 14104  1  0  0  0
 15105  1  0  0  0
 16 17  2  0  0  0
 16 21  1  0  0  0
 16 31  1  0  0  0
 17 18  1  0  0  0
 17106  1  0  0  0
 18 19  2  0  0  0
 18107  1  0  0  0
 19 20  1  0  0  0
 19 24  1  0  0  0
 20 21  2  0  0  0
 20108  1  0  0  0
 21 23  1  0  0  0
 22 28  1  0  0  0
 22 32  2  0  0  0
 26 27  1  0  0  0
 28109  1  0  0  0
 28110  1  0  0  0
 29111  1  0  0  0
 29112  1  0  0  0
 33 34  1  0  0  0
 33 66  1  0  0  0
 33 70  2  0  0  0
 34 36  1  0  0  0
 34 59  1  0  0  0
 34113  1  0  0  0
 35 44  2  0  0  0
 35 45  1  0  0  0
 35 68  1  0  0  0
 36 56  1  0  0  0
 36114  1  0  0  0
 37 39  1  0  0  0
 37 47  1  0  0  0
 37 66  1  0  0  0
 37115  1  0  0  0
 38 43  2  0  0  0
 38 46  1  0  0  0
 38 47  1  0  0  0
 39 64  1  0  0  0
 39 67  2  0  0  0
 40 52  1  0  0  0
 40 53  2  0  0  0
 40 58  1  0  0  0
 41116  1  0  0  0
 41117  1  0  0  0
 41118  1  0  0  0
 41 48  1  0  0  0
 42 43  1  0  0  0
 42 66  1  0  0  0
 42119  1  0  0  0
 42120  1  0  0  0
 43 44  1  0  0  0
 44121  1  0  0  0
 45 46  2  0  0  0
 45122  1  0  0  0
 46123  1  0  0  0
 47124  1  0  0  0
 47125  1  0  0  0
 48 56  1  0  0  0
 48 65  1  0  0  0
 48126  1  0  0  0
 49 50  1  0  0  0
 49 53  1  0  0  0
 49 64  1  0  0  0
 49127  1  0  0  0
 50 51  1  0  0  0
 50128  1  0  0  0
 50129  1  0  0  0
 51 52  1  0  0  0
 51130  1  0  0  0
 51131  1  0  0  0
 52132  1  0  0  0
 52133  1  0  0  0
 53 54  1  0  0  0
 54 55  2  0  0  0
 54134  1  0  0  0
 55 57  1  0  0  0
 55135  1  0  0  0
 56 69  2  0  0  0
 57 58  2  0  0  0
 57136  1  0  0  0
 58137  1  0  0  0
 59 60  1  0  0  0
 59 61  1  0  0  0
 59 62  1  0  0  0
 60138  1  0  0  0
 60139  1  0  0  0
 60140  1  0  0  0
 61141  1  0  0  0
 61142  1  0  0  0
 61143  1  0  0  0
 62144  1  0  0  0
 62145  1  0  0  0
 62146  1  0  0  0
 63 65  1  0  0  0
 63147  1  0  0  0
 63148  1  0  0  0
 63149  1  0  0  0
 64150  1  0  0  0
 65151  1  0  0  0
 68 82  1  0  0  0
 71 74  2  0  0  0
 71 75  1  0  0  0
 71152  1  0  0  0
 72 74  1  0  0  0
 72 76  2  0  0  0
 72153  1  0  0  0
 73 75  2  0  0  0
 73 76  1  0  0  0
 73 83  1  0  0  0
 74 85  1  0  0  0
 75 84  1  0  0  0
 76 86  1  0  0  0
 77 78  2  0  0  0
 77 79  1  0  0  0
 77154  1  0  0  0
 78 80  1  0  0  0
 78 89  1  0  0  0
 79 82  1  0  0  0
 79 87  2  0  0  0
 80 85  1  0  0  0
 80 88  2  0  0  0
 81 86  1  0  0  0
 81155  1  0  0  0
 81156  1  0  0  0
 81157  1  0  0  0
 82158  1  0  0  0
 82159  1  0  0  0
 83 90  1  0  0  0
 83 91  1  0  0  0
 83 92  1  0  0  0
 84160  1  0  0  0
 84161  1  0  0  0
 85162  1  0  0  0
 89163  1  0  0  0
M  ISO  4   1 100  68 101  82 101  86 100
M  END
> <chiral flag>
0

> <version>
0

> <s_m_source_file>
/data/baiqing/PycharmProjects/Reinvent-master-3.2/result/LINK_invent/BTK/process_docking_weight1_custom_product_contain_oxygen_bond_distance_aromatic_linkinvent_7_9_3/rearranged_h_0174.sdf

> <i_m_source_file_index>
47

> <r_mmod_Potential_Energy-OPLS-2005>
6013.5546875

> <r_mmod_Stretch_Energy-OPLS-2005>
3239.57153320312

> <r_mmod_Bend_Energy-OPLS-2005>
618.658813476562

> <r_mmod_Torsional_Energy-OPLS-2005>
354.039276123047

> <r_mmod_Improper_Torsional_Energy-OPLS-2005>
34.0427665710449

> <r_mmod_Van_der_Waal_Energy-OPLS-2005>
1919.27661132812

> <r_mmod_Electrostatic_Energy-OPLS-2005>
-249.306259155273

> <r_mmod_Solvation_Energy-OPLS-2005>
-230.622909545898

> <b_mmod_Minimization_Converged-OPLS-2005>
0

> <r_mmod_RMS_Derivative-OPLS-2005>
4.87057781219482

$$$$
47
                    3D
 Structure written by MMmdl.
156164  0  0  1  0            999 V2000
  -30.6990  -14.4672   20.5775 C   0  0  0  0  0  0
  -30.4279  -12.3047   19.4189 C   0  0  0  0  0  0
  -29.4970  -12.5072   18.2053 C   0  0  0  0  0  0
  -28.0185  -12.3666   18.6188 C   0  0  0  0  0  0
  -27.6663  -13.2028   19.8775 C   0  0  2  0  0  0
  -28.7083  -12.9731   20.9960 C   0  0  0  0  0  0
  -25.2620  -13.8148   20.5692 C   0  0  0  0  0  0
  -24.1856  -13.0434   20.9168 C   0  0  0  0  0  0
  -24.6399  -11.6897   20.8725 C   0  0  0  0  0  0
  -23.9057  -10.4288   21.0393 C   0  0  0  0  0  0
  -24.3604   -9.4207   21.9176 C   0  0  0  0  0  0
  -23.6283   -8.2242   22.0752 C   0  0  0  0  0  0
  -22.4269   -8.0279   21.3541 C   0  0  0  0  0  0
  -21.9899   -9.0254   20.4650 C   0  0  0  0  0  0
  -22.7225  -10.2131   20.3054 C   0  0  0  0  0  0
  -21.6850   -6.0734   22.5277 C   0  0  0  0  0  0
  -21.4014   -6.5635   23.8213 C   0  0  0  0  0  0
  -21.3662   -5.6788   24.9174 C   0  0  0  0  0  0
  -21.6043   -4.3050   24.7222 C   0  0  0  0  0  0
  -21.8819   -3.8144   23.4342 C   0  0  0  0  0  0
  -21.9196   -4.6962   22.3401 C   0  0  0  0  0  0
  -22.7879  -13.5245   21.1830 C   0  0  0  0  0  0
  -22.1661   -4.2149   21.0977 F   0  0  0  0  0  0
  -21.5629   -3.4536   25.7732 F   0  0  0  0  0  0
  -30.0421  -13.2815   20.4495 N   0  0  0  0  0  0
  -26.3054  -12.9308   20.3379 N   0  0  0  0  0  0
  -25.9327  -11.6469   20.5766 N   0  0  0  0  0  0
  -22.0515  -12.8247   22.0389 N   0  0  0  0  0  0
  -25.4370  -15.1866   20.4125 N   0  0  0  0  0  0
  -31.8051  -14.6814   20.0715 O   0  0  0  0  0  0
  -21.6633   -6.8876   21.4240 O   0  0  0  0  0  0
  -22.3569  -14.5564   20.6697 O   0  0  0  0  0  0
  -24.6170  -31.8670   23.2106 C   0  0  0  0  0  0
  -25.9061  -32.4815   23.8398 C   0  0  1  0  0  0
  -27.2297  -27.4139   20.0954 C   0  0  0  0  0  0
  -25.5910  -33.8614   24.2322 N   0  0  0  0  0  0
  -23.4047  -30.4926   21.5514 C   0  0  2  0  0  0
  -24.8493  -28.9608   20.1121 C   0  0  0  0  0  0
  -22.7422  -29.4659   22.4984 C   0  0  0  0  0  0
  -18.0272  -28.1388   22.8485 C   0  0  0  0  0  0
  -24.1482  -36.7314   23.2635 C   0  0  0  0  0  0
  -25.9369  -30.8253   21.3683 C   0  0  0  0  0  0
  -26.0112  -29.4600   20.7124 C   0  0  0  0  0  0
  -27.2020  -28.6944   20.7017 C   0  0  0  0  0  0
  -26.0455  -26.9418   19.4776 C   0  0  0  0  0  0
  -24.8631  -27.7023   19.4911 C   0  0  0  0  0  0
  -23.6135  -29.8298   20.1641 C   0  0  0  0  0  0
  -25.4102  -36.3106   24.0335 C   0  0  1  0  0  0
  -20.5864  -28.3674   23.1313 C   0  0  2  0  0  0
  -20.6765  -26.9409   22.5415 C   0  0  0  0  0  0
  -19.5744  -26.6393   21.5213 C   0  0  0  0  0  0
  -18.1921  -26.7932   22.1624 C   0  0  0  0  0  0
  -19.1522  -28.8848   23.2894 C   0  0  0  0  0  0
  -18.9450  -30.1455   23.8905 C   0  0  0  0  0  0
  -17.6452  -30.6590   24.0569 C   0  0  0  0  0  0
  -25.9038  -34.9473   23.5126 C   0  0  0  0  0  0
  -16.5342  -29.9092   23.6329 C   0  0  0  0  0  0
  -16.7262  -28.6513   23.0340 C   0  0  0  0  0  0
  -26.4477  -31.6604   25.0737 C   0  0  0  0  0  0
  -25.3746  -31.3719   26.1490 C   0  0  0  0  0  0
  -27.0318  -30.3044   24.6138 C   0  0  0  0  0  0
  -27.6045  -32.4335   25.7497 C   0  0  0  0  0  0
  -27.5582  -37.1801   24.8456 C   0  0  0  0  0  0
  -21.4149  -29.3039   22.3724 N   0  0  0  0  0  0
  -26.4282  -37.3799   23.9421 N   0  0  0  0  0  0
  -24.6710  -31.0763   22.1012 N   0  0  0  0  0  0
  -23.4189  -28.8195   23.3024 O   0  0  0  0  0  0
  -28.3947  -26.6634   20.1353 O   0  0  0  0  0  0
  -26.5599  -34.8927   22.4686 O   0  0  0  0  0  0
  -23.5359  -32.1428   23.7498 O   0  0  0  0  0  0
  -30.9158  -18.9997   21.9930 C   0  0  0  0  0  0
  -30.7744  -17.5987   22.1193 C   0  0  0  0  0  0
  -29.7592  -17.5145   19.9139 C   0  0  0  0  0  0
  -30.4759  -19.6845   20.8330 C   0  0  0  0  0  0
  -30.2103  -16.8400   21.0725 C   0  0  0  0  0  0
  -29.8906  -18.9187   19.7909 C   0  0  0  0  0  0
  -30.7413  -21.1715   20.6961 C   0  0  0  0  0  0
  -29.4621  -24.4181   20.3035 C   0  0  0  0  0  0
  -29.6166  -23.2500   18.0001 C   0  0  0  0  0  0
  -28.3109  -25.2796   19.7258 C   0  0  0  0  0  0
  -30.1003  -23.2614   19.4636 C   0  0  2  0  0  0
  -30.0217  -15.4341   21.2257 N   0  0  0  0  0  0
  -29.8467  -21.9171   20.0224 N   0  0  0  0  0  0
  -31.7572  -21.6613   21.1956 O   0  0  0  0  0  0
  -29.8567  -24.6548   21.4500 O   0  0  0  0  0  0
  -29.4547  -19.5148   18.6533 F   0  0  0  0  0  0
  -31.4722  -12.4031   19.1176 H   0  0  0  0  0  0
  -30.3276  -11.2907   19.8100 H   0  0  0  0  0  0
  -29.7341  -11.7832   17.4248 H   0  0  0  0  0  0
  -29.6668  -13.4928   17.7685 H   0  0  0  0  0  0
  -27.8290  -11.3103   18.8143 H   0  0  0  0  0  0
  -27.3671  -12.6415   17.7887 H   0  0  0  0  0  0
  -27.7151  -14.2518   19.5847 H   0  0  0  0  0  0
  -28.6835  -11.9336   21.3271 H   0  0  0  0  0  0
  -28.4659  -13.5604   21.8820 H   0  0  0  0  0  0
  -25.2754   -9.5681   22.4747 H   0  0  0  0  0  0
  -23.9995   -7.4633   22.7467 H   0  0  0  0  0  0
  -21.0832   -8.8771   19.8958 H   0  0  0  0  0  0
  -22.3685  -10.9665   19.6162 H   0  0  0  0  0  0
  -21.2004   -7.6142   23.9713 H   0  0  0  0  0  0
  -21.1487   -6.0516   25.9075 H   0  0  0  0  0  0
  -22.0600   -2.7607   23.2839 H   0  0  0  0  0  0
  -22.4122  -11.9907   22.4780 H   0  0  0  0  0  0
  -21.1144  -13.1299   22.2609 H   0  0  0  0  0  0
  -24.6762  -15.8474   20.5294 H   0  0  0  0  0  0
  -26.2976  -15.6243   20.1077 H   0  0  0  0  0  0
  -26.7130  -32.5517   23.1157 H   0  0  0  0  0  0
  -25.0061  -33.9771   25.0468 H   0  0  0  0  0  0
  -22.6940  -31.3104   21.4150 H   0  0  0  0  0  0
  -23.3742  -35.9648   23.3295 H   0  0  0  0  0  0
  -24.3577  -36.8933   22.2050 H   0  0  0  0  0  0
  -23.7234  -37.6519   23.6650 H   0  0  0  0  0  0
  -26.0570  -31.5923   20.6021 H   0  0  0  0  0  0
  -26.8221  -30.8732   21.9907 H   0  0  0  0  0  0
  -28.0968  -29.0762   21.1739 H   0  0  0  0  0  0
  -26.0026  -25.9865   18.9759 H   0  0  0  0  0  0
  -23.9717  -27.3154   19.0168 H   0  0  0  0  0  0
  -23.7252  -30.6076   19.4079 H   0  0  0  0  0  0
  -22.7357  -29.2540   19.8653 H   0  0  0  0  0  0
  -25.1272  -36.1962   25.0827 H   0  0  0  0  0  0
  -20.9947  -28.3238   24.1439 H   0  0  0  0  0  0
  -20.5677  -26.2277   23.3600 H   0  0  0  0  0  0
  -21.6635  -26.7459   22.1203 H   0  0  0  0  0  0
  -19.6904  -25.6307   21.1234 H   0  0  0  0  0  0
  -19.6683  -27.3212   20.6749 H   0  0  0  0  0  0
  -17.4188  -26.6669   21.4030 H   0  0  0  0  0  0
  -18.0329  -26.0079   22.9028 H   0  0  0  0  0  0
  -19.7927  -30.7270   24.2273 H   0  0  0  0  0  0
  -17.5010  -31.6269   24.5175 H   0  0  0  0  0  0
  -15.5346  -30.2997   23.7663 H   0  0  0  0  0  0
  -15.8658  -28.0852   22.7034 H   0  0  0  0  0  0
  -24.5898  -30.7086   25.7835 H   0  0  0  0  0  0
  -24.8965  -32.2882   26.4965 H   0  0  0  0  0  0
  -25.8104  -30.8868   27.0234 H   0  0  0  0  0  0
  -26.2878  -29.6802   24.1175 H   0  0  0  0  0  0
  -27.4058  -29.7284   25.4613 H   0  0  0  0  0  0
  -27.8724  -30.4355   23.9320 H   0  0  0  0  0  0
  -27.2643  -33.3607   26.2123 H   0  0  0  0  0  0
  -28.3824  -32.6951   25.0312 H   0  0  0  0  0  0
  -28.0753  -31.8443   26.5376 H   0  0  0  0  0  0
  -28.2575  -38.0123   24.7550 H   0  0  0  0  0  0
  -28.1101  -36.2660   24.6213 H   0  0  0  0  0  0
  -27.2313  -37.1373   25.8861 H   0  0  0  0  0  0
  -20.9314  -29.8765   21.6950 H   0  0  0  0  0  0
  -26.0165  -38.2869   24.1455 H   0  0  0  0  0  0
  -31.3750  -19.5546   22.7990 H   0  0  0  0  0  0
  -31.1114  -17.1113   23.0241 H   0  0  0  0  0  0
  -29.3075  -16.9609   19.1036 H   0  0  0  0  0  0
  -29.8227  -24.1974   17.5002 H   0  0  0  0  0  0
  -28.5488  -23.0431   17.9189 H   0  0  0  0  0  0
  -30.1399  -22.4806   17.4311 H   0  0  0  0  0  0
  -27.3924  -24.8293   20.1024 H   0  0  0  0  0  0
  -28.2726  -25.2431   18.6398 H   0  0  0  0  0  0
  -31.1765  -23.4426   19.4381 H   0  0  0  0  0  0
  -29.1647  -15.1397   21.6686 H   0  0  0  0  0  0
  -29.0290  -21.4283   19.6863 H   0  0  0  0  0  0
  1 25  1  0  0  0
  1 30  2  0  0  0
  1 82  1  0  0  0
  2  3  1  0  0  0
  2 25  1  0  0  0
  2 87  1  0  0  0
  2 88  1  0  0  0
  3  4  1  0  0  0
  3 89  1  0  0  0
  3 90  1  0  0  0
  4  5  1  0  0  0
  4 91  1  0  0  0
  4 92  1  0  0  0
  5  6  1  0  0  0
  5 26  1  0  0  0
  5 93  1  0  0  0
  6 25  1  0  0  0
  6 94  1  0  0  0
  6 95  1  0  0  0
  7  8  2  0  0  0
  7 26  1  0  0  0
  7 29  1  0  0  0
  8  9  1  0  0  0
  8 22  1  0  0  0
  9 10  1  0  0  0
  9 27  2  0  0  0
 10 11  2  0  0  0
 10 15  1  0  0  0
 11 12  1  0  0  0
 11 96  1  0  0  0
 12 13  2  0  0  0
 12 97  1  0  0  0
 13 14  1  0  0  0
 13 31  1  0  0  0
 14 15  2  0  0  0
 14 98  1  0  0  0
 15 99  1  0  0  0
 16 17  2  0  0  0
 16 21  1  0  0  0
 16 31  1  0  0  0
 17 18  1  0  0  0
 17100  1  0  0  0
 18 19  2  0  0  0
 18101  1  0  0  0
 19 20  1  0  0  0
 19 24  1  0  0  0
 20 21  2  0  0  0
 20102  1  0  0  0
 21 23  1  0  0  0
 22 28  1  0  0  0
 22 32  2  0  0  0
 26 27  1  0  0  0
 28103  1  0  0  0
 28104  1  0  0  0
 29105  1  0  0  0
 29106  1  0  0  0
 33 34  1  0  0  0
 33 66  1  0  0  0
 33 70  2  0  0  0
 34 36  1  0  0  0
 34 59  1  0  0  0
 34107  1  0  0  0
 35 44  2  0  0  0
 35 45  1  0  0  0
 35 68  1  0  0  0
 36 56  1  0  0  0
 36108  1  0  0  0
 37 39  1  0  0  0
 37 47  1  0  0  0
 37 66  1  0  0  0
 37109  1  0  0  0
 38 43  2  0  0  0
 38 46  1  0  0  0
 38 47  1  0  0  0
 39 64  1  0  0  0
 39 67  2  0  0  0
 40 52  1  0  0  0
 40 53  2  0  0  0
 40 58  1  0  0  0
 41110  1  0  0  0
 41111  1  0  0  0
 41112  1  0  0  0
 41 48  1  0  0  0
 42 43  1  0  0  0
 42 66  1  0  0  0
 42113  1  0  0  0
 42114  1  0  0  0
 43 44  1  0  0  0
 44115  1  0  0  0
 45 46  2  0  0  0
 45116  1  0  0  0
 46117  1  0  0  0
 47118  1  0  0  0
 47119  1  0  0  0
 48 56  1  0  0  0
 48 65  1  0  0  0
 48120  1  0  0  0
 49 50  1  0  0  0
 49 53  1  0  0  0
 49 64  1  0  0  0
 49121  1  0  0  0
 50 51  1  0  0  0
 50122  1  0  0  0
 50123  1  0  0  0
 51 52  1  0  0  0
 51124  1  0  0  0
 51125  1  0  0  0
 52126  1  0  0  0
 52127  1  0  0  0
 53 54  1  0  0  0
 54 55  2  0  0  0
 54128  1  0  0  0
 55 57  1  0  0  0
 55129  1  0  0  0
 56 69  2  0  0  0
 57 58  2  0  0  0
 57130  1  0  0  0
 58131  1  0  0  0
 59 60  1  0  0  0
 59 61  1  0  0  0
 59 62  1  0  0  0
 60132  1  0  0  0
 60133  1  0  0  0
 60134  1  0  0  0
 61135  1  0  0  0
 61136  1  0  0  0
 61137  1  0  0  0
 62138  1  0  0  0
 62139  1  0  0  0
 62140  1  0  0  0
 63 65  1  0  0  0
 63141  1  0  0  0
 63142  1  0  0  0
 63143  1  0  0  0
 64144  1  0  0  0
 65145  1  0  0  0
 68 80  1  0  0  0
 71 72  2  0  0  0
 71 74  1  0  0  0
 71146  1  0  0  0
 72 75  1  0  0  0
 72147  1  0  0  0
 73 75  2  0  0  0
 73 76  1  0  0  0
 73148  1  0  0  0
 74 76  2  0  0  0
 74 77  1  0  0  0
 75 82  1  0  0  0
 76 86  1  0  0  0
 77 83  1  0  0  0
 77 84  2  0  0  0
 78 80  1  0  0  0
 78 81  1  0  0  0
 78 85  2  0  0  0
 79149  1  0  0  0
 79150  1  0  0  0
 79151  1  0  0  0
 79 81  1  0  0  0
 80152  1  0  0  0
 80153  1  0  0  0
 81 83  1  0  0  0
 81154  1  0  0  0
 82155  1  0  0  0
 83156  1  0  0  0
M  ISO  4   1 100  68 101  80 101  82 100
M  END
> <chiral flag>
0

> <version>
0

> <s_m_source_file>
/data/baiqing/PycharmProjects/Reinvent-master-3.2/result/LINK_invent/BTK/process_docking_weight1_custom_product_contain_oxygen_bond_distance_aromatic_linkinvent_7_9_3/rearranged_h_0174.sdf

> <i_m_source_file_index>
48

> <r_mmod_Potential_Energy-OPLS-2005>
-33.1646614074707

> <r_mmod_Stretch_Energy-OPLS-2005>
42.3470306396484

> <r_mmod_Bend_Energy-OPLS-2005>
98.0784759521484

> <r_mmod_Torsional_Energy-OPLS-2005>
263.911315917969

> <r_mmod_Improper_Torsional_Energy-OPLS-2005>
4.11942434310913

> <r_mmod_Van_der_Waal_Energy-OPLS-2005>
158.210372924805

> <r_mmod_Electrostatic_Energy-OPLS-2005>
-355.702575683594

> <r_mmod_Solvation_Energy-OPLS-2005>
-258.088653564453

> <b_mmod_Minimization_Converged-OPLS-2005>
0

> <r_mmod_RMS_Derivative-OPLS-2005>
1.07439768314362

$$$$
48
                    3D
 Structure written by MMmdl.
155163  0  0  1  0            999 V2000
  -30.7025  -14.5252   20.4942 C   0  0  0  0  0  0
  -30.4303  -12.3249   19.4215 C   0  0  0  0  0  0
  -29.4963  -12.4869   18.2054 C   0  0  0  0  0  0
  -28.0213  -12.3330   18.6263 C   0  0  0  0  0  0
  -27.6591  -13.2042   19.8565 C   0  0  2  0  0  0
  -28.7047  -13.0408   20.9838 C   0  0  0  0  0  0
  -25.2638  -13.8158   20.5705 C   0  0  0  0  0  0
  -24.1866  -13.0436   20.9167 C   0  0  0  0  0  0
  -24.6409  -11.6904   20.8747 C   0  0  0  0  0  0
  -23.9068  -10.4309   21.0436 C   0  0  0  0  0  0
  -24.3647   -9.4201   21.9185 C   0  0  0  0  0  0
  -23.6301   -8.2242   22.0736 C   0  0  0  0  0  0
  -22.4263   -8.0317   21.3550 C   0  0  0  0  0  0
  -21.9928   -9.0277   20.4635 C   0  0  0  0  0  0
  -22.7255  -10.2145   20.3050 C   0  0  0  0  0  0
  -21.6881   -6.0755   22.5285 C   0  0  0  0  0  0
  -21.4015   -6.5647   23.8219 C   0  0  0  0  0  0
  -21.3624   -5.6793   24.9182 C   0  0  0  0  0  0
  -21.6042   -4.3062   24.7236 C   0  0  0  0  0  0
  -21.8794   -3.8159   23.4357 C   0  0  0  0  0  0
  -21.9182   -4.6980   22.3412 C   0  0  0  0  0  0
  -22.7902  -13.5243   21.1849 C   0  0  0  0  0  0
  -22.1659   -4.2170   21.0991 F   0  0  0  0  0  0
  -21.5621   -3.4527   25.7745 F   0  0  0  0  0  0
  -30.0388  -13.3389   20.4148 N   0  0  0  0  0  0
  -26.3045  -12.9305   20.3305 N   0  0  0  0  0  0
  -25.9328  -11.6480   20.5757 N   0  0  0  0  0  0
  -22.0523  -12.8193   22.0379 N   0  0  0  0  0  0
  -25.4375  -15.1869   20.4215 N   0  0  0  0  0  0
  -31.8550  -14.6754   20.0865 O   0  0  0  0  0  0
  -21.6611   -6.8908   21.4261 O   0  0  0  0  0  0
  -22.3603  -14.5560   20.6730 O   0  0  0  0  0  0
  -24.6067  -31.8743   23.2097 C   0  0  0  0  0  0
  -25.8946  -32.4867   23.8403 C   0  0  1  0  0  0
  -27.2411  -27.4828   20.0764 C   0  0  0  0  0  0
  -25.5822  -33.8686   24.2338 N   0  0  0  0  0  0
  -23.3937  -30.4966   21.5518 C   0  0  2  0  0  0
  -24.8394  -28.9663   20.1178 C   0  0  0  0  0  0
  -22.7396  -29.4666   22.4961 C   0  0  0  0  0  0
  -18.0279  -28.1436   22.8452 C   0  0  0  0  0  0
  -24.1495  -36.7358   23.2624 C   0  0  0  0  0  0
  -25.9175  -30.8510   21.3564 C   0  0  0  0  0  0
  -25.9993  -29.4828   20.7155 C   0  0  0  0  0  0
  -27.2030  -28.7508   20.6972 C   0  0  0  0  0  0
  -26.0707  -26.9641   19.4832 C   0  0  0  0  0  0
  -24.8711  -27.7023   19.5042 C   0  0  0  0  0  0
  -23.5972  -29.8300   20.1653 C   0  0  0  0  0  0
  -25.4099  -36.3167   24.0345 C   0  0  1  0  0  0
  -20.5858  -28.3649   23.1326 C   0  0  2  0  0  0
  -20.6673  -26.9234   22.5819 C   0  0  0  0  0  0
  -19.5849  -26.6185   21.5419 C   0  0  0  0  0  0
  -18.1925  -26.7980   22.1554 C   0  0  0  0  0  0
  -19.1522  -28.8856   23.2859 C   0  0  0  0  0  0
  -18.9483  -30.1511   23.8832 C   0  0  0  0  0  0
  -17.6509  -30.6641   24.0578 C   0  0  0  0  0  0
  -25.9017  -34.9517   23.5170 C   0  0  0  0  0  0
  -16.5362  -29.9130   23.6377 C   0  0  0  0  0  0
  -16.7272  -28.6615   23.0325 C   0  0  0  0  0  0
  -26.4413  -31.6592   25.0704 C   0  0  0  0  0  0
  -25.3744  -31.3646   26.1494 C   0  0  0  0  0  0
  -27.0222  -30.3056   24.6021 C   0  0  0  0  0  0
  -27.6065  -32.4259   25.7469 C   0  0  0  0  0  0
  -27.5597  -37.1839   24.8454 C   0  0  0  0  0  0
  -21.4162  -29.2859   22.3598 N   0  0  0  0  0  0
  -26.4296  -37.3839   23.9406 N   0  0  0  0  0  0
  -24.6596  -31.0892   22.0985 N   0  0  0  0  0  0
  -23.4202  -28.8284   23.3057 O   0  0  0  0  0  0
  -28.4063  -26.7647   20.0536 O   0  0  0  0  0  0
  -26.5598  -34.8939   22.4752 O   0  0  0  0  0  0
  -23.5323  -32.1444   23.7568 O   0  0  0  0  0  0
  -29.8601  -18.5030   23.0071 C   0  0  0  0  0  0
  -29.8193  -17.1880   22.5399 C   0  0  0  0  0  0
  -30.8034  -19.1362   20.8721 C   0  0  0  0  0  0
  -30.2868  -19.5170   22.1363 C   0  0  0  0  0  0
  -30.2604  -16.8855   21.2440 C   0  0  0  0  0  0
  -29.4630  -23.1565   22.5728 C   0  0  0  0  0  0
  -30.3698  -22.0159   22.0338 C   0  0  0  0  0  0
  -28.1720  -23.4043   21.7960 C   0  0  0  0  0  0
  -28.2957  -24.4388   20.6643 C   0  0  0  0  0  0
  -28.5470  -25.8690   21.1539 C   0  0  0  0  0  0
  -30.7868  -17.8471   20.4309 N   0  0  0  0  0  0
  -30.0114  -20.8421   22.5659 N   0  0  0  0  0  0
  -29.9252  -15.5598   20.8598 N   0  0  0  0  0  0
  -29.7131  -23.7761   23.6116 O   0  0  0  0  0  0
  -31.3072  -22.1939   21.2519 O   0  0  0  0  0  0
  -31.4730  -12.4307   19.1175 H   0  0  0  0  0  0
  -30.3329  -11.3331   19.8574 H   0  0  0  0  0  0
  -29.7430  -11.7483   17.4432 H   0  0  0  0  0  0
  -29.6375  -13.4667   17.7435 H   0  0  0  0  0  0
  -27.8602  -11.2821   18.8641 H   0  0  0  0  0  0
  -27.3556  -12.5513   17.7883 H   0  0  0  0  0  0
  -27.6787  -14.2345   19.5082 H   0  0  0  0  0  0
  -28.6944  -12.0255   21.3652 H   0  0  0  0  0  0
  -28.4600  -13.6859   21.8310 H   0  0  0  0  0  0
  -25.2798   -9.5631   22.4777 H   0  0  0  0  0  0
  -23.9981   -7.4620   22.7455 H   0  0  0  0  0  0
  -21.0858   -8.8790   19.8974 H   0  0  0  0  0  0
  -22.3718  -10.9689   19.6167 H   0  0  0  0  0  0
  -21.2015   -7.6150   23.9725 H   0  0  0  0  0  0
  -21.1475   -6.0538   25.9078 H   0  0  0  0  0  0
  -22.0611   -2.7628   23.2851 H   0  0  0  0  0  0
  -22.4139  -11.9845   22.4767 H   0  0  0  0  0  0
  -21.1172  -13.1261   22.2635 H   0  0  0  0  0  0
  -24.6839  -15.8485   20.5776 H   0  0  0  0  0  0
  -26.2910  -15.6317   20.1113 H   0  0  0  0  0  0
  -26.7039  -32.5569   23.1209 H   0  0  0  0  0  0
  -24.9992  -33.9871   25.0495 H   0  0  0  0  0  0
  -22.6774  -31.3060   21.4184 H   0  0  0  0  0  0
  -23.3748  -35.9706   23.3304 H   0  0  0  0  0  0
  -24.3570  -36.8955   22.2031 H   0  0  0  0  0  0
  -23.7263  -37.6589   23.6616 H   0  0  0  0  0  0
  -26.0114  -31.6193   20.5832 H   0  0  0  0  0  0
  -26.8092  -30.9207   21.9671 H   0  0  0  0  0  0
  -28.0937  -29.1639   21.1549 H   0  0  0  0  0  0
  -26.1010  -26.0042   18.9859 H   0  0  0  0  0  0
  -23.9861  -27.2972   19.0332 H   0  0  0  0  0  0
  -23.7147  -30.6069   19.4077 H   0  0  0  0  0  0
  -22.7243  -29.2469   19.8607 H   0  0  0  0  0  0
  -25.1288  -36.2079   25.0842 H   0  0  0  0  0  0
  -20.9913  -28.3448   24.1444 H   0  0  0  0  0  0
  -21.6645  -26.7007   22.1993 H   0  0  0  0  0  0
  -20.5132  -26.2387   23.4220 H   0  0  0  0  0  0
  -19.6994  -25.5974   21.1795 H   0  0  0  0  0  0
  -19.7030  -27.2717   20.6785 H   0  0  0  0  0  0
  -17.4341  -26.6780   21.3807 H   0  0  0  0  0  0
  -18.0097  -26.0179   22.8935 H   0  0  0  0  0  0
  -19.7985  -30.7320   24.2182 H   0  0  0  0  0  0
  -17.5064  -31.6300   24.5249 H   0  0  0  0  0  0
  -15.5374  -30.3053   23.7674 H   0  0  0  0  0  0
  -15.8709  -28.0982   22.6929 H   0  0  0  0  0  0
  -24.5957  -30.6951   25.7800 H   0  0  0  0  0  0
  -24.8876  -32.2801   26.4926 H   0  0  0  0  0  0
  -25.8161  -30.8845   27.0247 H   0  0  0  0  0  0
  -26.2743  -29.6857   24.1109 H   0  0  0  0  0  0
  -27.4022  -29.7251   25.4412 H   0  0  0  0  0  0
  -27.8559  -30.4337   23.9120 H   0  0  0  0  0  0
  -27.2750  -33.3554   26.2123 H   0  0  0  0  0  0
  -28.3880  -32.6827   25.0292 H   0  0  0  0  0  0
  -28.0755  -31.8306   26.5331 H   0  0  0  0  0  0
  -28.2657  -38.0101   24.7504 H   0  0  0  0  0  0
  -28.1080  -36.2657   24.6315 H   0  0  0  0  0  0
  -27.2301  -37.1509   25.8849 H   0  0  0  0  0  0
  -20.9354  -29.8404   21.6654 H   0  0  0  0  0  0
  -26.0228  -38.2963   24.1351 H   0  0  0  0  0  0
  -29.4723  -18.7277   23.9910 H   0  0  0  0  0  0
  -29.4050  -16.4155   23.1709 H   0  0  0  0  0  0
  -31.1435  -19.8793   20.1603 H   0  0  0  0  0  0
  -27.3928  -23.7045   22.4903 H   0  0  0  0  0  0
  -27.8371  -22.4559   21.3778 H   0  0  0  0  0  0
  -27.3713  -24.4138   20.0919 H   0  0  0  0  0  0
  -29.0710  -24.1448   19.9582 H   0  0  0  0  0  0
  -29.5627  -25.9598   21.5405 H   0  0  0  0  0  0
  -27.8704  -26.1219   21.9776 H   0  0  0  0  0  0
  -29.3427  -20.9099   23.3188 H   0  0  0  0  0  0
  -29.0185  -15.2686   21.1924 H   0  0  0  0  0  0
  1 25  1  0  0  0
  1 30  2  0  0  0
  1 83  1  0  0  0
  2  3  1  0  0  0
  2 25  1  0  0  0
  2 86  1  0  0  0
  2 87  1  0  0  0
  3  4  1  0  0  0
  3 88  1  0  0  0
  3 89  1  0  0  0
  4  5  1  0  0  0
  4 90  1  0  0  0
  4 91  1  0  0  0
  5  6  1  0  0  0
  5 26  1  0  0  0
  5 92  1  0  0  0
  6 25  1  0  0  0
  6 93  1  0  0  0
  6 94  1  0  0  0
  7  8  2  0  0  0
  7 26  1  0  0  0
  7 29  1  0  0  0
  8  9  1  0  0  0
  8 22  1  0  0  0
  9 10  1  0  0  0
  9 27  2  0  0  0
 10 11  2  0  0  0
 10 15  1  0  0  0
 11 12  1  0  0  0
 11 95  1  0  0  0
 12 13  2  0  0  0
 12 96  1  0  0  0
 13 14  1  0  0  0
 13 31  1  0  0  0
 14 15  2  0  0  0
 14 97  1  0  0  0
 15 98  1  0  0  0
 16 17  2  0  0  0
 16 21  1  0  0  0
 16 31  1  0  0  0
 17 18  1  0  0  0
 17 99  1  0  0  0
 18 19  2  0  0  0
 18100  1  0  0  0
 19 20  1  0  0  0
 19 24  1  0  0  0
 20 21  2  0  0  0
 20101  1  0  0  0
 21 23  1  0  0  0
 22 28  1  0  0  0
 22 32  2  0  0  0
 26 27  1  0  0  0
 28102  1  0  0  0
 28103  1  0  0  0
 29104  1  0  0  0
 29105  1  0  0  0
 33 34  1  0  0  0
 33 66  1  0  0  0
 33 70  2  0  0  0
 34 36  1  0  0  0
 34 59  1  0  0  0
 34106  1  0  0  0
 35 44  2  0  0  0
 35 45  1  0  0  0
 35 68  1  0  0  0
 36 56  1  0  0  0
 36107  1  0  0  0
 37 39  1  0  0  0
 37 47  1  0  0  0
 37 66  1  0  0  0
 37108  1  0  0  0
 38 43  2  0  0  0
 38 46  1  0  0  0
 38 47  1  0  0  0
 39 64  1  0  0  0
 39 67  2  0  0  0
 40 52  1  0  0  0
 40 53  2  0  0  0
 40 58  1  0  0  0
 41109  1  0  0  0
 41110  1  0  0  0
 41111  1  0  0  0
 41 48  1  0  0  0
 42 43  1  0  0  0
 42 66  1  0  0  0
 42112  1  0  0  0
 42113  1  0  0  0
 43 44  1  0  0  0
 44114  1  0  0  0
 45 46  2  0  0  0
 45115  1  0  0  0
 46116  1  0  0  0
 47117  1  0  0  0
 47118  1  0  0  0
 48 56  1  0  0  0
 48 65  1  0  0  0
 48119  1  0  0  0
 49 50  1  0  0  0
 49 53  1  0  0  0
 49 64  1  0  0  0
 49120  1  0  0  0
 50 51  1  0  0  0
 50121  1  0  0  0
 50122  1  0  0  0
 51 52  1  0  0  0
 51123  1  0  0  0
 51124  1  0  0  0
 52125  1  0  0  0
 52126  1  0  0  0
 53 54  1  0  0  0
 54 55  2  0  0  0
 54127  1  0  0  0
 55 57  1  0  0  0
 55128  1  0  0  0
 56 69  2  0  0  0
 57 58  2  0  0  0
 57129  1  0  0  0
 58130  1  0  0  0
 59 60  1  0  0  0
 59 61  1  0  0  0
 59 62  1  0  0  0
 60131  1  0  0  0
 60132  1  0  0  0
 60133  1  0  0  0
 61134  1  0  0  0
 61135  1  0  0  0
 61136  1  0  0  0
 62137  1  0  0  0
 62138  1  0  0  0
 62139  1  0  0  0
 63 65  1  0  0  0
 63140  1  0  0  0
 63141  1  0  0  0
 63142  1  0  0  0
 64143  1  0  0  0
 65144  1  0  0  0
 68 80  1  0  0  0
 71 72  2  0  0  0
 71 74  1  0  0  0
 71145  1  0  0  0
 72 75  1  0  0  0
 72146  1  0  0  0
 73 74  2  0  0  0
 73 81  1  0  0  0
 73147  1  0  0  0
 74 82  1  0  0  0
 75 81  2  0  0  0
 75 83  1  0  0  0
 76 77  1  0  0  0
 76 78  1  0  0  0
 76 84  2  0  0  0
 77 82  1  0  0  0
 77 85  2  0  0  0
 78 79  1  0  0  0
 78148  1  0  0  0
 78149  1  0  0  0
 79 80  1  0  0  0
 79150  1  0  0  0
 79151  1  0  0  0
 80152  1  0  0  0
 80153  1  0  0  0
 82154  1  0  0  0
 83155  1  0  0  0
M  ISO  4   1 100  68 101  80 101  83 100
M  END
> <chiral flag>
0

> <version>
0

> <s_m_source_file>
/data/baiqing/PycharmProjects/Reinvent-master-3.2/result/LINK_invent/BTK/process_docking_weight1_custom_product_contain_oxygen_bond_distance_aromatic_linkinvent_7_9_3/rearranged_h_0174.sdf

> <i_m_source_file_index>
49

> <r_mmod_Potential_Energy-OPLS-2005>
-143.205810546875

> <r_mmod_Stretch_Energy-OPLS-2005>
35.0905494689941

> <r_mmod_Bend_Energy-OPLS-2005>
113.05948638916

> <r_mmod_Torsional_Energy-OPLS-2005>
278.870574951172

> <r_mmod_Improper_Torsional_Energy-OPLS-2005>
7.88776397705078

> <r_mmod_Van_der_Waal_Energy-OPLS-2005>
145.67431640625

> <r_mmod_Electrostatic_Energy-OPLS-2005>
-467.477722167969

> <r_mmod_Solvation_Energy-OPLS-2005>
-273.872039794922

> <b_mmod_Minimization_Converged-OPLS-2005>
0

> <r_mmod_RMS_Derivative-OPLS-2005>
11.1185827255249

$$$$
49
                    3D
 Structure written by MMmdl.
158166  0  0  1  0            999 V2000
  -30.7376  -14.3574   20.7065 C   0  0  0  0  0  0
  -30.4276  -12.2843   19.3881 C   0  0  0  0  0  0
  -29.4870  -12.5277   18.1912 C   0  0  0  0  0  0
  -28.0141  -12.3572   18.6138 C   0  0  0  0  0  0
  -27.6692  -13.1786   19.8821 C   0  0  2  0  0  0
  -28.7054  -12.8909   20.9904 C   0  0  0  0  0  0
  -25.2634  -13.8095   20.5644 C   0  0  0  0  0  0
  -24.1844  -13.0416   20.9108 C   0  0  0  0  0  0
  -24.6349  -11.6875   20.8697 C   0  0  0  0  0  0
  -23.8995  -10.4276   21.0403 C   0  0  0  0  0  0
  -24.3564   -9.4203   21.9192 C   0  0  0  0  0  0
  -23.6242   -8.2238   22.0785 C   0  0  0  0  0  0
  -22.4221   -8.0263   21.3575 C   0  0  0  0  0  0
  -21.9836   -9.0243   20.4687 C   0  0  0  0  0  0
  -22.7167  -10.2125   20.3073 C   0  0  0  0  0  0
  -21.6834   -6.0704   22.5273 C   0  0  0  0  0  0
  -21.4035   -6.5623   23.8212 C   0  0  0  0  0  0
  -21.3669   -5.6777   24.9177 C   0  0  0  0  0  0
  -21.6020   -4.3034   24.7226 C   0  0  0  0  0  0
  -21.8821   -3.8127   23.4357 C   0  0  0  0  0  0
  -21.9185   -4.6934   22.3405 C   0  0  0  0  0  0
  -22.7871  -13.5272   21.1786 C   0  0  0  0  0  0
  -22.1640   -4.2122   21.0978 F   0  0  0  0  0  0
  -21.5624   -3.4530   25.7750 F   0  0  0  0  0  0
  -30.0465  -13.2133   20.4576 N   0  0  0  0  0  0
  -26.3045  -12.9218   20.3371 N   0  0  0  0  0  0
  -25.9271  -11.6399   20.5723 N   0  0  0  0  0  0
  -22.0483  -12.8354   22.0376 N   0  0  0  0  0  0
  -25.4373  -15.1815   20.4075 N   0  0  0  0  0  0
  -31.7896  -14.6647   20.1382 O   0  0  0  0  0  0
  -21.6619   -6.8853   21.4241 O   0  0  0  0  0  0
  -22.3596  -14.5569   20.6595 O   0  0  0  0  0  0
  -24.6147  -31.8693   23.2116 C   0  0  0  0  0  0
  -25.9080  -32.4822   23.8405 C   0  0  1  0  0  0
  -27.2491  -27.4718   20.0865 C   0  0  0  0  0  0
  -25.5958  -33.8623   24.2346 N   0  0  0  0  0  0
  -23.3999  -30.4916   21.5504 C   0  0  2  0  0  0
  -24.8469  -28.9560   20.1180 C   0  0  0  0  0  0
  -22.7389  -29.4694   22.4999 C   0  0  0  0  0  0
  -18.0282  -28.1342   22.8462 C   0  0  0  0  0  0
  -24.1503  -36.7314   23.2643 C   0  0  0  0  0  0
  -25.9235  -30.8418   21.3629 C   0  0  0  0  0  0
  -26.0013  -29.4761   20.7181 C   0  0  0  0  0  0
  -27.2026  -28.7360   20.7187 C   0  0  0  0  0  0
  -26.0878  -26.9684   19.4670 C   0  0  0  0  0  0
  -24.8822  -27.6958   19.4968 C   0  0  0  0  0  0
  -23.6054  -29.8203   20.1655 C   0  0  0  0  0  0
  -25.4125  -36.3129   24.0344 C   0  0  1  0  0  0
  -20.5894  -28.3629   23.1290 C   0  0  2  0  0  0
  -20.6802  -26.9352   22.5407 C   0  0  0  0  0  0
  -19.5787  -26.6351   21.5195 C   0  0  0  0  0  0
  -18.1945  -26.7892   22.1570 C   0  0  0  0  0  0
  -19.1538  -28.8795   23.2884 C   0  0  0  0  0  0
  -18.9456  -30.1407   23.8880 C   0  0  0  0  0  0
  -17.6452  -30.6548   24.0552 C   0  0  0  0  0  0
  -25.9048  -34.9482   23.5131 C   0  0  0  0  0  0
  -16.5345  -29.9039   23.6331 C   0  0  0  0  0  0
  -16.7265  -28.6479   23.0315 C   0  0  0  0  0  0
  -26.4564  -31.6588   25.0701 C   0  0  0  0  0  0
  -25.3859  -31.3640   26.1466 C   0  0  0  0  0  0
  -27.0433  -30.3074   24.6016 C   0  0  0  0  0  0
  -27.6161  -32.4339   25.7402 C   0  0  0  0  0  0
  -27.5571  -37.1823   24.8448 C   0  0  0  0  0  0
  -21.4135  -29.3029   22.3697 N   0  0  0  0  0  0
  -26.4299  -37.3816   23.9394 N   0  0  0  0  0  0
  -24.6647  -31.0816   22.1019 N   0  0  0  0  0  0
  -23.4163  -28.8256   23.3065 O   0  0  0  0  0  0
  -28.3904  -26.7114   19.9936 O   0  0  0  0  0  0
  -26.5567  -34.8913   22.4665 O   0  0  0  0  0  0
  -23.5350  -32.1435   23.7521 O   0  0  0  0  0  0
  -29.5893  -17.4516   22.0249 C   0  0  0  0  0  0
  -31.7404  -16.5923   22.8017 C   0  0  0  0  0  0
  -30.5251  -16.4016   22.1105 C   0  0  0  0  0  0
  -29.8510  -18.6860   22.6422 C   0  0  0  0  0  0
  -32.0075  -17.8314   23.4190 C   0  0  0  0  0  0
  -31.0600  -18.8754   23.3449 C   0  0  0  0  0  0
  -29.9529  -22.8245   20.5200 C   0  0  0  0  0  0
  -28.9547  -21.9209   21.2941 C   0  0  0  0  0  0
  -29.7304  -25.2372   21.3541 C   0  0  0  0  0  0
  -29.5163  -24.2502   20.1941 C   0  0  0  0  0  0
  -29.1526  -20.4003   21.2210 C   0  0  0  0  0  0
  -29.2598  -26.6823   21.1237 C   0  0  0  0  0  0
  -30.1423  -15.1343   21.6228 N   0  0  0  0  0  0
  -28.9287  -19.7267   22.5026 N   0  0  0  0  0  0
  -31.0674  -22.4103   20.1739 O   0  0  0  0  0  0
  -28.0488  -22.3999   21.9861 O   0  0  0  0  0  0
  -30.2490  -24.9116   22.4291 O   0  0  0  0  0  0
  -33.1668  -18.0151   24.0951 F   0  0  0  0  0  0
  -31.3182  -20.0668   23.9346 F   0  0  0  0  0  0
  -31.4699  -12.4077   19.0897 H   0  0  0  0  0  0
  -30.3326  -11.2559   19.7417 H   0  0  0  0  0  0
  -29.7286  -11.8443   17.3744 H   0  0  0  0  0  0
  -29.6429  -13.5336   17.7944 H   0  0  0  0  0  0
  -27.8486  -11.2952   18.8087 H   0  0  0  0  0  0
  -27.3498  -12.6263   17.7923 H   0  0  0  0  0  0
  -27.7409  -14.2328   19.6197 H   0  0  0  0  0  0
  -28.6756  -11.8346   21.2610 H   0  0  0  0  0  0
  -28.4395  -13.4137   21.9095 H   0  0  0  0  0  0
  -25.2732   -9.5665   22.4763 H   0  0  0  0  0  0
  -23.9941   -7.4628   22.7518 H   0  0  0  0  0  0
  -21.0747   -8.8759   19.9014 H   0  0  0  0  0  0
  -22.3616  -10.9658   19.6177 H   0  0  0  0  0  0
  -21.2059   -7.6135   23.9699 H   0  0  0  0  0  0
  -21.1484   -6.0523   25.9075 H   0  0  0  0  0  0
  -22.0593   -2.7583   23.2860 H   0  0  0  0  0  0
  -22.4037  -12.0020   22.4811 H   0  0  0  0  0  0
  -21.1146  -13.1522   22.2583 H   0  0  0  0  0  0
  -24.6737  -15.8380   20.5245 H   0  0  0  0  0  0
  -26.2903  -15.6254   20.0953 H   0  0  0  0  0  0
  -26.7114  -32.5532   23.1127 H   0  0  0  0  0  0
  -25.0274  -33.9772   25.0609 H   0  0  0  0  0  0
  -22.6950  -31.3135   21.4131 H   0  0  0  0  0  0
  -23.3737  -35.9676   23.3353 H   0  0  0  0  0  0
  -24.3577  -36.8869   22.2038 H   0  0  0  0  0  0
  -23.7240  -37.6536   23.6612 H   0  0  0  0  0  0
  -26.0400  -31.6060   20.5936 H   0  0  0  0  0  0
  -26.8110  -30.8945   21.9791 H   0  0  0  0  0  0
  -28.0899  -29.1552   21.1752 H   0  0  0  0  0  0
  -26.1176  -26.0172   18.9549 H   0  0  0  0  0  0
  -24.0024  -27.2870   19.0221 H   0  0  0  0  0  0
  -23.7053  -30.5909   19.4016 H   0  0  0  0  0  0
  -22.7307  -29.2369   19.8737 H   0  0  0  0  0  0
  -25.1311  -36.2056   25.0837 H   0  0  0  0  0  0
  -20.9996  -28.3194   24.1399 H   0  0  0  0  0  0
  -20.5732  -26.2215   23.3583 H   0  0  0  0  0  0
  -21.6686  -26.7423   22.1192 H   0  0  0  0  0  0
  -19.6968  -25.6265   21.1209 H   0  0  0  0  0  0
  -19.6750  -27.3198   20.6747 H   0  0  0  0  0  0
  -17.4250  -26.6642   21.3924 H   0  0  0  0  0  0
  -18.0306  -26.0025   22.8946 H   0  0  0  0  0  0
  -19.7926  -30.7234   24.2249 H   0  0  0  0  0  0
  -17.4998  -31.6232   24.5120 H   0  0  0  0  0  0
  -15.5344  -30.2924   23.7648 H   0  0  0  0  0  0
  -15.8680  -28.0791   22.7009 H   0  0  0  0  0  0
  -24.6008  -30.7055   25.7762 H   0  0  0  0  0  0
  -24.9111  -32.2781   26.5049 H   0  0  0  0  0  0
  -25.8256  -30.8672   27.0130 H   0  0  0  0  0  0
  -26.2926  -29.6693   24.1352 H   0  0  0  0  0  0
  -27.4587  -29.7477   25.4399 H   0  0  0  0  0  0
  -27.8586  -30.4477   23.8916 H   0  0  0  0  0  0
  -27.2804  -33.3621   26.2069 H   0  0  0  0  0  0
  -28.3876  -32.6951   25.0135 H   0  0  0  0  0  0
  -28.0971  -31.8434   26.5211 H   0  0  0  0  0  0
  -28.2656  -38.0068   24.7500 H   0  0  0  0  0  0
  -28.1022  -36.2599   24.6341 H   0  0  0  0  0  0
  -27.2278  -37.1566   25.8853 H   0  0  0  0  0  0
  -20.9287  -29.8679   21.6844 H   0  0  0  0  0  0
  -26.0195  -38.2905   24.1417 H   0  0  0  0  0  0
  -28.6523  -17.3136   21.5035 H   0  0  0  0  0  0
  -32.4511  -15.7842   22.8993 H   0  0  0  0  0  0
  -28.4601  -24.2283   19.9249 H   0  0  0  0  0  0
  -30.0692  -24.6009   19.3239 H   0  0  0  0  0  0
  -30.1587  -20.1977   20.8488 H   0  0  0  0  0  0
  -28.4666  -19.9957   20.4763 H   0  0  0  0  0  0
  -30.1278  -27.3148   20.9334 H   0  0  0  0  0  0
  -28.7736  -27.0412   22.0305 H   0  0  0  0  0  0
  -29.2374  -14.8038   21.9193 H   0  0  0  0  0  0
  -28.9649  -20.3977   23.2672 H   0  0  0  0  0  0
  1 25  1  0  0  0
  1 30  2  0  0  0
  1 83  1  0  0  0
  2  3  1  0  0  0
  2 25  1  0  0  0
  2 90  1  0  0  0
  2 91  1  0  0  0
  3  4  1  0  0  0
  3 92  1  0  0  0
  3 93  1  0  0  0
  4  5  1  0  0  0
  4 94  1  0  0  0
  4 95  1  0  0  0
  5  6  1  0  0  0
  5 26  1  0  0  0
  5 96  1  0  0  0
  6 25  1  0  0  0
  6 97  1  0  0  0
  6 98  1  0  0  0
  7  8  2  0  0  0
  7 26  1  0  0  0
  7 29  1  0  0  0
  8  9  1  0  0  0
  8 22  1  0  0  0
  9 10  1  0  0  0
  9 27  2  0  0  0
 10 11  2  0  0  0
 10 15  1  0  0  0
 11 12  1  0  0  0
 11 99  1  0  0  0
 12 13  2  0  0  0
 12100  1  0  0  0
 13 14  1  0  0  0
 13 31  1  0  0  0
 14 15  2  0  0  0
 14101  1  0  0  0
 15102  1  0  0  0
 16 17  2  0  0  0
 16 21  1  0  0  0
 16 31  1  0  0  0
 17 18  1  0  0  0
 17103  1  0  0  0
 18 19  2  0  0  0
 18104  1  0  0  0
 19 20  1  0  0  0
 19 24  1  0  0  0
 20 21  2  0  0  0
 20105  1  0  0  0
 21 23  1  0  0  0
 22 28  1  0  0  0
 22 32  2  0  0  0
 26 27  1  0  0  0
 28106  1  0  0  0
 28107  1  0  0  0
 29108  1  0  0  0
 29109  1  0  0  0
 33 34  1  0  0  0
 33 66  1  0  0  0
 33 70  2  0  0  0
 34 36  1  0  0  0
 34 59  1  0  0  0
 34110  1  0  0  0
 35 44  2  0  0  0
 35 45  1  0  0  0
 35 68  1  0  0  0
 36 56  1  0  0  0
 36111  1  0  0  0
 37 39  1  0  0  0
 37 47  1  0  0  0
 37 66  1  0  0  0
 37112  1  0  0  0
 38 43  2  0  0  0
 38 46  1  0  0  0
 38 47  1  0  0  0
 39 64  1  0  0  0
 39 67  2  0  0  0
 40 52  1  0  0  0
 40 53  2  0  0  0
 40 58  1  0  0  0
 41113  1  0  0  0
 41114  1  0  0  0
 41115  1  0  0  0
 41 48  1  0  0  0
 42 43  1  0  0  0
 42 66  1  0  0  0
 42116  1  0  0  0
 42117  1  0  0  0
 43 44  1  0  0  0
 44118  1  0  0  0
 45 46  2  0  0  0
 45119  1  0  0  0
 46120  1  0  0  0
 47121  1  0  0  0
 47122  1  0  0  0
 48 56  1  0  0  0
 48 65  1  0  0  0
 48123  1  0  0  0
 49 50  1  0  0  0
 49 53  1  0  0  0
 49 64  1  0  0  0
 49124  1  0  0  0
 50 51  1  0  0  0
 50125  1  0  0  0
 50126  1  0  0  0
 51 52  1  0  0  0
 51127  1  0  0  0
 51128  1  0  0  0
 52129  1  0  0  0
 52130  1  0  0  0
 53 54  1  0  0  0
 54 55  2  0  0  0
 54131  1  0  0  0
 55 57  1  0  0  0
 55132  1  0  0  0
 56 69  2  0  0  0
 57 58  2  0  0  0
 57133  1  0  0  0
 58134  1  0  0  0
 59 60  1  0  0  0
 59 61  1  0  0  0
 59 62  1  0  0  0
 60135  1  0  0  0
 60136  1  0  0  0
 60137  1  0  0  0
 61138  1  0  0  0
 61139  1  0  0  0
 61140  1  0  0  0
 62141  1  0  0  0
 62142  1  0  0  0
 62143  1  0  0  0
 63 65  1  0  0  0
 63144  1  0  0  0
 63145  1  0  0  0
 63146  1  0  0  0
 64147  1  0  0  0
 65148  1  0  0  0
 68 82  1  0  0  0
 71 73  2  0  0  0
 71 74  1  0  0  0
 71149  1  0  0  0
 72 73  1  0  0  0
 72 75  2  0  0  0
 72150  1  0  0  0
 73 83  1  0  0  0
 74 76  2  0  0  0
 74 84  1  0  0  0
 75 76  1  0  0  0
 75 88  1  0  0  0
 76 89  1  0  0  0
 77 78  1  0  0  0
 77 80  1  0  0  0
 77 85  2  0  0  0
 78 81  1  0  0  0
 78 86  2  0  0  0
 79 80  1  0  0  0
 79 82  1  0  0  0
 79 87  2  0  0  0
 80151  1  0  0  0
 80152  1  0  0  0
 81 84  1  0  0  0
 81153  1  0  0  0
 81154  1  0  0  0
 82155  1  0  0  0
 82156  1  0  0  0
 83157  1  0  0  0
 84158  1  0  0  0
M  ISO  4   1 100  68 101  82 101  83 100
M  END
> <chiral flag>
0

> <version>
0

> <s_m_source_file>
/data/baiqing/PycharmProjects/Reinvent-master-3.2/result/LINK_invent/BTK/process_docking_weight1_custom_product_contain_oxygen_bond_distance_aromatic_linkinvent_7_9_3/rearranged_h_0174.sdf

> <i_m_source_file_index>
50

> <r_mmod_Potential_Energy-OPLS-2005>
54.5045967102051

> <r_mmod_Stretch_Energy-OPLS-2005>
33.8158912658691

> <r_mmod_Bend_Energy-OPLS-2005>
95.6791915893555

> <r_mmod_Torsional_Energy-OPLS-2005>
259.763397216797

> <r_mmod_Improper_Torsional_Energy-OPLS-2005>
8.43117046356201

> <r_mmod_Van_der_Waal_Energy-OPLS-2005>
156.176208496094

> <r_mmod_Electrostatic_Energy-OPLS-2005>
-262.284484863281

> <r_mmod_Solvation_Energy-OPLS-2005>
-244.934280395508

> <b_mmod_Minimization_Converged-OPLS-2005>
0

> <r_mmod_RMS_Derivative-OPLS-2005>
5.23032093048096

$$$$
50
                    3D
 Structure written by MMmdl.
167175  0  0  1  0            999 V2000
  -30.7149  -14.4519   20.5247 C   0  0  0  0  0  0
  -30.4135  -12.2791   19.4296 C   0  0  0  0  0  0
  -29.4960  -12.4902   18.2077 C   0  0  0  0  0  0
  -28.0153  -12.3606   18.6151 C   0  0  0  0  0  0
  -27.6600  -13.2080   19.8671 C   0  0  2  0  0  0
  -28.7002  -13.0066   20.9945 C   0  0  0  0  0  0
  -25.2575  -13.8165   20.5660 C   0  0  0  0  0  0
  -24.1828  -13.0443   20.9166 C   0  0  0  0  0  0
  -24.6380  -11.6907   20.8710 C   0  0  0  0  0  0
  -23.9036  -10.4292   21.0385 C   0  0  0  0  0  0
  -24.3597   -9.4213   21.9167 C   0  0  0  0  0  0
  -23.6280   -8.2242   22.0747 C   0  0  0  0  0  0
  -22.4260   -8.0273   21.3541 C   0  0  0  0  0  0
  -21.9889   -9.0241   20.4644 C   0  0  0  0  0  0
  -22.7203  -10.2126   20.3041 C   0  0  0  0  0  0
  -21.6857   -6.0725   22.5277 C   0  0  0  0  0  0
  -21.4012   -6.5627   23.8208 C   0  0  0  0  0  0
  -21.3661   -5.6784   24.9173 C   0  0  0  0  0  0
  -21.6048   -4.3047   24.7222 C   0  0  0  0  0  0
  -21.8819   -3.8132   23.4343 C   0  0  0  0  0  0
  -21.9191   -4.6951   22.3399 C   0  0  0  0  0  0
  -22.7847  -13.5243   21.1839 C   0  0  0  0  0  0
  -22.1660   -4.2134   21.0973 F   0  0  0  0  0  0
  -21.5637   -3.4527   25.7734 F   0  0  0  0  0  0
  -30.0345  -13.2792   20.4388 N   0  0  0  0  0  0
  -26.3010  -12.9341   20.3312 N   0  0  0  0  0  0
  -25.9306  -11.6502   20.5728 N   0  0  0  0  0  0
  -22.0486  -12.8240   22.0399 N   0  0  0  0  0  0
  -25.4282  -15.1887   20.4080 N   0  0  0  0  0  0
  -31.8833  -14.5686   20.1489 O   0  0  0  0  0  0
  -21.6637   -6.8862   21.4235 O   0  0  0  0  0  0
  -22.3522  -14.5544   20.6685 O   0  0  0  0  0  0
  -24.6141  -31.8714   23.2134 C   0  0  0  0  0  0
  -25.9054  -32.4842   23.8405 C   0  0  1  0  0  0
  -27.2242  -27.4369   20.1032 C   0  0  0  0  0  0
  -25.5928  -33.8636   24.2344 N   0  0  0  0  0  0
  -23.3996  -30.4974   21.5557 C   0  0  2  0  0  0
  -24.8432  -28.9673   20.1216 C   0  0  0  0  0  0
  -22.7400  -29.4671   22.5002 C   0  0  0  0  0  0
  -18.0276  -28.1358   22.8502 C   0  0  0  0  0  0
  -24.1487  -36.7315   23.2635 C   0  0  0  0  0  0
  -25.9296  -30.8374   21.3686 C   0  0  0  0  0  0
  -26.0053  -29.4718   20.7191 C   0  0  0  0  0  0
  -27.1996  -28.7149   20.7076 C   0  0  0  0  0  0
  -26.0445  -26.9567   19.4913 C   0  0  0  0  0  0
  -24.8572  -27.7061   19.5079 C   0  0  0  0  0  0
  -23.6084  -29.8360   20.1691 C   0  0  0  0  0  0
  -25.4109  -36.3124   24.0339 C   0  0  1  0  0  0
  -20.5865  -28.3645   23.1326 C   0  0  2  0  0  0
  -20.6765  -26.9388   22.5411 C   0  0  0  0  0  0
  -19.5741  -26.6377   21.5212 C   0  0  0  0  0  0
  -18.1924  -26.7907   22.1627 C   0  0  0  0  0  0
  -19.1527  -28.8820   23.2912 C   0  0  0  0  0  0
  -18.9450  -30.1431   23.8904 C   0  0  0  0  0  0
  -17.6454  -30.6571   24.0568 C   0  0  0  0  0  0
  -25.9034  -34.9488   23.5130 C   0  0  0  0  0  0
  -16.5347  -29.9069   23.6329 C   0  0  0  0  0  0
  -16.7268  -28.6489   23.0350 C   0  0  0  0  0  0
  -26.4483  -31.6610   25.0726 C   0  0  0  0  0  0
  -25.3757  -31.3726   26.1479 C   0  0  0  0  0  0
  -27.0288  -30.3043   24.6090 C   0  0  0  0  0  0
  -27.6052  -32.4317   25.7501 C   0  0  0  0  0  0
  -27.5585  -37.1816   24.8467 C   0  0  0  0  0  0
  -21.4128  -29.3022   22.3736 N   0  0  0  0  0  0
  -26.4297  -37.3809   23.9411 N   0  0  0  0  0  0
  -24.6660  -31.0817   22.1043 N   0  0  0  0  0  0
  -23.4177  -28.8214   23.3035 O   0  0  0  0  0  0
  -28.3953  -26.7097   20.0616 O   0  0  0  0  0  0
  -26.5582  -34.8930   22.4676 O   0  0  0  0  0  0
  -23.5336  -32.1465   23.7532 O   0  0  0  0  0  0
  -30.8853  -17.1719   19.2375 C   0  0  0  0  0  0
  -29.4576  -17.9264   21.0491 C   0  0  0  0  0  0
  -30.9776  -18.4845   18.7405 C   0  0  0  0  0  0
  -30.2949  -19.5405   19.3919 C   0  0  0  0  0  0
  -30.1343  -16.8683   20.3982 C   0  0  0  0  0  0
  -29.5477  -19.2576   20.5719 C   0  0  0  0  0  0
  -27.7229  -24.3231   20.1470 C   0  0  0  0  0  0
  -27.5086  -23.0779   20.6259 C   0  0  0  0  0  0
  -29.1858  -21.4310   21.7240 C   0  0  0  0  0  0
  -31.7987  -18.7218   17.4828 C   0  0  0  0  0  0
  -30.3416  -20.9464   18.7937 C   0  0  0  0  0  0
  -26.6188  -22.1271   19.8328 C   0  0  0  0  0  0
  -27.0476  -22.0959   22.9484 C   0  0  0  0  0  0
  -28.4340  -25.4902   20.8228 C   0  0  0  0  0  0
  -28.1158  -22.5265   21.9266 C   0  0  2  0  0  0
  -28.7661  -20.2579   21.2167 N   0  0  0  0  0  0
  -29.9819  -15.5262   20.8830 N   0  0  0  0  0  0
  -30.3616  -21.6515   22.0274 O   0  0  0  0  0  0
  -31.4611  -12.3511   19.1338 H   0  0  0  0  0  0
  -30.2873  -11.2736   19.8338 H   0  0  0  0  0  0
  -29.7340  -11.7647   17.4288 H   0  0  0  0  0  0
  -29.6761  -13.4740   17.7706 H   0  0  0  0  0  0
  -27.8185  -11.3068   18.8144 H   0  0  0  0  0  0
  -27.3693  -12.6329   17.7794 H   0  0  0  0  0  0
  -27.7004  -14.2520   19.5569 H   0  0  0  0  0  0
  -28.6652  -11.9826   21.3695 H   0  0  0  0  0  0
  -28.4750  -13.6420   21.8526 H   0  0  0  0  0  0
  -25.2752   -9.5701   22.4727 H   0  0  0  0  0  0
  -24.0003   -7.4637   22.7470 H   0  0  0  0  0  0
  -21.0819   -8.8741   19.8955 H   0  0  0  0  0  0
  -22.3650  -10.9652   19.6138 H   0  0  0  0  0  0
  -21.2005   -7.6136   23.9706 H   0  0  0  0  0  0
  -21.1489   -6.0511   25.9075 H   0  0  0  0  0  0
  -22.0602   -2.7590   23.2841 H   0  0  0  0  0  0
  -22.4093  -11.9915   22.4819 H   0  0  0  0  0  0
  -21.1102  -13.1269   22.2594 H   0  0  0  0  0  0
  -24.6594  -15.8418   20.5142 H   0  0  0  0  0  0
  -26.2794  -15.6299   20.0818 H   0  0  0  0  0  0
  -26.7136  -32.5569   23.1177 H   0  0  0  0  0  0
  -25.0144  -33.9797   25.0537 H   0  0  0  0  0  0
  -22.6884  -31.3146   21.4211 H   0  0  0  0  0  0
  -23.3756  -35.9642   23.3308 H   0  0  0  0  0  0
  -24.3591  -36.8905   22.2049 H   0  0  0  0  0  0
  -23.7229  -37.6524   23.6628 H   0  0  0  0  0  0
  -26.0419  -31.6023   20.5987 H   0  0  0  0  0  0
  -26.8178  -30.8894   21.9866 H   0  0  0  0  0  0
  -28.0981  -29.1041   21.1661 H   0  0  0  0  0  0
  -26.0111  -26.0176   18.9692 H   0  0  0  0  0  0
  -23.9667  -27.3108   19.0391 H   0  0  0  0  0  0
  -23.7230  -30.6142   19.4136 H   0  0  0  0  0  0
  -22.7313  -29.2594   19.8708 H   0  0  0  0  0  0
  -25.1285  -36.1998   25.0835 H   0  0  0  0  0  0
  -20.9963  -28.3190   24.1444 H   0  0  0  0  0  0
  -20.5671  -26.2245   23.3581 H   0  0  0  0  0  0
  -21.6638  -26.7420   22.1218 H   0  0  0  0  0  0
  -19.6892  -25.6293   21.1230 H   0  0  0  0  0  0
  -19.6689  -27.3193   20.6752 H   0  0  0  0  0  0
  -17.4198  -26.6680   21.4021 H   0  0  0  0  0  0
  -18.0323  -26.0026   22.9001 H   0  0  0  0  0  0
  -19.7929  -30.7262   24.2259 H   0  0  0  0  0  0
  -17.5008  -31.6255   24.5163 H   0  0  0  0  0  0
  -15.5343  -30.2978   23.7636 H   0  0  0  0  0  0
  -15.8673  -28.0818   22.7039 H   0  0  0  0  0  0
  -24.5950  -30.7035   25.7852 H   0  0  0  0  0  0
  -24.8927  -32.2884   26.4891 H   0  0  0  0  0  0
  -25.8123  -30.8954   27.0259 H   0  0  0  0  0  0
  -26.2814  -29.6841   24.1126 H   0  0  0  0  0  0
  -27.4039  -29.7242   25.4535 H   0  0  0  0  0  0
  -27.8668  -30.4352   23.9235 H   0  0  0  0  0  0
  -27.2668  -33.3614   26.2081 H   0  0  0  0  0  0
  -28.3867  -32.6873   25.0339 H   0  0  0  0  0  0
  -28.0713  -31.8445   26.5423 H   0  0  0  0  0  0
  -28.2612  -38.0107   24.7516 H   0  0  0  0  0  0
  -28.1064  -36.2636   24.6283 H   0  0  0  0  0  0
  -27.2300  -37.1459   25.8870 H   0  0  0  0  0  0
  -20.9257  -29.8784   21.7018 H   0  0  0  0  0  0
  -26.0189  -38.2886   24.1418 H   0  0  0  0  0  0
  -31.3873  -16.3954   18.6796 H   0  0  0  0  0  0
  -28.8570  -17.7151   21.9222 H   0  0  0  0  0  0
  -27.3368  -24.5363   19.1656 H   0  0  0  0  0  0
  -32.3498  -17.8296   17.1839 H   0  0  0  0  0  0
  -32.5270  -19.5170   17.6415 H   0  0  0  0  0  0
  -31.1541  -19.0033   16.6499 H   0  0  0  0  0  0
  -30.5306  -20.9463   17.7219 H   0  0  0  0  0  0
  -31.1239  -21.5362   19.2714 H   0  0  0  0  0  0
  -29.3956  -21.4688   18.9170 H   0  0  0  0  0  0
  -26.1419  -22.6375   18.9960 H   0  0  0  0  0  0
  -25.8174  -21.7308   20.4554 H   0  0  0  0  0  0
  -27.1764  -21.2894   19.4178 H   0  0  0  0  0  0
  -26.3588  -22.9143   23.1565 H   0  0  0  0  0  0
  -27.5070  -21.8081   23.8948 H   0  0  0  0  0  0
  -26.4587  -21.2461   22.6048 H   0  0  0  0  0  0
  -29.4789  -25.2193   20.9777 H   0  0  0  0  0  0
  -28.0020  -25.6544   21.8119 H   0  0  0  0  0  0
  -28.6489  -23.3522   22.3981 H   0  0  0  0  0  0
  -27.7647  -20.1343   21.1678 H   0  0  0  0  0  0
  -29.1174  -15.3193   21.3588 H   0  0  0  0  0  0
  1 25  1  0  0  0
  1 30  2  0  0  0
  1 87  1  0  0  0
  2  3  1  0  0  0
  2 25  1  0  0  0
  2 89  1  0  0  0
  2 90  1  0  0  0
  3  4  1  0  0  0
  3 91  1  0  0  0
  3 92  1  0  0  0
  4  5  1  0  0  0
  4 93  1  0  0  0
  4 94  1  0  0  0
  5  6  1  0  0  0
  5 26  1  0  0  0
  5 95  1  0  0  0
  6 25  1  0  0  0
  6 96  1  0  0  0
  6 97  1  0  0  0
  7  8  2  0  0  0
  7 26  1  0  0  0
  7 29  1  0  0  0
  8  9  1  0  0  0
  8 22  1  0  0  0
  9 10  1  0  0  0
  9 27  2  0  0  0
 10 11  2  0  0  0
 10 15  1  0  0  0
 11 12  1  0  0  0
 11 98  1  0  0  0
 12 13  2  0  0  0
 12 99  1  0  0  0
 13 14  1  0  0  0
 13 31  1  0  0  0
 14 15  2  0  0  0
 14100  1  0  0  0
 15101  1  0  0  0
 16 17  2  0  0  0
 16 21  1  0  0  0
 16 31  1  0  0  0
 17 18  1  0  0  0
 17102  1  0  0  0
 18 19  2  0  0  0
 18103  1  0  0  0
 19 20  1  0  0  0
 19 24  1  0  0  0
 20 21  2  0  0  0
 20104  1  0  0  0
 21 23  1  0  0  0
 22 28  1  0  0  0
 22 32  2  0  0  0
 26 27  1  0  0  0
 28105  1  0  0  0
 28106  1  0  0  0
 29107  1  0  0  0
 29108  1  0  0  0
 33 34  1  0  0  0
 33 66  1  0  0  0
 33 70  2  0  0  0
 34 36  1  0  0  0
 34 59  1  0  0  0
 34109  1  0  0  0
 35 44  2  0  0  0
 35 45  1  0  0  0
 35 68  1  0  0  0
 36 56  1  0  0  0
 36110  1  0  0  0
 37 39  1  0  0  0
 37 47  1  0  0  0
 37 66  1  0  0  0
 37111  1  0  0  0
 38 43  2  0  0  0
 38 46  1  0  0  0
 38 47  1  0  0  0
 39 64  1  0  0  0
 39 67  2  0  0  0
 40 52  1  0  0  0
 40 53  2  0  0  0
 40 58  1  0  0  0
 41112  1  0  0  0
 41113  1  0  0  0
 41114  1  0  0  0
 41 48  1  0  0  0
 42 43  1  0  0  0
 42 66  1  0  0  0
 42115  1  0  0  0
 42116  1  0  0  0
 43 44  1  0  0  0
 44117  1  0  0  0
 45 46  2  0  0  0
 45118  1  0  0  0
 46119  1  0  0  0
 47120  1  0  0  0
 47121  1  0  0  0
 48 56  1  0  0  0
 48 65  1  0  0  0
 48122  1  0  0  0
 49 50  1  0  0  0
 49 53  1  0  0  0
 49 64  1  0  0  0
 49123  1  0  0  0
 50 51  1  0  0  0
 50124  1  0  0  0
 50125  1  0  0  0
 51 52  1  0  0  0
 51126  1  0  0  0
 51127  1  0  0  0
 52128  1  0  0  0
 52129  1  0  0  0
 53 54  1  0  0  0
 54 55  2  0  0  0
 54130  1  0  0  0
 55 57  1  0  0  0
 55131  1  0  0  0
 56 69  2  0  0  0
 57 58  2  0  0  0
 57132  1  0  0  0
 58133  1  0  0  0
 59 60  1  0  0  0
 59 61  1  0  0  0
 59 62  1  0  0  0
 60134  1  0  0  0
 60135  1  0  0  0
 60136  1  0  0  0
 61137  1  0  0  0
 61138  1  0  0  0
 61139  1  0  0  0
 62140  1  0  0  0
 62141  1  0  0  0
 62142  1  0  0  0
 63 65  1  0  0  0
 63143  1  0  0  0
 63144  1  0  0  0
 63145  1  0  0  0
 64146  1  0  0  0
 65147  1  0  0  0
 68 84  1  0  0  0
 71 73  2  0  0  0
 71 75  1  0  0  0
 71148  1  0  0  0
 72 75  2  0  0  0
 72 76  1  0  0  0
 72149  1  0  0  0
 73 74  1  0  0  0
 73 80  1  0  0  0
 74 76  2  0  0  0
 74 81  1  0  0  0
 75 87  1  0  0  0
 76 86  1  0  0  0
 77 78  2  0  0  0
 77 84  1  0  0  0
 77150  1  0  0  0
 78 82  1  0  0  0
 78 85  1  0  0  0
 79 85  1  0  0  0
 79 86  1  0  0  0
 79 88  2  0  0  0
 80151  1  0  0  0
 80152  1  0  0  0
 80153  1  0  0  0
 81154  1  0  0  0
 81155  1  0  0  0
 81156  1  0  0  0
 82157  1  0  0  0
 82158  1  0  0  0
 82159  1  0  0  0
 83160  1  0  0  0
 83161  1  0  0  0
 83162  1  0  0  0
 83 85  1  0  0  0
 84163  1  0  0  0
 84164  1  0  0  0
 85165  1  0  0  0
 86166  1  0  0  0
 87167  1  0  0  0
M  ISO  4   1 100  68 101  84 101  87 100
M  END
> <chiral flag>
0

> <version>
0

> <s_m_source_file>
/data/baiqing/PycharmProjects/Reinvent-master-3.2/result/LINK_invent/BTK/process_docking_weight1_custom_product_contain_oxygen_bond_distance_aromatic_linkinvent_7_9_3/rearranged_h_0174.sdf

> <i_m_source_file_index>
51

> <r_mmod_Potential_Energy-OPLS-2005>
9.37324619293213

> <r_mmod_Stretch_Energy-OPLS-2005>
39.3557052612305

> <r_mmod_Bend_Energy-OPLS-2005>
101.795639038086

> <r_mmod_Torsional_Energy-OPLS-2005>
289.813842773438

> <r_mmod_Improper_Torsional_Energy-OPLS-2005>
5.44417953491211

> <r_mmod_Van_der_Waal_Energy-OPLS-2005>
168.381210327148

> <r_mmod_Electrostatic_Energy-OPLS-2005>
-385.819305419922

> <r_mmod_Solvation_Energy-OPLS-2005>
-224.416122436523

> <b_mmod_Minimization_Converged-OPLS-2005>
0

> <r_mmod_RMS_Derivative-OPLS-2005>
1.74830543994904

$$$$
51
                    3D
 Structure written by MMmdl.
158166  0  0  1  0            999 V2000
  -30.7168  -14.4291   20.5527 C   0  0  0  0  0  0
  -30.4117  -12.2722   19.4198 C   0  0  0  0  0  0
  -29.4903  -12.4999   18.2047 C   0  0  0  0  0  0
  -28.0103  -12.3709   18.6147 C   0  0  0  0  0  0
  -27.6619  -13.2050   19.8767 C   0  0  2  0  0  0
  -28.7018  -12.9749   20.9966 C   0  0  0  0  0  0
  -25.2594  -13.8170   20.5689 C   0  0  0  0  0  0
  -24.1839  -13.0446   20.9178 C   0  0  0  0  0  0
  -24.6390  -11.6909   20.8730 C   0  0  0  0  0  0
  -23.9057  -10.4295   21.0402 C   0  0  0  0  0  0
  -24.3613   -9.4208   21.9176 C   0  0  0  0  0  0
  -23.6293   -8.2244   22.0750 C   0  0  0  0  0  0
  -22.4270   -8.0284   21.3545 C   0  0  0  0  0  0
  -21.9906   -9.0255   20.4642 C   0  0  0  0  0  0
  -22.7235  -10.2134   20.3050 C   0  0  0  0  0  0
  -21.6853   -6.0738   22.5280 C   0  0  0  0  0  0
  -21.4016   -6.5640   23.8215 C   0  0  0  0  0  0
  -21.3663   -5.6790   24.9178 C   0  0  0  0  0  0
  -21.6048   -4.3055   24.7223 C   0  0  0  0  0  0
  -21.8820   -3.8147   23.4345 C   0  0  0  0  0  0
  -21.9196   -4.6967   22.3402 C   0  0  0  0  0  0
  -22.7862  -13.5236   21.1849 C   0  0  0  0  0  0
  -22.1659   -4.2154   21.0980 F   0  0  0  0  0  0
  -21.5634   -3.4536   25.7736 F   0  0  0  0  0  0
  -30.0380  -13.2576   20.4448 N   0  0  0  0  0  0
  -26.3024  -12.9332   20.3374 N   0  0  0  0  0  0
  -25.9318  -11.6494   20.5766 N   0  0  0  0  0  0
  -22.0505  -12.8222   22.0404 N   0  0  0  0  0  0
  -25.4330  -15.1887   20.4094 N   0  0  0  0  0  0
  -31.8551  -14.5742   20.1032 O   0  0  0  0  0  0
  -21.6641   -6.8879   21.4239 O   0  0  0  0  0  0
  -22.3545  -14.5546   20.6712 O   0  0  0  0  0  0
  -24.6114  -31.8697   23.2129 C   0  0  0  0  0  0
  -25.9019  -32.4827   23.8411 C   0  0  1  0  0  0
  -27.2348  -27.4640   20.0869 C   0  0  0  0  0  0
  -25.5895  -33.8628   24.2348 N   0  0  0  0  0  0
  -23.3973  -30.4941   21.5526 C   0  0  2  0  0  0
  -24.8415  -28.9649   20.1145 C   0  0  0  0  0  0
  -22.7385  -29.4670   22.5003 C   0  0  0  0  0  0
  -18.0271  -28.1376   22.8494 C   0  0  0  0  0  0
  -24.1491  -36.7319   23.2635 C   0  0  0  0  0  0
  -25.9221  -30.8452   21.3595 C   0  0  0  0  0  0
  -26.0002  -29.4821   20.7067 C   0  0  0  0  0  0
  -27.1990  -28.7395   20.6879 C   0  0  0  0  0  0
  -26.0581  -26.9554   19.4898 C   0  0  0  0  0  0
  -24.8635  -27.6984   19.5061 C   0  0  0  0  0  0
  -23.6022  -29.8275   20.1665 C   0  0  0  0  0  0
  -25.4107  -36.3110   24.0340 C   0  0  1  0  0  0
  -20.5853  -28.3655   23.1326 C   0  0  2  0  0  0
  -20.6764  -26.9397   22.5417 C   0  0  0  0  0  0
  -19.5746  -26.6388   21.5210 C   0  0  0  0  0  0
  -18.1920  -26.7925   22.1620 C   0  0  0  0  0  0
  -19.1514  -28.8830   23.2914 C   0  0  0  0  0  0
  -18.9449  -30.1437   23.8924 C   0  0  0  0  0  0
  -17.6452  -30.6582   24.0560 C   0  0  0  0  0  0
  -25.9032  -34.9473   23.5136 C   0  0  0  0  0  0
  -16.5343  -29.9079   23.6324 C   0  0  0  0  0  0
  -16.7262  -28.6495   23.0346 C   0  0  0  0  0  0
  -26.4464  -31.6588   25.0718 C   0  0  0  0  0  0
  -25.3746  -31.3660   26.1473 C   0  0  0  0  0  0
  -27.0287  -30.3043   24.6048 C   0  0  0  0  0  0
  -27.6058  -32.4289   25.7470 C   0  0  0  0  0  0
  -27.5584  -37.1805   24.8462 C   0  0  0  0  0  0
  -21.4118  -29.3025   22.3732 N   0  0  0  0  0  0
  -26.4296  -37.3794   23.9410 N   0  0  0  0  0  0
  -24.6621  -31.0827   22.1012 N   0  0  0  0  0  0
  -23.4168  -28.8215   23.3035 O   0  0  0  0  0  0
  -28.4303  -26.7650   20.1016 O   0  0  0  0  0  0
  -26.5578  -34.8915   22.4687 O   0  0  0  0  0  0
  -23.5319  -32.1427   23.7546 O   0  0  0  0  0  0
  -29.2031  -17.7058   21.4582 C   0  0  0  0  0  0
  -31.2697  -17.4488   20.1963 C   0  0  0  0  0  0
  -29.2850  -19.1108   21.3212 C   0  0  0  0  0  0
  -30.1891  -16.8577   20.9043 C   0  0  0  0  0  0
  -31.3636  -18.8466   20.0613 C   0  0  0  0  0  0
  -30.3811  -19.6761   20.6309 C   0  0  0  0  0  0
  -27.2543  -23.0373   19.8450 C   0  0  0  0  0  0
  -27.8603  -22.3015   21.0651 C   0  0  0  0  0  0
  -28.2046  -19.9916   21.9383 C   0  0  0  0  0  0
  -28.0806  -24.1648   19.2068 C   0  0  0  0  0  0
  -28.4668  -25.3232   20.1741 C   0  0  0  0  0  0
  -32.4263  -19.4240   19.3633 N   0  0  0  0  0  0
  -30.0087  -15.4482   21.0747 N   0  0  0  0  0  0
  -27.6567  -20.9781   21.0105 N   0  0  0  0  0  0
  -26.1629  -22.7112   19.3641 O   0  0  0  0  0  0
  -28.4684  -22.8800   21.9707 O   0  0  0  0  0  0
  -30.5156  -21.0194   20.5052 F   0  0  0  0  0  0
  -31.4587  -12.3463   19.1219 H   0  0  0  0  0  0
  -30.2884  -11.2605   19.8101 H   0  0  0  0  0  0
  -29.7226  -11.7841   17.4154 H   0  0  0  0  0  0
  -29.6721  -13.4902   17.7833 H   0  0  0  0  0  0
  -27.8095  -11.3149   18.8011 H   0  0  0  0  0  0
  -27.3642  -12.6589   17.7850 H   0  0  0  0  0  0
  -27.7099  -14.2542   19.5858 H   0  0  0  0  0  0
  -28.6635  -11.9404   21.3408 H   0  0  0  0  0  0
  -28.4723  -13.5785   21.8756 H   0  0  0  0  0  0
  -25.2759   -9.5690   22.4743 H   0  0  0  0  0  0
  -24.0013   -7.4634   22.7466 H   0  0  0  0  0  0
  -21.0846   -8.8768   19.8938 H   0  0  0  0  0  0
  -22.3695  -10.9673   19.6157 H   0  0  0  0  0  0
  -21.1998   -7.6144   23.9721 H   0  0  0  0  0  0
  -21.1488   -6.0519   25.9083 H   0  0  0  0  0  0
  -22.0595   -2.7609   23.2845 H   0  0  0  0  0  0
  -22.4120  -11.9871   22.4774 H   0  0  0  0  0  0
  -21.1122  -13.1247   22.2618 H   0  0  0  0  0  0
  -24.6679  -15.8463   20.5150 H   0  0  0  0  0  0
  -26.2857  -15.6240   20.0807 H   0  0  0  0  0  0
  -26.7090  -32.5550   23.1178 H   0  0  0  0  0  0
  -25.0087  -33.9801   25.0525 H   0  0  0  0  0  0
  -22.6868  -31.3115   21.4158 H   0  0  0  0  0  0
  -23.3750  -35.9656   23.3301 H   0  0  0  0  0  0
  -24.3602  -36.8935   22.2053 H   0  0  0  0  0  0
  -23.7254  -37.6528   23.6651 H   0  0  0  0  0  0
  -26.0275  -31.6130   20.5914 H   0  0  0  0  0  0
  -26.8133  -30.9010   21.9727 H   0  0  0  0  0  0
  -28.0943  -29.1353   21.1476 H   0  0  0  0  0  0
  -26.0487  -25.9914   19.0059 H   0  0  0  0  0  0
  -23.9721  -27.2927   19.0473 H   0  0  0  0  0  0
  -23.7065  -30.6021   19.4059 H   0  0  0  0  0  0
  -22.7276  -29.2435   19.8736 H   0  0  0  0  0  0
  -25.1285  -36.1982   25.0835 H   0  0  0  0  0  0
  -20.9948  -28.3219   24.1441 H   0  0  0  0  0  0
  -20.5684  -26.2253   23.3595 H   0  0  0  0  0  0
  -21.6636  -26.7454   22.1204 H   0  0  0  0  0  0
  -19.6910  -25.6307   21.1219 H   0  0  0  0  0  0
  -19.6692  -27.3211   20.6751 H   0  0  0  0  0  0
  -17.4196  -26.6685   21.4011 H   0  0  0  0  0  0
  -18.0318  -26.0064   22.9012 H   0  0  0  0  0  0
  -19.7927  -30.7240   24.2311 H   0  0  0  0  0  0
  -17.5009  -31.6264   24.5149 H   0  0  0  0  0  0
  -15.5344  -30.2981   23.7641 H   0  0  0  0  0  0
  -15.8667  -28.0816   22.7050 H   0  0  0  0  0  0
  -24.5941  -30.6980   25.7812 H   0  0  0  0  0  0
  -24.8894  -32.2788   26.4938 H   0  0  0  0  0  0
  -25.8117  -30.8832   27.0221 H   0  0  0  0  0  0
  -26.2805  -29.6797   24.1145 H   0  0  0  0  0  0
  -27.4135  -29.7282   25.4474 H   0  0  0  0  0  0
  -27.8606  -30.4399   23.9132 H   0  0  0  0  0  0
  -27.2713  -33.3597   26.2071 H   0  0  0  0  0  0
  -28.3847  -32.6834   25.0264 H   0  0  0  0  0  0
  -28.0740  -31.8383   26.5355 H   0  0  0  0  0  0
  -28.2585  -38.0116   24.7525 H   0  0  0  0  0  0
  -28.1097  -36.2648   24.6274 H   0  0  0  0  0  0
  -27.2298  -37.1436   25.8862 H   0  0  0  0  0  0
  -20.9270  -29.8749   21.6962 H   0  0  0  0  0  0
  -26.0186  -38.2869   24.1423 H   0  0  0  0  0  0
  -28.3680  -17.2780   21.9945 H   0  0  0  0  0  0
  -32.0421  -16.8560   19.7351 H   0  0  0  0  0  0
  -28.6246  -20.4715   22.8241 H   0  0  0  0  0  0
  -27.3811  -19.3735   22.2972 H   0  0  0  0  0  0
  -27.5023  -24.5190   18.3510 H   0  0  0  0  0  0
  -28.9840  -23.7138   18.7939 H   0  0  0  0  0  0
  -27.5289  -25.2986   20.7285 H   0  0  0  0  0  0
  -28.7320  -25.7103   19.1888 H   0  0  0  0  0  0
  -33.3031  -18.9172   19.3108 H   0  0  0  0  0  0
  -32.5520  -20.4231   19.4963 H   0  0  0  0  0  0
  -29.1328  -15.1660   21.4863 H   0  0  0  0  0  0
  -27.1048  -20.6431   20.2311 H   0  0  0  0  0  0
  1 25  1  0  0  0
  1 30  2  0  0  0
  1 83  1  0  0  0
  2  3  1  0  0  0
  2 25  1  0  0  0
  2 88  1  0  0  0
  2 89  1  0  0  0
  3  4  1  0  0  0
  3 90  1  0  0  0
  3 91  1  0  0  0
  4  5  1  0  0  0
  4 92  1  0  0  0
  4 93  1  0  0  0
  5  6  1  0  0  0
  5 26  1  0  0  0
  5 94  1  0  0  0
  6 25  1  0  0  0
  6 95  1  0  0  0
  6 96  1  0  0  0
  7  8  2  0  0  0
  7 26  1  0  0  0
  7 29  1  0  0  0
  8  9  1  0  0  0
  8 22  1  0  0  0
  9 10  1  0  0  0
  9 27  2  0  0  0
 10 11  2  0  0  0
 10 15  1  0  0  0
 11 12  1  0  0  0
 11 97  1  0  0  0
 12 13  2  0  0  0
 12 98  1  0  0  0
 13 14  1  0  0  0
 13 31  1  0  0  0
 14 15  2  0  0  0
 14 99  1  0  0  0
 15100  1  0  0  0
 16 17  2  0  0  0
 16 21  1  0  0  0
 16 31  1  0  0  0
 17 18  1  0  0  0
 17101  1  0  0  0
 18 19  2  0  0  0
 18102  1  0  0  0
 19 20  1  0  0  0
 19 24  1  0  0  0
 20 21  2  0  0  0
 20103  1  0  0  0
 21 23  1  0  0  0
 22 28  1  0  0  0
 22 32  2  0  0  0
 26 27  1  0  0  0
 28104  1  0  0  0
 28105  1  0  0  0
 29106  1  0  0  0
 29107  1  0  0  0
 33 34  1  0  0  0
 33 66  1  0  0  0
 33 70  2  0  0  0
 34 36  1  0  0  0
 34 59  1  0  0  0
 34108  1  0  0  0
 35 44  2  0  0  0
 35 45  1  0  0  0
 35 68  1  0  0  0
 36 56  1  0  0  0
 36109  1  0  0  0
 37 39  1  0  0  0
 37 47  1  0  0  0
 37 66  1  0  0  0
 37110  1  0  0  0
 38 43  2  0  0  0
 38 46  1  0  0  0
 38 47  1  0  0  0
 39 64  1  0  0  0
 39 67  2  0  0  0
 40 52  1  0  0  0
 40 53  2  0  0  0
 40 58  1  0  0  0
 41111  1  0  0  0
 41112  1  0  0  0
 41113  1  0  0  0
 41 48  1  0  0  0
 42 43  1  0  0  0
 42 66  1  0  0  0
 42114  1  0  0  0
 42115  1  0  0  0
 43 44  1  0  0  0
 44116  1  0  0  0
 45 46  2  0  0  0
 45117  1  0  0  0
 46118  1  0  0  0
 47119  1  0  0  0
 47120  1  0  0  0
 48 56  1  0  0  0
 48 65  1  0  0  0
 48121  1  0  0  0
 49 50  1  0  0  0
 49 53  1  0  0  0
 49 64  1  0  0  0
 49122  1  0  0  0
 50 51  1  0  0  0
 50123  1  0  0  0
 50124  1  0  0  0
 51 52  1  0  0  0
 51125  1  0  0  0
 51126  1  0  0  0
 52127  1  0  0  0
 52128  1  0  0  0
 53 54  1  0  0  0
 54 55  2  0  0  0
 54129  1  0  0  0
 55 57  1  0  0  0
 55130  1  0  0  0
 56 69  2  0  0  0
 57 58  2  0  0  0
 57131  1  0  0  0
 58132  1  0  0  0
 59 60  1  0  0  0
 59 61  1  0  0  0
 59 62  1  0  0  0
 60133  1  0  0  0
 60134  1  0  0  0
 60135  1  0  0  0
 61136  1  0  0  0
 61137  1  0  0  0
 61138  1  0  0  0
 62139  1  0  0  0
 62140  1  0  0  0
 62141  1  0  0  0
 63 65  1  0  0  0
 63142  1  0  0  0
 63143  1  0  0  0
 63144  1  0  0  0
 64145  1  0  0  0
 65146  1  0  0  0
 68 81  1  0  0  0
 71 73  2  0  0  0
 71 74  1  0  0  0
 71147  1  0  0  0
 72 74  2  0  0  0
 72 75  1  0  0  0
 72148  1  0  0  0
 73 76  1  0  0  0
 73 79  1  0  0  0
 74 83  1  0  0  0
 75 76  2  0  0  0
 75 82  1  0  0  0
 76 87  1  0  0  0
 77 78  1  0  0  0
 77 80  1  0  0  0
 77 85  2  0  0  0
 78 84  1  0  0  0
 78 86  2  0  0  0
 79 84  1  0  0  0
 79149  1  0  0  0
 79150  1  0  0  0
 80 81  1  0  0  0
 80151  1  0  0  0
 80152  1  0  0  0
 81153  1  0  0  0
 81154  1  0  0  0
 82155  1  0  0  0
 82156  1  0  0  0
 83157  1  0  0  0
 84158  1  0  0  0
M  ISO  4   1 100  68 101  81 101  83 100
M  END
> <chiral flag>
0

> <version>
0

> <s_m_source_file>
/data/baiqing/PycharmProjects/Reinvent-master-3.2/result/LINK_invent/BTK/process_docking_weight1_custom_product_contain_oxygen_bond_distance_aromatic_linkinvent_7_9_3/rearranged_h_0174.sdf

> <i_m_source_file_index>
52

> <r_mmod_Potential_Energy-OPLS-2005>
163.484512329102

> <r_mmod_Stretch_Energy-OPLS-2005>
36.6249237060547

> <r_mmod_Bend_Energy-OPLS-2005>
338.189849853516

> <r_mmod_Torsional_Energy-OPLS-2005>
222.066772460938

> <r_mmod_Improper_Torsional_Energy-OPLS-2005>
7.14273548126221

> <r_mmod_Van_der_Waal_Energy-OPLS-2005>
179.422836303711

> <r_mmod_Electrostatic_Energy-OPLS-2005>
-382.93017578125

> <r_mmod_Solvation_Energy-OPLS-2005>
-248.477966308594

> <b_mmod_Minimization_Converged-OPLS-2005>
0

> <r_mmod_RMS_Derivative-OPLS-2005>
1.16978991031647

$$$$
52
                    3D
 Structure written by MMmdl.
151159  0  0  1  0            999 V2000
  -30.6590  -14.5425   20.5443 C   0  0  0  0  0  0
  -30.4252  -12.3345   19.4585 C   0  0  0  0  0  0
  -29.5082  -12.5006   18.2272 C   0  0  0  0  0  0
  -28.0251  -12.3580   18.6278 C   0  0  0  0  0  0
  -27.6558  -13.2113   19.8721 C   0  0  2  0  0  0
  -28.6903  -13.0281   21.0039 C   0  0  0  0  0  0
  -25.2558  -13.8130   20.5674 C   0  0  0  0  0  0
  -24.1809  -13.0410   20.9187 C   0  0  0  0  0  0
  -24.6372  -11.6880   20.8744 C   0  0  0  0  0  0
  -23.9036  -10.4277   21.0413 C   0  0  0  0  0  0
  -24.3582   -9.4180   21.9179 C   0  0  0  0  0  0
  -23.6286   -8.2202   22.0739 C   0  0  0  0  0  0
  -22.4266   -8.0255   21.3547 C   0  0  0  0  0  0
  -21.9916   -9.0205   20.4630 C   0  0  0  0  0  0
  -22.7229  -10.2105   20.3029 C   0  0  0  0  0  0
  -21.6823   -6.0716   22.5281 C   0  0  0  0  0  0
  -21.3991   -6.5622   23.8211 C   0  0  0  0  0  0
  -21.3683   -5.6775   24.9177 C   0  0  0  0  0  0
  -21.6069   -4.3036   24.7221 C   0  0  0  0  0  0
  -21.8825   -3.8114   23.4343 C   0  0  0  0  0  0
  -21.9181   -4.6934   22.3411 C   0  0  0  0  0  0
  -22.7847  -13.5205   21.1840 C   0  0  0  0  0  0
  -22.1660   -4.2115   21.0985 F   0  0  0  0  0  0
  -21.5653   -3.4535   25.7753 F   0  0  0  0  0  0
  -30.0176  -13.3425   20.4531 N   0  0  0  0  0  0
  -26.2974  -12.9306   20.3325 N   0  0  0  0  0  0
  -25.9297  -11.6460   20.5759 N   0  0  0  0  0  0
  -22.0489  -12.8200   22.0398 N   0  0  0  0  0  0
  -25.4297  -15.1869   20.4162 N   0  0  0  0  0  0
  -31.8200  -14.6828   20.1452 O   0  0  0  0  0  0
  -21.6621   -6.8859   21.4240 O   0  0  0  0  0  0
  -22.3538  -14.5514   20.6704 O   0  0  0  0  0  0
  -24.6206  -31.8653   23.2089 C   0  0  0  0  0  0
  -25.9077  -32.4813   23.8395 C   0  0  1  0  0  0
  -27.2284  -27.3977   20.0782 C   0  0  0  0  0  0
  -25.5917  -33.8614   24.2331 N   0  0  0  0  0  0
  -23.4088  -30.4905   21.5547 C   0  0  2  0  0  0
  -24.8485  -28.9607   20.1101 C   0  0  0  0  0  0
  -22.7466  -29.4629   22.5006 C   0  0  0  0  0  0
  -18.0280  -28.1380   22.8511 C   0  0  0  0  0  0
  -24.1485  -36.7308   23.2641 C   0  0  0  0  0  0
  -25.9431  -30.8212   21.3652 C   0  0  0  0  0  0
  -26.0158  -29.4566   20.7032 C   0  0  0  0  0  0
  -27.2065  -28.6859   20.6757 C   0  0  0  0  0  0
  -26.0259  -26.9187   19.5007 C   0  0  0  0  0  0
  -24.8522  -27.6948   19.5037 C   0  0  0  0  0  0
  -23.6149  -29.8329   20.1660 C   0  0  0  0  0  0
  -25.4103  -36.3105   24.0349 C   0  0  1  0  0  0
  -20.5884  -28.3655   23.1353 C   0  0  2  0  0  0
  -20.6768  -26.9397   22.5428 C   0  0  0  0  0  0
  -19.5730  -26.6393   21.5232 C   0  0  0  0  0  0
  -18.1913  -26.7936   22.1644 C   0  0  0  0  0  0
  -19.1528  -28.8846   23.2927 C   0  0  0  0  0  0
  -18.9431  -30.1454   23.8913 C   0  0  0  0  0  0
  -17.6431  -30.6585   24.0566 C   0  0  0  0  0  0
  -25.9043  -34.9469   23.5136 C   0  0  0  0  0  0
  -16.5319  -29.9088   23.6328 C   0  0  0  0  0  0
  -16.7264  -28.6503   23.0351 C   0  0  0  0  0  0
  -26.4475  -31.6612   25.0745 C   0  0  0  0  0  0
  -25.3729  -31.3703   26.1490 C   0  0  0  0  0  0
  -27.0280  -30.3054   24.6116 C   0  0  0  0  0  0
  -27.6057  -32.4334   25.7509 C   0  0  0  0  0  0
  -27.5591  -37.1791   24.8452 C   0  0  0  0  0  0
  -21.4190  -29.3013   22.3772 N   0  0  0  0  0  0
  -26.4273  -37.3802   23.9446 N   0  0  0  0  0  0
  -24.6771  -31.0723   22.1007 N   0  0  0  0  0  0
  -23.4240  -28.8181   23.3052 O   0  0  0  0  0  0
  -28.4084  -26.6597   20.1039 O   0  0  0  0  0  0
  -26.5599  -34.8922   22.4697 O   0  0  0  0  0  0
  -23.5390  -32.1407   23.7470 O   0  0  0  0  0  0
  -29.5122  -19.2197   20.4221 C   0  0  0  0  0  0
  -30.8534  -19.2849   20.0737 C   0  0  0  0  0  0
  -30.1326  -16.9996   20.7245 C   0  0  0  0  0  0
  -28.5052  -20.3632   20.3164 C   0  0  0  0  0  0
  -28.8347  -24.1739   20.2219 C   0  0  0  0  0  0
  -28.2548  -22.8163   19.7493 C   0  0  0  0  0  0
  -28.5313  -25.4229   19.3491 C   0  0  0  0  0  0
  -29.1333  -17.9004   20.8014 N   0  0  0  0  0  0
  -31.5990  -20.3485   19.5555 N   0  0  0  0  0  0
  -29.8928  -15.5942   20.9357 N   0  0  0  0  0  0
  -29.0051  -21.6137   20.1896 N   0  0  0  0  0  0
  -27.2876  -20.1537   20.3198 O   0  0  0  0  0  0
  -29.5333  -24.2493   21.2394 O   0  0  0  0  0  0
  -31.6659  -17.7447   20.2718 S   0  0  0  0  0  0
  -31.4739  -12.4335   19.1716 H   0  0  0  0  0  0
  -30.3217  -11.3318   19.8790 H   0  0  0  0  0  0
  -29.7639  -11.7598   17.4667 H   0  0  0  0  0  0
  -29.6757  -13.4760   17.7670 H   0  0  0  0  0  0
  -27.8435  -11.3041   18.8407 H   0  0  0  0  0  0
  -27.3728  -12.6145   17.7911 H   0  0  0  0  0  0
  -27.6892  -14.2556   19.5537 H   0  0  0  0  0  0
  -28.6788  -12.0009   21.3728 H   0  0  0  0  0  0
  -28.4381  -13.6501   21.8622 H   0  0  0  0  0  0
  -25.2744   -9.5621   22.4732 H   0  0  0  0  0  0
  -23.9970   -7.4575   22.7473 H   0  0  0  0  0  0
  -21.0816   -8.8717   19.8976 H   0  0  0  0  0  0
  -22.3689  -10.9598   19.6096 H   0  0  0  0  0  0
  -21.1976   -7.6132   23.9697 H   0  0  0  0  0  0
  -21.1531   -6.0521   25.9092 H   0  0  0  0  0  0
  -22.0593   -2.7572   23.2838 H   0  0  0  0  0  0
  -22.4069  -11.9841   22.4785 H   0  0  0  0  0  0
  -21.1098  -13.1211   22.2600 H   0  0  0  0  0  0
  -24.6642  -15.8420   20.5388 H   0  0  0  0  0  0
  -26.2803  -15.6340   20.0987 H   0  0  0  0  0  0
  -26.7156  -32.5494   23.1166 H   0  0  0  0  0  0
  -25.0054  -33.9773   25.0466 H   0  0  0  0  0  0
  -22.6964  -31.3057   21.4234 H   0  0  0  0  0  0
  -23.3756  -35.9623   23.3252 H   0  0  0  0  0  0
  -24.3603  -36.8965   22.2063 H   0  0  0  0  0  0
  -23.7176  -37.6483   23.6673 H   0  0  0  0  0  0
  -26.0618  -31.5932   20.6030 H   0  0  0  0  0  0
  -26.8303  -30.8664   21.9859 H   0  0  0  0  0  0
  -28.1127  -29.0786   21.1160 H   0  0  0  0  0  0
  -25.9386  -25.9414   19.0536 H   0  0  0  0  0  0
  -23.9514  -27.3061   19.0473 H   0  0  0  0  0  0
  -23.7290  -30.6136   19.4126 H   0  0  0  0  0  0
  -22.7345  -29.2600   19.8690 H   0  0  0  0  0  0
  -25.1258  -36.1968   25.0833 H   0  0  0  0  0  0
  -20.9955  -28.3169   24.1478 H   0  0  0  0  0  0
  -20.5687  -26.2238   23.3594 H   0  0  0  0  0  0
  -21.6625  -26.7446   22.1181 H   0  0  0  0  0  0
  -19.6870  -25.6306   21.1244 H   0  0  0  0  0  0
  -19.6677  -27.3223   20.6775 H   0  0  0  0  0  0
  -17.4193  -26.6719   21.4037 H   0  0  0  0  0  0
  -18.0288  -26.0077   22.9034 H   0  0  0  0  0  0
  -19.7902  -30.7288   24.2286 H   0  0  0  0  0  0
  -17.4964  -31.6262   24.5170 H   0  0  0  0  0  0
  -15.5320  -30.2973   23.7623 H   0  0  0  0  0  0
  -15.8680  -28.0819   22.7042 H   0  0  0  0  0  0
  -24.5934  -30.7022   25.7825 H   0  0  0  0  0  0
  -24.8869  -32.2829   26.4952 H   0  0  0  0  0  0
  -25.8074  -30.8873   27.0253 H   0  0  0  0  0  0
  -26.2799  -29.6863   24.1158 H   0  0  0  0  0  0
  -27.4029  -29.7265   25.4565 H   0  0  0  0  0  0
  -27.8660  -30.4385   23.9273 H   0  0  0  0  0  0
  -27.2702  -33.3656   26.2086 H   0  0  0  0  0  0
  -28.3870  -32.6872   25.0328 H   0  0  0  0  0  0
  -28.0738  -31.8459   26.5425 H   0  0  0  0  0  0
  -28.2541  -38.0162   24.7604 H   0  0  0  0  0  0
  -28.1151  -36.2691   24.6127 H   0  0  0  0  0  0
  -27.2336  -37.1251   25.8858 H   0  0  0  0  0  0
  -20.9364  -29.8759   21.7014 H   0  0  0  0  0  0
  -26.0160  -38.2869   24.1498 H   0  0  0  0  0  0
  -28.2323  -22.8232   18.6586 H   0  0  0  0  0  0
  -27.2194  -22.7660   20.0885 H   0  0  0  0  0  0
  -27.6936  -25.2005   18.6979 H   0  0  0  0  0  0
  -29.3771  -25.5480   18.6719 H   0  0  0  0  0  0
  -31.2916  -20.6410   18.6304 H   0  0  0  0  0  0
  -32.6017  -20.1942   19.5045 H   0  0  0  0  0  0
  -28.9670  -15.3558   21.2497 H   0  0  0  0  0  0
  -30.0204  -21.6673   20.1968 H   0  0  0  0  0  0
  1 25  1  0  0  0
  1 30  2  0  0  0
  1 80  1  0  0  0
  2  3  1  0  0  0
  2 25  1  0  0  0
  2 85  1  0  0  0
  2 86  1  0  0  0
  3  4  1  0  0  0
  3 87  1  0  0  0
  3 88  1  0  0  0
  4  5  1  0  0  0
  4 89  1  0  0  0
  4 90  1  0  0  0
  5  6  1  0  0  0
  5 26  1  0  0  0
  5 91  1  0  0  0
  6 25  1  0  0  0
  6 92  1  0  0  0
  6 93  1  0  0  0
  7  8  2  0  0  0
  7 26  1  0  0  0
  7 29  1  0  0  0
  8  9  1  0  0  0
  8 22  1  0  0  0
  9 10  1  0  0  0
  9 27  2  0  0  0
 10 11  2  0  0  0
 10 15  1  0  0  0
 11 12  1  0  0  0
 11 94  1  0  0  0
 12 13  2  0  0  0
 12 95  1  0  0  0
 13 14  1  0  0  0
 13 31  1  0  0  0
 14 15  2  0  0  0
 14 96  1  0  0  0
 15 97  1  0  0  0
 16 17  2  0  0  0
 16 21  1  0  0  0
 16 31  1  0  0  0
 17 18  1  0  0  0
 17 98  1  0  0  0
 18 19  2  0  0  0
 18 99  1  0  0  0
 19 20  1  0  0  0
 19 24  1  0  0  0
 20 21  2  0  0  0
 20100  1  0  0  0
 21 23  1  0  0  0
 22 28  1  0  0  0
 22 32  2  0  0  0
 26 27  1  0  0  0
 28101  1  0  0  0
 28102  1  0  0  0
 29103  1  0  0  0
 29104  1  0  0  0
 33 34  1  0  0  0
 33 66  1  0  0  0
 33 70  2  0  0  0
 34 36  1  0  0  0
 34 59  1  0  0  0
 34105  1  0  0  0
 35 44  2  0  0  0
 35 45  1  0  0  0
 35 68  1  0  0  0
 36 56  1  0  0  0
 36106  1  0  0  0
 37 39  1  0  0  0
 37 47  1  0  0  0
 37 66  1  0  0  0
 37107  1  0  0  0
 38 43  2  0  0  0
 38 46  1  0  0  0
 38 47  1  0  0  0
 39 64  1  0  0  0
 39 67  2  0  0  0
 40 52  1  0  0  0
 40 53  2  0  0  0
 40 58  1  0  0  0
 41108  1  0  0  0
 41109  1  0  0  0
 41110  1  0  0  0
 41 48  1  0  0  0
 42 43  1  0  0  0
 42 66  1  0  0  0
 42111  1  0  0  0
 42112  1  0  0  0
 43 44  1  0  0  0
 44113  1  0  0  0
 45 46  2  0  0  0
 45114  1  0  0  0
 46115  1  0  0  0
 47116  1  0  0  0
 47117  1  0  0  0
 48 56  1  0  0  0
 48 65  1  0  0  0
 48118  1  0  0  0
 49 50  1  0  0  0
 49 53  1  0  0  0
 49 64  1  0  0  0
 49119  1  0  0  0
 50 51  1  0  0  0
 50120  1  0  0  0
 50121  1  0  0  0
 51 52  1  0  0  0
 51122  1  0  0  0
 51123  1  0  0  0
 52124  1  0  0  0
 52125  1  0  0  0
 53 54  1  0  0  0
 54 55  2  0  0  0
 54126  1  0  0  0
 55 57  1  0  0  0
 55127  1  0  0  0
 56 69  2  0  0  0
 57 58  2  0  0  0
 57128  1  0  0  0
 58129  1  0  0  0
 59 60  1  0  0  0
 59 61  1  0  0  0
 59 62  1  0  0  0
 60130  1  0  0  0
 60131  1  0  0  0
 60132  1  0  0  0
 61133  1  0  0  0
 61134  1  0  0  0
 61135  1  0  0  0
 62136  1  0  0  0
 62137  1  0  0  0
 62138  1  0  0  0
 63 65  1  0  0  0
 63139  1  0  0  0
 63140  1  0  0  0
 63141  1  0  0  0
 64142  1  0  0  0
 65143  1  0  0  0
 68 77  1  0  0  0
 71 72  2  0  0  0
 71 74  1  0  0  0
 71 78  1  0  0  0
 72 79  1  0  0  0
 72 84  1  0  0  0
 73 78  2  0  0  0
 73 80  1  0  0  0
 73 84  1  0  0  0
 74 81  1  0  0  0
 74 82  2  0  0  0
 75 76  1  0  0  0
 75 77  1  0  0  0
 75 83  2  0  0  0
 76 81  1  0  0  0
 76144  1  0  0  0
 76145  1  0  0  0
 77146  1  0  0  0
 77147  1  0  0  0
 79148  1  0  0  0
 79149  1  0  0  0
 80150  1  0  0  0
 81151  1  0  0  0
M  ISO  4   1 100  68 101  77 101  80 100
M  END
> <chiral flag>
0

> <version>
0

> <s_m_source_file>
/data/baiqing/PycharmProjects/Reinvent-master-3.2/result/LINK_invent/BTK/process_docking_weight1_custom_product_contain_oxygen_bond_distance_aromatic_linkinvent_7_9_3/rearranged_h_0174.sdf

> <i_m_source_file_index>
53

> <r_mmod_Potential_Energy-OPLS-2005>
-32.7354583740234

> <r_mmod_Stretch_Energy-OPLS-2005>
49.6662483215332

> <r_mmod_Bend_Energy-OPLS-2005>
113.19066619873

> <r_mmod_Torsional_Energy-OPLS-2005>
223.554992675781

> <r_mmod_Improper_Torsional_Energy-OPLS-2005>
10.8885154724121

> <r_mmod_Van_der_Waal_Energy-OPLS-2005>
136.444519042969

> <r_mmod_Electrostatic_Energy-OPLS-2005>
-324.275543212891

> <r_mmod_Solvation_Energy-OPLS-2005>
-264.458374023438

> <b_mmod_Minimization_Converged-OPLS-2005>
0

> <r_mmod_RMS_Derivative-OPLS-2005>
4.21252965927124

$$$$
53
                    3D
 Structure written by MMmdl.
153161  0  0  1  0            999 V2000
  -30.7404  -14.3755   20.6385 C   0  0  0  0  0  0
  -30.4229  -12.2699   19.4042 C   0  0  0  0  0  0
  -29.4928  -12.5194   18.2000 C   0  0  0  0  0  0
  -28.0171  -12.3738   18.6151 C   0  0  0  0  0  0
  -27.6726  -13.1967   19.8846 C   0  0  2  0  0  0
  -28.7076  -12.9287   21.0009 C   0  0  0  0  0  0
  -25.2643  -13.8141   20.5667 C   0  0  0  0  0  0
  -24.1869  -13.0430   20.9160 C   0  0  0  0  0  0
  -24.6413  -11.6897   20.8725 C   0  0  0  0  0  0
  -23.9069  -10.4285   21.0402 C   0  0  0  0  0  0
  -24.3618   -9.4207   21.9177 C   0  0  0  0  0  0
  -23.6288   -8.2247   22.0753 C   0  0  0  0  0  0
  -22.4276   -8.0281   21.3547 C   0  0  0  0  0  0
  -21.9912   -9.0255   20.4651 C   0  0  0  0  0  0
  -22.7244  -10.2132   20.3055 C   0  0  0  0  0  0
  -21.6851   -6.0739   22.5281 C   0  0  0  0  0  0
  -21.4008   -6.5643   23.8216 C   0  0  0  0  0  0
  -21.3659   -5.6797   24.9176 C   0  0  0  0  0  0
  -21.6051   -4.3057   24.7224 C   0  0  0  0  0  0
  -21.8817   -3.8150   23.4344 C   0  0  0  0  0  0
  -21.9193   -4.6969   22.3402 C   0  0  0  0  0  0
  -22.7904  -13.5243   21.1829 C   0  0  0  0  0  0
  -22.1664   -4.2159   21.0978 F   0  0  0  0  0  0
  -21.5633   -3.4539   25.7734 F   0  0  0  0  0  0
  -30.0547  -13.2158   20.4693 N   0  0  0  0  0  0
  -26.3081  -12.9300   20.3378 N   0  0  0  0  0  0
  -25.9341  -11.6472   20.5749 N   0  0  0  0  0  0
  -22.0524  -12.8244   22.0381 N   0  0  0  0  0  0
  -25.4354  -15.1855   20.4089 N   0  0  0  0  0  0
  -31.8047  -14.6192   20.0623 O   0  0  0  0  0  0
  -21.6639   -6.8882   21.4245 O   0  0  0  0  0  0
  -22.3599  -14.5557   20.6691 O   0  0  0  0  0  0
  -24.6120  -31.8722   23.2148 C   0  0  0  0  0  0
  -25.9038  -32.4838   23.8393 C   0  0  1  0  0  0
  -27.2275  -27.4677   20.0640 C   0  0  0  0  0  0
  -25.5915  -33.8634   24.2322 N   0  0  0  0  0  0
  -23.3946  -30.5000   21.5550 C   0  0  2  0  0  0
  -24.8338  -28.9713   20.1107 C   0  0  0  0  0  0
  -22.7401  -29.4688   22.5020 C   0  0  0  0  0  0
  -18.0282  -28.1388   22.8486 C   0  0  0  0  0  0
  -24.1476  -36.7329   23.2634 C   0  0  0  0  0  0
  -25.9237  -30.8373   21.3702 C   0  0  0  0  0  0
  -25.9921  -29.4767   20.7134 C   0  0  0  0  0  0
  -27.1850  -28.7261   20.7006 C   0  0  0  0  0  0
  -26.0492  -26.9776   19.4471 C   0  0  0  0  0  0
  -24.8552  -27.7173   19.4804 C   0  0  0  0  0  0
  -23.5973  -29.8351   20.1672 C   0  0  0  0  0  0
  -25.4106  -36.3136   24.0329 C   0  0  1  0  0  0
  -20.5864  -28.3665   23.1334 C   0  0  2  0  0  0
  -20.6769  -26.9409   22.5413 C   0  0  0  0  0  0
  -19.5747  -26.6394   21.5207 C   0  0  0  0  0  0
  -18.1933  -26.7936   22.1622 C   0  0  0  0  0  0
  -19.1526  -28.8841   23.2909 C   0  0  0  0  0  0
  -18.9459  -30.1462   23.8901 C   0  0  0  0  0  0
  -17.6463  -30.6589   24.0571 C   0  0  0  0  0  0
  -25.9047  -34.9496   23.5127 C   0  0  0  0  0  0
  -16.5354  -29.9087   23.6330 C   0  0  0  0  0  0
  -16.7277  -28.6509   23.0332 C   0  0  0  0  0  0
  -26.4453  -31.6634   25.0727 C   0  0  0  0  0  0
  -25.3716  -31.3734   26.1472 C   0  0  0  0  0  0
  -27.0294  -30.3090   24.6115 C   0  0  0  0  0  0
  -27.6035  -32.4346   25.7487 C   0  0  0  0  0  0
  -27.5595  -37.1839   24.8474 C   0  0  0  0  0  0
  -21.4138  -29.3039   22.3763 N   0  0  0  0  0  0
  -26.4313  -37.3812   23.9405 N   0  0  0  0  0  0
  -24.6618  -31.0827   22.1049 N   0  0  0  0  0  0
  -23.4202  -28.8234   23.3037 O   0  0  0  0  0  0
  -28.4234  -26.7802   20.0886 O   0  0  0  0  0  0
  -26.5601  -34.8944   22.4684 O   0  0  0  0  0  0
  -23.5323  -32.1482   23.7561 O   0  0  0  0  0  0
  -29.6649  -18.8509   21.8339 C   0  0  0  0  0  0
  -29.5963  -17.4870   22.2334 C   0  0  0  0  0  0
  -30.2490  -19.0348   20.6089 C   0  0  0  0  0  0
  -30.1569  -16.6039   21.3481 C   0  0  0  0  0  0
  -30.4563  -20.2329   19.7685 C   0  0  0  0  0  0
  -28.2607  -22.9641   19.6664 C   0  0  0  0  0  0
  -27.9130  -24.3622   20.1203 C   0  0  0  0  0  0
  -29.7426  -22.6214   19.5582 C   0  0  0  0  0  0
  -28.5579  -25.5466   19.3709 C   0  0  0  0  0  0
  -27.3946  -22.0514   19.4731 N   0  0  0  0  0  0
  -30.1786  -15.2500   21.4834 N   0  0  0  0  0  0
  -29.9940  -21.3749   20.2832 N   0  0  0  0  0  0
  -30.9815  -20.1684   18.6548 O   0  0  0  0  0  0
  -27.0800  -24.5419   21.0165 O   0  0  0  0  0  0
  -29.1724  -19.8252   22.5687 F   0  0  0  0  0  0
  -29.0233  -17.1118   23.3545 F   0  0  0  0  0  0
  -30.7682  -17.4971   19.9585 S   0  0  0  0  0  0
  -31.4683  -12.3605   19.1010 H   0  0  0  0  0  0
  -30.3101  -11.2442   19.7592 H   0  0  0  0  0  0
  -29.7250  -11.8218   17.3947 H   0  0  0  0  0  0
  -29.6679  -13.5184   17.7996 H   0  0  0  0  0  0
  -27.8317  -11.3152   18.8010 H   0  0  0  0  0  0
  -27.3647  -12.6551   17.7887 H   0  0  0  0  0  0
  -27.7369  -14.2511   19.6139 H   0  0  0  0  0  0
  -28.6645  -11.8835   21.3136 H   0  0  0  0  0  0
  -28.4620  -13.5019   21.8961 H   0  0  0  0  0  0
  -25.2764   -9.5686   22.4745 H   0  0  0  0  0  0
  -24.0006   -7.4643   22.7475 H   0  0  0  0  0  0
  -21.0838   -8.8769   19.8951 H   0  0  0  0  0  0
  -22.3696  -10.9672   19.6157 H   0  0  0  0  0  0
  -21.1989   -7.6149   23.9721 H   0  0  0  0  0  0
  -21.1490   -6.0523   25.9083 H   0  0  0  0  0  0
  -22.0594   -2.7614   23.2838 H   0  0  0  0  0  0
  -22.4130  -11.9907   22.4785 H   0  0  0  0  0  0
  -21.1136  -13.1275   22.2557 H   0  0  0  0  0  0
  -24.6641  -15.8359   20.5126 H   0  0  0  0  0  0
  -26.2902  -15.6291   20.0959 H   0  0  0  0  0  0
  -26.7109  -32.5537   23.1156 H   0  0  0  0  0  0
  -25.0083  -33.9764   25.0474 H   0  0  0  0  0  0
  -22.6867  -31.3213   21.4219 H   0  0  0  0  0  0
  -23.3734  -35.9676   23.3315 H   0  0  0  0  0  0
  -24.3583  -36.8926   22.2057 H   0  0  0  0  0  0
  -23.7234  -37.6539   23.6632 H   0  0  0  0  0  0
  -26.0435  -31.6062   20.6054 H   0  0  0  0  0  0
  -26.8120  -30.8804   21.9875 H   0  0  0  0  0  0
  -28.0751  -29.1121   21.1759 H   0  0  0  0  0  0
  -26.0191  -26.0235   18.9416 H   0  0  0  0  0  0
  -23.9652  -27.3258   19.0051 H   0  0  0  0  0  0
  -23.7054  -30.6110   19.4096 H   0  0  0  0  0  0
  -22.7197  -29.2582   19.8696 H   0  0  0  0  0  0
  -25.1288  -36.2000   25.0825 H   0  0  0  0  0  0
  -20.9935  -28.3210   24.1465 H   0  0  0  0  0  0
  -20.5677  -26.2282   23.3600 H   0  0  0  0  0  0
  -21.6650  -26.7486   22.1213 H   0  0  0  0  0  0
  -19.6918  -25.6302   21.1256 H   0  0  0  0  0  0
  -19.6672  -27.3190   20.6724 H   0  0  0  0  0  0
  -17.4209  -26.6688   21.4028 H   0  0  0  0  0  0
  -18.0343  -26.0074   22.9013 H   0  0  0  0  0  0
  -19.7936  -30.7283   24.2259 H   0  0  0  0  0  0
  -17.5015  -31.6262   24.5190 H   0  0  0  0  0  0
  -15.5349  -30.2989   23.7645 H   0  0  0  0  0  0
  -15.8691  -28.0839   22.7019 H   0  0  0  0  0  0
  -24.5862  -30.7112   25.7809 H   0  0  0  0  0  0
  -24.8914  -32.2879   26.4967 H   0  0  0  0  0  0
  -25.8051  -30.8870   27.0215 H   0  0  0  0  0  0
  -26.2846  -29.6852   24.1162 H   0  0  0  0  0  0
  -27.4072  -29.7329   25.4574 H   0  0  0  0  0  0
  -27.8672  -30.4422   23.9261 H   0  0  0  0  0  0
  -27.2661  -33.3624   26.2109 H   0  0  0  0  0  0
  -28.3815  -32.6951   25.0302 H   0  0  0  0  0  0
  -28.0726  -31.8445   26.5364 H   0  0  0  0  0  0
  -28.2644  -38.0107   24.7521 H   0  0  0  0  0  0
  -28.1060  -36.2661   24.6296 H   0  0  0  0  0  0
  -27.2327  -37.1491   25.8878 H   0  0  0  0  0  0
  -20.9333  -29.8745   21.6961 H   0  0  0  0  0  0
  -26.0205  -38.2909   24.1339 H   0  0  0  0  0  0
  -30.3553  -23.4035   20.0089 H   0  0  0  0  0  0
  -30.0233  -22.5632   18.5057 H   0  0  0  0  0  0
  -29.6238  -25.3665   19.2414 H   0  0  0  0  0  0
  -28.1351  -25.6295   18.3686 H   0  0  0  0  0  0
  -26.4602  -22.4095   19.6413 H   0  0  0  0  0  0
  -29.4943  -14.8715   22.1210 H   0  0  0  0  0  0
  -29.5609  -21.3127   21.1966 H   0  0  0  0  0  0
  1 25  1  0  0  0
  1 30  2  0  0  0
  1 81  1  0  0  0
  2  3  1  0  0  0
  2 25  1  0  0  0
  2 88  1  0  0  0
  2 89  1  0  0  0
  3  4  1  0  0  0
  3 90  1  0  0  0
  3 91  1  0  0  0
  4  5  1  0  0  0
  4 92  1  0  0  0
  4 93  1  0  0  0
  5  6  1  0  0  0
  5 26  1  0  0  0
  5 94  1  0  0  0
  6 25  1  0  0  0
  6 95  1  0  0  0
  6 96  1  0  0  0
  7  8  2  0  0  0
  7 26  1  0  0  0
  7 29  1  0  0  0
  8  9  1  0  0  0
  8 22  1  0  0  0
  9 10  1  0  0  0
  9 27  2  0  0  0
 10 11  2  0  0  0
 10 15  1  0  0  0
 11 12  1  0  0  0
 11 97  1  0  0  0
 12 13  2  0  0  0
 12 98  1  0  0  0
 13 14  1  0  0  0
 13 31  1  0  0  0
 14 15  2  0  0  0
 14 99  1  0  0  0
 15100  1  0  0  0
 16 17  2  0  0  0
 16 21  1  0  0  0
 16 31  1  0  0  0
 17 18  1  0  0  0
 17101  1  0  0  0
 18 19  2  0  0  0
 18102  1  0  0  0
 19 20  1  0  0  0
 19 24  1  0  0  0
 20 21  2  0  0  0
 20103  1  0  0  0
 21 23  1  0  0  0
 22 28  1  0  0  0
 22 32  2  0  0  0
 26 27  1  0  0  0
 28104  1  0  0  0
 28105  1  0  0  0
 29106  1  0  0  0
 29107  1  0  0  0
 33 34  1  0  0  0
 33 66  1  0  0  0
 33 70  2  0  0  0
 34 36  1  0  0  0
 34 59  1  0  0  0
 34108  1  0  0  0
 35 44  2  0  0  0
 35 45  1  0  0  0
 35 68  1  0  0  0
 36 56  1  0  0  0
 36109  1  0  0  0
 37 39  1  0  0  0
 37 47  1  0  0  0
 37 66  1  0  0  0
 37110  1  0  0  0
 38 43  2  0  0  0
 38 46  1  0  0  0
 38 47  1  0  0  0
 39 64  1  0  0  0
 39 67  2  0  0  0
 40 52  1  0  0  0
 40 53  2  0  0  0
 40 58  1  0  0  0
 41111  1  0  0  0
 41112  1  0  0  0
 41113  1  0  0  0
 41 48  1  0  0  0
 42 43  1  0  0  0
 42 66  1  0  0  0
 42114  1  0  0  0
 42115  1  0  0  0
 43 44  1  0  0  0
 44116  1  0  0  0
 45 46  2  0  0  0
 45117  1  0  0  0
 46118  1  0  0  0
 47119  1  0  0  0
 47120  1  0  0  0
 48 56  1  0  0  0
 48 65  1  0  0  0
 48121  1  0  0  0
 49 50  1  0  0  0
 49 53  1  0  0  0
 49 64  1  0  0  0
 49122  1  0  0  0
 50 51  1  0  0  0
 50123  1  0  0  0
 50124  1  0  0  0
 51 52  1  0  0  0
 51125  1  0  0  0
 51126  1  0  0  0
 52127  1  0  0  0
 52128  1  0  0  0
 53 54  1  0  0  0
 54 55  2  0  0  0
 54129  1  0  0  0
 55 57  1  0  0  0
 55130  1  0  0  0
 56 69  2  0  0  0
 57 58  2  0  0  0
 57131  1  0  0  0
 58132  1  0  0  0
 59 60  1  0  0  0
 59 61  1  0  0  0
 59 62  1  0  0  0
 60133  1  0  0  0
 60134  1  0  0  0
 60135  1  0  0  0
 61136  1  0  0  0
 61137  1  0  0  0
 61138  1  0  0  0
 62139  1  0  0  0
 62140  1  0  0  0
 62141  1  0  0  0
 63 65  1  0  0  0
 63142  1  0  0  0
 63143  1  0  0  0
 63144  1  0  0  0
 64145  1  0  0  0
 65146  1  0  0  0
 68 79  1  0  0  0
 71 72  1  0  0  0
 71 73  2  0  0  0
 71 85  1  0  0  0
 72 74  2  0  0  0
 72 86  1  0  0  0
 73 75  1  0  0  0
 73 87  1  0  0  0
 74 81  1  0  0  0
 74 87  1  0  0  0
 75 82  1  0  0  0
 75 83  2  0  0  0
 76 77  1  0  0  0
 76 78  1  0  0  0
 76 80  2  0  0  0
 77 79  1  0  0  0
 77 84  2  0  0  0
 78 82  1  0  0  0
 78147  1  0  0  0
 78148  1  0  0  0
 79149  1  0  0  0
 79150  1  0  0  0
 80151  1  0  0  0
 81152  1  0  0  0
 82153  1  0  0  0
M  ISO  4   1 100  68 101  79 101  81 100
M  END
> <chiral flag>
0

> <version>
0

> <s_m_source_file>
/data/baiqing/PycharmProjects/Reinvent-master-3.2/result/LINK_invent/BTK/process_docking_weight1_custom_product_contain_oxygen_bond_distance_aromatic_linkinvent_7_9_3/rearranged_h_0174.sdf

> <i_m_source_file_index>
54

> <r_mmod_Potential_Energy-OPLS-2005>
-135.793594360352

> <r_mmod_Stretch_Energy-OPLS-2005>
32.5449333190918

> <r_mmod_Bend_Energy-OPLS-2005>
102.804496765137

> <r_mmod_Torsional_Energy-OPLS-2005>
226.341186523438

> <r_mmod_Improper_Torsional_Energy-OPLS-2005>
4.97495985031128

> <r_mmod_Van_der_Waal_Energy-OPLS-2005>
150.085708618164

> <r_mmod_Electrostatic_Energy-OPLS-2005>
-398.452545166016

> <r_mmod_Solvation_Energy-OPLS-2005>
-263.016693115234

> <b_mmod_Minimization_Converged-OPLS-2005>
0

> <r_mmod_RMS_Derivative-OPLS-2005>
2.6695568561554

$$$$
54
                    3D
 Structure written by MMmdl.
155163  0  0  1  0            999 V2000
  -30.6905  -14.4824   20.5616 C   0  0  0  0  0  0
  -30.4170  -12.3112   19.4227 C   0  0  0  0  0  0
  -29.4930  -12.5221   18.2063 C   0  0  0  0  0  0
  -28.0117  -12.3844   18.6107 C   0  0  0  0  0  0
  -27.6590  -13.2125   19.8743 C   0  0  2  0  0  0
  -28.6972  -12.9928   20.9975 C   0  0  0  0  0  0
  -25.2540  -13.8188   20.5656 C   0  0  0  0  0  0
  -24.1791  -13.0460   20.9174 C   0  0  0  0  0  0
  -24.6350  -11.6927   20.8702 C   0  0  0  0  0  0
  -23.9013  -10.4306   21.0379 C   0  0  0  0  0  0
  -24.3574   -9.4234   21.9171 C   0  0  0  0  0  0
  -23.6274   -8.2247   22.0736 C   0  0  0  0  0  0
  -22.4259   -8.0265   21.3530 C   0  0  0  0  0  0
  -21.9874   -9.0230   20.4628 C   0  0  0  0  0  0
  -22.7179  -10.2124   20.3039 C   0  0  0  0  0  0
  -21.6847   -6.0718   22.5281 C   0  0  0  0  0  0
  -21.4006   -6.5626   23.8209 C   0  0  0  0  0  0
  -21.3666   -5.6788   24.9178 C   0  0  0  0  0  0
  -21.6041   -4.3047   24.7228 C   0  0  0  0  0  0
  -21.8822   -3.8128   23.4352 C   0  0  0  0  0  0
  -21.9188   -4.6944   22.3410 C   0  0  0  0  0  0
  -22.7816  -13.5247   21.1857 C   0  0  0  0  0  0
  -22.1659   -4.2126   21.0997 F   0  0  0  0  0  0
  -21.5635   -3.4537   25.7746 F   0  0  0  0  0  0
  -30.0325  -13.2941   20.4499 N   0  0  0  0  0  0
  -26.2986  -12.9357   20.3343 N   0  0  0  0  0  0
  -25.9281  -11.6520   20.5738 N   0  0  0  0  0  0
  -22.0432  -12.8253   22.0414 N   0  0  0  0  0  0
  -25.4303  -15.1904   20.4036 N   0  0  0  0  0  0
  -31.7927  -14.6756   20.0406 O   0  0  0  0  0  0
  -21.6630   -6.8854   21.4246 O   0  0  0  0  0  0
  -22.3512  -14.5568   20.6722 O   0  0  0  0  0  0
  -24.6152  -31.8668   23.2116 C   0  0  0  0  0  0
  -25.9055  -32.4812   23.8403 C   0  0  1  0  0  0
  -27.2269  -27.4276   20.1098 C   0  0  0  0  0  0
  -25.5919  -33.8599   24.2354 N   0  0  0  0  0  0
  -23.4030  -30.4931   21.5498 C   0  0  2  0  0  0
  -24.8495  -28.9613   20.1117 C   0  0  0  0  0  0
  -22.7420  -29.4630   22.4951 C   0  0  0  0  0  0
  -18.0277  -28.1389   22.8489 C   0  0  0  0  0  0
  -24.1486  -36.7314   23.2627 C   0  0  0  0  0  0
  -25.9321  -30.8370   21.3619 C   0  0  0  0  0  0
  -26.0099  -29.4686   20.7124 C   0  0  0  0  0  0
  -27.2035  -28.7099   20.7082 C   0  0  0  0  0  0
  -26.0530  -26.9426   19.4923 C   0  0  0  0  0  0
  -24.8656  -27.6975   19.4979 C   0  0  0  0  0  0
  -23.6135  -29.8314   20.1616 C   0  0  0  0  0  0
  -25.4104  -36.3100   24.0344 C   0  0  1  0  0  0
  -20.5874  -28.3663   23.1328 C   0  0  2  0  0  0
  -20.6766  -26.9392   22.5430 C   0  0  0  0  0  0
  -19.5751  -26.6379   21.5221 C   0  0  0  0  0  0
  -18.1925  -26.7939   22.1615 C   0  0  0  0  0  0
  -19.1530  -28.8842   23.2906 C   0  0  0  0  0  0
  -18.9443  -30.1452   23.8905 C   0  0  0  0  0  0
  -17.6437  -30.6583   24.0559 C   0  0  0  0  0  0
  -25.9045  -34.9464   23.5148 C   0  0  0  0  0  0
  -16.5329  -29.9084   23.6313 C   0  0  0  0  0  0
  -16.7260  -28.6510   23.0326 C   0  0  0  0  0  0
  -26.4503  -31.6559   25.0711 C   0  0  0  0  0  0
  -25.3787  -31.3638   26.1469 C   0  0  0  0  0  0
  -27.0283  -30.2988   24.6052 C   0  0  0  0  0  0
  -27.6124  -32.4222   25.7468 C   0  0  0  0  0  0
  -27.5589  -37.1780   24.8440 C   0  0  0  0  0  0
  -21.4139  -29.3011   22.3720 N   0  0  0  0  0  0
  -26.4270  -37.3798   23.9439 N   0  0  0  0  0  0
  -24.6689  -31.0805   22.0994 N   0  0  0  0  0  0
  -23.4209  -28.8164   23.2974 O   0  0  0  0  0  0
  -28.3773  -26.6664   20.1265 O   0  0  0  0  0  0
  -26.5566  -34.8910   22.4687 O   0  0  0  0  0  0
  -23.5349  -32.1374   23.7535 O   0  0  0  0  0  0
  -30.9595  -19.0423   20.8643 C   0  0  0  0  0  0
  -31.2698  -17.6645   21.1281 C   0  0  0  0  0  0
  -29.6323  -19.3032   20.6319 C   0  0  0  0  0  0
  -30.1628  -16.8278   21.0319 C   0  0  0  0  0  0
  -32.6150  -17.2580   21.5498 C   0  0  0  0  0  0
  -28.4328  -22.8103   19.9875 C   0  0  0  0  0  0
  -29.5201  -21.6864   20.0423 C   0  0  0  0  0  0
  -33.7778  -18.0760   20.9879 C   0  0  0  0  0  0
  -28.8855  -24.2591   19.7008 C   0  0  0  0  0  0
  -28.2260  -25.3175   20.6185 C   0  0  0  0  0  0
  -29.0009  -20.4976   20.4207 N   0  0  0  0  0  0
  -30.0084  -15.4711   21.1799 N   0  0  0  0  0  0
  -32.8713  -16.3271   22.3184 O   0  0  0  0  0  0
  -27.2323  -22.5478   20.1437 O   0  0  0  0  0  0
  -30.7061  -21.8847   19.7560 O   0  0  0  0  0  0
  -28.7356  -17.8015   20.7173 S   0  0  0  0  0  0
  -31.4634  -12.4024   19.1255 H   0  0  0  0  0  0
  -30.3100  -11.2966   19.8132 H   0  0  0  0  0  0
  -29.7340  -11.8068   17.4189 H   0  0  0  0  0  0
  -29.6680  -13.5154   17.7836 H   0  0  0  0  0  0
  -27.8096  -11.3278   18.7917 H   0  0  0  0  0  0
  -27.3681  -12.6813   17.7816 H   0  0  0  0  0  0
  -27.7049  -14.2646   19.5863 H   0  0  0  0  0  0
  -28.6658  -11.9590   21.3451 H   0  0  0  0  0  0
  -28.4523  -13.5972   21.8721 H   0  0  0  0  0  0
  -25.2716   -9.5735   22.4763 H   0  0  0  0  0  0
  -23.9989   -7.4635   22.7463 H   0  0  0  0  0  0
  -21.0792   -8.8730   19.8944 H   0  0  0  0  0  0
  -22.3607  -10.9654   19.6149 H   0  0  0  0  0  0
  -21.1994   -7.6131   23.9716 H   0  0  0  0  0  0
  -21.1495   -6.0512   25.9092 H   0  0  0  0  0  0
  -22.0593   -2.7587   23.2860 H   0  0  0  0  0  0
  -22.3993  -11.9900   22.4810 H   0  0  0  0  0  0
  -21.1061  -13.1314   22.2615 H   0  0  0  0  0  0
  -24.6685  -15.8520   20.5034 H   0  0  0  0  0  0
  -26.2849  -15.6220   20.0759 H   0  0  0  0  0  0
  -26.7124  -32.5556   23.1161 H   0  0  0  0  0  0
  -25.0112  -33.9740   25.0536 H   0  0  0  0  0  0
  -22.6901  -31.3103   21.4159 H   0  0  0  0  0  0
  -23.3751  -35.9637   23.3221 H   0  0  0  0  0  0
  -24.3589  -36.8982   22.2050 H   0  0  0  0  0  0
  -23.7205  -37.6494   23.6671 H   0  0  0  0  0  0
  -26.0357  -31.6008   20.5912 H   0  0  0  0  0  0
  -26.8227  -30.8980   21.9756 H   0  0  0  0  0  0
  -28.0965  -29.0887   21.1871 H   0  0  0  0  0  0
  -26.0526  -25.9766   19.0074 H   0  0  0  0  0  0
  -23.9750  -27.3053   19.0247 H   0  0  0  0  0  0
  -23.7284  -30.6090   19.4061 H   0  0  0  0  0  0
  -22.7378  -29.2549   19.8608 H   0  0  0  0  0  0
  -25.1258  -36.1949   25.0830 H   0  0  0  0  0  0
  -20.9983  -28.3225   24.1442 H   0  0  0  0  0  0
  -20.5683  -26.2241   23.3605 H   0  0  0  0  0  0
  -21.6640  -26.7422   22.1225 H   0  0  0  0  0  0
  -19.6900  -25.6296   21.1226 H   0  0  0  0  0  0
  -19.6732  -27.3216   20.6786 H   0  0  0  0  0  0
  -17.4212  -26.6699   21.3993 H   0  0  0  0  0  0
  -18.0296  -26.0093   22.9017 H   0  0  0  0  0  0
  -19.7919  -30.7273   24.2269 H   0  0  0  0  0  0
  -17.4991  -31.6268   24.5170 H   0  0  0  0  0  0
  -15.5336  -30.2981   23.7647 H   0  0  0  0  0  0
  -15.8666  -28.0851   22.6995 H   0  0  0  0  0  0
  -24.6053  -30.6855   25.7827 H   0  0  0  0  0  0
  -24.8868  -32.2761   26.4845 H   0  0  0  0  0  0
  -25.8180  -30.8905   27.0257 H   0  0  0  0  0  0
  -26.2779  -29.6770   24.1145 H   0  0  0  0  0  0
  -27.4067  -29.7197   25.4482 H   0  0  0  0  0  0
  -27.8627  -30.4258   23.9153 H   0  0  0  0  0  0
  -27.2809  -33.3534   26.2063 H   0  0  0  0  0  0
  -28.3948  -32.6700   25.0286 H   0  0  0  0  0  0
  -28.0774  -31.8296   26.5357 H   0  0  0  0  0  0
  -28.2528  -38.0151   24.7591 H   0  0  0  0  0  0
  -28.1149  -36.2675   24.6123 H   0  0  0  0  0  0
  -27.2321  -37.1285   25.8838 H   0  0  0  0  0  0
  -20.9281  -29.8745   21.6964 H   0  0  0  0  0  0
  -26.0146  -38.2849   24.1520 H   0  0  0  0  0  0
  -31.7200  -19.8065   20.9080 H   0  0  0  0  0  0
  -33.6204  -18.2910   19.9307 H   0  0  0  0  0  0
  -34.7104  -17.5194   21.0822 H   0  0  0  0  0  0
  -33.8880  -19.0196   21.5236 H   0  0  0  0  0  0
  -28.6198  -24.4693   18.6670 H   0  0  0  0  0  0
  -29.9713  -24.3337   19.7627 H   0  0  0  0  0  0
  -28.7016  -25.2707   21.5975 H   0  0  0  0  0  0
  -27.1845  -25.0578   20.8101 H   0  0  0  0  0  0
  -27.9960  -20.5239   20.5439 H   0  0  0  0  0  0
  -29.1085  -15.1693   21.5225 H   0  0  0  0  0  0
  1 25  1  0  0  0
  1 30  2  0  0  0
  1 82  1  0  0  0
  2  3  1  0  0  0
  2 25  1  0  0  0
  2 87  1  0  0  0
  2 88  1  0  0  0
  3  4  1  0  0  0
  3 89  1  0  0  0
  3 90  1  0  0  0
  4  5  1  0  0  0
  4 91  1  0  0  0
  4 92  1  0  0  0
  5  6  1  0  0  0
  5 26  1  0  0  0
  5 93  1  0  0  0
  6 25  1  0  0  0
  6 94  1  0  0  0
  6 95  1  0  0  0
  7  8  2  0  0  0
  7 26  1  0  0  0
  7 29  1  0  0  0
  8  9  1  0  0  0
  8 22  1  0  0  0
  9 10  1  0  0  0
  9 27  2  0  0  0
 10 11  2  0  0  0
 10 15  1  0  0  0
 11 12  1  0  0  0
 11 96  1  0  0  0
 12 13  2  0  0  0
 12 97  1  0  0  0
 13 14  1  0  0  0
 13 31  1  0  0  0
 14 15  2  0  0  0
 14 98  1  0  0  0
 15 99  1  0  0  0
 16 17  2  0  0  0
 16 21  1  0  0  0
 16 31  1  0  0  0
 17 18  1  0  0  0
 17100  1  0  0  0
 18 19  2  0  0  0
 18101  1  0  0  0
 19 20  1  0  0  0
 19 24  1  0  0  0
 20 21  2  0  0  0
 20102  1  0  0  0
 21 23  1  0  0  0
 22 28  1  0  0  0
 22 32  2  0  0  0
 26 27  1  0  0  0
 28103  1  0  0  0
 28104  1  0  0  0
 29105  1  0  0  0
 29106  1  0  0  0
 33 34  1  0  0  0
 33 66  1  0  0  0
 33 70  2  0  0  0
 34 36  1  0  0  0
 34 59  1  0  0  0
 34107  1  0  0  0
 35 44  2  0  0  0
 35 45  1  0  0  0
 35 68  1  0  0  0
 36 56  1  0  0  0
 36108  1  0  0  0
 37 39  1  0  0  0
 37 47  1  0  0  0
 37 66  1  0  0  0
 37109  1  0  0  0
 38 43  2  0  0  0
 38 46  1  0  0  0
 38 47  1  0  0  0
 39 64  1  0  0  0
 39 67  2  0  0  0
 40 52  1  0  0  0
 40 53  2  0  0  0
 40 58  1  0  0  0
 41110  1  0  0  0
 41111  1  0  0  0
 41112  1  0  0  0
 41 48  1  0  0  0
 42 43  1  0  0  0
 42 66  1  0  0  0
 42113  1  0  0  0
 42114  1  0  0  0
 43 44  1  0  0  0
 44115  1  0  0  0
 45 46  2  0  0  0
 45116  1  0  0  0
 46117  1  0  0  0
 47118  1  0  0  0
 47119  1  0  0  0
 48 56  1  0  0  0
 48 65  1  0  0  0
 48120  1  0  0  0
 49 50  1  0  0  0
 49 53  1  0  0  0
 49 64  1  0  0  0
 49121  1  0  0  0
 50 51  1  0  0  0
 50122  1  0  0  0
 50123  1  0  0  0
 51 52  1  0  0  0
 51124  1  0  0  0
 51125  1  0  0  0
 52126  1  0  0  0
 52127  1  0  0  0
 53 54  1  0  0  0
 54 55  2  0  0  0
 54128  1  0  0  0
 55 57  1  0  0  0
 55129  1  0  0  0
 56 69  2  0  0  0
 57 58  2  0  0  0
 57130  1  0  0  0
 58131  1  0  0  0
 59 60  1  0  0  0
 59 61  1  0  0  0
 59 62  1  0  0  0
 60132  1  0  0  0
 60133  1  0  0  0
 60134  1  0  0  0
 61135  1  0  0  0
 61136  1  0  0  0
 61137  1  0  0  0
 62138  1  0  0  0
 62139  1  0  0  0
 62140  1  0  0  0
 63 65  1  0  0  0
 63141  1  0  0  0
 63142  1  0  0  0
 63143  1  0  0  0
 64144  1  0  0  0
 65145  1  0  0  0
 68 80  1  0  0  0
 71 72  1  0  0  0
 71 73  2  0  0  0
 71146  1  0  0  0
 72 74  2  0  0  0
 72 75  1  0  0  0
 73 81  1  0  0  0
 73 86  1  0  0  0
 74 82  1  0  0  0
 74 86  1  0  0  0
 75 78  1  0  0  0
 75 83  2  0  0  0
 76 77  1  0  0  0
 76 79  1  0  0  0
 76 84  2  0  0  0
 77 81  1  0  0  0
 77 85  2  0  0  0
 78147  1  0  0  0
 78148  1  0  0  0
 78149  1  0  0  0
 79 80  1  0  0  0
 79150  1  0  0  0
 79151  1  0  0  0
 80152  1  0  0  0
 80153  1  0  0  0
 81154  1  0  0  0
 82155  1  0  0  0
M  ISO  4   1 100  68 101  80 101  82 100
M  END
> <chiral flag>
0

> <version>
0

> <s_m_source_file>
/data/baiqing/PycharmProjects/Reinvent-master-3.2/result/LINK_invent/BTK/process_docking_weight1_custom_product_contain_oxygen_bond_distance_aromatic_linkinvent_7_9_3/rearranged_h_0174.sdf

> <i_m_source_file_index>
55

> <r_mmod_Potential_Energy-OPLS-2005>
-32.7204475402832

> <r_mmod_Stretch_Energy-OPLS-2005>
40.9666023254395

> <r_mmod_Bend_Energy-OPLS-2005>
110.508850097656

> <r_mmod_Torsional_Energy-OPLS-2005>
276.665802001953

> <r_mmod_Improper_Torsional_Energy-OPLS-2005>
4.55130910873413

> <r_mmod_Van_der_Waal_Energy-OPLS-2005>
136.031723022461

> <r_mmod_Electrostatic_Energy-OPLS-2005>
-374.156829833984

> <r_mmod_Solvation_Energy-OPLS-2005>
-241.109390258789

> <b_mmod_Minimization_Converged-OPLS-2005>
0

> <r_mmod_RMS_Derivative-OPLS-2005>
3.66112470626831

$$$$
55
                    3D
 Structure written by MMmdl.
159167  0  0  1  0            999 V2000
  -30.7080  -14.4701   20.5163 C   0  0  0  0  0  0
  -30.4160  -12.2871   19.4374 C   0  0  0  0  0  0
  -29.5054  -12.4944   18.2105 C   0  0  0  0  0  0
  -28.0225  -12.3560   18.6123 C   0  0  0  0  0  0
  -27.6566  -13.2106   19.8576 C   0  0  2  0  0  0
  -28.6951  -13.0319   20.9863 C   0  0  0  0  0  0
  -25.2627  -13.8164   20.5718 C   0  0  0  0  0  0
  -24.1870  -13.0434   20.9192 C   0  0  0  0  0  0
  -24.6415  -11.6899   20.8718 C   0  0  0  0  0  0
  -23.9086  -10.4289   21.0410 C   0  0  0  0  0  0
  -24.3636   -9.4202   21.9182 C   0  0  0  0  0  0
  -23.6301   -8.2238   22.0749 C   0  0  0  0  0  0
  -22.4271   -8.0297   21.3551 C   0  0  0  0  0  0
  -21.9926   -9.0273   20.4646 C   0  0  0  0  0  0
  -22.7267  -10.2147   20.3040 C   0  0  0  0  0  0
  -21.6865   -6.0757   22.5291 C   0  0  0  0  0  0
  -21.4036   -6.5640   23.8241 C   0  0  0  0  0  0
  -21.3631   -5.6778   24.9190 C   0  0  0  0  0  0
  -21.6021   -4.3048   24.7226 C   0  0  0  0  0  0
  -21.8811   -3.8155   23.4352 C   0  0  0  0  0  0
  -21.9199   -4.6984   22.3408 C   0  0  0  0  0  0
  -22.7892  -13.5248   21.1846 C   0  0  0  0  0  0
  -22.1661   -4.2171   21.0978 F   0  0  0  0  0  0
  -21.5594   -3.4522   25.7726 F   0  0  0  0  0  0
  -30.0301  -13.2968   20.4325 N   0  0  0  0  0  0
  -26.3019  -12.9332   20.3261 N   0  0  0  0  0  0
  -25.9333  -11.6488   20.5672 N   0  0  0  0  0  0
  -22.0507  -12.8256   22.0392 N   0  0  0  0  0  0
  -25.4405  -15.1887   20.4196 N   0  0  0  0  0  0
  -31.8822  -14.5573   20.1457 O   0  0  0  0  0  0
  -21.6622   -6.8907   21.4248 O   0  0  0  0  0  0
  -22.3583  -14.5549   20.6668 O   0  0  0  0  0  0
  -24.6155  -31.8663   23.2089 C   0  0  0  0  0  0
  -25.9043  -32.4799   23.8405 C   0  0  1  0  0  0
  -27.2334  -27.4316   20.1152 C   0  0  0  0  0  0
  -25.5902  -33.8604   24.2332 N   0  0  0  0  0  0
  -23.4040  -30.4894   21.5501 C   0  0  2  0  0  0
  -24.8512  -28.9531   20.1140 C   0  0  0  0  0  0
  -22.7411  -29.4657   22.4997 C   0  0  0  0  0  0
  -18.0276  -28.1354   22.8491 C   0  0  0  0  0  0
  -24.1489  -36.7300   23.2633 C   0  0  0  0  0  0
  -25.9321  -30.8360   21.3573 C   0  0  0  0  0  0
  -26.0104  -29.4707   20.7060 C   0  0  0  0  0  0
  -27.2077  -28.7210   20.6940 C   0  0  0  0  0  0
  -26.0625  -26.9284   19.5092 C   0  0  0  0  0  0
  -24.8734  -27.6839   19.5079 C   0  0  0  0  0  0
  -23.6101  -29.8161   20.1655 C   0  0  0  0  0  0
  -25.4081  -36.3090   24.0361 C   0  0  1  0  0  0
  -20.5870  -28.3652   23.1308 C   0  0  2  0  0  0
  -20.6753  -26.9381   22.5397 C   0  0  0  0  0  0
  -19.5728  -26.6372   21.5184 C   0  0  0  0  0  0
  -18.1915  -26.7915   22.1605 C   0  0  0  0  0  0
  -19.1528  -28.8823   23.2905 C   0  0  0  0  0  0
  -18.9457  -30.1443   23.8898 C   0  0  0  0  0  0
  -17.6459  -30.6574   24.0555 C   0  0  0  0  0  0
  -25.9025  -34.9462   23.5136 C   0  0  0  0  0  0
  -16.5339  -29.9059   23.6337 C   0  0  0  0  0  0
  -16.7265  -28.6477   23.0354 C   0  0  0  0  0  0
  -26.4466  -31.6578   25.0745 C   0  0  0  0  0  0
  -25.3753  -31.3708   26.1534 C   0  0  0  0  0  0
  -27.0253  -30.3023   24.6085 C   0  0  0  0  0  0
  -27.6091  -32.4263   25.7448 C   0  0  0  0  0  0
  -27.5601  -37.1762   24.8434 C   0  0  0  0  0  0
  -21.4135  -29.3035   22.3728 N   0  0  0  0  0  0
  -26.4253  -37.3792   23.9458 N   0  0  0  0  0  0
  -24.6691  -31.0771   22.0968 N   0  0  0  0  0  0
  -23.4179  -28.8177   23.3021 O   0  0  0  0  0  0
  -28.3953  -26.6945   20.1394 O   0  0  0  0  0  0
  -26.5593  -34.8917   22.4705 O   0  0  0  0  0  0
  -23.5357  -32.1406   23.7487 O   0  0  0  0  0  0
  -29.7796  -18.4227   18.4108 C   0  0  0  0  0  0
  -29.6129  -19.8048   18.2639 C   0  0  0  0  0  0
  -29.4504  -17.7960   19.6306 C   0  0  0  0  0  0
  -29.1132  -20.5566   19.3317 C   0  0  0  0  0  0
  -28.8665  -18.6025   20.6516 C   0  0  0  0  0  0
  -29.8306  -16.3507   19.7187 C   0  0  0  0  0  0
  -28.7235  -22.8446   19.9367 C   0  0  0  0  0  0
  -28.7931  -24.3247   19.5933 C   0  0  0  0  0  0
  -27.6539  -18.2882   22.8400 C   0  0  0  0  0  0
  -25.9157  -17.0491   24.2610 C   0  0  0  0  0  0
  -28.2779  -25.3429   20.6311 C   0  0  0  0  0  0
  -27.4136  -17.2403   23.9391 C   0  0  0  0  0  0
  -28.7245  -19.9584   20.4875 N   0  0  0  0  0  0
  -29.0837  -21.9401   19.1103 N   0  0  0  0  0  0
  -29.9426  -15.6074   20.7620 N   0  0  0  0  0  0
  -28.4700  -17.9168   21.8374 N   0  0  0  0  0  0
  -29.2592  -24.7216   18.5128 O   0  0  0  0  0  0
  -27.1001  -19.3868   22.9249 O   0  0  0  0  0  0
  -31.4675  -12.3531   19.1452 H   0  0  0  0  0  0
  -30.2882  -11.2853   19.8502 H   0  0  0  0  0  0
  -29.7530  -11.7748   17.4291 H   0  0  0  0  0  0
  -29.6862  -13.4814   17.7814 H   0  0  0  0  0  0
  -27.8443  -11.3017   18.8205 H   0  0  0  0  0  0
  -27.3746  -12.6139   17.7733 H   0  0  0  0  0  0
  -27.6843  -14.2510   19.5369 H   0  0  0  0  0  0
  -28.6557  -12.0162   21.3819 H   0  0  0  0  0  0
  -28.4737  -13.6910   21.8258 H   0  0  0  0  0  0
  -25.2796   -9.5668   22.4731 H   0  0  0  0  0  0
  -24.0027   -7.4631   22.7443 H   0  0  0  0  0  0
  -21.0871   -8.8818   19.8940 H   0  0  0  0  0  0
  -22.3766  -10.9690   19.6115 H   0  0  0  0  0  0
  -21.2049   -7.6151   23.9756 H   0  0  0  0  0  0
  -21.1417   -6.0492   25.9089 H   0  0  0  0  0  0
  -22.0598   -2.7622   23.2826 H   0  0  0  0  0  0
  -22.4077  -11.9918   22.4818 H   0  0  0  0  0  0
  -21.1105  -13.1298   22.2509 H   0  0  0  0  0  0
  -24.6863  -15.8556   20.5432 H   0  0  0  0  0  0
  -26.3055  -15.6153   20.1186 H   0  0  0  0  0  0
  -26.7126  -32.5516   23.1178 H   0  0  0  0  0  0
  -25.0105  -33.9756   25.0522 H   0  0  0  0  0  0
  -22.6932  -31.3063   21.4105 H   0  0  0  0  0  0
  -23.3783  -35.9595   23.3176 H   0  0  0  0  0  0
  -24.3654  -36.9022   22.2082 H   0  0  0  0  0  0
  -23.7187  -37.6449   23.6714 H   0  0  0  0  0  0
  -26.0451  -31.6057   20.5923 H   0  0  0  0  0  0
  -26.8210  -30.8908   21.9730 H   0  0  0  0  0  0
  -28.1042  -29.1151   21.1512 H   0  0  0  0  0  0
  -26.0696  -25.9551   19.0393 H   0  0  0  0  0  0
  -23.9850  -27.2778   19.0440 H   0  0  0  0  0  0
  -23.7079  -30.5845   19.3975 H   0  0  0  0  0  0
  -22.7359  -29.2272   19.8829 H   0  0  0  0  0  0
  -25.1236  -36.1935   25.0849 H   0  0  0  0  0  0
  -20.9997  -28.3215   24.1412 H   0  0  0  0  0  0
  -20.5617  -26.2242   23.3571 H   0  0  0  0  0  0
  -21.6634  -26.7405   22.1212 H   0  0  0  0  0  0
  -19.6856  -25.6284   21.1212 H   0  0  0  0  0  0
  -19.6636  -27.3174   20.6703 H   0  0  0  0  0  0
  -17.4168  -26.6696   21.4015 H   0  0  0  0  0  0
  -18.0284  -26.0050   22.8992 H   0  0  0  0  0  0
  -19.7931  -30.7264   24.2236 H   0  0  0  0  0  0
  -17.5001  -31.6245   24.5151 H   0  0  0  0  0  0
  -15.5337  -30.2931   23.7651 H   0  0  0  0  0  0
  -15.8678  -28.0771   22.7065 H   0  0  0  0  0  0
  -24.5802  -30.7200   25.7886 H   0  0  0  0  0  0
  -24.9095  -32.2886   26.5138 H   0  0  0  0  0  0
  -25.8116  -30.8726   27.0201 H   0  0  0  0  0  0
  -26.2758  -29.6783   24.1207 H   0  0  0  0  0  0
  -27.4123  -29.7268   25.4503 H   0  0  0  0  0  0
  -27.8556  -30.4366   23.9145 H   0  0  0  0  0  0
  -27.2822  -33.3641   26.1947 H   0  0  0  0  0  0
  -28.3903  -32.6668   25.0227 H   0  0  0  0  0  0
  -28.0719  -31.8398   26.5392 H   0  0  0  0  0  0
  -28.2494  -38.0183   24.7676 H   0  0  0  0  0  0
  -28.1213  -36.2733   24.5967 H   0  0  0  0  0  0
  -27.2384  -37.1101   25.8844 H   0  0  0  0  0  0
  -20.9255  -29.8765   21.6985 H   0  0  0  0  0  0
  -26.0130  -38.2852   24.1527 H   0  0  0  0  0  0
  -30.2071  -17.8613   17.5914 H   0  0  0  0  0  0
  -29.9132  -20.2820   17.3391 H   0  0  0  0  0  0
  -30.1001  -15.9401   18.7363 H   0  0  0  0  0  0
  -28.3510  -22.5837   20.9348 H   0  0  0  0  0  0
  -25.7786  -16.2471   24.9876 H   0  0  0  0  0  0
  -25.3375  -16.7789   23.3735 H   0  0  0  0  0  0
  -25.4718  -17.9563   24.6796 H   0  0  0  0  0  0
  -28.8864  -25.2575   21.5340 H   0  0  0  0  0  0
  -27.2553  -25.0920   20.9244 H   0  0  0  0  0  0
  -27.9533  -17.5606   24.8333 H   0  0  0  0  0  0
  -27.8445  -16.2778   23.6541 H   0  0  0  0  0  0
  -28.8103  -16.9649   21.8900 H   0  0  0  0  0  0
  1 25  1  0  0  0
  1 30  2  0  0  0
  1 85  1  0  0  0
  2  3  1  0  0  0
  2 25  1  0  0  0
  2 89  1  0  0  0
  2 90  1  0  0  0
  3  4  1  0  0  0
  3 91  1  0  0  0
  3 92  1  0  0  0
  4  5  1  0  0  0
  4 93  1  0  0  0
  4 94  1  0  0  0
  5  6  1  0  0  0
  5 26  1  0  0  0
  5 95  1  0  0  0
  6 25  1  0  0  0
  6 96  1  0  0  0
  6 97  1  0  0  0
  7  8  2  0  0  0
  7 26  1  0  0  0
  7 29  1  0  0  0
  8  9  1  0  0  0
  8 22  1  0  0  0
  9 10  1  0  0  0
  9 27  2  0  0  0
 10 11  2  0  0  0
 10 15  1  0  0  0
 11 12  1  0  0  0
 11 98  1  0  0  0
 12 13  2  0  0  0
 12 99  1  0  0  0
 13 14  1  0  0  0
 13 31  1  0  0  0
 14 15  2  0  0  0
 14100  1  0  0  0
 15101  1  0  0  0
 16 17  2  0  0  0
 16 21  1  0  0  0
 16 31  1  0  0  0
 17 18  1  0  0  0
 17102  1  0  0  0
 18 19  2  0  0  0
 18103  1  0  0  0
 19 20  1  0  0  0
 19 24  1  0  0  0
 20 21  2  0  0  0
 20104  1  0  0  0
 21 23  1  0  0  0
 22 28  1  0  0  0
 22 32  2  0  0  0
 26 27  1  0  0  0
 28105  1  0  0  0
 28106  1  0  0  0
 29107  1  0  0  0
 29108  1  0  0  0
 33 34  1  0  0  0
 33 66  1  0  0  0
 33 70  2  0  0  0
 34 36  1  0  0  0
 34 59  1  0  0  0
 34109  1  0  0  0
 35 44  2  0  0  0
 35 45  1  0  0  0
 35 68  1  0  0  0
 36 56  1  0  0  0
 36110  1  0  0  0
 37 39  1  0  0  0
 37 47  1  0  0  0
 37 66  1  0  0  0
 37111  1  0  0  0
 38 43  2  0  0  0
 38 46  1  0  0  0
 38 47  1  0  0  0
 39 64  1  0  0  0
 39 67  2  0  0  0
 40 52  1  0  0  0
 40 53  2  0  0  0
 40 58  1  0  0  0
 41112  1  0  0  0
 41113  1  0  0  0
 41114  1  0  0  0
 41 48  1  0  0  0
 42 43  1  0  0  0
 42 66  1  0  0  0
 42115  1  0  0  0
 42116  1  0  0  0
 43 44  1  0  0  0
 44117  1  0  0  0
 45 46  2  0  0  0
 45118  1  0  0  0
 46119  1  0  0  0
 47120  1  0  0  0
 47121  1  0  0  0
 48 56  1  0  0  0
 48 65  1  0  0  0
 48122  1  0  0  0
 49 50  1  0  0  0
 49 53  1  0  0  0
 49 64  1  0  0  0
 49123  1  0  0  0
 50 51  1  0  0  0
 50124  1  0  0  0
 50125  1  0  0  0
 51 52  1  0  0  0
 51126  1  0  0  0
 51127  1  0  0  0
 52128  1  0  0  0
 52129  1  0  0  0
 53 54  1  0  0  0
 54 55  2  0  0  0
 54130  1  0  0  0
 55 57  1  0  0  0
 55131  1  0  0  0
 56 69  2  0  0  0
 57 58  2  0  0  0
 57132  1  0  0  0
 58133  1  0  0  0
 59 60  1  0  0  0
 59 61  1  0  0  0
 59 62  1  0  0  0
 60134  1  0  0  0
 60135  1  0  0  0
 60136  1  0  0  0
 61137  1  0  0  0
 61138  1  0  0  0
 61139  1  0  0  0
 62140  1  0  0  0
 62141  1  0  0  0
 62142  1  0  0  0
 63 65  1  0  0  0
 63143  1  0  0  0
 63144  1  0  0  0
 63145  1  0  0  0
 64146  1  0  0  0
 65147  1  0  0  0
 68 81  1  0  0  0
 71 72  2  0  0  0
 71 73  1  0  0  0
 71148  1  0  0  0
 72 74  1  0  0  0
 72149  1  0  0  0
 73 75  2  0  0  0
 73 76  1  0  0  0
 74 83  2  0  0  0
 74 84  1  0  0  0
 75 83  1  0  0  0
 75 86  1  0  0  0
 76 85  2  0  0  0
 76150  1  0  0  0
 77 78  1  0  0  0
 77 84  2  0  0  0
 77151  1  0  0  0
 78 81  1  0  0  0
 78 87  2  0  0  0
 79 82  1  0  0  0
 79 86  1  0  0  0
 79 88  2  0  0  0
 80 82  1  0  0  0
 80152  1  0  0  0
 80153  1  0  0  0
 80154  1  0  0  0
 81155  1  0  0  0
 81156  1  0  0  0
 82157  1  0  0  0
 82158  1  0  0  0
 86159  1  0  0  0
M  ISO  4   1 100  68 101  81 101  85 100
M  END
> <chiral flag>
0

> <version>
0

> <s_m_source_file>
/data/baiqing/PycharmProjects/Reinvent-master-3.2/result/LINK_invent/BTK/process_docking_weight1_custom_product_contain_oxygen_bond_distance_aromatic_linkinvent_7_9_3/rearranged_h_0174.sdf

> <i_m_source_file_index>
56

> <r_mmod_Potential_Energy-OPLS-2005>
-198.556259155273

> <r_mmod_Stretch_Energy-OPLS-2005>
43.3723907470703

> <r_mmod_Bend_Energy-OPLS-2005>
129.995941162109

> <r_mmod_Torsional_Energy-OPLS-2005>
202.060882568359

> <r_mmod_Improper_Torsional_Energy-OPLS-2005>
7.23197984695435

> <r_mmod_Van_der_Waal_Energy-OPLS-2005>
165.158401489258

> <r_mmod_Electrostatic_Energy-OPLS-2005>
-518.825744628906

> <r_mmod_Solvation_Energy-OPLS-2005>
-245.630477905273

> <b_mmod_Minimization_Converged-OPLS-2005>
0

> <r_mmod_RMS_Derivative-OPLS-2005>
4.31987905502319

$$$$
56
                    3D
 Structure written by MMmdl.
156164  0  0  1  0            999 V2000
  -30.7068  -14.4971   20.5813 C   0  0  0  0  0  0
  -30.4228  -12.3244   19.4278 C   0  0  0  0  0  0
  -29.4945  -12.4766   18.2055 C   0  0  0  0  0  0
  -28.0141  -12.3523   18.6191 C   0  0  0  0  0  0
  -27.6548  -13.2062   19.8646 C   0  0  2  0  0  0
  -28.6955  -13.0149   20.9864 C   0  0  0  0  0  0
  -25.2574  -13.8159   20.5677 C   0  0  0  0  0  0
  -24.1826  -13.0437   20.9175 C   0  0  0  0  0  0
  -24.6380  -11.6904   20.8735 C   0  0  0  0  0  0
  -23.9050  -10.4291   21.0407 C   0  0  0  0  0  0
  -24.3608   -9.4207   21.9181 C   0  0  0  0  0  0
  -23.6287   -8.2242   22.0753 C   0  0  0  0  0  0
  -22.4270   -8.0278   21.3545 C   0  0  0  0  0  0
  -21.9901   -9.0250   20.4647 C   0  0  0  0  0  0
  -22.7225  -10.2131   20.3055 C   0  0  0  0  0  0
  -21.6852   -6.0731   22.5279 C   0  0  0  0  0  0
  -21.4013   -6.5637   23.8211 C   0  0  0  0  0  0
  -21.3659   -5.6790   24.9174 C   0  0  0  0  0  0
  -21.6045   -4.3053   24.7227 C   0  0  0  0  0  0
  -21.8819   -3.8144   23.4348 C   0  0  0  0  0  0
  -21.9192   -4.6959   22.3403 C   0  0  0  0  0  0
  -22.7853  -13.5238   21.1846 C   0  0  0  0  0  0
  -22.1661   -4.2144   21.0980 F   0  0  0  0  0  0
  -21.5630   -3.4538   25.7741 F   0  0  0  0  0  0
  -30.0208  -13.3273   20.4283 N   0  0  0  0  0  0
  -26.2990  -12.9320   20.3326 N   0  0  0  0  0  0
  -25.9302  -11.6483   20.5754 N   0  0  0  0  0  0
  -22.0498  -12.8231   22.0406 N   0  0  0  0  0  0
  -25.4317  -15.1877   20.4103 N   0  0  0  0  0  0
  -31.8422  -14.6600   20.1239 O   0  0  0  0  0  0
  -21.6638   -6.8874   21.4241 O   0  0  0  0  0  0
  -22.3539  -14.5546   20.6699 O   0  0  0  0  0  0
  -24.6153  -31.8667   23.2079 C   0  0  0  0  0  0
  -25.9040  -32.4817   23.8381 C   0  0  1  0  0  0
  -27.2339  -27.4226   20.1084 C   0  0  0  0  0  0
  -25.5894  -33.8615   24.2317 N   0  0  0  0  0  0
  -23.4042  -30.4884   21.5489 C   0  0  2  0  0  0
  -24.8513  -28.9479   20.1183 C   0  0  0  0  0  0
  -22.7413  -29.4653   22.4992 C   0  0  0  0  0  0
  -18.0271  -28.1378   22.8492 C   0  0  0  0  0  0
  -24.1488  -36.7314   23.2639 C   0  0  0  0  0  0
  -25.9328  -30.8304   21.3605 C   0  0  0  0  0  0
  -26.0118  -29.4621   20.7112 C   0  0  0  0  0  0
  -27.2091  -28.7087   20.6974 C   0  0  0  0  0  0
  -26.0587  -26.9201   19.5142 C   0  0  0  0  0  0
  -24.8701  -27.6768   19.5155 C   0  0  0  0  0  0
  -23.6134  -29.8163   20.1652 C   0  0  0  0  0  0
  -25.4109  -36.3111   24.0338 C   0  0  1  0  0  0
  -20.5861  -28.3664   23.1320 C   0  0  2  0  0  0
  -20.6763  -26.9402   22.5420 C   0  0  0  0  0  0
  -19.5744  -26.6387   21.5214 C   0  0  0  0  0  0
  -18.1920  -26.7923   22.1623 C   0  0  0  0  0  0
  -19.1519  -28.8837   23.2902 C   0  0  0  0  0  0
  -18.9448  -30.1441   23.8914 C   0  0  0  0  0  0
  -17.6453  -30.6585   24.0566 C   0  0  0  0  0  0
  -25.9036  -34.9475   23.5127 C   0  0  0  0  0  0
  -16.5343  -29.9089   23.6327 C   0  0  0  0  0  0
  -16.7260  -28.6504   23.0349 C   0  0  0  0  0  0
  -26.4468  -31.6597   25.0711 C   0  0  0  0  0  0
  -25.3736  -31.3700   26.1462 C   0  0  0  0  0  0
  -27.0296  -30.3041   24.6078 C   0  0  0  0  0  0
  -27.6050  -32.4311   25.7469 C   0  0  0  0  0  0
  -27.5582  -37.1809   24.8465 C   0  0  0  0  0  0
  -21.4140  -29.3030   22.3727 N   0  0  0  0  0  0
  -26.4297  -37.3794   23.9407 N   0  0  0  0  0  0
  -24.6691  -31.0763   22.0979 N   0  0  0  0  0  0
  -23.4179  -28.8203   23.3045 O   0  0  0  0  0  0
  -28.3948  -26.6797   20.0850 O   0  0  0  0  0  0
  -26.5603  -34.8929   22.4692 O   0  0  0  0  0  0
  -23.5343  -32.1419   23.7471 O   0  0  0  0  0  0
  -29.3771  -16.4818   18.8758 C   0  0  0  0  0  0
  -29.0784  -17.5453   18.0089 C   0  0  0  0  0  0
  -29.6601  -16.6984   20.2483 C   0  0  0  0  0  0
  -29.2388  -19.1324   19.8585 C   0  0  0  0  0  0
  -29.0298  -18.8641   18.4840 C   0  0  0  0  0  0
  -29.5764  -18.0511   20.7242 C   0  0  0  0  0  0
  -28.7496  -22.8533   20.7119 C   0  0  0  0  0  0
  -28.3922  -21.4959   20.0206 C   0  0  0  0  0  0
  -30.0500  -15.6946   22.5464 C   0  0  0  0  0  0
  -28.3796  -24.1586   19.9601 C   0  0  0  0  0  0
  -28.3818  -25.4460   20.8332 C   0  0  0  0  0  0
  -29.2045  -20.4736   20.3783 N   0  0  0  0  0  0
  -30.0169  -15.5582   21.0855 N   0  0  0  0  0  0
  -29.3224  -22.8823   21.8084 O   0  0  0  0  0  0
  -27.4184  -21.3922   19.2678 O   0  0  0  0  0  0
  -28.8287  -19.8614   17.5894 F   0  0  0  0  0  0
  -29.8398  -18.3535   22.0192 F   0  0  0  0  0  0
  -31.4659  -12.4281   19.1236 H   0  0  0  0  0  0
  -30.3365  -11.3223   19.8506 H   0  0  0  0  0  0
  -29.7332  -11.7160   17.4609 H   0  0  0  0  0  0
  -29.6695  -13.4339   17.7161 H   0  0  0  0  0  0
  -27.8232  -11.2995   18.8296 H   0  0  0  0  0  0
  -27.3651  -12.6140   17.7825 H   0  0  0  0  0  0
  -27.6865  -14.2493   19.5539 H   0  0  0  0  0  0
  -28.6814  -11.9869   21.3509 H   0  0  0  0  0  0
  -28.4404  -13.6345   21.8455 H   0  0  0  0  0  0
  -25.2755   -9.5684   22.4751 H   0  0  0  0  0  0
  -23.9998   -7.4633   22.7470 H   0  0  0  0  0  0
  -21.0832   -8.8766   19.8953 H   0  0  0  0  0  0
  -22.3683  -10.9668   19.6164 H   0  0  0  0  0  0
  -21.2006   -7.6146   23.9713 H   0  0  0  0  0  0
  -21.1481   -6.0522   25.9076 H   0  0  0  0  0  0
  -22.0600   -2.7606   23.2851 H   0  0  0  0  0  0
  -22.4113  -11.9890   22.4790 H   0  0  0  0  0  0
  -21.1120  -13.1261   22.2621 H   0  0  0  0  0  0
  -24.6701  -15.8473   20.5258 H   0  0  0  0  0  0
  -26.2943  -15.6253   20.1132 H   0  0  0  0  0  0
  -26.7114  -32.5531   23.1149 H   0  0  0  0  0  0
  -25.0046  -33.9773   25.0463 H   0  0  0  0  0  0
  -22.6938  -31.3055   21.4074 H   0  0  0  0  0  0
  -23.3747  -35.9651   23.3314 H   0  0  0  0  0  0
  -24.3581  -36.8917   22.2050 H   0  0  0  0  0  0
  -23.7242  -37.6523   23.6647 H   0  0  0  0  0  0
  -26.0432  -31.5944   20.5896 H   0  0  0  0  0  0
  -26.8213  -30.8872   21.9777 H   0  0  0  0  0  0
  -28.1087  -29.1032   21.1491 H   0  0  0  0  0  0
  -26.0635  -25.9470   19.0447 H   0  0  0  0  0  0
  -23.9783  -27.2750   19.0543 H   0  0  0  0  0  0
  -23.7226  -30.5889   19.4032 H   0  0  0  0  0  0
  -22.7373  -29.2357   19.8708 H   0  0  0  0  0  0
  -25.1287  -36.1980   25.0832 H   0  0  0  0  0  0
  -20.9951  -28.3232   24.1442 H   0  0  0  0  0  0
  -20.5670  -26.2272   23.3606 H   0  0  0  0  0  0
  -21.6635  -26.7452   22.1210 H   0  0  0  0  0  0
  -19.6910  -25.6303   21.1231 H   0  0  0  0  0  0
  -19.6686  -27.3209   20.6753 H   0  0  0  0  0  0
  -17.4194  -26.6674   21.4021 H   0  0  0  0  0  0
  -18.0320  -26.0060   22.9013 H   0  0  0  0  0  0
  -19.7926  -30.7247   24.2297 H   0  0  0  0  0  0
  -17.5011  -31.6268   24.5161 H   0  0  0  0  0  0
  -15.5345  -30.2998   23.7639 H   0  0  0  0  0  0
  -15.8659  -28.0829   22.7058 H   0  0  0  0  0  0
  -24.5909  -30.7047   25.7799 H   0  0  0  0  0  0
  -24.8925  -32.2852   26.4923 H   0  0  0  0  0  0
  -25.8089  -30.8861   27.0214 H   0  0  0  0  0  0
  -26.2833  -29.6804   24.1143 H   0  0  0  0  0  0
  -27.4083  -29.7276   25.4528 H   0  0  0  0  0  0
  -27.8660  -30.4366   23.9211 H   0  0  0  0  0  0
  -27.2678  -33.3603   26.2075 H   0  0  0  0  0  0
  -28.3840  -32.6882   25.0279 H   0  0  0  0  0  0
  -28.0739  -31.8415   26.5357 H   0  0  0  0  0  0
  -28.2609  -38.0097   24.7510 H   0  0  0  0  0  0
  -28.1067  -36.2630   24.6296 H   0  0  0  0  0  0
  -27.2300  -37.1470   25.8868 H   0  0  0  0  0  0
  -20.9306  -29.8747   21.6943 H   0  0  0  0  0  0
  -26.0189  -38.2876   24.1403 H   0  0  0  0  0  0
  -29.4064  -15.4940   18.4469 H   0  0  0  0  0  0
  -28.9058  -17.3512   16.9603 H   0  0  0  0  0  0
  -30.8975  -16.3074   22.8564 H   0  0  0  0  0  0
  -30.1485  -14.7337   23.0560 H   0  0  0  0  0  0
  -29.1312  -16.1532   22.9134 H   0  0  0  0  0  0
  -27.4050  -24.0320   19.4901 H   0  0  0  0  0  0
  -29.1006  -24.2717   19.1513 H   0  0  0  0  0  0
  -29.2802  -25.4649   21.4512 H   0  0  0  0  0  0
  -27.5450  -25.4188   21.5343 H   0  0  0  0  0  0
  -29.8279  -20.6770   21.1481 H   0  0  0  0  0  0
  1 25  1  0  0  0
  1 30  2  0  0  0
  1 83  1  0  0  0
  2  3  1  0  0  0
  2 25  1  0  0  0
  2 88  1  0  0  0
  2 89  1  0  0  0
  3  4  1  0  0  0
  3 90  1  0  0  0
  3 91  1  0  0  0
  4  5  1  0  0  0
  4 92  1  0  0  0
  4 93  1  0  0  0
  5  6  1  0  0  0
  5 26  1  0  0  0
  5 94  1  0  0  0
  6 25  1  0  0  0
  6 95  1  0  0  0
  6 96  1  0  0  0
  7  8  2  0  0  0
  7 26  1  0  0  0
  7 29  1  0  0  0
  8  9  1  0  0  0
  8 22  1  0  0  0
  9 10  1  0  0  0
  9 27  2  0  0  0
 10 11  2  0  0  0
 10 15  1  0  0  0
 11 12  1  0  0  0
 11 97  1  0  0  0
 12 13  2  0  0  0
 12 98  1  0  0  0
 13 14  1  0  0  0
 13 31  1  0  0  0
 14 15  2  0  0  0
 14 99  1  0  0  0
 15100  1  0  0  0
 16 17  2  0  0  0
 16 21  1  0  0  0
 16 31  1  0  0  0
 17 18  1  0  0  0
 17101  1  0  0  0
 18 19  2  0  0  0
 18102  1  0  0  0
 19 20  1  0  0  0
 19 24  1  0  0  0
 20 21  2  0  0  0
 20103  1  0  0  0
 21 23  1  0  0  0
 22 28  1  0  0  0
 22 32  2  0  0  0
 26 27  1  0  0  0
 28104  1  0  0  0
 28105  1  0  0  0
 29106  1  0  0  0
 29107  1  0  0  0
 33 34  1  0  0  0
 33 66  1  0  0  0
 33 70  2  0  0  0
 34 36  1  0  0  0
 34 59  1  0  0  0
 34108  1  0  0  0
 35 44  2  0  0  0
 35 45  1  0  0  0
 35 68  1  0  0  0
 36 56  1  0  0  0
 36109  1  0  0  0
 37 39  1  0  0  0
 37 47  1  0  0  0
 37 66  1  0  0  0
 37110  1  0  0  0
 38 43  2  0  0  0
 38 46  1  0  0  0
 38 47  1  0  0  0
 39 64  1  0  0  0
 39 67  2  0  0  0
 40 52  1  0  0  0
 40 53  2  0  0  0
 40 58  1  0  0  0
 41111  1  0  0  0
 41112  1  0  0  0
 41113  1  0  0  0
 41 48  1  0  0  0
 42 43  1  0  0  0
 42 66  1  0  0  0
 42114  1  0  0  0
 42115  1  0  0  0
 43 44  1  0  0  0
 44116  1  0  0  0
 45 46  2  0  0  0
 45117  1  0  0  0
 46118  1  0  0  0
 47119  1  0  0  0
 47120  1  0  0  0
 48 56  1  0  0  0
 48 65  1  0  0  0
 48121  1  0  0  0
 49 50  1  0  0  0
 49 53  1  0  0  0
 49 64  1  0  0  0
 49122  1  0  0  0
 50 51  1  0  0  0
 50123  1  0  0  0
 50124  1  0  0  0
 51 52  1  0  0  0
 51125  1  0  0  0
 51126  1  0  0  0
 52127  1  0  0  0
 52128  1  0  0  0
 53 54  1  0  0  0
 54 55  2  0  0  0
 54129  1  0  0  0
 55 57  1  0  0  0
 55130  1  0  0  0
 56 69  2  0  0  0
 57 58  2  0  0  0
 57131  1  0  0  0
 58132  1  0  0  0
 59 60  1  0  0  0
 59 61  1  0  0  0
 59 62  1  0  0  0
 60133  1  0  0  0
 60134  1  0  0  0
 60135  1  0  0  0
 61136  1  0  0  0
 61137  1  0  0  0
 61138  1  0  0  0
 62139  1  0  0  0
 62140  1  0  0  0
 62141  1  0  0  0
 63 65  1  0  0  0
 63142  1  0  0  0
 63143  1  0  0  0
 63144  1  0  0  0
 64145  1  0  0  0
 65146  1  0  0  0
 68 81  1  0  0  0
 71 72  2  0  0  0
 71 73  1  0  0  0
 71147  1  0  0  0
 72 75  1  0  0  0
 72148  1  0  0  0
 73 76  2  0  0  0
 73 83  1  0  0  0
 74 75  2  0  0  0
 74 76  1  0  0  0
 74 82  1  0  0  0
 75 86  1  0  0  0
 76 87  1  0  0  0
 77 78  1  0  0  0
 77 80  1  0  0  0
 77 84  2  0  0  0
 78 82  1  0  0  0
 78 85  2  0  0  0
 79 83  1  0  0  0
 79149  1  0  0  0
 79150  1  0  0  0
 79151  1  0  0  0
 80 81  1  0  0  0
 80152  1  0  0  0
 80153  1  0  0  0
 81154  1  0  0  0
 81155  1  0  0  0
 82156  1  0  0  0
M  ISO  4   1 100  68 101  81 101  83 100
M  END
> <chiral flag>
0

> <version>
0

> <s_m_source_file>
/data/baiqing/PycharmProjects/Reinvent-master-3.2/result/LINK_invent/BTK/process_docking_weight1_custom_product_contain_oxygen_bond_distance_aromatic_linkinvent_7_9_3/rearranged_h_0174.sdf

> <i_m_source_file_index>
57

> <r_mmod_Potential_Energy-OPLS-2005>
68.6148300170898

> <r_mmod_Stretch_Energy-OPLS-2005>
49.5795135498047

> <r_mmod_Bend_Energy-OPLS-2005>
102.981742858887

> <r_mmod_Torsional_Energy-OPLS-2005>
319.884613037109

> <r_mmod_Improper_Torsional_Energy-OPLS-2005>
5.4180645942688

> <r_mmod_Van_der_Waal_Energy-OPLS-2005>
158.220672607422

> <r_mmod_Electrostatic_Energy-OPLS-2005>
-369.778717041016

> <r_mmod_Solvation_Energy-OPLS-2005>
-212.968719482422

> <b_mmod_Minimization_Converged-OPLS-2005>
0

> <r_mmod_RMS_Derivative-OPLS-2005>
0.309304744005203

$$$$
57
                    3D
 Structure written by MMmdl.
166174  0  0  1  0            999 V2000
  -30.6594  -14.4822   20.6351 C   0  0  0  0  0  0
  -30.4472  -12.3435   19.3958 C   0  0  0  0  0  0
  -29.4983  -12.5453   18.1942 C   0  0  0  0  0  0
  -28.0225  -12.3700   18.6113 C   0  0  0  0  0  0
  -27.6686  -13.1956   19.8743 C   0  0  2  0  0  0
  -28.7084  -12.9193   20.9828 C   0  0  0  0  0  0
  -25.2619  -13.8148   20.5614 C   0  0  0  0  0  0
  -24.1860  -13.0438   20.9133 C   0  0  0  0  0  0
  -24.6408  -11.6897   20.8671 C   0  0  0  0  0  0
  -23.9077  -10.4292   21.0345 C   0  0  0  0  0  0
  -24.3630   -9.4227   21.9151 C   0  0  0  0  0  0
  -23.6295   -8.2269   22.0755 C   0  0  0  0  0  0
  -22.4274   -8.0297   21.3530 C   0  0  0  0  0  0
  -21.9901   -9.0274   20.4640 C   0  0  0  0  0  0
  -22.7241  -10.2141   20.3008 C   0  0  0  0  0  0
  -21.6884   -6.0741   22.5273 C   0  0  0  0  0  0
  -21.4028   -6.5639   23.8211 C   0  0  0  0  0  0
  -21.3645   -5.6785   24.9170 C   0  0  0  0  0  0
  -21.6039   -4.3053   24.7212 C   0  0  0  0  0  0
  -21.8829   -3.8150   23.4338 C   0  0  0  0  0  0
  -21.9197   -4.6966   22.3393 C   0  0  0  0  0  0
  -22.7886  -13.5232   21.1822 C   0  0  0  0  0  0
  -22.1659   -4.2162   21.0960 F   0  0  0  0  0  0
  -21.5607   -3.4529   25.7711 F   0  0  0  0  0  0
  -30.0477  -13.2758   20.4610 N   0  0  0  0  0  0
  -26.3046  -12.9306   20.3307 N   0  0  0  0  0  0
  -25.9322  -11.6473   20.5672 N   0  0  0  0  0  0
  -22.0511  -12.8220   22.0378 N   0  0  0  0  0  0
  -25.4410  -15.1855   20.4004 N   0  0  0  0  0  0
  -31.7042  -14.8043   20.0575 O   0  0  0  0  0  0
  -21.6638   -6.8885   21.4226 O   0  0  0  0  0  0
  -22.3572  -14.5558   20.6732 O   0  0  0  0  0  0
  -24.6149  -31.8656   23.2075 C   0  0  0  0  0  0
  -25.9024  -32.4827   23.8359 C   0  0  1  0  0  0
  -27.2447  -27.4065   20.1141 C   0  0  0  0  0  0
  -25.5863  -33.8638   24.2259 N   0  0  0  0  0  0
  -23.4083  -30.4845   21.5460 C   0  0  2  0  0  0
  -24.8604  -28.9381   20.1174 C   0  0  0  0  0  0
  -22.7420  -29.4622   22.4943 C   0  0  0  0  0  0
  -18.0300  -28.1404   22.8469 C   0  0  0  0  0  0
  -24.1477  -36.7358   23.2635 C   0  0  0  0  0  0
  -25.9388  -30.8169   21.3720 C   0  0  0  0  0  0
  -26.0160  -29.4476   20.7196 C   0  0  0  0  0  0
  -27.2137  -28.6901   20.7111 C   0  0  0  0  0  0
  -26.0734  -26.9156   19.4999 C   0  0  0  0  0  0
  -24.8833  -27.6738   19.5025 C   0  0  0  0  0  0
  -23.6251  -29.8121   20.1601 C   0  0  0  0  0  0
  -25.4120  -36.3128   24.0288 C   0  0  1  0  0  0
  -20.5880  -28.3697   23.1344 C   0  0  2  0  0  0
  -20.6773  -26.9442   22.5432 C   0  0  0  0  0  0
  -19.5763  -26.6386   21.5227 C   0  0  0  0  0  0
  -18.1944  -26.7925   22.1623 C   0  0  0  0  0  0
  -19.1535  -28.8872   23.2876 C   0  0  0  0  0  0
  -18.9453  -30.1476   23.8892 C   0  0  0  0  0  0
  -17.6444  -30.6588   24.0595 C   0  0  0  0  0  0
  -25.9012  -34.9476   23.5071 C   0  0  0  0  0  0
  -16.5348  -29.9081   23.6358 C   0  0  0  0  0  0
  -16.7275  -28.6518   23.0337 C   0  0  0  0  0  0
  -26.4441  -31.6679   25.0737 C   0  0  0  0  0  0
  -25.3692  -31.3836   26.1483 C   0  0  0  0  0  0
  -27.0311  -30.3100   24.6239 C   0  0  0  0  0  0
  -27.5961  -32.4462   25.7510 C   0  0  0  0  0  0
  -27.5583  -37.1869   24.8435 C   0  0  0  0  0  0
  -21.4126  -29.3035   22.3689 N   0  0  0  0  0  0
  -26.4318  -37.3815   23.9347 N   0  0  0  0  0  0
  -24.6710  -31.0705   22.1005 N   0  0  0  0  0  0
  -23.4181  -28.8175   23.3003 O   0  0  0  0  0  0
  -28.4124  -26.6675   20.1076 O   0  0  0  0  0  0
  -26.5579  -34.8938   22.4646 O   0  0  0  0  0  0
  -23.5333  -32.1415   23.7441 O   0  0  0  0  0  0
  -28.8954  -19.3588   21.9817 C   0  0  0  0  0  0
  -28.3228  -18.3251   22.7351 C   0  0  0  0  0  0
  -30.2917  -17.7117   20.7961 C   0  0  0  0  0  0
  -29.8608  -19.0601   21.0049 C   0  0  0  0  0  0
  -29.7272  -16.6640   21.5897 C   0  0  0  0  0  0
  -28.7319  -16.9933   22.5437 C   0  0  0  0  0  0
  -29.3761  -22.9310   19.8643 C   0  0  0  0  0  0
  -30.3553  -22.6264   20.7604 C   0  0  0  0  0  0
  -28.8179  -24.2808   19.5215 C   0  0  0  0  0  0
  -30.8453  -21.2707   20.9273 C   0  0  0  0  0  0
  -33.7702  -22.5973   21.5962 C   0  0  0  0  0  0
  -33.7625  -20.7377   23.2957 C   0  0  0  0  0  0
  -28.3420  -25.3001   20.5921 C   0  0  0  0  0  0
  -32.8830  -21.7106   22.4950 C   0  0  0  0  0  0
  -30.3321  -20.2098   20.2479 N   0  0  0  0  0  0
  -30.0416  -15.2646   21.5361 N   0  0  0  0  0  0
  -31.8885  -20.9380   21.7300 N   0  3  0  0  0  0
  -28.6977  -24.6013   18.3354 O   0  0  0  0  0  0
  -30.9084  -23.6114   21.4901 O   0  0  0  0  0  0
  -27.9661  -15.7648   23.4940 Cl  0  0  0  0  0  0
  -31.4845  -12.4898   19.0879 H   0  0  0  0  0  0
  -30.3923  -11.3158   19.7559 H   0  0  0  0  0  0
  -29.7521  -11.8448   17.3966 H   0  0  0  0  0  0
  -29.6490  -13.5458   17.7825 H   0  0  0  0  0  0
  -27.8570  -11.3080   18.8055 H   0  0  0  0  0  0
  -27.3624  -12.6361   17.7862 H   0  0  0  0  0  0
  -27.7273  -14.2490   19.6032 H   0  0  0  0  0  0
  -28.6964  -11.8595   21.2422 H   0  0  0  0  0  0
  -28.4374  -13.4292   21.9056 H   0  0  0  0  0  0
  -25.2776   -9.5703   22.4717 H   0  0  0  0  0  0
  -24.0005   -7.4664   22.7490 H   0  0  0  0  0  0
  -21.0826   -8.8810   19.8946 H   0  0  0  0  0  0
  -22.3729  -10.9677   19.6100 H   0  0  0  0  0  0
  -21.2058   -7.6153   23.9733 H   0  0  0  0  0  0
  -21.1428   -6.0491   25.9071 H   0  0  0  0  0  0
  -22.0624   -2.7613   23.2823 H   0  0  0  0  0  0
  -22.4118  -11.9861   22.4731 H   0  0  0  0  0  0
  -21.1121  -13.1257   22.2518 H   0  0  0  0  0  0
  -24.6923  -15.8500   20.5540 H   0  0  0  0  0  0
  -26.3002  -15.6237   20.0990 H   0  0  0  0  0  0
  -26.7068  -32.5519   23.1097 H   0  0  0  0  0  0
  -25.0022  -33.9792   25.0401 H   0  0  0  0  0  0
  -22.6989  -31.3026   21.4051 H   0  0  0  0  0  0
  -23.3706  -35.9731   23.3329 H   0  0  0  0  0  0
  -24.3497  -36.8962   22.2033 H   0  0  0  0  0  0
  -23.7258  -37.6579   23.6653 H   0  0  0  0  0  0
  -26.0590  -31.5878   20.6075 H   0  0  0  0  0  0
  -26.8198  -30.8592   22.0013 H   0  0  0  0  0  0
  -28.1062  -29.0808   21.1807 H   0  0  0  0  0  0
  -26.0761  -25.9500   19.0178 H   0  0  0  0  0  0
  -24.0006  -27.2817   19.0181 H   0  0  0  0  0  0
  -23.7500  -30.5860   19.4010 H   0  0  0  0  0  0
  -22.7475  -29.2367   19.8578 H   0  0  0  0  0  0
  -25.1327  -36.2011   25.0782 H   0  0  0  0  0  0
  -20.9958  -28.3260   24.1473 H   0  0  0  0  0  0
  -20.5753  -26.2286   23.3597 H   0  0  0  0  0  0
  -21.6643  -26.7510   22.1210 H   0  0  0  0  0  0
  -19.6931  -25.6280   21.1285 H   0  0  0  0  0  0
  -19.6727  -27.3178   20.6744 H   0  0  0  0  0  0
  -17.4225  -26.6702   21.4005 H   0  0  0  0  0  0
  -18.0339  -26.0088   22.9052 H   0  0  0  0  0  0
  -19.7941  -30.7331   24.2197 H   0  0  0  0  0  0
  -17.5014  -31.6278   24.5196 H   0  0  0  0  0  0
  -15.5342  -30.2994   23.7697 H   0  0  0  0  0  0
  -15.8670  -28.0866   22.7002 H   0  0  0  0  0  0
  -24.5779  -30.7283   25.7830 H   0  0  0  0  0  0
  -24.9013  -32.3030   26.5014 H   0  0  0  0  0  0
  -25.8067  -30.8938   27.0186 H   0  0  0  0  0  0
  -26.2899  -29.6861   24.1265 H   0  0  0  0  0  0
  -27.3935  -29.7367   25.4776 H   0  0  0  0  0  0
  -27.8774  -30.4328   23.9489 H   0  0  0  0  0  0
  -27.2463  -33.3675   26.2182 H   0  0  0  0  0  0
  -28.3750  -32.7227   25.0385 H   0  0  0  0  0  0
  -28.0687  -31.8586   26.5384 H   0  0  0  0  0  0
  -28.2649  -38.0132   24.7466 H   0  0  0  0  0  0
  -28.1046  -36.2662   24.6321 H   0  0  0  0  0  0
  -27.2277  -37.1593   25.8838 H   0  0  0  0  0  0
  -20.9270  -29.8712   21.6884 H   0  0  0  0  0  0
  -26.0208  -38.2899   24.1345 H   0  0  0  0  0  0
  -28.5656  -20.3779   22.1339 H   0  0  0  0  0  0
  -27.5623  -18.5537   23.4675 H   0  0  0  0  0  0
  -31.0457  -17.4892   20.0543 H   0  0  0  0  0  0
  -28.9419  -22.1294   19.2872 H   0  0  0  0  0  0
  -34.1176  -23.4683   22.1554 H   0  0  0  0  0  0
  -33.2440  -22.9635   20.7149 H   0  0  0  0  0  0
  -34.6565  -22.0669   21.2446 H   0  0  0  0  0  0
  -34.4788  -21.2741   23.9171 H   0  0  0  0  0  0
  -34.3371  -20.0847   22.6351 H   0  0  0  0  0  0
  -33.1637  -20.1002   23.9466 H   0  0  0  0  0  0
  -28.9629  -25.2284   21.4850 H   0  0  0  0  0  0
  -27.3300  -25.0339   20.9043 H   0  0  0  0  0  0
  -32.3383  -22.3430   23.1963 H   0  0  0  0  0  0
  -30.7170  -20.0880   19.3179 H   0  0  0  0  0  0
  -29.4078  -14.7258   22.1085 H   0  0  0  0  0  0
  -32.1050  -19.9542   21.7403 H   0  0  0  0  0  0
  -30.6963  -24.4444   21.0948 H   0  0  0  0  0  0
  1 25  1  0  0  0
  1 30  2  0  0  0
  1 86  1  0  0  0
  2  3  1  0  0  0
  2 25  1  0  0  0
  2 91  1  0  0  0
  2 92  1  0  0  0
  3  4  1  0  0  0
  3 93  1  0  0  0
  3 94  1  0  0  0
  4  5  1  0  0  0
  4 95  1  0  0  0
  4 96  1  0  0  0
  5  6  1  0  0  0
  5 26  1  0  0  0
  5 97  1  0  0  0
  6 25  1  0  0  0
  6 98  1  0  0  0
  6 99  1  0  0  0
  7  8  2  0  0  0
  7 26  1  0  0  0
  7 29  1  0  0  0
  8  9  1  0  0  0
  8 22  1  0  0  0
  9 10  1  0  0  0
  9 27  2  0  0  0
 10 11  2  0  0  0
 10 15  1  0  0  0
 11 12  1  0  0  0
 11100  1  0  0  0
 12 13  2  0  0  0
 12101  1  0  0  0
 13 14  1  0  0  0
 13 31  1  0  0  0
 14 15  2  0  0  0
 14102  1  0  0  0
 15103  1  0  0  0
 16 17  2  0  0  0
 16 21  1  0  0  0
 16 31  1  0  0  0
 17 18  1  0  0  0
 17104  1  0  0  0
 18 19  2  0  0  0
 18105  1  0  0  0
 19 20  1  0  0  0
 19 24  1  0  0  0
 20 21  2  0  0  0
 20106  1  0  0  0
 21 23  1  0  0  0
 22 28  1  0  0  0
 22 32  2  0  0  0
 26 27  1  0  0  0
 28107  1  0  0  0
 28108  1  0  0  0
 29109  1  0  0  0
 29110  1  0  0  0
 33 34  1  0  0  0
 33 66  1  0  0  0
 33 70  2  0  0  0
 34 36  1  0  0  0
 34 59  1  0  0  0
 34111  1  0  0  0
 35 44  2  0  0  0
 35 45  1  0  0  0
 35 68  1  0  0  0
 36 56  1  0  0  0
 36112  1  0  0  0
 37 39  1  0  0  0
 37 47  1  0  0  0
 37 66  1  0  0  0
 37113  1  0  0  0
 38 43  2  0  0  0
 38 46  1  0  0  0
 38 47  1  0  0  0
 39 64  1  0  0  0
 39 67  2  0  0  0
 40 52  1  0  0  0
 40 53  2  0  0  0
 40 58  1  0  0  0
 41114  1  0  0  0
 41115  1  0  0  0
 41116  1  0  0  0
 41 48  1  0  0  0
 42 43  1  0  0  0
 42 66  1  0  0  0
 42117  1  0  0  0
 42118  1  0  0  0
 43 44  1  0  0  0
 44119  1  0  0  0
 45 46  2  0  0  0
 45120  1  0  0  0
 46121  1  0  0  0
 47122  1  0  0  0
 47123  1  0  0  0
 48 56  1  0  0  0
 48 65  1  0  0  0
 48124  1  0  0  0
 49 50  1  0  0  0
 49 53  1  0  0  0
 49 64  1  0  0  0
 49125  1  0  0  0
 50 51  1  0  0  0
 50126  1  0  0  0
 50127  1  0  0  0
 51 52  1  0  0  0
 51128  1  0  0  0
 51129  1  0  0  0
 52130  1  0  0  0
 52131  1  0  0  0
 53 54  1  0  0  0
 54 55  2  0  0  0
 54132  1  0  0  0
 55 57  1  0  0  0
 55133  1  0  0  0
 56 69  2  0  0  0
 57 58  2  0  0  0
 57134  1  0  0  0
 58135  1  0  0  0
 59 60  1  0  0  0
 59 61  1  0  0  0
 59 62  1  0  0  0
 60136  1  0  0  0
 60137  1  0  0  0
 60138  1  0  0  0
 61139  1  0  0  0
 61140  1  0  0  0
 61141  1  0  0  0
 62142  1  0  0  0
 62143  1  0  0  0
 62144  1  0  0  0
 63 65  1  0  0  0
 63145  1  0  0  0
 63146  1  0  0  0
 63147  1  0  0  0
 64148  1  0  0  0
 65149  1  0  0  0
 68 83  1  0  0  0
 71 72  2  0  0  0
 71 74  1  0  0  0
 71150  1  0  0  0
 72 76  1  0  0  0
 72151  1  0  0  0
 73 74  2  0  0  0
 73 75  1  0  0  0
 73152  1  0  0  0
 74 85  1  0  0  0
 75 76  2  0  0  0
 75 86  1  0  0  0
 76 90  1  0  0  0
 77 78  2  0  0  0
 77 79  1  0  0  0
 77153  1  0  0  0
 78 80  1  0  0  0
 78 89  1  0  0  0
 79 83  1  0  0  0
 79 88  2  0  0  0
 80 85  1  0  0  0
 80 87  2  0  0  0
 81154  1  0  0  0
 81155  1  0  0  0
 81156  1  0  0  0
 81 84  1  0  0  0
 82 84  1  0  0  0
 82157  1  0  0  0
 82158  1  0  0  0
 82159  1  0  0  0
 83160  1  0  0  0
 83161  1  0  0  0
 84 87  1  0  0  0
 84162  1  0  0  0
 85163  1  0  0  0
 86164  1  0  0  0
 87165  1  0  0  0
 89166  1  0  0  0
M  CHG  1  87   1
M  ISO  4   1 100  68 101  83 101  86 100
M  END
> <chiral flag>
0

> <version>
0

> <s_m_source_file>
/data/baiqing/PycharmProjects/Reinvent-master-3.2/result/LINK_invent/BTK/process_docking_weight1_custom_product_contain_oxygen_bond_distance_aromatic_linkinvent_7_9_3/rearranged_h_0174.sdf

> <i_m_source_file_index>
58

> <r_mmod_Potential_Energy-OPLS-2005>
-50.4519462585449

> <r_mmod_Stretch_Energy-OPLS-2005>
51.4651298522949

> <r_mmod_Bend_Energy-OPLS-2005>
148.995834350586

> <r_mmod_Torsional_Energy-OPLS-2005>
295.73828125

> <r_mmod_Improper_Torsional_Energy-OPLS-2005>
6.31051111221313

> <r_mmod_Van_der_Waal_Energy-OPLS-2005>
151.585372924805

> <r_mmod_Electrostatic_Energy-OPLS-2005>
-264.060974121094

> <r_mmod_Solvation_Energy-OPLS-2005>
-457.651977539062

> <b_mmod_Minimization_Converged-OPLS-2005>
0

> <r_mmod_RMS_Derivative-OPLS-2005>
5.47189235687256

$$$$
58
                    3D
 Structure written by MMmdl.
155163  0  0  1  0            999 V2000
  -30.7270  -14.4435   20.5490 C   0  0  0  0  0  0
  -30.4190  -12.2800   19.4372 C   0  0  0  0  0  0
  -29.4994  -12.4832   18.2151 C   0  0  0  0  0  0
  -28.0206  -12.3535   18.6260 C   0  0  0  0  0  0
  -27.6661  -13.2049   19.8749 C   0  0  2  0  0  0
  -28.7046  -13.0052   21.0034 C   0  0  0  0  0  0
  -25.2631  -13.8161   20.5674 C   0  0  0  0  0  0
  -24.1869  -13.0439   20.9161 C   0  0  0  0  0  0
  -24.6417  -11.6907   20.8733 C   0  0  0  0  0  0
  -23.9078  -10.4295   21.0412 C   0  0  0  0  0  0
  -24.3630   -9.4208   21.9191 C   0  0  0  0  0  0
  -23.6304   -8.2244   22.0761 C   0  0  0  0  0  0
  -22.4292   -8.0284   21.3539 C   0  0  0  0  0  0
  -21.9932   -9.0261   20.4641 C   0  0  0  0  0  0
  -22.7260  -10.2135   20.3051 C   0  0  0  0  0  0
  -21.6848   -6.0740   22.5283 C   0  0  0  0  0  0
  -21.4016   -6.5649   23.8216 C   0  0  0  0  0  0
  -21.3650   -5.6799   24.9178 C   0  0  0  0  0  0
  -21.6043   -4.3063   24.7228 C   0  0  0  0  0  0
  -21.8821   -3.8156   23.4350 C   0  0  0  0  0  0
  -21.9199   -4.6970   22.3404 C   0  0  0  0  0  0
  -22.7894  -13.5247   21.1823 C   0  0  0  0  0  0
  -22.1667   -4.2160   21.0980 F   0  0  0  0  0  0
  -21.5623   -3.4548   25.7741 F   0  0  0  0  0  0
  -30.0412  -13.2769   20.4507 N   0  0  0  0  0  0
  -26.3060  -12.9322   20.3359 N   0  0  0  0  0  0
  -25.9343  -11.6487   20.5769 N   0  0  0  0  0  0
  -22.0525  -12.8221   22.0362 N   0  0  0  0  0  0
  -25.4393  -15.1872   20.4086 N   0  0  0  0  0  0
  -31.8690  -14.5889   20.1064 O   0  0  0  0  0  0
  -21.6643   -6.8892   21.4246 O   0  0  0  0  0  0
  -22.3586  -14.5554   20.6676 O   0  0  0  0  0  0
  -24.6129  -31.8709   23.2111 C   0  0  0  0  0  0
  -25.9056  -32.4837   23.8390 C   0  0  1  0  0  0
  -27.2434  -27.4589   20.1084 C   0  0  0  0  0  0
  -25.5930  -33.8629   24.2335 N   0  0  0  0  0  0
  -23.3998  -30.4911   21.5516 C   0  0  2  0  0  0
  -24.8509  -28.9538   20.1211 C   0  0  0  0  0  0
  -22.7406  -29.4674   22.5017 C   0  0  0  0  0  0
  -18.0271  -28.1368   22.8497 C   0  0  0  0  0  0
  -24.1488  -36.7296   23.2631 C   0  0  0  0  0  0
  -25.9238  -30.8414   21.3628 C   0  0  0  0  0  0
  -26.0045  -29.4722   20.7237 C   0  0  0  0  0  0
  -27.2033  -28.7269   20.7285 C   0  0  0  0  0  0
  -26.0810  -26.9509   19.4947 C   0  0  0  0  0  0
  -24.8805  -27.6876   19.5088 C   0  0  0  0  0  0
  -23.6094  -29.8171   20.1680 C   0  0  0  0  0  0
  -25.4115  -36.3116   24.0327 C   0  0  1  0  0  0
  -20.5860  -28.3664   23.1320 C   0  0  2  0  0  0
  -20.6774  -26.9404   22.5425 C   0  0  0  0  0  0
  -19.5761  -26.6383   21.5212 C   0  0  0  0  0  0
  -18.1926  -26.7915   22.1603 C   0  0  0  0  0  0
  -19.1522  -28.8829   23.2901 C   0  0  0  0  0  0
  -18.9454  -30.1437   23.8925 C   0  0  0  0  0  0
  -17.6461  -30.6589   24.0561 C   0  0  0  0  0  0
  -25.9041  -34.9482   23.5128 C   0  0  0  0  0  0
  -16.5353  -29.9093   23.6317 C   0  0  0  0  0  0
  -16.7263  -28.6492   23.0365 C   0  0  0  0  0  0
  -26.4495  -31.6606   25.0704 C   0  0  0  0  0  0
  -25.3767  -31.3705   26.1456 C   0  0  0  0  0  0
  -27.0319  -30.3051   24.6058 C   0  0  0  0  0  0
  -27.6080  -32.4304   25.7479 C   0  0  0  0  0  0
  -27.5584  -37.1812   24.8463 C   0  0  0  0  0  0
  -21.4141  -29.3027   22.3732 N   0  0  0  0  0  0
  -26.4301  -37.3801   23.9402 N   0  0  0  0  0  0
  -24.6635  -31.0815   22.1010 N   0  0  0  0  0  0
  -23.4183  -28.8222   23.3062 O   0  0  0  0  0  0
  -28.3966  -26.7194   20.0423 O   0  0  0  0  0  0
  -26.5586  -34.8933   22.4676 O   0  0  0  0  0  0
  -23.5332  -32.1456   23.7533 O   0  0  0  0  0  0
  -29.8369  -17.9211   21.4755 C   0  0  0  0  0  0
  -30.6625  -19.4676   19.8101 C   0  0  0  0  0  0
  -30.8432  -17.2024   19.4001 C   0  0  0  0  0  0
  -30.0468  -19.2600   21.0679 C   0  0  0  0  0  0
  -30.2551  -16.8613   20.6411 C   0  0  0  0  0  0
  -28.5723  -24.7649   21.4948 C   0  0  0  0  0  0
  -29.7048  -21.6516   21.7553 C   0  0  0  0  0  0
  -29.2746  -24.0480   22.6581 C   0  0  0  0  0  0
  -28.8992  -26.2549   21.2980 C   0  0  0  0  0  0
  -28.9784  -22.5294   22.7842 C   0  0  0  0  0  0
  -31.0430  -18.4685   18.9922 N   0  0  0  0  0  0
  -29.6051  -20.3189   21.9267 N   0  0  0  0  0  0
  -30.0395  -15.4977   21.0261 N   0  0  0  0  0  0
  -27.7797  -24.1698   20.7551 O   0  0  0  0  0  0
  -30.3517  -22.1798   20.8514 O   0  0  0  0  0  0
  -31.4673  -12.3547   19.1399 H   0  0  0  0  0  0
  -30.2997  -11.2754   19.8457 H   0  0  0  0  0  0
  -29.7358  -11.7474   17.4453 H   0  0  0  0  0  0
  -29.6777  -13.4627   17.7682 H   0  0  0  0  0  0
  -27.8327  -11.2999   18.8333 H   0  0  0  0  0  0
  -27.3717  -12.6186   17.7907 H   0  0  0  0  0  0
  -27.7090  -14.2490   19.5647 H   0  0  0  0  0  0
  -28.6690  -11.9825   21.3816 H   0  0  0  0  0  0
  -28.4734  -13.6417   21.8583 H   0  0  0  0  0  0
  -25.2778   -9.5677   22.4765 H   0  0  0  0  0  0
  -24.0012   -7.4637   22.7484 H   0  0  0  0  0  0
  -21.0866   -8.8775   19.8943 H   0  0  0  0  0  0
  -22.3734  -10.9670   19.6153 H   0  0  0  0  0  0
  -21.2007   -7.6161   23.9723 H   0  0  0  0  0  0
  -21.1465   -6.0531   25.9078 H   0  0  0  0  0  0
  -22.0608   -2.7623   23.2850 H   0  0  0  0  0  0
  -22.4150  -11.9883   22.4730 H   0  0  0  0  0  0
  -21.1126  -13.1221   22.2526 H   0  0  0  0  0  0
  -24.6803  -15.8503   20.5200 H   0  0  0  0  0  0
  -26.2993  -15.6192   20.0925 H   0  0  0  0  0  0
  -26.7132  -32.5570   23.1164 H   0  0  0  0  0  0
  -25.0161  -33.9793   25.0540 H   0  0  0  0  0  0
  -22.6871  -31.3065   21.4108 H   0  0  0  0  0  0
  -23.3778  -35.9600   23.3287 H   0  0  0  0  0  0
  -24.3586  -36.8925   22.2048 H   0  0  0  0  0  0
  -23.7209  -37.6477   23.6664 H   0  0  0  0  0  0
  -26.0277  -31.6012   20.5861 H   0  0  0  0  0  0
  -26.8143  -30.9051   21.9754 H   0  0  0  0  0  0
  -28.0943  -29.1279   21.1920 H   0  0  0  0  0  0
  -26.1103  -25.9823   19.0146 H   0  0  0  0  0  0
  -23.9935  -27.2800   19.0428 H   0  0  0  0  0  0
  -23.7152  -30.5891   19.4049 H   0  0  0  0  0  0
  -22.7343  -29.2315   19.8773 H   0  0  0  0  0  0
  -25.1296  -36.1980   25.0818 H   0  0  0  0  0  0
  -20.9943  -28.3249   24.1443 H   0  0  0  0  0  0
  -20.5694  -26.2278   23.3613 H   0  0  0  0  0  0
  -21.6648  -26.7467   22.1226 H   0  0  0  0  0  0
  -19.6947  -25.6301   21.1228 H   0  0  0  0  0  0
  -19.6704  -27.3194   20.6744 H   0  0  0  0  0  0
  -17.4213  -26.6688   21.3984 H   0  0  0  0  0  0
  -18.0302  -26.0033   22.8966 H   0  0  0  0  0  0
  -19.7932  -30.7226   24.2328 H   0  0  0  0  0  0
  -17.5020  -31.6270   24.5164 H   0  0  0  0  0  0
  -15.5359  -30.3015   23.7618 H   0  0  0  0  0  0
  -15.8651  -28.0812   22.7103 H   0  0  0  0  0  0
  -24.5939  -30.7056   25.7789 H   0  0  0  0  0  0
  -24.8967  -32.2863   26.4909 H   0  0  0  0  0  0
  -25.8118  -30.8868   27.0214 H   0  0  0  0  0  0
  -26.2843  -29.6796   24.1165 H   0  0  0  0  0  0
  -27.4155  -29.7294   25.4494 H   0  0  0  0  0  0
  -27.8652  -30.4357   23.9148 H   0  0  0  0  0  0
  -27.2735  -33.3622   26.2046 H   0  0  0  0  0  0
  -28.3926  -32.6825   25.0333 H   0  0  0  0  0  0
  -28.0711  -31.8423   26.5414 H   0  0  0  0  0  0
  -28.2624  -38.0093   24.7538 H   0  0  0  0  0  0
  -28.1065  -36.2636   24.6276 H   0  0  0  0  0  0
  -27.2301  -37.1450   25.8865 H   0  0  0  0  0  0
  -20.9322  -29.8705   21.6905 H   0  0  0  0  0  0
  -26.0193  -38.2875   24.1416 H   0  0  0  0  0  0
  -29.3612  -17.7054   22.4212 H   0  0  0  0  0  0
  -30.8566  -20.4422   19.3966 H   0  0  0  0  0  0
  -31.1438  -16.4550   18.6817 H   0  0  0  0  0  0
  -28.9530  -24.5436   23.5745 H   0  0  0  0  0  0
  -30.3488  -24.2174   22.5809 H   0  0  0  0  0  0
  -29.9814  -26.3906   21.3149 H   0  0  0  0  0  0
  -28.4892  -26.8199   22.1351 H   0  0  0  0  0  0
  -29.2909  -22.2045   23.7769 H   0  0  0  0  0  0
  -27.9061  -22.3393   22.7284 H   0  0  0  0  0  0
  -29.1189  -20.0327   22.7661 H   0  0  0  0  0  0
  -29.2011  -15.2901   21.5487 H   0  0  0  0  0  0
  1 25  1  0  0  0
  1 30  2  0  0  0
  1 83  1  0  0  0
  2  3  1  0  0  0
  2 25  1  0  0  0
  2 86  1  0  0  0
  2 87  1  0  0  0
  3  4  1  0  0  0
  3 88  1  0  0  0
  3 89  1  0  0  0
  4  5  1  0  0  0
  4 90  1  0  0  0
  4 91  1  0  0  0
  5  6  1  0  0  0
  5 26  1  0  0  0
  5 92  1  0  0  0
  6 25  1  0  0  0
  6 93  1  0  0  0
  6 94  1  0  0  0
  7  8  2  0  0  0
  7 26  1  0  0  0
  7 29  1  0  0  0
  8  9  1  0  0  0
  8 22  1  0  0  0
  9 10  1  0  0  0
  9 27  2  0  0  0
 10 11  2  0  0  0
 10 15  1  0  0  0
 11 12  1  0  0  0
 11 95  1  0  0  0
 12 13  2  0  0  0
 12 96  1  0  0  0
 13 14  1  0  0  0
 13 31  1  0  0  0
 14 15  2  0  0  0
 14 97  1  0  0  0
 15 98  1  0  0  0
 16 17  2  0  0  0
 16 21  1  0  0  0
 16 31  1  0  0  0
 17 18  1  0  0  0
 17 99  1  0  0  0
 18 19  2  0  0  0
 18100  1  0  0  0
 19 20  1  0  0  0
 19 24  1  0  0  0
 20 21  2  0  0  0
 20101  1  0  0  0
 21 23  1  0  0  0
 22 28  1  0  0  0
 22 32  2  0  0  0
 26 27  1  0  0  0
 28102  1  0  0  0
 28103  1  0  0  0
 29104  1  0  0  0
 29105  1  0  0  0
 33 34  1  0  0  0
 33 66  1  0  0  0
 33 70  2  0  0  0
 34 36  1  0  0  0
 34 59  1  0  0  0
 34106  1  0  0  0
 35 44  2  0  0  0
 35 45  1  0  0  0
 35 68  1  0  0  0
 36 56  1  0  0  0
 36107  1  0  0  0
 37 39  1  0  0  0
 37 47  1  0  0  0
 37 66  1  0  0  0
 37108  1  0  0  0
 38 43  2  0  0  0
 38 46  1  0  0  0
 38 47  1  0  0  0
 39 64  1  0  0  0
 39 67  2  0  0  0
 40 52  1  0  0  0
 40 53  2  0  0  0
 40 58  1  0  0  0
 41109  1  0  0  0
 41110  1  0  0  0
 41111  1  0  0  0
 41 48  1  0  0  0
 42 43  1  0  0  0
 42 66  1  0  0  0
 42112  1  0  0  0
 42113  1  0  0  0
 43 44  1  0  0  0
 44114  1  0  0  0
 45 46  2  0  0  0
 45115  1  0  0  0
 46116  1  0  0  0
 47117  1  0  0  0
 47118  1  0  0  0
 48 56  1  0  0  0
 48 65  1  0  0  0
 48119  1  0  0  0
 49 50  1  0  0  0
 49 53  1  0  0  0
 49 64  1  0  0  0
 49120  1  0  0  0
 50 51  1  0  0  0
 50121  1  0  0  0
 50122  1  0  0  0
 51 52  1  0  0  0
 51123  1  0  0  0
 51124  1  0  0  0
 52125  1  0  0  0
 52126  1  0  0  0
 53 54  1  0  0  0
 54 55  2  0  0  0
 54127  1  0  0  0
 55 57  1  0  0  0
 55128  1  0  0  0
 56 69  2  0  0  0
 57 58  2  0  0  0
 57129  1  0  0  0
 58130  1  0  0  0
 59 60  1  0  0  0
 59 61  1  0  0  0
 59 62  1  0  0  0
 60131  1  0  0  0
 60132  1  0  0  0
 60133  1  0  0  0
 61134  1  0  0  0
 61135  1  0  0  0
 61136  1  0  0  0
 62137  1  0  0  0
 62138  1  0  0  0
 62139  1  0  0  0
 63 65  1  0  0  0
 63140  1  0  0  0
 63141  1  0  0  0
 63142  1  0  0  0
 64143  1  0  0  0
 65144  1  0  0  0
 68 79  1  0  0  0
 71 74  2  0  0  0
 71 75  1  0  0  0
 71145  1  0  0  0
 72 74  1  0  0  0
 72 81  2  0  0  0
 72146  1  0  0  0
 73 75  2  0  0  0
 73 81  1  0  0  0
 73147  1  0  0  0
 74 82  1  0  0  0
 75 83  1  0  0  0
 76 78  1  0  0  0
 76 79  1  0  0  0
 76 84  2  0  0  0
 77 80  1  0  0  0
 77 82  1  0  0  0
 77 85  2  0  0  0
 78 80  1  0  0  0
 78148  1  0  0  0
 78149  1  0  0  0
 79150  1  0  0  0
 79151  1  0  0  0
 80152  1  0  0  0
 80153  1  0  0  0
 82154  1  0  0  0
 83155  1  0  0  0
M  ISO  4   1 100  68 101  79 101  83 100
M  END
> <chiral flag>
0

> <version>
0

> <s_m_source_file>
/data/baiqing/PycharmProjects/Reinvent-master-3.2/result/LINK_invent/BTK/process_docking_weight1_custom_product_contain_oxygen_bond_distance_aromatic_linkinvent_7_9_3/rearranged_h_0174.sdf

> <i_m_source_file_index>
59

> <r_mmod_Potential_Energy-OPLS-2005>
-320.283569335938

> <r_mmod_Stretch_Energy-OPLS-2005>
35.4538917541504

> <r_mmod_Bend_Energy-OPLS-2005>
96.7246856689453

> <r_mmod_Torsional_Energy-OPLS-2005>
247.685592651367

> <r_mmod_Improper_Torsional_Energy-OPLS-2005>
3.83865261077881

> <r_mmod_Van_der_Waal_Energy-OPLS-2005>
170.977233886719

> <r_mmod_Electrostatic_Energy-OPLS-2005>
-613.3505859375

> <r_mmod_Solvation_Energy-OPLS-2005>
-272.936401367188

> <b_mmod_Minimization_Converged-OPLS-2005>
0

> <r_mmod_RMS_Derivative-OPLS-2005>
2.21170687675476

$$$$
59
                    3D
 Structure written by MMmdl.
168176  0  0  1  0            999 V2000
  -30.7513  -14.4360   20.5822 C   0  0  0  0  0  0
  -30.3998  -12.2858   19.4336 C   0  0  0  0  0  0
  -29.4921  -12.5093   18.2100 C   0  0  0  0  0  0
  -28.0117  -12.3862   18.6139 C   0  0  0  0  0  0
  -27.6610  -13.2165   19.8793 C   0  0  2  0  0  0
  -28.7007  -13.0055   21.0044 C   0  0  0  0  0  0
  -25.2564  -13.8174   20.5689 C   0  0  0  0  0  0
  -24.1816  -13.0441   20.9158 C   0  0  0  0  0  0
  -24.6379  -11.6912   20.8697 C   0  0  0  0  0  0
  -23.9038  -10.4300   21.0377 C   0  0  0  0  0  0
  -24.3597   -9.4230   21.9163 C   0  0  0  0  0  0
  -23.6296   -8.2255   22.0742 C   0  0  0  0  0  0
  -22.4275   -8.0285   21.3544 C   0  0  0  0  0  0
  -21.9890   -9.0246   20.4637 C   0  0  0  0  0  0
  -22.7197  -10.2140   20.3046 C   0  0  0  0  0  0
  -21.6858   -6.0731   22.5279 C   0  0  0  0  0  0
  -21.4022   -6.5635   23.8213 C   0  0  0  0  0  0
  -21.3669   -5.6781   24.9174 C   0  0  0  0  0  0
  -21.6053   -4.3044   24.7217 C   0  0  0  0  0  0
  -21.8823   -3.8144   23.4331 C   0  0  0  0  0  0
  -21.9199   -4.6963   22.3394 C   0  0  0  0  0  0
  -22.7838  -13.5239   21.1816 C   0  0  0  0  0  0
  -22.1661   -4.2142   21.0970 F   0  0  0  0  0  0
  -21.5639   -3.4537   25.7732 F   0  0  0  0  0  0
  -30.0357  -13.2849   20.4531 N   0  0  0  0  0  0
  -26.3018  -12.9364   20.3387 N   0  0  0  0  0  0
  -25.9315  -11.6507   20.5735 N   0  0  0  0  0  0
  -22.0469  -12.8267   22.0391 N   0  0  0  0  0  0
  -25.4285  -15.1894   20.4150 N   0  0  0  0  0  0
  -31.8458  -14.5681   20.0344 O   0  0  0  0  0  0
  -21.6658   -6.8872   21.4240 O   0  0  0  0  0  0
  -22.3531  -14.5534   20.6641 O   0  0  0  0  0  0
  -24.6163  -31.8701   23.2093 C   0  0  0  0  0  0
  -25.9064  -32.4823   23.8388 C   0  0  1  0  0  0
  -27.2180  -27.4310   20.1040 C   0  0  0  0  0  0
  -25.5941  -33.8630   24.2321 N   0  0  0  0  0  0
  -23.4003  -30.4956   21.5497 C   0  0  2  0  0  0
  -24.8448  -28.9642   20.1130 C   0  0  0  0  0  0
  -22.7403  -29.4675   22.4962 C   0  0  0  0  0  0
  -18.0296  -28.1361   22.8500 C   0  0  0  0  0  0
  -24.1496  -36.7315   23.2637 C   0  0  0  0  0  0
  -25.9294  -30.8343   21.3623 C   0  0  0  0  0  0
  -26.0050  -29.4696   20.7117 C   0  0  0  0  0  0
  -27.1983  -28.7102   20.7063 C   0  0  0  0  0  0
  -26.0464  -26.9530   19.4807 C   0  0  0  0  0  0
  -24.8602  -27.7036   19.4921 C   0  0  0  0  0  0
  -23.6080  -29.8320   20.1617 C   0  0  0  0  0  0
  -25.4110  -36.3104   24.0334 C   0  0  1  0  0  0
  -20.5871  -28.3658   23.1314 C   0  0  2  0  0  0
  -20.6779  -26.9392   22.5420 C   0  0  0  0  0  0
  -19.5761  -26.6368   21.5215 C   0  0  0  0  0  0
  -18.1953  -26.7889   22.1639 C   0  0  0  0  0  0
  -19.1541  -28.8840   23.2901 C   0  0  0  0  0  0
  -18.9458  -30.1443   23.8893 C   0  0  0  0  0  0
  -17.6454  -30.6561   24.0581 C   0  0  0  0  0  0
  -25.9043  -34.9477   23.5121 C   0  0  0  0  0  0
  -16.5356  -29.9068   23.6329 C   0  0  0  0  0  0
  -16.7284  -28.6487   23.0329 C   0  0  0  0  0  0
  -26.4488  -31.6568   25.0690 C   0  0  0  0  0  0
  -25.3783  -31.3669   26.1456 C   0  0  0  0  0  0
  -27.0317  -30.3013   24.6047 C   0  0  0  0  0  0
  -27.6042  -32.4288   25.7472 C   0  0  0  0  0  0
  -27.5575  -37.1818   24.8459 C   0  0  0  0  0  0
  -21.4133  -29.3041   22.3725 N   0  0  0  0  0  0
  -26.4286  -37.3801   23.9412 N   0  0  0  0  0  0
  -24.6668  -31.0810   22.0984 N   0  0  0  0  0  0
  -23.4186  -28.8223   23.3004 O   0  0  0  0  0  0
  -28.3593  -26.6595   20.1186 O   0  0  0  0  0  0
  -26.5580  -34.8928   22.4666 O   0  0  0  0  0  0
  -23.5364  -32.1431   23.7500 O   0  0  0  0  0  0
  -31.9596  -17.2098   21.1895 C   0  0  0  0  0  0
  -32.3578  -18.5575   21.2755 C   0  0  0  0  0  0
  -31.4103  -19.5742   21.5868 C   0  0  0  0  0  0
  -30.6091  -16.8198   21.3354 C   0  0  0  0  0  0
  -30.0309  -19.2022   21.6735 C   0  0  0  0  0  0
  -29.6558  -17.8346   21.5771 C   0  0  0  0  0  0
  -27.7352  -24.2423   20.1142 C   0  0  0  0  0  0
  -28.6879  -21.2180   21.1624 C   0  0  0  0  0  0
  -33.8264  -18.8564   21.0081 C   0  0  0  0  0  0
  -25.7567  -23.8362   21.6632 C   0  0  0  0  0  0
  -26.1081  -22.2957   19.7661 C   0  0  0  0  0  0
  -28.2504  -25.4612   20.9210 C   0  0  0  0  0  0
  -27.7154  -22.2479   21.7751 C   0  0  0  0  0  0
  -31.8934  -21.0201   21.8488 C   0  0  0  0  0  0
  -26.8642  -23.1513   20.8189 C   0  0  0  0  0  0
  -28.9883  -20.1462   21.9190 N   0  0  0  0  0  0
  -30.1665  -15.4521   21.2502 N   0  0  0  0  0  0
  -28.0030  -24.1544   18.9115 O   0  0  0  0  0  0
  -29.1750  -21.3898   20.0446 O   0  0  0  0  0  0
  -28.3517  -17.4860   21.7145 F   0  0  0  0  0  0
  -33.0934  -21.0500   22.4270 F   0  0  0  0  0  0
  -31.9755  -21.6949   20.7023 F   0  0  0  0  0  0
  -31.1056  -21.6928   22.6883 F   0  0  0  0  0  0
  -31.4497  -12.3355   19.1396 H   0  0  0  0  0  0
  -30.2584  -11.2823   19.8356 H   0  0  0  0  0  0
  -29.7292  -11.7876   17.4273 H   0  0  0  0  0  0
  -29.6787  -13.4990   17.7885 H   0  0  0  0  0  0
  -27.8046  -11.3304   18.7880 H   0  0  0  0  0  0
  -27.3722  -12.6869   17.7833 H   0  0  0  0  0  0
  -27.7039  -14.2661   19.5883 H   0  0  0  0  0  0
  -28.6701  -11.9756   21.3659 H   0  0  0  0  0  0
  -28.4632  -13.6265   21.8683 H   0  0  0  0  0  0
  -25.2740   -9.5750   22.4721 H   0  0  0  0  0  0
  -24.0029   -7.4664   22.7462 H   0  0  0  0  0  0
  -21.0816   -8.8742   19.8940 H   0  0  0  0  0  0
  -22.3626  -10.9674   19.6158 H   0  0  0  0  0  0
  -21.2001   -7.6139   23.9717 H   0  0  0  0  0  0
  -21.1494   -6.0505   25.9074 H   0  0  0  0  0  0
  -22.0589   -2.7603   23.2827 H   0  0  0  0  0  0
  -22.4088  -11.9977   22.4861 H   0  0  0  0  0  0
  -21.1087  -13.1323   22.2535 H   0  0  0  0  0  0
  -24.6646  -15.8441   20.5376 H   0  0  0  0  0  0
  -26.2955  -15.6401   20.1494 H   0  0  0  0  0  0
  -26.7149  -32.5553   23.1168 H   0  0  0  0  0  0
  -25.0143  -33.9787   25.0500 H   0  0  0  0  0  0
  -22.6894  -31.3145   21.4161 H   0  0  0  0  0  0
  -23.3752  -35.9658   23.3295 H   0  0  0  0  0  0
  -24.3593  -36.8920   22.2051 H   0  0  0  0  0  0
  -23.7247  -37.6524   23.6642 H   0  0  0  0  0  0
  -26.0416  -31.5972   20.5903 H   0  0  0  0  0  0
  -26.8165  -30.8869   21.9803 H   0  0  0  0  0  0
  -28.0926  -29.0946   21.1770 H   0  0  0  0  0  0
  -26.0328  -25.9978   18.9768 H   0  0  0  0  0  0
  -23.9712  -27.3120   19.0156 H   0  0  0  0  0  0
  -23.7190  -30.6076   19.4023 H   0  0  0  0  0  0
  -22.7299  -29.2533   19.8675 H   0  0  0  0  0  0
  -25.1301  -36.1961   25.0826 H   0  0  0  0  0  0
  -20.9970  -28.3263   24.1431 H   0  0  0  0  0  0
  -20.5687  -26.2263   23.3603 H   0  0  0  0  0  0
  -21.6649  -26.7431   22.1213 H   0  0  0  0  0  0
  -19.6942  -25.6284   21.1223 H   0  0  0  0  0  0
  -19.6691  -27.3205   20.6766 H   0  0  0  0  0  0
  -17.4238  -26.6630   21.4030 H   0  0  0  0  0  0
  -18.0339  -26.0014   22.9020 H   0  0  0  0  0  0
  -19.7937  -30.7277   24.2227 H   0  0  0  0  0  0
  -17.5033  -31.6239   24.5214 H   0  0  0  0  0  0
  -15.5360  -30.2991   23.7633 H   0  0  0  0  0  0
  -15.8683  -28.0824   22.7007 H   0  0  0  0  0  0
  -24.5966  -30.6986   25.7824 H   0  0  0  0  0  0
  -24.8971  -32.2828   26.4910 H   0  0  0  0  0  0
  -25.8174  -30.8863   27.0212 H   0  0  0  0  0  0
  -26.2849  -29.6776   24.1127 H   0  0  0  0  0  0
  -27.4122  -29.7236   25.4479 H   0  0  0  0  0  0
  -27.8669  -30.4322   23.9164 H   0  0  0  0  0  0
  -27.2628  -33.3576   26.2069 H   0  0  0  0  0  0
  -28.3853  -32.6871   25.0306 H   0  0  0  0  0  0
  -28.0717  -31.8410   26.5383 H   0  0  0  0  0  0
  -28.2604  -38.0107   24.7525 H   0  0  0  0  0  0
  -28.1060  -36.2646   24.6271 H   0  0  0  0  0  0
  -27.2306  -37.1460   25.8864 H   0  0  0  0  0  0
  -20.9279  -29.8798   21.6995 H   0  0  0  0  0  0
  -26.0168  -38.2879   24.1408 H   0  0  0  0  0  0
  -32.7361  -16.4837   21.0121 H   0  0  0  0  0  0
  -34.2891  -18.0662   20.4175 H   0  0  0  0  0  0
  -34.3866  -18.9322   21.9402 H   0  0  0  0  0  0
  -33.9442  -19.7818   20.4425 H   0  0  0  0  0  0
  -25.1967  -24.5695   21.0806 H   0  0  0  0  0  0
  -26.1470  -24.3439   22.5463 H   0  0  0  0  0  0
  -25.0310  -23.1064   22.0289 H   0  0  0  0  0  0
  -25.3992  -22.9035   19.2043 H   0  0  0  0  0  0
  -25.5355  -21.4963   20.2392 H   0  0  0  0  0  0
  -26.7765  -21.8332   19.0401 H   0  0  0  0  0  0
  -29.2424  -25.2154   21.2997 H   0  0  0  0  0  0
  -27.6300  -25.6587   21.7927 H   0  0  0  0  0  0
  -28.3016  -22.8775   22.4472 H   0  0  0  0  0  0
  -27.0319  -21.6917   22.4193 H   0  0  0  0  0  0
  -28.4279  -19.9851   22.7446 H   0  0  0  0  0  0
  -29.2381  -15.2704   21.6013 H   0  0  0  0  0  0
  1 25  1  0  0  0
  1 30  2  0  0  0
  1 87  1  0  0  0
  2  3  1  0  0  0
  2 25  1  0  0  0
  2 94  1  0  0  0
  2 95  1  0  0  0
  3  4  1  0  0  0
  3 96  1  0  0  0
  3 97  1  0  0  0
  4  5  1  0  0  0
  4 98  1  0  0  0
  4 99  1  0  0  0
  5  6  1  0  0  0
  5 26  1  0  0  0
  5100  1  0  0  0
  6 25  1  0  0  0
  6101  1  0  0  0
  6102  1  0  0  0
  7  8  2  0  0  0
  7 26  1  0  0  0
  7 29  1  0  0  0
  8  9  1  0  0  0
  8 22  1  0  0  0
  9 10  1  0  0  0
  9 27  2  0  0  0
 10 11  2  0  0  0
 10 15  1  0  0  0
 11 12  1  0  0  0
 11103  1  0  0  0
 12 13  2  0  0  0
 12104  1  0  0  0
 13 14  1  0  0  0
 13 31  1  0  0  0
 14 15  2  0  0  0
 14105  1  0  0  0
 15106  1  0  0  0
 16 17  2  0  0  0
 16 21  1  0  0  0
 16 31  1  0  0  0
 17 18  1  0  0  0
 17107  1  0  0  0
 18 19  2  0  0  0
 18108  1  0  0  0
 19 20  1  0  0  0
 19 24  1  0  0  0
 20 21  2  0  0  0
 20109  1  0  0  0
 21 23  1  0  0  0
 22 28  1  0  0  0
 22 32  2  0  0  0
 26 27  1  0  0  0
 28110  1  0  0  0
 28111  1  0  0  0
 29112  1  0  0  0
 29113  1  0  0  0
 33 34  1  0  0  0
 33 66  1  0  0  0
 33 70  2  0  0  0
 34 36  1  0  0  0
 34 59  1  0  0  0
 34114  1  0  0  0
 35 44  2  0  0  0
 35 45  1  0  0  0
 35 68  1  0  0  0
 36 56  1  0  0  0
 36115  1  0  0  0
 37 39  1  0  0  0
 37 47  1  0  0  0
 37 66  1  0  0  0
 37116  1  0  0  0
 38 43  2  0  0  0
 38 46  1  0  0  0
 38 47  1  0  0  0
 39 64  1  0  0  0
 39 67  2  0  0  0
 40 52  1  0  0  0
 40 53  2  0  0  0
 40 58  1  0  0  0
 41117  1  0  0  0
 41118  1  0  0  0
 41119  1  0  0  0
 41 48  1  0  0  0
 42 43  1  0  0  0
 42 66  1  0  0  0
 42120  1  0  0  0
 42121  1  0  0  0
 43 44  1  0  0  0
 44122  1  0  0  0
 45 46  2  0  0  0
 45123  1  0  0  0
 46124  1  0  0  0
 47125  1  0  0  0
 47126  1  0  0  0
 48 56  1  0  0  0
 48 65  1  0  0  0
 48127  1  0  0  0
 49 50  1  0  0  0
 49 53  1  0  0  0
 49 64  1  0  0  0
 49128  1  0  0  0
 50 51  1  0  0  0
 50129  1  0  0  0
 50130  1  0  0  0
 51 52  1  0  0  0
 51131  1  0  0  0
 51132  1  0  0  0
 52133  1  0  0  0
 52134  1  0  0  0
 53 54  1  0  0  0
 54 55  2  0  0  0
 54135  1  0  0  0
 55 57  1  0  0  0
 55136  1  0  0  0
 56 69  2  0  0  0
 57 58  2  0  0  0
 57137  1  0  0  0
 58138  1  0  0  0
 59 60  1  0  0  0
 59 61  1  0  0  0
 59 62  1  0  0  0
 60139  1  0  0  0
 60140  1  0  0  0
 60141  1  0  0  0
 61142  1  0  0  0
 61143  1  0  0  0
 61144  1  0  0  0
 62145  1  0  0  0
 62146  1  0  0  0
 62147  1  0  0  0
 63 65  1  0  0  0
 63148  1  0  0  0
 63149  1  0  0  0
 63150  1  0  0  0
 64151  1  0  0  0
 65152  1  0  0  0
 68 82  1  0  0  0
 71 72  2  0  0  0
 71 74  1  0  0  0
 71153  1  0  0  0
 72 73  1  0  0  0
 72 79  1  0  0  0
 73 75  2  0  0  0
 73 84  1  0  0  0
 74 76  2  0  0  0
 74 87  1  0  0  0
 75 76  1  0  0  0
 75 86  1  0  0  0
 76 90  1  0  0  0
 77 82  1  0  0  0
 77 85  1  0  0  0
 77 88  2  0  0  0
 78 83  1  0  0  0
 78 86  1  0  0  0
 78 89  2  0  0  0
 79154  1  0  0  0
 79155  1  0  0  0
 79156  1  0  0  0
 80157  1  0  0  0
 80158  1  0  0  0
 80159  1  0  0  0
 80 85  1  0  0  0
 81 85  1  0  0  0
 81160  1  0  0  0
 81161  1  0  0  0
 81162  1  0  0  0
 82163  1  0  0  0
 82164  1  0  0  0
 83 85  1  0  0  0
 83165  1  0  0  0
 83166  1  0  0  0
 84 91  1  0  0  0
 84 92  1  0  0  0
 84 93  1  0  0  0
 86167  1  0  0  0
 87168  1  0  0  0
M  ISO  4   1 100  68 101  82 101  87 100
M  END
> <chiral flag>
0

> <version>
0

> <s_m_source_file>
/data/baiqing/PycharmProjects/Reinvent-master-3.2/result/LINK_invent/BTK/process_docking_weight1_custom_product_contain_oxygen_bond_distance_aromatic_linkinvent_7_9_3/rearranged_h_0174.sdf

> <i_m_source_file_index>
60

> <r_mmod_Potential_Energy-OPLS-2005>
12.9001321792603

> <r_mmod_Stretch_Energy-OPLS-2005>
48.1556091308594

> <r_mmod_Bend_Energy-OPLS-2005>
115.160873413086

> <r_mmod_Torsional_Energy-OPLS-2005>
269.412200927734

> <r_mmod_Improper_Torsional_Energy-OPLS-2005>
2.75693273544312

> <r_mmod_Van_der_Waal_Energy-OPLS-2005>
176.651809692383

> <r_mmod_Electrostatic_Energy-OPLS-2005>
-377.947814941406

> <r_mmod_Solvation_Energy-OPLS-2005>
-234.633834838867

> <b_mmod_Minimization_Converged-OPLS-2005>
0

> <r_mmod_RMS_Derivative-OPLS-2005>
3.28648018836975

$$$$
60
                    3D
 Structure written by MMmdl.
157165  0  0  1  0            999 V2000
  -30.5771  -14.7176   20.4945 C   0  0  0  0  0  0
  -30.4493  -12.4457   19.4601 C   0  0  0  0  0  0
  -29.5158  -12.5086   18.2299 C   0  0  0  0  0  0
  -28.0393  -12.3346   18.6436 C   0  0  0  0  0  0
  -27.6481  -13.2178   19.8558 C   0  0  2  0  0  0
  -28.6909  -13.1094   20.9884 C   0  0  0  0  0  0
  -25.2543  -13.8170   20.5689 C   0  0  0  0  0  0
  -24.1810  -13.0459   20.9227 C   0  0  0  0  0  0
  -24.6363  -11.6923   20.8751 C   0  0  0  0  0  0
  -23.9045  -10.4321   21.0421 C   0  0  0  0  0  0
  -24.3585   -9.4229   21.9194 C   0  0  0  0  0  0
  -23.6268   -8.2262   22.0752 C   0  0  0  0  0  0
  -22.4251   -8.0302   21.3551 C   0  0  0  0  0  0
  -21.9900   -9.0281   20.4652 C   0  0  0  0  0  0
  -22.7227  -10.2164   20.3068 C   0  0  0  0  0  0
  -21.6855   -6.0735   22.5280 C   0  0  0  0  0  0
  -21.4023   -6.5625   23.8223 C   0  0  0  0  0  0
  -21.3654   -5.6770   24.9171 C   0  0  0  0  0  0
  -21.6038   -4.3041   24.7206 C   0  0  0  0  0  0
  -21.8826   -3.8140   23.4333 C   0  0  0  0  0  0
  -21.9199   -4.6968   22.3392 C   0  0  0  0  0  0
  -22.7844  -13.5288   21.1888 C   0  0  0  0  0  0
  -22.1673   -4.2158   21.0977 F   0  0  0  0  0  0
  -21.5617   -3.4515   25.7711 F   0  0  0  0  0  0
  -29.9967  -13.4750   20.4185 N   0  0  0  0  0  0
  -26.2953  -12.9335   20.3277 N   0  0  0  0  0  0
  -25.9293  -11.6496   20.5739 N   0  0  0  0  0  0
  -22.0423  -12.8303   22.0402 N   0  0  0  0  0  0
  -25.4262  -15.1890   20.4080 N   0  0  0  0  0  0
  -31.7660  -14.8799   20.1935 O   0  0  0  0  0  0
  -21.6633   -6.8885   21.4242 O   0  0  0  0  0  0
  -22.3576  -14.5610   20.6745 O   0  0  0  0  0  0
  -24.6301  -31.8568   23.2008 C   0  0  0  0  0  0
  -25.9141  -32.4768   23.8324 C   0  0  1  0  0  0
  -27.2212  -27.2774   20.1530 C   0  0  0  0  0  0
  -25.5943  -33.8563   24.2264 N   0  0  0  0  0  0
  -23.4238  -30.4838   21.5417 C   0  0  2  0  0  0
  -24.8757  -28.9267   20.1141 C   0  0  0  0  0  0
  -22.7488  -29.4658   22.4913 C   0  0  0  0  0  0
  -18.0292  -28.1451   22.8519 C   0  0  0  0  0  0
  -24.1465  -36.7277   23.2640 C   0  0  0  0  0  0
  -25.9671  -30.7792   21.3741 C   0  0  0  0  0  0
  -26.0440  -29.3987   20.7279 C   0  0  0  0  0  0
  -27.2205  -28.5856   20.7380 C   0  0  0  0  0  0
  -26.0428  -26.8745   19.4918 C   0  0  0  0  0  0
  -24.8799  -27.6719   19.4834 C   0  0  0  0  0  0
  -23.6445  -29.8118   20.1590 C   0  0  0  0  0  0
  -25.4100  -36.3082   24.0321 C   0  0  1  0  0  0
  -20.5898  -28.3763   23.1283 C   0  0  2  0  0  0
  -20.6774  -26.9474   22.5430 C   0  0  0  0  0  0
  -19.5741  -26.6448   21.5243 C   0  0  0  0  0  0
  -18.1924  -26.8005   22.1659 C   0  0  0  0  0  0
  -19.1548  -28.8926   23.2904 C   0  0  0  0  0  0
  -18.9471  -30.1525   23.8935 C   0  0  0  0  0  0
  -17.6469  -30.6653   24.0605 C   0  0  0  0  0  0
  -25.9056  -34.9445   23.5097 C   0  0  0  0  0  0
  -16.5358  -29.9156   23.6349 C   0  0  0  0  0  0
  -16.7272  -28.6568   23.0368 C   0  0  0  0  0  0
  -26.4516  -31.6585   25.0699 C   0  0  0  0  0  0
  -25.3748  -31.3717   26.1431 C   0  0  0  0  0  0
  -27.0337  -30.2995   24.6147 C   0  0  0  0  0  0
  -27.6067  -32.4296   25.7486 C   0  0  0  0  0  0
  -27.5558  -37.1803   24.8484 C   0  0  0  0  0  0
  -21.4205  -29.3089   22.3641 N   0  0  0  0  0  0
  -26.4281  -37.3785   23.9412 N   0  0  0  0  0  0
  -24.6930  -31.0570   22.0956 N   0  0  0  0  0  0
  -23.4186  -28.8203   23.3012 O   0  0  0  0  0  0
  -28.3106  -26.3784   20.1934 O   0  0  0  0  0  0
  -26.5628  -34.8917   22.4660 O   0  0  0  0  0  0
  -23.5466  -32.1383   23.7332 O   0  0  0  0  0  0
  -30.8253  -17.9814   21.2378 C   0  0  0  0  0  0
  -30.5941  -19.4105   21.1111 C   0  0  0  0  0  0
  -29.4623  -19.8095   20.4340 C   0  0  0  0  0  0
  -29.8524  -17.1723   20.6775 C   0  0  0  0  0  0
  -28.6182  -23.7668   20.1032 C   0  0  0  0  0  0
  -26.8770  -23.9238   22.9196 C   0  0  0  0  0  0
  -29.3993  -25.3060   22.0115 C   0  0  0  0  0  0
  -29.0283  -21.2168   19.8554 C   0  0  0  0  0  0
  -26.9055  -24.8682   21.7032 C   0  0  0  0  0  0
  -28.2760  -25.0784   20.9775 C   0  0  2  0  0  0
  -29.7072  -15.7770   20.6670 N   0  0  0  0  0  0
  -28.8762  -22.5124   20.6461 N   0  0  0  0  0  0
  -28.6263  -23.8989   18.8793 O   0  0  0  0  0  0
  -31.4656  -20.2754   21.5777 F   0  0  0  0  0  0
  -28.6214  -18.2901   20.0086 S   0  0  0  0  0  0
  -31.4865  -12.6044   19.1548 H   0  0  0  0  0  0
  -30.4191  -11.4556   19.9196 H   0  0  0  0  0  0
  -29.7958  -11.7405   17.5076 H   0  0  0  0  0  0
  -29.6448  -13.4636   17.7201 H   0  0  0  0  0  0
  -27.8833  -11.2829   18.8900 H   0  0  0  0  0  0
  -27.3879  -12.5483   17.7964 H   0  0  0  0  0  0
  -27.6557  -14.2458   19.4916 H   0  0  0  0  0  0
  -28.7199  -12.0973   21.3924 H   0  0  0  0  0  0
  -28.4228  -13.7559   21.8264 H   0  0  0  0  0  0
  -25.2719   -9.5698   22.4786 H   0  0  0  0  0  0
  -23.9968   -7.4652   22.7471 H   0  0  0  0  0  0
  -21.0837   -8.8826   19.8955 H   0  0  0  0  0  0
  -22.3697  -10.9706   19.6182 H   0  0  0  0  0  0
  -21.2015   -7.6134   23.9733 H   0  0  0  0  0  0
  -21.1467   -6.0487   25.9083 H   0  0  0  0  0  0
  -22.0601   -2.7601   23.2826 H   0  0  0  0  0  0
  -22.3959  -11.9947   22.4811 H   0  0  0  0  0  0
  -21.1069  -13.1428   22.2581 H   0  0  0  0  0  0
  -24.6500  -15.8352   20.5084 H   0  0  0  0  0  0
  -26.2523  -15.6265   20.0189 H   0  0  0  0  0  0
  -26.7204  -32.5443   23.1061 H   0  0  0  0  0  0
  -25.0068  -33.9665   25.0399 H   0  0  0  0  0  0
  -22.7207  -31.3059   21.3933 H   0  0  0  0  0  0
  -23.3725  -35.9627   23.3351 H   0  0  0  0  0  0
  -24.3534  -36.8851   22.2049 H   0  0  0  0  0  0
  -23.7203  -37.6478   23.6633 H   0  0  0  0  0  0
  -26.0915  -31.5312   20.5918 H   0  0  0  0  0  0
  -26.8483  -30.8433   22.0000 H   0  0  0  0  0  0
  -28.1132  -28.9378   21.2362 H   0  0  0  0  0  0
  -26.0110  -25.9067   19.0086 H   0  0  0  0  0  0
  -23.9872  -27.3089   18.9943 H   0  0  0  0  0  0
  -23.7745  -30.5868   19.4043 H   0  0  0  0  0  0
  -22.7580  -29.2515   19.8546 H   0  0  0  0  0  0
  -25.1264  -36.1947   25.0815 H   0  0  0  0  0  0
  -21.0006  -28.3397   24.1400 H   0  0  0  0  0  0
  -20.5719  -26.2374   23.3654 H   0  0  0  0  0  0
  -21.6632  -26.7526   22.1200 H   0  0  0  0  0  0
  -19.6878  -25.6359   21.1266 H   0  0  0  0  0  0
  -19.6675  -27.3261   20.6780 H   0  0  0  0  0  0
  -17.4184  -26.6799   21.4059 H   0  0  0  0  0  0
  -18.0312  -26.0145   22.9049 H   0  0  0  0  0  0
  -19.7930  -30.7344   24.2315 H   0  0  0  0  0  0
  -17.5014  -31.6321   24.5223 H   0  0  0  0  0  0
  -15.5359  -30.3072   23.7664 H   0  0  0  0  0  0
  -15.8671  -28.0904   22.7075 H   0  0  0  0  0  0
  -24.5976  -30.6991   25.7773 H   0  0  0  0  0  0
  -24.8888  -32.2881   26.4789 H   0  0  0  0  0  0
  -25.8097  -30.8969   27.0235 H   0  0  0  0  0  0
  -26.2909  -29.6783   24.1131 H   0  0  0  0  0  0
  -27.3957  -29.7221   25.4660 H   0  0  0  0  0  0
  -27.8809  -30.4230   23.9399 H   0  0  0  0  0  0
  -27.2696  -33.3613   26.2031 H   0  0  0  0  0  0
  -28.3932  -32.6817   25.0367 H   0  0  0  0  0  0
  -28.0680  -31.8434   26.5450 H   0  0  0  0  0  0
  -28.2628  -38.0049   24.7482 H   0  0  0  0  0  0
  -28.0994  -36.2573   24.6376 H   0  0  0  0  0  0
  -27.2276  -37.1545   25.8892 H   0  0  0  0  0  0
  -20.9408  -29.8762   21.6794 H   0  0  0  0  0  0
  -26.0167  -38.2862   24.1406 H   0  0  0  0  0  0
  -31.7025  -17.6043   21.7415 H   0  0  0  0  0  0
  -25.8531  -23.7995   23.2682 H   0  0  0  0  0  0
  -27.4419  -24.3370   23.7558 H   0  0  0  0  0  0
  -27.2720  -22.9354   22.7035 H   0  0  0  0  0  0
  -29.5807  -24.4337   22.6384 H   0  0  0  0  0  0
  -29.1565  -26.1314   22.6808 H   0  0  0  0  0  0
  -30.3449  -25.5518   21.5236 H   0  0  0  0  0  0
  -28.0912  -21.0702   19.3176 H   0  0  0  0  0  0
  -29.7545  -21.4460   19.0765 H   0  0  0  0  0  0
  -26.5145  -25.8165   22.0705 H   0  0  0  0  0  0
  -26.1773  -24.5027   20.9771 H   0  0  0  0  0  0
  -28.7492  -15.4629   20.7060 H   0  0  0  0  0  0
  -28.8847  -22.4459   21.6534 H   0  0  0  0  0  0
  1 25  1  0  0  0
  1 30  2  0  0  0
  1 81  1  0  0  0
  2  3  1  0  0  0
  2 25  1  0  0  0
  2 86  1  0  0  0
  2 87  1  0  0  0
  3  4  1  0  0  0
  3 88  1  0  0  0
  3 89  1  0  0  0
  4  5  1  0  0  0
  4 90  1  0  0  0
  4 91  1  0  0  0
  5  6  1  0  0  0
  5 26  1  0  0  0
  5 92  1  0  0  0
  6 25  1  0  0  0
  6 93  1  0  0  0
  6 94  1  0  0  0
  7  8  2  0  0  0
  7 26  1  0  0  0
  7 29  1  0  0  0
  8  9  1  0  0  0
  8 22  1  0  0  0
  9 10  1  0  0  0
  9 27  2  0  0  0
 10 11  2  0  0  0
 10 15  1  0  0  0
 11 12  1  0  0  0
 11 95  1  0  0  0
 12 13  2  0  0  0
 12 96  1  0  0  0
 13 14  1  0  0  0
 13 31  1  0  0  0
 14 15  2  0  0  0
 14 97  1  0  0  0
 15 98  1  0  0  0
 16 17  2  0  0  0
 16 21  1  0  0  0
 16 31  1  0  0  0
 17 18  1  0  0  0
 17 99  1  0  0  0
 18 19  2  0  0  0
 18100  1  0  0  0
 19 20  1  0  0  0
 19 24  1  0  0  0
 20 21  2  0  0  0
 20101  1  0  0  0
 21 23  1  0  0  0
 22 28  1  0  0  0
 22 32  2  0  0  0
 26 27  1  0  0  0
 28102  1  0  0  0
 28103  1  0  0  0
 29104  1  0  0  0
 29105  1  0  0  0
 33 34  1  0  0  0
 33 66  1  0  0  0
 33 70  2  0  0  0
 34 36  1  0  0  0
 34 59  1  0  0  0
 34106  1  0  0  0
 35 44  2  0  0  0
 35 45  1  0  0  0
 35 68  1  0  0  0
 36 56  1  0  0  0
 36107  1  0  0  0
 37 39  1  0  0  0
 37 47  1  0  0  0
 37 66  1  0  0  0
 37108  1  0  0  0
 38 43  2  0  0  0
 38 46  1  0  0  0
 38 47  1  0  0  0
 39 64  1  0  0  0
 39 67  2  0  0  0
 40 52  1  0  0  0
 40 53  2  0  0  0
 40 58  1  0  0  0
 41109  1  0  0  0
 41110  1  0  0  0
 41111  1  0  0  0
 41 48  1  0  0  0
 42 43  1  0  0  0
 42 66  1  0  0  0
 42112  1  0  0  0
 42113  1  0  0  0
 43 44  1  0  0  0
 44114  1  0  0  0
 45 46  2  0  0  0
 45115  1  0  0  0
 46116  1  0  0  0
 47117  1  0  0  0
 47118  1  0  0  0
 48 56  1  0  0  0
 48 65  1  0  0  0
 48119  1  0  0  0
 49 50  1  0  0  0
 49 53  1  0  0  0
 49 64  1  0  0  0
 49120  1  0  0  0
 50 51  1  0  0  0
 50121  1  0  0  0
 50122  1  0  0  0
 51 52  1  0  0  0
 51123  1  0  0  0
 51124  1  0  0  0
 52125  1  0  0  0
 52126  1  0  0  0
 53 54  1  0  0  0
 54 55  2  0  0  0
 54127  1  0  0  0
 55 57  1  0  0  0
 55128  1  0  0  0
 56 69  2  0  0  0
 57 58  2  0  0  0
 57129  1  0  0  0
 58130  1  0  0  0
 59 60  1  0  0  0
 59 61  1  0  0  0
 59 62  1  0  0  0
 60131  1  0  0  0
 60132  1  0  0  0
 60133  1  0  0  0
 61134  1  0  0  0
 61135  1  0  0  0
 61136  1  0  0  0
 62137  1  0  0  0
 62138  1  0  0  0
 62139  1  0  0  0
 63 65  1  0  0  0
 63140  1  0  0  0
 63141  1  0  0  0
 63142  1  0  0  0
 64143  1  0  0  0
 65144  1  0  0  0
 68 80  1  0  0  0
 71 72  1  0  0  0
 71 74  2  0  0  0
 71145  1  0  0  0
 72 73  2  0  0  0
 72 84  1  0  0  0
 73 78  1  0  0  0
 73 85  1  0  0  0
 74 81  1  0  0  0
 74 85  1  0  0  0
 75 82  1  0  0  0
 75 83  2  0  0  0
 75 80  1  0  0  0
 76 79  1  0  0  0
 76146  1  0  0  0
 76147  1  0  0  0
 76148  1  0  0  0
 77149  1  0  0  0
 77150  1  0  0  0
 77151  1  0  0  0
 77 80  1  0  0  0
 78 82  1  0  0  0
 78152  1  0  0  0
 78153  1  0  0  0
 79 80  1  0  0  0
 79154  1  0  0  0
 79155  1  0  0  0
 81156  1  0  0  0
 82157  1  0  0  0
M  ISO  4   1 100  68 101  80 101  81 100
M  END
> <chiral flag>
0

> <version>
0

> <s_m_source_file>
/data/baiqing/PycharmProjects/Reinvent-master-3.2/result/LINK_invent/BTK/process_docking_weight1_custom_product_contain_oxygen_bond_distance_aromatic_linkinvent_7_9_3/rearranged_h_0174.sdf

> <i_m_source_file_index>
61

> <r_mmod_Potential_Energy-OPLS-2005>
140.305648803711

> <r_mmod_Stretch_Energy-OPLS-2005>
112.127372741699

> <r_mmod_Bend_Energy-OPLS-2005>
177.373947143555

> <r_mmod_Torsional_Energy-OPLS-2005>
267.010986328125

> <r_mmod_Improper_Torsional_Energy-OPLS-2005>
7.60074090957642

> <r_mmod_Van_der_Waal_Energy-OPLS-2005>
117.276161193848

> <r_mmod_Electrostatic_Energy-OPLS-2005>
-393.039489746094

> <r_mmod_Solvation_Energy-OPLS-2005>
-225.466262817383

> <b_mmod_Minimization_Converged-OPLS-2005>
0

> <r_mmod_RMS_Derivative-OPLS-2005>
4.11480331420898

$$$$
61
                    3D
 Structure written by MMmdl.
159167  0  0  1  0            999 V2000
  -30.6915  -14.4613   20.5637 C   0  0  0  0  0  0
  -30.4271  -12.2955   19.4196 C   0  0  0  0  0  0
  -29.4973  -12.5028   18.2046 C   0  0  0  0  0  0
  -28.0180  -12.3624   18.6179 C   0  0  0  0  0  0
  -27.6642  -13.1974   19.8777 C   0  0  2  0  0  0
  -28.7065  -12.9651   20.9968 C   0  0  0  0  0  0
  -25.2602  -13.8134   20.5677 C   0  0  0  0  0  0
  -24.1849  -13.0424   20.9176 C   0  0  0  0  0  0
  -24.6389  -11.6890   20.8732 C   0  0  0  0  0  0
  -23.9051  -10.4285   21.0412 C   0  0  0  0  0  0
  -24.3611   -9.4201   21.9186 C   0  0  0  0  0  0
  -23.6289   -8.2236   22.0757 C   0  0  0  0  0  0
  -22.4271   -8.0276   21.3546 C   0  0  0  0  0  0
  -21.9900   -9.0252   20.4656 C   0  0  0  0  0  0
  -22.7227  -10.2133   20.3062 C   0  0  0  0  0  0
  -21.6846   -6.0741   22.5280 C   0  0  0  0  0  0
  -21.4011   -6.5641   23.8216 C   0  0  0  0  0  0
  -21.3658   -5.6794   24.9176 C   0  0  0  0  0  0
  -21.6049   -4.3056   24.7226 C   0  0  0  0  0  0
  -21.8815   -3.8149   23.4344 C   0  0  0  0  0  0
  -21.9189   -4.6969   22.3404 C   0  0  0  0  0  0
  -22.7876  -13.5242   21.1837 C   0  0  0  0  0  0
  -22.1659   -4.2155   21.0979 F   0  0  0  0  0  0
  -21.5628   -3.4540   25.7737 F   0  0  0  0  0  0
  -30.0408  -13.2714   20.4494 N   0  0  0  0  0  0
  -26.3034  -12.9286   20.3379 N   0  0  0  0  0  0
  -25.9312  -11.6457   20.5771 N   0  0  0  0  0  0
  -22.0502  -12.8260   22.0400 N   0  0  0  0  0  0
  -25.4314  -15.1856   20.4091 N   0  0  0  0  0  0
  -31.8184  -14.6573   20.0971 O   0  0  0  0  0  0
  -21.6631   -6.8880   21.4244 O   0  0  0  0  0  0
  -22.3578  -14.5553   20.6682 O   0  0  0  0  0  0
  -24.6146  -31.8687   23.2100 C   0  0  0  0  0  0
  -25.9051  -32.4817   23.8382 C   0  0  1  0  0  0
  -27.2440  -27.4466   20.0782 C   0  0  0  0  0  0
  -25.5912  -33.8613   24.2322 N   0  0  0  0  0  0
  -23.4011  -30.4923   21.5499 C   0  0  2  0  0  0
  -24.8469  -28.9555   20.1157 C   0  0  0  0  0  0
  -22.7399  -29.4675   22.4991 C   0  0  0  0  0  0
  -18.0272  -28.1382   22.8491 C   0  0  0  0  0  0
  -24.1488  -36.7299   23.2640 C   0  0  0  0  0  0
  -25.9293  -30.8341   21.3642 C   0  0  0  0  0  0
  -26.0042  -29.4682   20.7122 C   0  0  0  0  0  0
  -27.1996  -28.7170   20.6970 C   0  0  0  0  0  0
  -26.0586  -26.9358   19.4971 C   0  0  0  0  0  0
  -24.8672  -27.6862   19.5113 C   0  0  0  0  0  0
  -23.6094  -29.8225   20.1646 C   0  0  0  0  0  0
  -25.4110  -36.3102   24.0340 C   0  0  1  0  0  0
  -20.5862  -28.3662   23.1323 C   0  0  2  0  0  0
  -20.6766  -26.9399   22.5419 C   0  0  0  0  0  0
  -19.5743  -26.6392   21.5216 C   0  0  0  0  0  0
  -18.1919  -26.7927   22.1625 C   0  0  0  0  0  0
  -19.1522  -28.8836   23.2904 C   0  0  0  0  0  0
  -18.9452  -30.1445   23.8913 C   0  0  0  0  0  0
  -17.6459  -30.6588   24.0568 C   0  0  0  0  0  0
  -25.9039  -34.9471   23.5121 C   0  0  0  0  0  0
  -16.5347  -29.9093   23.6329 C   0  0  0  0  0  0
  -16.7262  -28.6511   23.0347 C   0  0  0  0  0  0
  -26.4490  -31.6599   25.0710 C   0  0  0  0  0  0
  -25.3771  -31.3708   26.1470 C   0  0  0  0  0  0
  -27.0325  -30.3042   24.6087 C   0  0  0  0  0  0
  -27.6059  -32.4331   25.7465 C   0  0  0  0  0  0
  -27.5577  -37.1804   24.8465 C   0  0  0  0  0  0
  -21.4129  -29.3031   22.3724 N   0  0  0  0  0  0
  -26.4289  -37.3793   23.9413 N   0  0  0  0  0  0
  -24.6662  -31.0795   22.0995 N   0  0  0  0  0  0
  -23.4178  -28.8233   23.3039 O   0  0  0  0  0  0
  -28.4493  -26.7717   20.0788 O   0  0  0  0  0  0
  -26.5589  -34.8920   22.4678 O   0  0  0  0  0  0
  -23.5347  -32.1441   23.7505 O   0  0  0  0  0  0
  -29.0192  -18.4432   19.1603 C   0  0  0  0  0  0
  -29.0748  -17.1216   19.6332 C   0  0  0  0  0  0
  -29.8314  -19.4333   19.7509 C   0  0  0  0  0  0
  -30.6740  -19.0179   20.8178 C   0  0  0  0  0  0
  -29.9626  -16.7889   20.6743 C   0  0  0  0  0  0
  -28.5657  -24.3083   20.0667 C   0  0  0  0  0  0
  -31.6257  -19.9743   21.5125 C   0  0  0  0  0  0
  -30.5585  -20.8916   17.9637 C   0  0  0  0  0  0
  -28.7597  -22.9999   19.2863 C   0  0  0  0  0  0
  -28.6344  -25.6129   19.2521 C   0  0  0  0  0  0
  -29.5343  -21.9024   20.0522 C   0  0  0  0  0  0
  -30.7264  -17.7377   21.2647 N   0  0  0  0  0  0
  -29.9617  -15.4457   21.1185 N   0  0  0  0  0  0
  -29.8051  -20.7339   19.2054 N   0  0  0  0  0  0
  -28.3664  -24.3083   21.2868 O   0  0  0  0  0  0
  -31.4723  -12.3936   19.1209 H   0  0  0  0  0  0
  -30.3249  -11.2818   19.8108 H   0  0  0  0  0  0
  -29.7373  -11.7808   17.4228 H   0  0  0  0  0  0
  -29.6666  -13.4897   17.7703 H   0  0  0  0  0  0
  -27.8289  -11.3063   18.8124 H   0  0  0  0  0  0
  -27.3658  -12.6367   17.7875 H   0  0  0  0  0  0
  -27.7099  -14.2446   19.5831 H   0  0  0  0  0  0
  -28.6802  -11.9259   21.3273 H   0  0  0  0  0  0
  -28.4683  -13.5518   21.8847 H   0  0  0  0  0  0
  -25.2766   -9.5683   22.4748 H   0  0  0  0  0  0
  -24.0006   -7.4633   22.7475 H   0  0  0  0  0  0
  -21.0828   -8.8780   19.8970 H   0  0  0  0  0  0
  -22.3693  -10.9673   19.6165 H   0  0  0  0  0  0
  -21.2001   -7.6150   23.9725 H   0  0  0  0  0  0
  -21.1484   -6.0519   25.9082 H   0  0  0  0  0  0
  -22.0595   -2.7612   23.2840 H   0  0  0  0  0  0
  -22.4112  -11.9936   22.4821 H   0  0  0  0  0  0
  -21.1126  -13.1321   22.2596 H   0  0  0  0  0  0
  -24.6588  -15.8339   20.5136 H   0  0  0  0  0  0
  -26.2798  -15.6333   20.0871 H   0  0  0  0  0  0
  -26.7123  -32.5530   23.1147 H   0  0  0  0  0  0
  -25.0090  -33.9770   25.0486 H   0  0  0  0  0  0
  -22.6895  -31.3090   21.4094 H   0  0  0  0  0  0
  -23.3746  -35.9635   23.3319 H   0  0  0  0  0  0
  -24.3577  -36.8897   22.2050 H   0  0  0  0  0  0
  -23.7247  -37.6510   23.6642 H   0  0  0  0  0  0
  -26.0451  -31.6031   20.5994 H   0  0  0  0  0  0
  -26.8163  -30.8841   21.9839 H   0  0  0  0  0  0
  -28.0955  -29.1143   21.1541 H   0  0  0  0  0  0
  -26.0255  -25.9599   19.0362 H   0  0  0  0  0  0
  -23.9733  -27.2799   19.0585 H   0  0  0  0  0  0
  -23.7194  -30.5968   19.4040 H   0  0  0  0  0  0
  -22.7331  -29.2428   19.8689 H   0  0  0  0  0  0
  -25.1297  -36.1959   25.0835 H   0  0  0  0  0  0
  -20.9953  -28.3227   24.1447 H   0  0  0  0  0  0
  -20.5686  -26.2259   23.3601 H   0  0  0  0  0  0
  -21.6635  -26.7462   22.1200 H   0  0  0  0  0  0
  -19.6903  -25.6313   21.1222 H   0  0  0  0  0  0
  -19.6684  -27.3223   20.6764 H   0  0  0  0  0  0
  -17.4192  -26.6680   21.4026 H   0  0  0  0  0  0
  -18.0312  -26.0073   22.9026 H   0  0  0  0  0  0
  -19.7931  -30.7252   24.2289 H   0  0  0  0  0  0
  -17.5020  -31.6271   24.5162 H   0  0  0  0  0  0
  -15.5349  -30.3007   23.7650 H   0  0  0  0  0  0
  -15.8659  -28.0847   22.7052 H   0  0  0  0  0  0
  -24.5926  -30.7073   25.7817 H   0  0  0  0  0  0
  -24.8987  -32.2871   26.4941 H   0  0  0  0  0  0
  -25.8149  -30.8861   27.0208 H   0  0  0  0  0  0
  -26.2866  -29.6778   24.1182 H   0  0  0  0  0  0
  -27.4145  -29.7302   25.4539 H   0  0  0  0  0  0
  -27.8677  -30.4350   23.9202 H   0  0  0  0  0  0
  -27.2665  -33.3614   26.2070 H   0  0  0  0  0  0
  -28.3850  -32.6931   25.0287 H   0  0  0  0  0  0
  -28.0753  -31.8450   26.5361 H   0  0  0  0  0  0
  -28.2615  -38.0083   24.7508 H   0  0  0  0  0  0
  -28.1058  -36.2619   24.6310 H   0  0  0  0  0  0
  -27.2286  -37.1474   25.8866 H   0  0  0  0  0  0
  -20.9284  -29.8728   21.6931 H   0  0  0  0  0  0
  -26.0175  -38.2869   24.1422 H   0  0  0  0  0  0
  -28.3612  -18.6910   18.3397 H   0  0  0  0  0  0
  -28.4497  -16.3756   19.1663 H   0  0  0  0  0  0
  -32.1811  -20.5596   20.7794 H   0  0  0  0  0  0
  -32.3490  -19.4417   22.1307 H   0  0  0  0  0  0
  -31.0736  -20.6570   22.1577 H   0  0  0  0  0  0
  -31.1107  -19.9892   17.6955 H   0  0  0  0  0  0
  -31.2791  -21.7072   18.0423 H   0  0  0  0  0  0
  -29.8810  -21.1206   17.1393 H   0  0  0  0  0  0
  -29.2877  -23.2497   18.3667 H   0  0  0  0  0  0
  -27.7786  -22.6305   18.9890 H   0  0  0  0  0  0
  -27.9584  -25.5774   18.3998 H   0  0  0  0  0  0
  -29.6362  -25.6766   18.8267 H   0  0  0  0  0  0
  -28.9632  -21.6009   20.9325 H   0  0  0  0  0  0
  -30.4776  -22.3136   20.4170 H   0  0  0  0  0  0
  -29.0842  -15.1235   21.4932 H   0  0  0  0  0  0
  1 25  1  0  0  0
  1 30  2  0  0  0
  1 83  1  0  0  0
  2  3  1  0  0  0
  2 25  1  0  0  0
  2 86  1  0  0  0
  2 87  1  0  0  0
  3  4  1  0  0  0
  3 88  1  0  0  0
  3 89  1  0  0  0
  4  5  1  0  0  0
  4 90  1  0  0  0
  4 91  1  0  0  0
  5  6  1  0  0  0
  5 26  1  0  0  0
  5 92  1  0  0  0
  6 25  1  0  0  0
  6 93  1  0  0  0
  6 94  1  0  0  0
  7  8  2  0  0  0
  7 26  1  0  0  0
  7 29  1  0  0  0
  8  9  1  0  0  0
  8 22  1  0  0  0
  9 10  1  0  0  0
  9 27  2  0  0  0
 10 11  2  0  0  0
 10 15  1  0  0  0
 11 12  1  0  0  0
 11 95  1  0  0  0
 12 13  2  0  0  0
 12 96  1  0  0  0
 13 14  1  0  0  0
 13 31  1  0  0  0
 14 15  2  0  0  0
 14 97  1  0  0  0
 15 98  1  0  0  0
 16 17  2  0  0  0
 16 21  1  0  0  0
 16 31  1  0  0  0
 17 18  1  0  0  0
 17 99  1  0  0  0
 18 19  2  0  0  0
 18100  1  0  0  0
 19 20  1  0  0  0
 19 24  1  0  0  0
 20 21  2  0  0  0
 20101  1  0  0  0
 21 23  1  0  0  0
 22 28  1  0  0  0
 22 32  2  0  0  0
 26 27  1  0  0  0
 28102  1  0  0  0
 28103  1  0  0  0
 29104  1  0  0  0
 29105  1  0  0  0
 33 34  1  0  0  0
 33 66  1  0  0  0
 33 70  2  0  0  0
 34 36  1  0  0  0
 34 59  1  0  0  0
 34106  1  0  0  0
 35 44  2  0  0  0
 35 45  1  0  0  0
 35 68  1  0  0  0
 36 56  1  0  0  0
 36107  1  0  0  0
 37 39  1  0  0  0
 37 47  1  0  0  0
 37 66  1  0  0  0
 37108  1  0  0  0
 38 43  2  0  0  0
 38 46  1  0  0  0
 38 47  1  0  0  0
 39 64  1  0  0  0
 39 67  2  0  0  0
 40 52  1  0  0  0
 40 53  2  0  0  0
 40 58  1  0  0  0
 41109  1  0  0  0
 41110  1  0  0  0
 41111  1  0  0  0
 41 48  1  0  0  0
 42 43  1  0  0  0
 42 66  1  0  0  0
 42112  1  0  0  0
 42113  1  0  0  0
 43 44  1  0  0  0
 44114  1  0  0  0
 45 46  2  0  0  0
 45115  1  0  0  0
 46116  1  0  0  0
 47117  1  0  0  0
 47118  1  0  0  0
 48 56  1  0  0  0
 48 65  1  0  0  0
 48119  1  0  0  0
 49 50  1  0  0  0
 49 53  1  0  0  0
 49 64  1  0  0  0
 49120  1  0  0  0
 50 51  1  0  0  0
 50121  1  0  0  0
 50122  1  0  0  0
 51 52  1  0  0  0
 51123  1  0  0  0
 51124  1  0  0  0
 52125  1  0  0  0
 52126  1  0  0  0
 53 54  1  0  0  0
 54 55  2  0  0  0
 54127  1  0  0  0
 55 57  1  0  0  0
 55128  1  0  0  0
 56 69  2  0  0  0
 57 58  2  0  0  0
 57129  1  0  0  0
 58130  1  0  0  0
 59 60  1  0  0  0
 59 61  1  0  0  0
 59 62  1  0  0  0
 60131  1  0  0  0
 60132  1  0  0  0
 60133  1  0  0  0
 61134  1  0  0  0
 61135  1  0  0  0
 61136  1  0  0  0
 62137  1  0  0  0
 62138  1  0  0  0
 62139  1  0  0  0
 63 65  1  0  0  0
 63140  1  0  0  0
 63141  1  0  0  0
 63142  1  0  0  0
 64143  1  0  0  0
 65144  1  0  0  0
 68 80  1  0  0  0
 71 72  2  0  0  0
 71 73  1  0  0  0
 71145  1  0  0  0
 72 75  1  0  0  0
 72146  1  0  0  0
 73 74  2  0  0  0
 73 84  1  0  0  0
 74 77  1  0  0  0
 74 82  1  0  0  0
 75 82  2  0  0  0
 75 83  1  0  0  0
 76 79  1  0  0  0
 76 80  1  0  0  0
 76 85  2  0  0  0
 77147  1  0  0  0
 77148  1  0  0  0
 77149  1  0  0  0
 78 84  1  0  0  0
 78150  1  0  0  0
 78151  1  0  0  0
 78152  1  0  0  0
 79 81  1  0  0  0
 79153  1  0  0  0
 79154  1  0  0  0
 80155  1  0  0  0
 80156  1  0  0  0
 81 84  1  0  0  0
 81157  1  0  0  0
 81158  1  0  0  0
 83159  1  0  0  0
M  ISO  4   1 100  68 101  80 101  83 100
M  END
> <chiral flag>
0

> <version>
0

> <s_m_source_file>
/data/baiqing/PycharmProjects/Reinvent-master-3.2/result/LINK_invent/BTK/process_docking_weight1_custom_product_contain_oxygen_bond_distance_aromatic_linkinvent_7_9_3/rearranged_h_0174.sdf

> <i_m_source_file_index>
62

> <r_mmod_Potential_Energy-OPLS-2005>
-127.129959106445

> <r_mmod_Stretch_Energy-OPLS-2005>
36.2518920898438

> <r_mmod_Bend_Energy-OPLS-2005>
110.866096496582

> <r_mmod_Torsional_Energy-OPLS-2005>
251.648391723633

> <r_mmod_Improper_Torsional_Energy-OPLS-2005>
6.95867443084717

> <r_mmod_Van_der_Waal_Energy-OPLS-2005>
151.547134399414

> <r_mmod_Electrostatic_Energy-OPLS-2005>
-438.606781005859

> <r_mmod_Solvation_Energy-OPLS-2005>
-257.422088623047

> <b_mmod_Minimization_Converged-OPLS-2005>
0

> <r_mmod_RMS_Derivative-OPLS-2005>
1.37590432167053

$$$$
62
                    3D
 Structure written by MMmdl.
162170  0  0  1  0            999 V2000
  -30.6929  -14.4880   20.5022 C   0  0  0  0  0  0
  -30.4215  -12.2926   19.4375 C   0  0  0  0  0  0
  -29.4972  -12.4727   18.2135 C   0  0  0  0  0  0
  -28.0165  -12.3570   18.6237 C   0  0  0  0  0  0
  -27.6632  -13.2078   19.8734 C   0  0  2  0  0  0
  -28.7060  -13.0176   20.9989 C   0  0  0  0  0  0
  -25.2606  -13.8172   20.5691 C   0  0  0  0  0  0
  -24.1852  -13.0449   20.9184 C   0  0  0  0  0  0
  -24.6404  -11.6913   20.8740 C   0  0  0  0  0  0
  -23.9070  -10.4297   21.0418 C   0  0  0  0  0  0
  -24.3626   -9.4210   21.9197 C   0  0  0  0  0  0
  -23.6296   -8.2244   22.0766 C   0  0  0  0  0  0
  -22.4276   -8.0288   21.3553 C   0  0  0  0  0  0
  -21.9919   -9.0264   20.4647 C   0  0  0  0  0  0
  -22.7249  -10.2143   20.3060 C   0  0  0  0  0  0
  -21.6853   -6.0736   22.5282 C   0  0  0  0  0  0
  -21.4017   -6.5642   23.8214 C   0  0  0  0  0  0
  -21.3659   -5.6799   24.9179 C   0  0  0  0  0  0
  -21.6043   -4.3061   24.7225 C   0  0  0  0  0  0
  -21.8827   -3.8150   23.4348 C   0  0  0  0  0  0
  -21.9201   -4.6964   22.3406 C   0  0  0  0  0  0
  -22.7878  -13.5247   21.1859 C   0  0  0  0  0  0
  -22.1665   -4.2147   21.0984 F   0  0  0  0  0  0
  -21.5630   -3.4550   25.7737 F   0  0  0  0  0  0
  -30.0363  -13.2996   20.4398 N   0  0  0  0  0  0
  -26.3046  -12.9336   20.3378 N   0  0  0  0  0  0
  -25.9335  -11.6501   20.5789 N   0  0  0  0  0  0
  -22.0524  -12.8204   22.0394 N   0  0  0  0  0  0
  -25.4359  -15.1886   20.4107 N   0  0  0  0  0  0
  -31.8562  -14.6323   20.1150 O   0  0  0  0  0  0
  -21.6639   -6.8883   21.4244 O   0  0  0  0  0  0
  -22.3554  -14.5557   20.6720 O   0  0  0  0  0  0
  -24.6183  -31.8671   23.2110 C   0  0  0  0  0  0
  -25.9076  -32.4803   23.8407 C   0  0  1  0  0  0
  -27.2298  -27.4191   20.0898 C   0  0  0  0  0  0
  -25.5931  -33.8600   24.2333 N   0  0  0  0  0  0
  -23.4050  -30.4941   21.5524 C   0  0  2  0  0  0
  -24.8483  -28.9630   20.1142 C   0  0  0  0  0  0
  -22.7411  -29.4681   22.4990 C   0  0  0  0  0  0
  -18.0279  -28.1396   22.8489 C   0  0  0  0  0  0
  -24.1487  -36.7301   23.2637 C   0  0  0  0  0  0
  -25.9377  -30.8289   21.3664 C   0  0  0  0  0  0
  -26.0130  -29.4644   20.7082 C   0  0  0  0  0  0
  -27.2066  -28.7022   20.6895 C   0  0  0  0  0  0
  -26.0421  -26.9437   19.4835 C   0  0  0  0  0  0
  -24.8595  -27.7034   19.4966 C   0  0  0  0  0  0
  -23.6123  -29.8307   20.1664 C   0  0  0  0  0  0
  -25.4105  -36.3088   24.0334 C   0  0  1  0  0  0
  -20.5868  -28.3694   23.1301 C   0  0  2  0  0  0
  -20.6775  -26.9427   22.5412 C   0  0  0  0  0  0
  -19.5751  -26.6403   21.5212 C   0  0  0  0  0  0
  -18.1931  -26.7944   22.1620 C   0  0  0  0  0  0
  -19.1524  -28.8861   23.2898 C   0  0  0  0  0  0
  -18.9449  -30.1465   23.8912 C   0  0  0  0  0  0
  -17.6450  -30.6599   24.0575 C   0  0  0  0  0  0
  -25.9041  -34.9454   23.5119 C   0  0  0  0  0  0
  -16.5344  -29.9101   23.6332 C   0  0  0  0  0  0
  -16.7266  -28.6519   23.0349 C   0  0  0  0  0  0
  -26.4504  -31.6572   25.0723 C   0  0  0  0  0  0
  -25.3774  -31.3662   26.1465 C   0  0  0  0  0  0
  -27.0333  -30.3010   24.6102 C   0  0  0  0  0  0
  -27.6076  -32.4285   25.7496 C   0  0  0  0  0  0
  -27.5575  -37.1803   24.8464 C   0  0  0  0  0  0
  -21.4142  -29.3051   22.3701 N   0  0  0  0  0  0
  -26.4286  -37.3777   23.9408 N   0  0  0  0  0  0
  -24.6722  -31.0770   22.1013 N   0  0  0  0  0  0
  -23.4164  -28.8225   23.3047 O   0  0  0  0  0  0
  -28.3911  -26.6628   20.1043 O   0  0  0  0  0  0
  -26.5593  -34.8908   22.4672 O   0  0  0  0  0  0
  -23.5375  -32.1439   23.7492 O   0  0  0  0  0  0
  -29.7671  -19.0835   18.3749 C   0  0  0  0  0  0
  -30.0058  -16.6736   18.5824 C   0  0  0  0  0  0
  -29.7233  -18.0419   20.5831 C   0  0  0  0  0  0
  -29.9196  -17.8186   17.7674 C   0  0  0  0  0  0
  -29.6828  -19.2172   19.7814 C   0  0  0  0  0  0
  -29.9130  -16.7634   19.9923 C   0  0  0  0  0  0
  -29.9631  -17.6619   16.2971 C   0  0  0  0  0  0
  -29.1632  -22.9035   20.6899 C   0  0  0  0  0  0
  -29.8593  -21.7185   19.9216 C   0  0  0  0  0  0
  -31.7772  -24.3034   21.6788 C   0  0  0  0  0  0
  -30.4167  -24.9992   21.4814 C   0  0  0  0  0  0
  -28.2154  -25.2279   20.1806 C   0  0  0  0  0  0
  -29.5196  -24.3967   20.3715 C   0  0  2  0  0  0
  -29.7737  -18.5871   15.4538 N   0  0  0  0  0  0
  -29.4714  -20.5035   20.3810 N   0  0  0  0  0  0
  -29.9311  -15.5658   20.7836 N   0  0  0  0  0  0
  -28.3439  -22.6510   21.5851 O   0  0  0  0  0  0
  -30.6895  -21.8788   19.0211 O   0  0  0  0  0  0
  -30.1804  -24.5117   19.2151 F   0  0  0  0  0  0
  -31.4673  -12.3788   19.1333 H   0  0  0  0  0  0
  -30.3158  -11.2898   19.8561 H   0  0  0  0  0  0
  -29.7284  -11.7221   17.4554 H   0  0  0  0  0  0
  -29.6781  -13.4402   17.7453 H   0  0  0  0  0  0
  -27.8140  -11.3052   18.8273 H   0  0  0  0  0  0
  -27.3726  -12.6349   17.7888 H   0  0  0  0  0  0
  -27.6978  -14.2496   19.5548 H   0  0  0  0  0  0
  -28.6790  -11.9957   21.3799 H   0  0  0  0  0  0
  -28.4823  -13.6577   21.8533 H   0  0  0  0  0  0
  -25.2779   -9.5670   22.4762 H   0  0  0  0  0  0
  -24.0004   -7.4635   22.7487 H   0  0  0  0  0  0
  -21.0859   -8.8783   19.8941 H   0  0  0  0  0  0
  -22.3726  -10.9685   19.6158 H   0  0  0  0  0  0
  -21.1999   -7.6151   23.9708 H   0  0  0  0  0  0
  -21.1475   -6.0536   25.9081 H   0  0  0  0  0  0
  -22.0600   -2.7610   23.2851 H   0  0  0  0  0  0
  -22.4149  -11.9831   22.4704 H   0  0  0  0  0  0
  -21.1151  -13.1222   22.2641 H   0  0  0  0  0  0
  -24.6743  -15.8490   20.5228 H   0  0  0  0  0  0
  -26.2905  -15.6229   20.0863 H   0  0  0  0  0  0
  -26.7142  -32.5519   23.1174 H   0  0  0  0  0  0
  -25.0123  -33.9768   25.0508 H   0  0  0  0  0  0
  -22.6962  -31.3131   21.4150 H   0  0  0  0  0  0
  -23.3742  -35.9642   23.3295 H   0  0  0  0  0  0
  -24.3592  -36.8916   22.2052 H   0  0  0  0  0  0
  -23.7247  -37.6505   23.6657 H   0  0  0  0  0  0
  -26.0524  -31.5966   20.6000 H   0  0  0  0  0  0
  -26.8257  -30.8779   21.9856 H   0  0  0  0  0  0
  -28.1057  -29.0872   21.1513 H   0  0  0  0  0  0
  -26.0002  -25.9907   18.9803 H   0  0  0  0  0  0
  -23.9657  -27.3154   19.0274 H   0  0  0  0  0  0
  -23.7203  -30.6077   19.4092 H   0  0  0  0  0  0
  -22.7366  -29.2506   19.8704 H   0  0  0  0  0  0
  -25.1286  -36.1946   25.0831 H   0  0  0  0  0  0
  -20.9963  -28.3273   24.1416 H   0  0  0  0  0  0
  -20.5696  -26.2301   23.3606 H   0  0  0  0  0  0
  -21.6649  -26.7490   22.1191 H   0  0  0  0  0  0
  -19.6920  -25.6314   21.1239 H   0  0  0  0  0  0
  -19.6691  -27.3218   20.6744 H   0  0  0  0  0  0
  -17.4201  -26.6694   21.4023 H   0  0  0  0  0  0
  -18.0335  -26.0092   22.9019 H   0  0  0  0  0  0
  -19.7920  -30.7286   24.2285 H   0  0  0  0  0  0
  -17.5002  -31.6276   24.5177 H   0  0  0  0  0  0
  -15.5345  -30.3010   23.7649 H   0  0  0  0  0  0
  -15.8666  -28.0851   22.7049 H   0  0  0  0  0  0
  -24.5951  -30.7011   25.7787 H   0  0  0  0  0  0
  -24.8976  -32.2810   26.4953 H   0  0  0  0  0  0
  -25.8140  -30.8796   27.0198 H   0  0  0  0  0  0
  -26.2873  -29.6764   24.1171 H   0  0  0  0  0  0
  -27.4107  -29.7250   25.4567 H   0  0  0  0  0  0
  -27.8713  -30.4320   23.9249 H   0  0  0  0  0  0
  -27.2693  -33.3566   26.2122 H   0  0  0  0  0  0
  -28.3874  -32.6869   25.0316 H   0  0  0  0  0  0
  -28.0763  -31.8374   26.5382 H   0  0  0  0  0  0
  -28.2584  -38.0105   24.7512 H   0  0  0  0  0  0
  -28.1073  -36.2635   24.6286 H   0  0  0  0  0  0
  -27.2296  -37.1448   25.8867 H   0  0  0  0  0  0
  -20.9306  -29.8738   21.6892 H   0  0  0  0  0  0
  -26.0163  -38.2845   24.1423 H   0  0  0  0  0  0
  -29.6883  -19.9585   17.7461 H   0  0  0  0  0  0
  -30.1183  -15.7114   18.1043 H   0  0  0  0  0  0
  -29.6245  -18.1226   21.6562 H   0  0  0  0  0  0
  -30.1696  -16.6512   15.9340 H   0  0  0  0  0  0
  -32.3849  -24.8507   22.3993 H   0  0  0  0  0  0
  -32.3394  -24.2573   20.7453 H   0  0  0  0  0  0
  -31.6702  -23.2860   22.0564 H   0  0  0  0  0  0
  -30.6084  -26.0464   21.2456 H   0  0  0  0  0  0
  -29.8734  -25.0038   22.4281 H   0  0  0  0  0  0
  -27.5219  -25.0245   20.9985 H   0  0  0  0  0  0
  -27.7445  -24.8637   19.2680 H   0  0  0  0  0  0
  -29.5807  -19.4752   15.9039 H   0  0  0  0  0  0
  -28.9158  -20.5417   21.2265 H   0  0  0  0  0  0
  -29.0885  -15.3758   21.3048 H   0  0  0  0  0  0
  1 25  1  0  0  0
  1 30  2  0  0  0
  1 86  1  0  0  0
  2  3  1  0  0  0
  2 25  1  0  0  0
  2 90  1  0  0  0
  2 91  1  0  0  0
  3  4  1  0  0  0
  3 92  1  0  0  0
  3 93  1  0  0  0
  4  5  1  0  0  0
  4 94  1  0  0  0
  4 95  1  0  0  0
  5  6  1  0  0  0
  5 26  1  0  0  0
  5 96  1  0  0  0
  6 25  1  0  0  0
  6 97  1  0  0  0
  6 98  1  0  0  0
  7  8  2  0  0  0
  7 26  1  0  0  0
  7 29  1  0  0  0
  8  9  1  0  0  0
  8 22  1  0  0  0
  9 10  1  0  0  0
  9 27  2  0  0  0
 10 11  2  0  0  0
 10 15  1  0  0  0
 11 12  1  0  0  0
 11 99  1  0  0  0
 12 13  2  0  0  0
 12100  1  0  0  0
 13 14  1  0  0  0
 13 31  1  0  0  0
 14 15  2  0  0  0
 14101  1  0  0  0
 15102  1  0  0  0
 16 17  2  0  0  0
 16 21  1  0  0  0
 16 31  1  0  0  0
 17 18  1  0  0  0
 17103  1  0  0  0
 18 19  2  0  0  0
 18104  1  0  0  0
 19 20  1  0  0  0
 19 24  1  0  0  0
 20 21  2  0  0  0
 20105  1  0  0  0
 21 23  1  0  0  0
 22 28  1  0  0  0
 22 32  2  0  0  0
 26 27  1  0  0  0
 28106  1  0  0  0
 28107  1  0  0  0
 29108  1  0  0  0
 29109  1  0  0  0
 33 34  1  0  0  0
 33 66  1  0  0  0
 33 70  2  0  0  0
 34 36  1  0  0  0
 34 59  1  0  0  0
 34110  1  0  0  0
 35 44  2  0  0  0
 35 45  1  0  0  0
 35 68  1  0  0  0
 36 56  1  0  0  0
 36111  1  0  0  0
 37 39  1  0  0  0
 37 47  1  0  0  0
 37 66  1  0  0  0
 37112  1  0  0  0
 38 43  2  0  0  0
 38 46  1  0  0  0
 38 47  1  0  0  0
 39 64  1  0  0  0
 39 67  2  0  0  0
 40 52  1  0  0  0
 40 53  2  0  0  0
 40 58  1  0  0  0
 41113  1  0  0  0
 41114  1  0  0  0
 41115  1  0  0  0
 41 48  1  0  0  0
 42 43  1  0  0  0
 42 66  1  0  0  0
 42116  1  0  0  0
 42117  1  0  0  0
 43 44  1  0  0  0
 44118  1  0  0  0
 45 46  2  0  0  0
 45119  1  0  0  0
 46120  1  0  0  0
 47121  1  0  0  0
 47122  1  0  0  0
 48 56  1  0  0  0
 48 65  1  0  0  0
 48123  1  0  0  0
 49 50  1  0  0  0
 49 53  1  0  0  0
 49 64  1  0  0  0
 49124  1  0  0  0
 50 51  1  0  0  0
 50125  1  0  0  0
 50126  1  0  0  0
 51 52  1  0  0  0
 51127  1  0  0  0
 51128  1  0  0  0
 52129  1  0  0  0
 52130  1  0  0  0
 53 54  1  0  0  0
 54 55  2  0  0  0
 54131  1  0  0  0
 55 57  1  0  0  0
 55132  1  0  0  0
 56 69  2  0  0  0
 57 58  2  0  0  0
 57133  1  0  0  0
 58134  1  0  0  0
 59 60  1  0  0  0
 59 61  1  0  0  0
 59 62  1  0  0  0
 60135  1  0  0  0
 60136  1  0  0  0
 60137  1  0  0  0
 61138  1  0  0  0
 61139  1  0  0  0
 61140  1  0  0  0
 62141  1  0  0  0
 62142  1  0  0  0
 62143  1  0  0  0
 63 65  1  0  0  0
 63144  1  0  0  0
 63145  1  0  0  0
 63146  1  0  0  0
 64147  1  0  0  0
 65148  1  0  0  0
 68 82  1  0  0  0
 71 74  2  0  0  0
 71 75  1  0  0  0
 71149  1  0  0  0
 72 74  1  0  0  0
 72 76  2  0  0  0
 72150  1  0  0  0
 73 75  2  0  0  0
 73 76  1  0  0  0
 73151  1  0  0  0
 74 77  1  0  0  0
 75 85  1  0  0  0
 76 86  1  0  0  0
 77 84  2  0  0  0
 77152  1  0  0  0
 78 79  1  0  0  0
 78 83  1  0  0  0
 78 87  2  0  0  0
 79 85  1  0  0  0
 79 88  2  0  0  0
 80 81  1  0  0  0
 80153  1  0  0  0
 80154  1  0  0  0
 80155  1  0  0  0
 81 83  1  0  0  0
 81156  1  0  0  0
 81157  1  0  0  0
 82 83  1  0  0  0
 82158  1  0  0  0
 82159  1  0  0  0
 83 89  1  0  0  0
 84160  1  0  0  0
 85161  1  0  0  0
 86162  1  0  0  0
M  ISO  4   1 100  68 101  82 101  86 100
M  END
> <chiral flag>
0

> <version>
0

> <s_m_source_file>
/data/baiqing/PycharmProjects/Reinvent-master-3.2/result/LINK_invent/BTK/process_docking_weight1_custom_product_contain_oxygen_bond_distance_aromatic_linkinvent_7_9_3/rearranged_h_0174.sdf

> <i_m_source_file_index>
63

> <r_mmod_Potential_Energy-OPLS-2005>
97.8898391723633

> <r_mmod_Stretch_Energy-OPLS-2005>
47.427433013916

> <r_mmod_Bend_Energy-OPLS-2005>
101.813293457031

> <r_mmod_Torsional_Energy-OPLS-2005>
279.516906738281

> <r_mmod_Improper_Torsional_Energy-OPLS-2005>
7.69906044006348

> <r_mmod_Van_der_Waal_Energy-OPLS-2005>
165.181030273438

> <r_mmod_Electrostatic_Energy-OPLS-2005>
-272.852020263672

> <r_mmod_Solvation_Energy-OPLS-2005>
-248.402053833008

> <b_mmod_Minimization_Converged-OPLS-2005>
0

> <r_mmod_RMS_Derivative-OPLS-2005>
1.92517113685608

$$$$
63
                    3D
 Structure written by MMmdl.
157165  0  0  1  0            999 V2000
  -30.6258  -14.6032   20.4993 C   0  0  0  0  0  0
  -30.4441  -12.3702   19.4379 C   0  0  0  0  0  0
  -29.5033  -12.4838   18.2183 C   0  0  0  0  0  0
  -28.0288  -12.3131   18.6374 C   0  0  0  0  0  0
  -27.6554  -13.1750   19.8697 C   0  0  2  0  0  0
  -28.7042  -13.0391   20.9959 C   0  0  0  0  0  0
  -25.2591  -13.7975   20.5735 C   0  0  0  0  0  0
  -24.1824  -13.0336   20.9274 C   0  0  0  0  0  0
  -24.6345  -11.6802   20.8807 C   0  0  0  0  0  0
  -23.9005  -10.4229   21.0462 C   0  0  0  0  0  0
  -24.3566   -9.4157   21.9232 C   0  0  0  0  0  0
  -23.6255   -8.2189   22.0771 C   0  0  0  0  0  0
  -22.4244   -8.0241   21.3545 C   0  0  0  0  0  0
  -21.9874   -9.0217   20.4657 C   0  0  0  0  0  0
  -22.7192  -10.2102   20.3088 C   0  0  0  0  0  0
  -21.6835   -6.0712   22.5280 C   0  0  0  0  0  0
  -21.3999   -6.5632   23.8211 C   0  0  0  0  0  0
  -21.3649   -5.6792   24.9181 C   0  0  0  0  0  0
  -21.6041   -4.3054   24.7238 C   0  0  0  0  0  0
  -21.8817   -3.8138   23.4361 C   0  0  0  0  0  0
  -21.9189   -4.6945   22.3415 C   0  0  0  0  0  0
  -22.7863  -13.5216   21.1885 C   0  0  0  0  0  0
  -22.1667   -4.2128   21.0995 F   0  0  0  0  0  0
  -21.5627   -3.4545   25.7756 F   0  0  0  0  0  0
  -30.0184  -13.3797   20.4239 N   0  0  0  0  0  0
  -26.2982  -12.9109   20.3357 N   0  0  0  0  0  0
  -25.9258  -11.6317   20.5801 N   0  0  0  0  0  0
  -22.0454  -12.8254   22.0428 N   0  0  0  0  0  0
  -25.4313  -15.1638   20.4084 N   0  0  0  0  0  0
  -31.7882  -14.7749   20.1229 O   0  0  0  0  0  0
  -21.6613   -6.8836   21.4232 O   0  0  0  0  0  0
  -22.3617  -14.5538   20.6704 O   0  0  0  0  0  0
  -24.6157  -31.8674   23.2084 C   0  0  0  0  0  0
  -25.9033  -32.4824   23.8401 C   0  0  1  0  0  0
  -27.2555  -27.4296   20.1182 C   0  0  0  0  0  0
  -25.5886  -33.8618   24.2355 N   0  0  0  0  0  0
  -23.4077  -30.4877   21.5456 C   0  0  2  0  0  0
  -24.8639  -28.9518   20.1113 C   0  0  0  0  0  0
  -22.7433  -29.4656   22.4958 C   0  0  0  0  0  0
  -18.0289  -28.1385   22.8498 C   0  0  0  0  0  0
  -24.1485  -36.7299   23.2640 C   0  0  0  0  0  0
  -25.9359  -30.8333   21.3611 C   0  0  0  0  0  0
  -26.0197  -29.4656   20.7153 C   0  0  0  0  0  0
  -27.2175  -28.7122   20.7179 C   0  0  0  0  0  0
  -26.0895  -26.9377   19.4968 C   0  0  0  0  0  0
  -24.8938  -27.6864   19.4977 C   0  0  0  0  0  0
  -23.6216  -29.8155   20.1607 C   0  0  0  0  0  0
  -25.4103  -36.3116   24.0357 C   0  0  1  0  0  0
  -20.5884  -28.3673   23.1318 C   0  0  2  0  0  0
  -20.6793  -26.9403   22.5419 C   0  0  0  0  0  0
  -19.5761  -26.6395   21.5221 C   0  0  0  0  0  0
  -18.1941  -26.7941   22.1626 C   0  0  0  0  0  0
  -19.1539  -28.8845   23.2916 C   0  0  0  0  0  0
  -18.9458  -30.1457   23.8913 C   0  0  0  0  0  0
  -17.6462  -30.6589   24.0574 C   0  0  0  0  0  0
  -25.9026  -34.9476   23.5150 C   0  0  0  0  0  0
  -16.5355  -29.9089   23.6321 C   0  0  0  0  0  0
  -16.7282  -28.6506   23.0341 C   0  0  0  0  0  0
  -26.4459  -31.6591   25.0713 C   0  0  0  0  0  0
  -25.3725  -31.3672   26.1468 C   0  0  0  0  0  0
  -27.0282  -30.3043   24.6039 C   0  0  0  0  0  0
  -27.6065  -32.4280   25.7458 C   0  0  0  0  0  0
  -27.5584  -37.1809   24.8476 C   0  0  0  0  0  0
  -21.4155  -29.3032   22.3709 N   0  0  0  0  0  0
  -26.4295  -37.3791   23.9423 N   0  0  0  0  0  0
  -24.6710  -31.0789   22.0967 N   0  0  0  0  0  0
  -23.4203  -28.8210   23.3015 O   0  0  0  0  0  0
  -28.3754  -26.6193   20.1591 O   0  0  0  0  0  0
  -26.5587  -34.8928   22.4719 O   0  0  0  0  0  0
  -23.5347  -32.1404   23.7471 O   0  0  0  0  0  0
  -29.0586  -19.3445   20.2422 C   0  0  0  0  0  0
  -31.2242  -19.1423   21.2749 C   0  0  0  0  0  0
  -28.9168  -17.9347   20.2000 C   0  0  0  0  0  0
  -30.1913  -19.9731   20.7827 C   0  0  0  0  0  0
  -29.9542  -17.0802   20.7133 C   0  0  0  0  0  0
  -31.0992  -17.7250   21.2621 C   0  0  0  0  0  0
  -28.6714  -26.1016   21.4039 C   0  0  0  0  0  0
  -27.6854  -17.4541   19.5141 C   0  0  0  0  0  0
  -29.1142  -24.8550   21.7196 C   0  0  0  0  0  0
  -29.4333  -23.7605   20.7370 C   0  0  0  0  0  0
  -29.3270  -22.2597   21.2242 C   0  0  0  0  0  0
  -26.4097  -18.2809   19.6859 C   0  0  0  0  0  0
  -30.2748  -21.4102   20.7556 N   0  0  0  0  0  0
  -29.7846  -15.6345   20.7959 N   0  0  0  0  0  0
  -27.6410  -16.4444   18.8133 O   0  0  0  0  0  0
  -29.7577  -23.9960   19.5679 O   0  0  0  0  0  0
  -28.4422  -21.9078   22.0120 O   0  0  0  0  0  0
  -29.2606  -24.5707   23.0259 O   0  0  0  0  0  0
  -32.0822  -16.9888   21.8348 F   0  0  0  0  0  0
  -31.4792  -12.5136   19.1223 H   0  0  0  0  0  0
  -30.3994  -11.3726   19.8766 H   0  0  0  0  0  0
  -29.7664  -11.7330   17.4720 H   0  0  0  0  0  0
  -29.6385  -13.4538   17.7373 H   0  0  0  0  0  0
  -27.8688  -11.2586   18.8663 H   0  0  0  0  0  0
  -27.3690  -12.5451   17.8001 H   0  0  0  0  0  0
  -27.6762  -14.1981   19.5260 H   0  0  0  0  0  0
  -28.7190  -12.0232   21.3923 H   0  0  0  0  0  0
  -28.4501  -13.6809   21.8409 H   0  0  0  0  0  0
  -25.2696   -9.5646   22.4822 H   0  0  0  0  0  0
  -23.9959   -7.4574   22.7483 H   0  0  0  0  0  0
  -21.0804   -8.8738   19.8959 H   0  0  0  0  0  0
  -22.3654  -10.9653   19.6210 H   0  0  0  0  0  0
  -21.1983   -7.6142   23.9710 H   0  0  0  0  0  0
  -21.1476   -6.0530   25.9084 H   0  0  0  0  0  0
  -22.0605   -2.7599   23.2878 H   0  0  0  0  0  0
  -22.4005  -11.9891   22.4814 H   0  0  0  0  0  0
  -21.1071  -13.1315   22.2577 H   0  0  0  0  0  0
  -24.6298  -15.7835   20.4425 H   0  0  0  0  0  0
  -26.1943  -15.5234   19.8431 H   0  0  0  0  0  0
  -26.7115  -32.5539   23.1186 H   0  0  0  0  0  0
  -25.0079  -33.9766   25.0530 H   0  0  0  0  0  0
  -22.6962  -31.3042   21.4020 H   0  0  0  0  0  0
  -23.3747  -35.9630   23.3313 H   0  0  0  0  0  0
  -24.3594  -36.8880   22.2050 H   0  0  0  0  0  0
  -23.7234  -37.6514   23.6631 H   0  0  0  0  0  0
  -26.0453  -31.5948   20.5869 H   0  0  0  0  0  0
  -26.8260  -30.8956   21.9764 H   0  0  0  0  0  0
  -28.1051  -29.1009   21.1954 H   0  0  0  0  0  0
  -26.1056  -25.9614   19.0333 H   0  0  0  0  0  0
  -24.0064  -27.2811   19.0312 H   0  0  0  0  0  0
  -23.7267  -30.5902   19.3994 H   0  0  0  0  0  0
  -22.7468  -29.2310   19.8679 H   0  0  0  0  0  0
  -25.1275  -36.1985   25.0850 H   0  0  0  0  0  0
  -20.9980  -28.3230   24.1439 H   0  0  0  0  0  0
  -20.5710  -26.2259   23.3597 H   0  0  0  0  0  0
  -21.6662  -26.7464   22.1191 H   0  0  0  0  0  0
  -19.6921  -25.6310   21.1234 H   0  0  0  0  0  0
  -19.6717  -27.3223   20.6764 H   0  0  0  0  0  0
  -17.4223  -26.6701   21.4020 H   0  0  0  0  0  0
  -18.0326  -26.0082   22.9009 H   0  0  0  0  0  0
  -19.7935  -30.7282   24.2266 H   0  0  0  0  0  0
  -17.5016  -31.6261   24.5188 H   0  0  0  0  0  0
  -15.5357  -30.3004   23.7637 H   0  0  0  0  0  0
  -15.8680  -28.0849   22.7023 H   0  0  0  0  0  0
  -24.5931  -30.6983   25.7807 H   0  0  0  0  0  0
  -24.8872  -32.2806   26.4914 H   0  0  0  0  0  0
  -25.8089  -30.8862   27.0231 H   0  0  0  0  0  0
  -26.2812  -29.6811   24.1109 H   0  0  0  0  0  0
  -27.4113  -29.7264   25.4462 H   0  0  0  0  0  0
  -27.8621  -30.4399   23.9146 H   0  0  0  0  0  0
  -27.2739  -33.3602   26.2048 H   0  0  0  0  0  0
  -28.3864  -32.6795   25.0249 H   0  0  0  0  0  0
  -28.0740  -31.8371   26.5349 H   0  0  0  0  0  0
  -28.2620  -38.0086   24.7510 H   0  0  0  0  0  0
  -28.1061  -36.2624   24.6319 H   0  0  0  0  0  0
  -27.2308  -37.1475   25.8880 H   0  0  0  0  0  0
  -20.9306  -29.8707   21.6901 H   0  0  0  0  0  0
  -26.0187  -38.2875   24.1404 H   0  0  0  0  0  0
  -28.2902  -19.9806   19.8230 H   0  0  0  0  0  0
  -32.1131  -19.5846   21.7001 H   0  0  0  0  0  0
  -28.4819  -26.8240   22.1883 H   0  0  0  0  0  0
  -26.3318  -18.6649   20.7041 H   0  0  0  0  0  0
  -25.5254  -17.6787   19.4822 H   0  0  0  0  0  0
  -26.4014  -19.1204   18.9906 H   0  0  0  0  0  0
  -31.0395  -21.8332   20.2451 H   0  0  0  0  0  0
  -28.8373  -15.3225   20.9401 H   0  0  0  0  0  0
  -29.2913  -23.6243   23.1147 H   0  0  0  0  0  0
  1 25  1  0  0  0
  1 30  2  0  0  0
  1 84  1  0  0  0
  2  3  1  0  0  0
  2 25  1  0  0  0
  2 90  1  0  0  0
  2 91  1  0  0  0
  3  4  1  0  0  0
  3 92  1  0  0  0
  3 93  1  0  0  0
  4  5  1  0  0  0
  4 94  1  0  0  0
  4 95  1  0  0  0
  5  6  1  0  0  0
  5 26  1  0  0  0
  5 96  1  0  0  0
  6 25  1  0  0  0
  6 97  1  0  0  0
  6 98  1  0  0  0
  7  8  2  0  0  0
  7 26  1  0  0  0
  7 29  1  0  0  0
  8  9  1  0  0  0
  8 22  1  0  0  0
  9 10  1  0  0  0
  9 27  2  0  0  0
 10 11  2  0  0  0
 10 15  1  0  0  0
 11 12  1  0  0  0
 11 99  1  0  0  0
 12 13  2  0  0  0
 12100  1  0  0  0
 13 14  1  0  0  0
 13 31  1  0  0  0
 14 15  2  0  0  0
 14101  1  0  0  0
 15102  1  0  0  0
 16 17  2  0  0  0
 16 21  1  0  0  0
 16 31  1  0  0  0
 17 18  1  0  0  0
 17103  1  0  0  0
 18 19  2  0  0  0
 18104  1  0  0  0
 19 20  1  0  0  0
 19 24  1  0  0  0
 20 21  2  0  0  0
 20105  1  0  0  0
 21 23  1  0  0  0
 22 28  1  0  0  0
 22 32  2  0  0  0
 26 27  1  0  0  0
 28106  1  0  0  0
 28107  1  0  0  0
 29108  1  0  0  0
 29109  1  0  0  0
 33 34  1  0  0  0
 33 66  1  0  0  0
 33 70  2  0  0  0
 34 36  1  0  0  0
 34 59  1  0  0  0
 34110  1  0  0  0
 35 44  2  0  0  0
 35 45  1  0  0  0
 35 68  1  0  0  0
 36 56  1  0  0  0
 36111  1  0  0  0
 37 39  1  0  0  0
 37 47  1  0  0  0
 37 66  1  0  0  0
 37112  1  0  0  0
 38 43  2  0  0  0
 38 46  1  0  0  0
 38 47  1  0  0  0
 39 64  1  0  0  0
 39 67  2  0  0  0
 40 52  1  0  0  0
 40 53  2  0  0  0
 40 58  1  0  0  0
 41113  1  0  0  0
 41114  1  0  0  0
 41115  1  0  0  0
 41 48  1  0  0  0
 42 43  1  0  0  0
 42 66  1  0  0  0
 42116  1  0  0  0
 42117  1  0  0  0
 43 44  1  0  0  0
 44118  1  0  0  0
 45 46  2  0  0  0
 45119  1  0  0  0
 46120  1  0  0  0
 47121  1  0  0  0
 47122  1  0  0  0
 48 56  1  0  0  0
 48 65  1  0  0  0
 48123  1  0  0  0
 49 50  1  0  0  0
 49 53  1  0  0  0
 49 64  1  0  0  0
 49124  1  0  0  0
 50 51  1  0  0  0
 50125  1  0  0  0
 50126  1  0  0  0
 51 52  1  0  0  0
 51127  1  0  0  0
 51128  1  0  0  0
 52129  1  0  0  0
 52130  1  0  0  0
 53 54  1  0  0  0
 54 55  2  0  0  0
 54131  1  0  0  0
 55 57  1  0  0  0
 55132  1  0  0  0
 56 69  2  0  0  0
 57 58  2  0  0  0
 57133  1  0  0  0
 58134  1  0  0  0
 59 60  1  0  0  0
 59 61  1  0  0  0
 59 62  1  0  0  0
 60135  1  0  0  0
 60136  1  0  0  0
 60137  1  0  0  0
 61138  1  0  0  0
 61139  1  0  0  0
 61140  1  0  0  0
 62141  1  0  0  0
 62142  1  0  0  0
 62143  1  0  0  0
 63 65  1  0  0  0
 63144  1  0  0  0
 63145  1  0  0  0
 63146  1  0  0  0
 64147  1  0  0  0
 65148  1  0  0  0
 68 77  1  0  0  0
 71 73  2  0  0  0
 71 74  1  0  0  0
 71149  1  0  0  0
 72 74  2  0  0  0
 72 76  1  0  0  0
 72150  1  0  0  0
 73 75  1  0  0  0
 73 78  1  0  0  0
 74 83  1  0  0  0
 75 76  2  0  0  0
 75 84  1  0  0  0
 76 89  1  0  0  0
 77 79  2  0  0  0
 77151  1  0  0  0
 78 82  1  0  0  0
 78 85  2  0  0  0
 79 80  1  0  0  0
 79 88  1  0  0  0
 80 81  1  0  0  0
 80 86  2  0  0  0
 81 83  1  0  0  0
 81 87  2  0  0  0
 82152  1  0  0  0
 82153  1  0  0  0
 82154  1  0  0  0
 83155  1  0  0  0
 84156  1  0  0  0
 88157  1  0  0  0
M  ISO  4   1 100  68 101  77 101  84 100
M  END
> <chiral flag>
0

> <version>
0

> <s_m_source_file>
/data/baiqing/PycharmProjects/Reinvent-master-3.2/result/LINK_invent/BTK/process_docking_weight1_custom_product_contain_oxygen_bond_distance_aromatic_linkinvent_7_9_3/rearranged_h_0174.sdf

> <i_m_source_file_index>
64

> <r_mmod_Potential_Energy-OPLS-2005>
108.090774536133

> <r_mmod_Stretch_Energy-OPLS-2005>
54.7702598571777

> <r_mmod_Bend_Energy-OPLS-2005>
115.128242492676

> <r_mmod_Torsional_Energy-OPLS-2005>
311.687072753906

> <r_mmod_Improper_Torsional_Energy-OPLS-2005>
8.66136360168457

> <r_mmod_Van_der_Waal_Energy-OPLS-2005>
152.452514648438

> <r_mmod_Electrostatic_Energy-OPLS-2005>
-326.116851806641

> <r_mmod_Solvation_Energy-OPLS-2005>
-238.444396972656

> <b_mmod_Minimization_Converged-OPLS-2005>
0

> <r_mmod_RMS_Derivative-OPLS-2005>
2.38795876502991

$$$$
64
                    3D
 Structure written by MMmdl.
152160  0  0  1  0            999 V2000
  -30.6490  -14.5967   20.4470 C   0  0  0  0  0  0
  -30.4223  -12.3454   19.4637 C   0  0  0  0  0  0
  -29.5080  -12.4694   18.2277 C   0  0  0  0  0  0
  -28.0282  -12.3367   18.6353 C   0  0  0  0  0  0
  -27.6508  -13.2157   19.8575 C   0  0  2  0  0  0
  -28.6913  -13.0914   20.9928 C   0  0  0  0  0  0
  -25.2558  -13.8163   20.5679 C   0  0  0  0  0  0
  -24.1807  -13.0436   20.9157 C   0  0  0  0  0  0
  -24.6379  -11.6908   20.8722 C   0  0  0  0  0  0
  -23.9062  -10.4287   21.0396 C   0  0  0  0  0  0
  -24.3612   -9.4195   21.9169 C   0  0  0  0  0  0
  -23.6283   -8.2234   22.0734 C   0  0  0  0  0  0
  -22.4255   -8.0262   21.3542 C   0  0  0  0  0  0
  -21.9894   -9.0244   20.4640 C   0  0  0  0  0  0
  -22.7237  -10.2113   20.3049 C   0  0  0  0  0  0
  -21.6839   -6.0715   22.5284 C   0  0  0  0  0  0
  -21.4011   -6.5622   23.8216 C   0  0  0  0  0  0
  -21.3665   -5.6765   24.9172 C   0  0  0  0  0  0
  -21.6046   -4.3031   24.7221 C   0  0  0  0  0  0
  -21.8833   -3.8127   23.4353 C   0  0  0  0  0  0
  -21.9202   -4.6952   22.3399 C   0  0  0  0  0  0
  -22.7843  -13.5242   21.1846 C   0  0  0  0  0  0
  -22.1664   -4.2145   21.0985 F   0  0  0  0  0  0
  -21.5637   -3.4526   25.7739 F   0  0  0  0  0  0
  -30.0152  -13.3864   20.4259 N   0  0  0  0  0  0
  -26.2970  -12.9336   20.3287 N   0  0  0  0  0  0
  -25.9298  -11.6498   20.5730 N   0  0  0  0  0  0
  -22.0488  -12.8224   22.0399 N   0  0  0  0  0  0
  -25.4345  -15.1874   20.4165 N   0  0  0  0  0  0
  -31.8266  -14.7177   20.0947 O   0  0  0  0  0  0
  -21.6626   -6.8856   21.4240 O   0  0  0  0  0  0
  -22.3538  -14.5574   20.6738 O   0  0  0  0  0  0
  -24.6219  -31.8625   23.2029 C   0  0  0  0  0  0
  -25.9087  -32.4791   23.8353 C   0  0  1  0  0  0
  -27.2341  -27.3629   20.0967 C   0  0  0  0  0  0
  -25.5913  -33.8584   24.2291 N   0  0  0  0  0  0
  -23.4133  -30.4839   21.5451 C   0  0  2  0  0  0
  -24.8586  -28.9391   20.1089 C   0  0  0  0  0  0
  -22.7454  -29.4630   22.4957 C   0  0  0  0  0  0
  -18.0284  -28.1402   22.8480 C   0  0  0  0  0  0
  -24.1487  -36.7306   23.2636 C   0  0  0  0  0  0
  -25.9482  -30.8014   21.3668 C   0  0  0  0  0  0
  -26.0207  -29.4286   20.7165 C   0  0  0  0  0  0
  -27.2035  -28.6436   20.7147 C   0  0  0  0  0  0
  -26.0481  -26.9027   19.4821 C   0  0  0  0  0  0
  -24.8703  -27.6773   19.4890 C   0  0  0  0  0  0
  -23.6252  -29.8155   20.1593 C   0  0  0  0  0  0
  -25.4103  -36.3087   24.0338 C   0  0  1  0  0  0
  -20.5879  -28.3685   23.1300 C   0  0  2  0  0  0
  -20.6775  -26.9413   22.5414 C   0  0  0  0  0  0
  -19.5757  -26.6395   21.5213 C   0  0  0  0  0  0
  -18.1930  -26.7948   22.1617 C   0  0  0  0  0  0
  -19.1535  -28.8865   23.2884 C   0  0  0  0  0  0
  -18.9459  -30.1470   23.8895 C   0  0  0  0  0  0
  -17.6459  -30.6596   24.0571 C   0  0  0  0  0  0
  -25.9041  -34.9461   23.5118 C   0  0  0  0  0  0
  -16.5350  -29.9094   23.6337 C   0  0  0  0  0  0
  -16.7273  -28.6524   23.0335 C   0  0  0  0  0  0
  -26.4488  -31.6589   25.0707 C   0  0  0  0  0  0
  -25.3740  -31.3718   26.1453 C   0  0  0  0  0  0
  -27.0305  -30.3018   24.6105 C   0  0  0  0  0  0
  -27.6068  -32.4305   25.7459 C   0  0  0  0  0  0
  -27.5587  -37.1791   24.8457 C   0  0  0  0  0  0
  -21.4177  -29.3035   22.3696 N   0  0  0  0  0  0
  -26.4284  -37.3780   23.9425 N   0  0  0  0  0  0
  -24.6801  -31.0656   22.0959 N   0  0  0  0  0  0
  -23.4199  -28.8176   23.3027 O   0  0  0  0  0  0
  -28.3963  -26.5951   20.1562 O   0  0  0  0  0  0
  -26.5606  -34.8937   22.4679 O   0  0  0  0  0  0
  -23.5393  -32.1407   23.7379 O   0  0  0  0  0  0
  -29.3819  -17.6949   17.5730 C   0  0  0  0  0  0
  -29.5304  -16.6235   18.4660 C   0  0  0  0  0  0
  -29.4608  -19.0069   18.0595 C   0  0  0  0  0  0
  -29.7687  -16.8606   19.8368 C   0  0  0  0  0  0
  -29.6442  -19.2251   19.4412 C   0  0  0  0  0  0
  -29.1172  -22.8939   19.6521 C   0  0  0  0  0  0
  -28.3590  -24.0093   19.9064 C   0  0  0  0  0  0
  -28.8344  -21.5100   20.1043 C   0  0  0  0  0  0
  -28.6079  -25.4262   19.3067 C   0  0  0  0  0  0
  -29.7926  -18.1570   20.3058 N   0  0  0  0  0  0
  -29.8047  -20.6186   19.7760 N   0  0  0  0  0  0
  -29.8655  -15.6878   20.6787 N   0  0  0  0  0  0
  -27.8295  -21.1851   20.7451 O   0  0  0  0  0  0
  -27.2646  -24.0154   20.6855 O   0  0  0  0  0  0
  -29.3691  -20.0505   17.1961 F   0  0  0  0  0  0
  -31.4705  -12.4282   19.1715 H   0  0  0  0  0  0
  -30.3129  -11.3592   19.9150 H   0  0  0  0  0  0
  -29.7612  -11.7017   17.4961 H   0  0  0  0  0  0
  -29.6787  -13.4216   17.7277 H   0  0  0  0  0  0
  -27.8541  -11.2867   18.8736 H   0  0  0  0  0  0
  -27.3817  -12.5663   17.7875 H   0  0  0  0  0  0
  -27.6667  -14.2469   19.5054 H   0  0  0  0  0  0
  -28.6769  -12.0875   21.4197 H   0  0  0  0  0  0
  -28.4452  -13.7669   21.8129 H   0  0  0  0  0  0
  -25.2742   -9.5672   22.4767 H   0  0  0  0  0  0
  -23.9998   -7.4609   22.7429 H   0  0  0  0  0  0
  -21.0831   -8.8772   19.8935 H   0  0  0  0  0  0
  -22.3687  -10.9667   19.6173 H   0  0  0  0  0  0
  -21.1995   -7.6121   23.9718 H   0  0  0  0  0  0
  -21.1476   -6.0491   25.9076 H   0  0  0  0  0  0
  -22.0617   -2.7602   23.2858 H   0  0  0  0  0  0
  -22.4108  -11.9884   22.4772 H   0  0  0  0  0  0
  -21.1149  -13.1302   22.2696 H   0  0  0  0  0  0
  -24.6754  -15.8500   20.5261 H   0  0  0  0  0  0
  -26.3065  -15.6259   20.1506 H   0  0  0  0  0  0
  -26.7150  -32.5476   23.1102 H   0  0  0  0  0  0
  -25.0067  -33.9719   25.0444 H   0  0  0  0  0  0
  -22.7056  -31.3031   21.4016 H   0  0  0  0  0  0
  -23.3754  -35.9630   23.3270 H   0  0  0  0  0  0
  -24.3593  -36.8946   22.2055 H   0  0  0  0  0  0
  -23.7236  -37.6501   23.6675 H   0  0  0  0  0  0
  -26.0674  -31.5574   20.5892 H   0  0  0  0  0  0
  -26.8354  -30.8603   21.9852 H   0  0  0  0  0  0
  -28.0960  -29.0109   21.2014 H   0  0  0  0  0  0
  -26.0055  -25.9274   19.0198 H   0  0  0  0  0  0
  -23.9756  -27.2912   19.0191 H   0  0  0  0  0  0
  -23.7455  -30.5909   19.4020 H   0  0  0  0  0  0
  -22.7460  -29.2434   19.8576 H   0  0  0  0  0  0
  -25.1273  -36.1930   25.0827 H   0  0  0  0  0  0
  -20.9970  -28.3264   24.1426 H   0  0  0  0  0  0
  -20.5682  -26.2290   23.3608 H   0  0  0  0  0  0
  -21.6646  -26.7460   22.1204 H   0  0  0  0  0  0
  -19.6908  -25.6305   21.1248 H   0  0  0  0  0  0
  -19.6702  -27.3209   20.6746 H   0  0  0  0  0  0
  -17.4197  -26.6700   21.4017 H   0  0  0  0  0  0
  -18.0323  -26.0104   22.9027 H   0  0  0  0  0  0
  -19.7932  -30.7290   24.2267 H   0  0  0  0  0  0
  -17.5008  -31.6273   24.5177 H   0  0  0  0  0  0
  -15.5347  -30.2981   23.7682 H   0  0  0  0  0  0
  -15.8677  -28.0848   22.7032 H   0  0  0  0  0  0
  -24.5890  -30.7092   25.7796 H   0  0  0  0  0  0
  -24.8968  -32.2882   26.4927 H   0  0  0  0  0  0
  -25.8081  -30.8858   27.0197 H   0  0  0  0  0  0
  -26.2839  -29.6771   24.1179 H   0  0  0  0  0  0
  -27.4088  -29.7261   25.4564 H   0  0  0  0  0  0
  -27.8681  -30.4326   23.9246 H   0  0  0  0  0  0
  -27.2703  -33.3599   26.2062 H   0  0  0  0  0  0
  -28.3858  -32.6861   25.0267 H   0  0  0  0  0  0
  -28.0760  -31.8410   26.5343 H   0  0  0  0  0  0
  -28.2572  -38.0122   24.7545 H   0  0  0  0  0  0
  -28.1118  -36.2656   24.6213 H   0  0  0  0  0  0
  -27.2326  -37.1362   25.8865 H   0  0  0  0  0  0
  -20.9364  -29.8722   21.6871 H   0  0  0  0  0  0
  -26.0166  -38.2851   24.1444 H   0  0  0  0  0  0
  -29.2219  -17.5144   16.5208 H   0  0  0  0  0  0
  -29.4609  -15.6213   18.0696 H   0  0  0  0  0  0
  -29.9862  -23.0360   19.0230 H   0  0  0  0  0  0
  -28.0740  -25.5187   18.3603 H   0  0  0  0  0  0
  -29.6610  -25.4676   19.0236 H   0  0  0  0  0  0
  -30.5797  -21.0500   19.2973 H   0  0  0  0  0  0
  -29.0165  -15.4783   21.1794 H   0  0  0  0  0  0
  -27.1235  -23.1249   20.9920 H   0  0  0  0  0  0
  1 25  1  0  0  0
  1 30  2  0  0  0
  1 82  1  0  0  0
  2  3  1  0  0  0
  2 25  1  0  0  0
  2 86  1  0  0  0
  2 87  1  0  0  0
  3  4  1  0  0  0
  3 88  1  0  0  0
  3 89  1  0  0  0
  4  5  1  0  0  0
  4 90  1  0  0  0
  4 91  1  0  0  0
  5  6  1  0  0  0
  5 26  1  0  0  0
  5 92  1  0  0  0
  6 25  1  0  0  0
  6 93  1  0  0  0
  6 94  1  0  0  0
  7  8  2  0  0  0
  7 26  1  0  0  0
  7 29  1  0  0  0
  8  9  1  0  0  0
  8 22  1  0  0  0
  9 10  1  0  0  0
  9 27  2  0  0  0
 10 11  2  0  0  0
 10 15  1  0  0  0
 11 12  1  0  0  0
 11 95  1  0  0  0
 12 13  2  0  0  0
 12 96  1  0  0  0
 13 14  1  0  0  0
 13 31  1  0  0  0
 14 15  2  0  0  0
 14 97  1  0  0  0
 15 98  1  0  0  0
 16 17  2  0  0  0
 16 21  1  0  0  0
 16 31  1  0  0  0
 17 18  1  0  0  0
 17 99  1  0  0  0
 18 19  2  0  0  0
 18100  1  0  0  0
 19 20  1  0  0  0
 19 24  1  0  0  0
 20 21  2  0  0  0
 20101  1  0  0  0
 21 23  1  0  0  0
 22 28  1  0  0  0
 22 32  2  0  0  0
 26 27  1  0  0  0
 28102  1  0  0  0
 28103  1  0  0  0
 29104  1  0  0  0
 29105  1  0  0  0
 33 34  1  0  0  0
 33 66  1  0  0  0
 33 70  2  0  0  0
 34 36  1  0  0  0
 34 59  1  0  0  0
 34106  1  0  0  0
 35 44  2  0  0  0
 35 45  1  0  0  0
 35 68  1  0  0  0
 36 56  1  0  0  0
 36107  1  0  0  0
 37 39  1  0  0  0
 37 47  1  0  0  0
 37 66  1  0  0  0
 37108  1  0  0  0
 38 43  2  0  0  0
 38 46  1  0  0  0
 38 47  1  0  0  0
 39 64  1  0  0  0
 39 67  2  0  0  0
 40 52  1  0  0  0
 40 53  2  0  0  0
 40 58  1  0  0  0
 41109  1  0  0  0
 41110  1  0  0  0
 41111  1  0  0  0
 41 48  1  0  0  0
 42 43  1  0  0  0
 42 66  1  0  0  0
 42112  1  0  0  0
 42113  1  0  0  0
 43 44  1  0  0  0
 44114  1  0  0  0
 45 46  2  0  0  0
 45115  1  0  0  0
 46116  1  0  0  0
 47117  1  0  0  0
 47118  1  0  0  0
 48 56  1  0  0  0
 48 65  1  0  0  0
 48119  1  0  0  0
 49 50  1  0  0  0
 49 53  1  0  0  0
 49 64  1  0  0  0
 49120  1  0  0  0
 50 51  1  0  0  0
 50121  1  0  0  0
 50122  1  0  0  0
 51 52  1  0  0  0
 51123  1  0  0  0
 51124  1  0  0  0
 52125  1  0  0  0
 52126  1  0  0  0
 53 54  1  0  0  0
 54 55  2  0  0  0
 54127  1  0  0  0
 55 57  1  0  0  0
 55128  1  0  0  0
 56 69  2  0  0  0
 57 58  2  0  0  0
 57129  1  0  0  0
 58130  1  0  0  0
 59 60  1  0  0  0
 59 61  1  0  0  0
 59 62  1  0  0  0
 60131  1  0  0  0
 60132  1  0  0  0
 60133  1  0  0  0
 61134  1  0  0  0
 61135  1  0  0  0
 61136  1  0  0  0
 62137  1  0  0  0
 62138  1  0  0  0
 62139  1  0  0  0
 63 65  1  0  0  0
 63140  1  0  0  0
 63141  1  0  0  0
 63142  1  0  0  0
 64143  1  0  0  0
 65144  1  0  0  0
 68 79  1  0  0  0
 71 72  2  0  0  0
 71 73  1  0  0  0
 71145  1  0  0  0
 72 74  1  0  0  0
 72146  1  0  0  0
 73 75  2  0  0  0
 73 85  1  0  0  0
 74 80  2  0  0  0
 74 82  1  0  0  0
 75 80  1  0  0  0
 75 81  1  0  0  0
 76 77  2  0  0  0
 76 78  1  0  0  0
 76147  1  0  0  0
 77 79  1  0  0  0
 77 84  1  0  0  0
 78 81  1  0  0  0
 78 83  2  0  0  0
 79148  1  0  0  0
 79149  1  0  0  0
 81150  1  0  0  0
 82151  1  0  0  0
 84152  1  0  0  0
M  ISO  4   1 100  68 101  79 101  82 100
M  END
> <chiral flag>
0

> <version>
0

> <s_m_source_file>
/data/baiqing/PycharmProjects/Reinvent-master-3.2/result/LINK_invent/BTK/process_docking_weight1_custom_product_contain_oxygen_bond_distance_aromatic_linkinvent_7_9_3/rearranged_h_0174.sdf

> <i_m_source_file_index>
65

> <r_mmod_Potential_Energy-OPLS-2005>
-101.841751098633

> <r_mmod_Stretch_Energy-OPLS-2005>
60.4738311767578

> <r_mmod_Bend_Energy-OPLS-2005>
129.45280456543

> <r_mmod_Torsional_Energy-OPLS-2005>
273.373840332031

> <r_mmod_Improper_Torsional_Energy-OPLS-2005>
10.1084175109863

> <r_mmod_Van_der_Waal_Energy-OPLS-2005>
145.06022644043

> <r_mmod_Electrostatic_Energy-OPLS-2005>
-505.227691650391

> <r_mmod_Solvation_Energy-OPLS-2005>
-251.289627075195

> <b_mmod_Minimization_Converged-OPLS-2005>
0

> <r_mmod_RMS_Derivative-OPLS-2005>
2.74552249908447

$$$$
65
                    3D
 Structure written by MMmdl.
159167  0  0  1  0            999 V2000
  -30.7212  -14.4381   20.5600 C   0  0  0  0  0  0
  -30.4136  -12.2791   19.4288 C   0  0  0  0  0  0
  -29.4972  -12.5007   18.2087 C   0  0  0  0  0  0
  -28.0155  -12.3709   18.6159 C   0  0  0  0  0  0
  -27.6615  -13.2095   19.8738 C   0  0  2  0  0  0
  -28.7000  -12.9897   20.9973 C   0  0  0  0  0  0
  -25.2576  -13.8170   20.5664 C   0  0  0  0  0  0
  -24.1837  -13.0444   20.9205 C   0  0  0  0  0  0
  -24.6382  -11.6909   20.8733 C   0  0  0  0  0  0
  -23.9042  -10.4296   21.0399 C   0  0  0  0  0  0
  -24.3601   -9.4217   21.9176 C   0  0  0  0  0  0
  -23.6294   -8.2242   22.0729 C   0  0  0  0  0  0
  -22.4279   -8.0276   21.3517 C   0  0  0  0  0  0
  -21.9908   -9.0246   20.4624 C   0  0  0  0  0  0
  -22.7220  -10.2131   20.3044 C   0  0  0  0  0  0
  -21.6841   -6.0742   22.5286 C   0  0  0  0  0  0
  -21.4004   -6.5635   23.8227 C   0  0  0  0  0  0
  -21.3674   -5.6781   24.9183 C   0  0  0  0  0  0
  -21.6049   -4.3045   24.7223 C   0  0  0  0  0  0
  -21.8822   -3.8146   23.4340 C   0  0  0  0  0  0
  -21.9188   -4.6969   22.3403 C   0  0  0  0  0  0
  -22.7855  -13.5234   21.1896 C   0  0  0  0  0  0
  -22.1658   -4.2156   21.0979 F   0  0  0  0  0  0
  -21.5646   -3.4531   25.7736 F   0  0  0  0  0  0
  -30.0363  -13.2686   20.4494 N   0  0  0  0  0  0
  -26.3021  -12.9346   20.3347 N   0  0  0  0  0  0
  -25.9312  -11.6496   20.5747 N   0  0  0  0  0  0
  -22.0481  -12.8205   22.0432 N   0  0  0  0  0  0
  -25.4306  -15.1889   20.4050 N   0  0  0  0  0  0
  -31.8530  -14.5964   20.0944 O   0  0  0  0  0  0
  -21.6628   -6.8882   21.4242 O   0  0  0  0  0  0
  -22.3541  -14.5551   20.6772 O   0  0  0  0  0  0
  -24.6126  -31.8717   23.2096 C   0  0  0  0  0  0
  -25.9036  -32.4847   23.8399 C   0  0  1  0  0  0
  -27.2441  -27.4498   20.0989 C   0  0  0  0  0  0
  -25.5920  -33.8642   24.2355 N   0  0  0  0  0  0
  -23.4011  -30.4928   21.5498 C   0  0  2  0  0  0
  -24.8480  -28.9604   20.1183 C   0  0  0  0  0  0
  -22.7412  -29.4677   22.4990 C   0  0  0  0  0  0
  -18.0286  -28.1407   22.8503 C   0  0  0  0  0  0
  -24.1483  -36.7284   23.2644 C   0  0  0  0  0  0
  -25.9273  -30.8418   21.3589 C   0  0  0  0  0  0
  -26.0069  -29.4767   20.7089 C   0  0  0  0  0  0
  -27.2084  -28.7331   20.6899 C   0  0  0  0  0  0
  -26.0632  -26.9469   19.5024 C   0  0  0  0  0  0
  -24.8706  -27.6934   19.5121 C   0  0  0  0  0  0
  -23.6096  -29.8259   20.1643 C   0  0  0  0  0  0
  -25.4120  -36.3128   24.0354 C   0  0  1  0  0  0
  -20.5875  -28.3682   23.1334 C   0  0  2  0  0  0
  -20.6775  -26.9416   22.5428 C   0  0  0  0  0  0
  -19.5754  -26.6405   21.5218 C   0  0  0  0  0  0
  -18.1932  -26.7957   22.1624 C   0  0  0  0  0  0
  -19.1536  -28.8861   23.2915 C   0  0  0  0  0  0
  -18.9466  -30.1471   23.8922 C   0  0  0  0  0  0
  -17.6464  -30.6603   24.0585 C   0  0  0  0  0  0
  -25.9047  -34.9493   23.5143 C   0  0  0  0  0  0
  -16.5354  -29.9116   23.6335 C   0  0  0  0  0  0
  -16.7274  -28.6536   23.0355 C   0  0  0  0  0  0
  -26.4467  -31.6605   25.0711 C   0  0  0  0  0  0
  -25.3729  -31.3693   26.1445 C   0  0  0  0  0  0
  -27.0275  -30.3062   24.6045 C   0  0  0  0  0  0
  -27.6076  -32.4280   25.7479 C   0  0  0  0  0  0
  -27.5578  -37.1807   24.8485 C   0  0  0  0  0  0
  -21.4138  -29.3040   22.3729 N   0  0  0  0  0  0
  -26.4299  -37.3819   23.9421 N   0  0  0  0  0  0
  -24.6651  -31.0848   22.0971 N   0  0  0  0  0  0
  -23.4187  -28.8232   23.3045 O   0  0  0  0  0  0
  -28.4281  -26.7339   20.1240 O   0  0  0  0  0  0
  -26.5592  -34.8942   22.4689 O   0  0  0  0  0  0
  -23.5326  -32.1446   23.7516 O   0  0  0  0  0  0
  -30.3572  -17.4073   19.6179 C   0  0  0  0  0  0
  -30.3895  -16.7662   20.8355 C   0  0  0  0  0  0
  -31.3869  -19.0390   20.8275 C   0  0  0  0  0  0
  -31.2720  -22.5444   20.6122 C   0  0  0  0  0  0
  -33.2826  -20.0936   22.1473 C   0  0  0  0  0  0
  -27.8042  -25.1242   21.8586 C   0  0  0  0  0  0
  -30.5331  -23.7333   21.2486 C   0  0  0  0  0  0
  -29.7575  -24.6428   20.2251 C   0  0  0  0  0  0
  -32.2231  -20.2730   21.0477 C   0  0  2  0  0  0
  -28.3575  -25.3246   20.4247 C   0  0  2  0  0  0
  -30.9174  -18.6892   19.6268 N   0  0  0  0  0  0
  -30.0456  -15.4751   21.0865 N   0  0  0  0  0  0
  -31.3646  -21.4233   21.3430 N   0  0  0  0  0  0
  -31.7912  -22.6676   19.5013 O   0  0  0  0  0  0
  -31.0169  -17.8334   22.0699 S   0  0  0  0  0  0
  -31.4623  -12.3529   19.1356 H   0  0  0  0  0  0
  -30.2850  -11.2701   19.8233 H   0  0  0  0  0  0
  -29.7324  -11.7796   17.4253 H   0  0  0  0  0  0
  -29.6816  -13.4873   17.7814 H   0  0  0  0  0  0
  -27.8213  -11.3161   18.8131 H   0  0  0  0  0  0
  -27.3684  -12.6484   17.7829 H   0  0  0  0  0  0
  -27.7067  -14.2572   19.5767 H   0  0  0  0  0  0
  -28.6633  -11.9581   21.3478 H   0  0  0  0  0  0
  -28.4707  -13.6019   21.8694 H   0  0  0  0  0  0
  -25.2741   -9.5708   22.4754 H   0  0  0  0  0  0
  -24.0019   -7.4624   22.7425 H   0  0  0  0  0  0
  -21.0854   -8.8768   19.8912 H   0  0  0  0  0  0
  -22.3687  -10.9678   19.6162 H   0  0  0  0  0  0
  -21.1974   -7.6139   23.9736 H   0  0  0  0  0  0
  -21.1505   -6.0500   25.9087 H   0  0  0  0  0  0
  -22.0583   -2.7610   23.2832 H   0  0  0  0  0  0
  -22.4047  -11.9855   22.4840 H   0  0  0  0  0  0
  -21.1101  -13.1234   22.2625 H   0  0  0  0  0  0
  -24.6634  -15.8459   20.4986 H   0  0  0  0  0  0
  -26.2801  -15.6199   20.0630 H   0  0  0  0  0  0
  -26.7110  -32.5571   23.1169 H   0  0  0  0  0  0
  -25.0129  -33.9828   25.0544 H   0  0  0  0  0  0
  -22.6874  -31.3080   21.4130 H   0  0  0  0  0  0
  -23.3774  -35.9582   23.3340 H   0  0  0  0  0  0
  -24.3554  -36.8847   22.2043 H   0  0  0  0  0  0
  -23.7189  -37.6492   23.6606 H   0  0  0  0  0  0
  -26.0347  -31.6047   20.5870 H   0  0  0  0  0  0
  -26.8186  -30.8993   21.9725 H   0  0  0  0  0  0
  -28.1015  -29.1345   21.1473 H   0  0  0  0  0  0
  -26.0420  -25.9841   19.0161 H   0  0  0  0  0  0
  -23.9799  -27.2898   19.0511 H   0  0  0  0  0  0
  -23.7202  -30.5998   19.4038 H   0  0  0  0  0  0
  -22.7344  -29.2467   19.8650 H   0  0  0  0  0  0
  -25.1289  -36.2005   25.0846 H   0  0  0  0  0  0
  -20.9989  -28.3228   24.1447 H   0  0  0  0  0  0
  -20.5705  -26.2277   23.3612 H   0  0  0  0  0  0
  -21.6650  -26.7468   22.1209 H   0  0  0  0  0  0
  -19.6915  -25.6321   21.1241 H   0  0  0  0  0  0
  -19.6710  -27.3231   20.6764 H   0  0  0  0  0  0
  -17.4210  -26.6740   21.4011 H   0  0  0  0  0  0
  -18.0311  -26.0091   22.9022 H   0  0  0  0  0  0
  -19.7938  -30.7296   24.2291 H   0  0  0  0  0  0
  -17.5020  -31.6287   24.5193 H   0  0  0  0  0  0
  -15.5369  -30.3040   23.7644 H   0  0  0  0  0  0
  -15.8668  -28.0870   22.7057 H   0  0  0  0  0  0
  -24.5937  -30.7012   25.7757 H   0  0  0  0  0  0
  -24.8870  -32.2836   26.4857 H   0  0  0  0  0  0
  -25.8076  -30.8878   27.0214 H   0  0  0  0  0  0
  -26.2796  -29.6865   24.1084 H   0  0  0  0  0  0
  -27.4061  -29.7258   25.4470 H   0  0  0  0  0  0
  -27.8627  -30.4421   23.9169 H   0  0  0  0  0  0
  -27.2756  -33.3603   26.2063 H   0  0  0  0  0  0
  -28.3897  -32.6789   25.0294 H   0  0  0  0  0  0
  -28.0726  -31.8368   26.5378 H   0  0  0  0  0  0
  -28.2659  -38.0059   24.7539 H   0  0  0  0  0  0
  -28.1028  -36.2601   24.6335 H   0  0  0  0  0  0
  -27.2277  -37.1473   25.8887 H   0  0  0  0  0  0
  -20.9296  -29.8722   21.6921 H   0  0  0  0  0  0
  -26.0198  -38.2897   24.1440 H   0  0  0  0  0  0
  -30.0141  -16.9997   18.6760 H   0  0  0  0  0  0
  -33.9046  -20.9841   22.2409 H   0  0  0  0  0  0
  -33.9428  -19.2566   21.9177 H   0  0  0  0  0  0
  -32.8285  -19.9034   23.1198 H   0  0  0  0  0  0
  -27.6208  -24.0695   22.0679 H   0  0  0  0  0  0
  -26.8588  -25.6428   22.0140 H   0  0  0  0  0  0
  -28.5001  -25.4946   22.6108 H   0  0  0  0  0  0
  -31.3217  -24.2794   21.7769 H   0  0  0  0  0  0
  -29.8819  -23.3657   22.0465 H   0  0  0  0  0  0
  -30.0658  -25.4307   20.9114 H   0  0  0  0  0  0
  -29.1307  -23.7485   20.2013 H   0  0  0  0  0  0
  -32.7729  -20.4421   20.1183 H   0  0  0  0  0  0
  -27.6535  -24.8779   19.7204 H   0  0  0  0  0  0
  -29.1408  -15.2976   21.4954 H   0  0  0  0  0  0
  -30.8844  -21.4065   22.2316 H   0  0  0  0  0  0
  1 25  1  0  0  0
  1 30  2  0  0  0
  1 82  1  0  0  0
  2  3  1  0  0  0
  2 25  1  0  0  0
  2 86  1  0  0  0
  2 87  1  0  0  0
  3  4  1  0  0  0
  3 88  1  0  0  0
  3 89  1  0  0  0
  4  5  1  0  0  0
  4 90  1  0  0  0
  4 91  1  0  0  0
  5  6  1  0  0  0
  5 26  1  0  0  0
  5 92  1  0  0  0
  6 25  1  0  0  0
  6 93  1  0  0  0
  6 94  1  0  0  0
  7  8  2  0  0  0
  7 26  1  0  0  0
  7 29  1  0  0  0
  8  9  1  0  0  0
  8 22  1  0  0  0
  9 10  1  0  0  0
  9 27  2  0  0  0
 10 11  2  0  0  0
 10 15  1  0  0  0
 11 12  1  0  0  0
 11 95  1  0  0  0
 12 13  2  0  0  0
 12 96  1  0  0  0
 13 14  1  0  0  0
 13 31  1  0  0  0
 14 15  2  0  0  0
 14 97  1  0  0  0
 15 98  1  0  0  0
 16 17  2  0  0  0
 16 21  1  0  0  0
 16 31  1  0  0  0
 17 18  1  0  0  0
 17 99  1  0  0  0
 18 19  2  0  0  0
 18100  1  0  0  0
 19 20  1  0  0  0
 19 24  1  0  0  0
 20 21  2  0  0  0
 20101  1  0  0  0
 21 23  1  0  0  0
 22 28  1  0  0  0
 22 32  2  0  0  0
 26 27  1  0  0  0
 28102  1  0  0  0
 28103  1  0  0  0
 29104  1  0  0  0
 29105  1  0  0  0
 33 34  1  0  0  0
 33 66  1  0  0  0
 33 70  2  0  0  0
 34 36  1  0  0  0
 34 59  1  0  0  0
 34106  1  0  0  0
 35 44  2  0  0  0
 35 45  1  0  0  0
 35 68  1  0  0  0
 36 56  1  0  0  0
 36107  1  0  0  0
 37 39  1  0  0  0
 37 47  1  0  0  0
 37 66  1  0  0  0
 37108  1  0  0  0
 38 43  2  0  0  0
 38 46  1  0  0  0
 38 47  1  0  0  0
 39 64  1  0  0  0
 39 67  2  0  0  0
 40 52  1  0  0  0
 40 53  2  0  0  0
 40 58  1  0  0  0
 41109  1  0  0  0
 41110  1  0  0  0
 41111  1  0  0  0
 41 48  1  0  0  0
 42 43  1  0  0  0
 42 66  1  0  0  0
 42112  1  0  0  0
 42113  1  0  0  0
 43 44  1  0  0  0
 44114  1  0  0  0
 45 46  2  0  0  0
 45115  1  0  0  0
 46116  1  0  0  0
 47117  1  0  0  0
 47118  1  0  0  0
 48 56  1  0  0  0
 48 65  1  0  0  0
 48119  1  0  0  0
 49 50  1  0  0  0
 49 53  1  0  0  0
 49 64  1  0  0  0
 49120  1  0  0  0
 50 51  1  0  0  0
 50121  1  0  0  0
 50122  1  0  0  0
 51 52  1  0  0  0
 51123  1  0  0  0
 51124  1  0  0  0
 52125  1  0  0  0
 52126  1  0  0  0
 53 54  1  0  0  0
 54 55  2  0  0  0
 54127  1  0  0  0
 55 57  1  0  0  0
 55128  1  0  0  0
 56 69  2  0  0  0
 57 58  2  0  0  0
 57129  1  0  0  0
 58130  1  0  0  0
 59 60  1  0  0  0
 59 61  1  0  0  0
 59 62  1  0  0  0
 60131  1  0  0  0
 60132  1  0  0  0
 60133  1  0  0  0
 61134  1  0  0  0
 61135  1  0  0  0
 61136  1  0  0  0
 62137  1  0  0  0
 62138  1  0  0  0
 62139  1  0  0  0
 63 65  1  0  0  0
 63140  1  0  0  0
 63141  1  0  0  0
 63142  1  0  0  0
 64143  1  0  0  0
 65144  1  0  0  0
 68 80  1  0  0  0
 71 72  2  0  0  0
 71 81  1  0  0  0
 71145  1  0  0  0
 72 82  1  0  0  0
 72 85  1  0  0  0
 73 79  1  0  0  0
 73 81  2  0  0  0
 73 85  1  0  0  0
 74 77  1  0  0  0
 74 83  1  0  0  0
 74 84  2  0  0  0
 75146  1  0  0  0
 75147  1  0  0  0
 75148  1  0  0  0
 75 79  1  0  0  0
 76149  1  0  0  0
 76150  1  0  0  0
 76151  1  0  0  0
 76 80  1  0  0  0
 77 78  1  0  0  0
 77152  1  0  0  0
 77153  1  0  0  0
 78 80  1  0  0  0
 78154  1  0  0  0
 78155  1  0  0  0
 79 83  1  0  0  0
 79156  1  0  0  0
 80157  1  0  0  0
 82158  1  0  0  0
 83159  1  0  0  0
M  ISO  4   1 100  68 101  80 101  82 100
M  END
> <chiral flag>
0

> <version>
0

> <s_m_source_file>
/data/baiqing/PycharmProjects/Reinvent-master-3.2/result/LINK_invent/BTK/process_docking_weight1_custom_product_contain_oxygen_bond_distance_aromatic_linkinvent_7_9_3/rearranged_h_0174.sdf

> <i_m_source_file_index>
66

> <r_mmod_Potential_Energy-OPLS-2005>
33.440258026123

> <r_mmod_Stretch_Energy-OPLS-2005>
38.0090675354004

> <r_mmod_Bend_Energy-OPLS-2005>
320.829559326172

> <r_mmod_Torsional_Energy-OPLS-2005>
240.872604370117

> <r_mmod_Improper_Torsional_Energy-OPLS-2005>
4.42391109466553

> <r_mmod_Van_der_Waal_Energy-OPLS-2005>
157.134475708008

> <r_mmod_Electrostatic_Energy-OPLS-2005>
-488.331237792969

> <r_mmod_Solvation_Energy-OPLS-2005>
-251.409057617188

> <b_mmod_Minimization_Converged-OPLS-2005>
0

> <r_mmod_RMS_Derivative-OPLS-2005>
2.78759336471558

$$$$
66
                    3D
 Structure written by MMmdl.
161169  0  0  1  0            999 V2000
  -30.6417  -14.6254   20.4529 C   0  0  0  0  0  0
  -30.4345  -12.3740   19.4422 C   0  0  0  0  0  0
  -29.5019  -12.5049   18.2184 C   0  0  0  0  0  0
  -28.0273  -12.3308   18.6389 C   0  0  0  0  0  0
  -27.6508  -13.1989   19.8707 C   0  0  2  0  0  0
  -28.7064  -13.0829   20.9956 C   0  0  0  0  0  0
  -25.2546  -13.8079   20.5691 C   0  0  0  0  0  0
  -24.1796  -13.0385   20.9201 C   0  0  0  0  0  0
  -24.6354  -11.6856   20.8775 C   0  0  0  0  0  0
  -23.9018  -10.4252   21.0423 C   0  0  0  0  0  0
  -24.3572   -9.4173   21.9197 C   0  0  0  0  0  0
  -23.6268   -8.2217   22.0764 C   0  0  0  0  0  0
  -22.4261   -8.0257   21.3549 C   0  0  0  0  0  0
  -21.9875   -9.0227   20.4658 C   0  0  0  0  0  0
  -22.7196  -10.2102   20.3069 C   0  0  0  0  0  0
  -21.6834   -6.0713   22.5281 C   0  0  0  0  0  0
  -21.3998   -6.5618   23.8200 C   0  0  0  0  0  0
  -21.3658   -5.6786   24.9173 C   0  0  0  0  0  0
  -21.6045   -4.3048   24.7233 C   0  0  0  0  0  0
  -21.8826   -3.8125   23.4360 C   0  0  0  0  0  0
  -21.9186   -4.6945   22.3404 C   0  0  0  0  0  0
  -22.7817  -13.5194   21.1868 C   0  0  0  0  0  0
  -22.1659   -4.2115   21.0991 F   0  0  0  0  0  0
  -21.5640   -3.4545   25.7751 F   0  0  0  0  0  0
  -30.0243  -13.4043   20.4155 N   0  0  0  0  0  0
  -26.2979  -12.9222   20.3408 N   0  0  0  0  0  0
  -25.9285  -11.6413   20.5830 N   0  0  0  0  0  0
  -22.0449  -12.8184   22.0419 N   0  0  0  0  0  0
  -25.4221  -15.1808   20.4017 N   0  0  0  0  0  0
  -31.8161  -14.7742   20.0973 O   0  0  0  0  0  0
  -21.6633   -6.8856   21.4244 O   0  0  0  0  0  0
  -22.3498  -14.5497   20.6716 O   0  0  0  0  0  0
  -24.6182  -31.8633   23.2053 C   0  0  0  0  0  0
  -25.9057  -32.4791   23.8359 C   0  0  1  0  0  0
  -27.2472  -27.3878   20.1188 C   0  0  0  0  0  0
  -25.5925  -33.8589   24.2314 N   0  0  0  0  0  0
  -23.4135  -30.4788   21.5478 C   0  0  2  0  0  0
  -24.8681  -28.9360   20.1171 C   0  0  0  0  0  0
  -22.7448  -29.4612   22.5002 C   0  0  0  0  0  0
  -18.0270  -28.1345   22.8505 C   0  0  0  0  0  0
  -24.1504  -36.7304   23.2640 C   0  0  0  0  0  0
  -25.9470  -30.8073   21.3759 C   0  0  0  0  0  0
  -26.0278  -29.4402   20.7204 C   0  0  0  0  0  0
  -27.2224  -28.6734   20.7165 C   0  0  0  0  0  0
  -26.0731  -26.9106   19.4986 C   0  0  0  0  0  0
  -24.8868  -27.6722   19.5013 C   0  0  0  0  0  0
  -23.6285  -29.8044   20.1653 C   0  0  0  0  0  0
  -25.4113  -36.3079   24.0345 C   0  0  1  0  0  0
  -20.5873  -28.3619   23.1335 C   0  0  2  0  0  0
  -20.6759  -26.9358   22.5420 C   0  0  0  0  0  0
  -19.5735  -26.6356   21.5201 C   0  0  0  0  0  0
  -18.1921  -26.7897   22.1622 C   0  0  0  0  0  0
  -19.1528  -28.8793   23.2903 C   0  0  0  0  0  0
  -18.9451  -30.1401   23.8904 C   0  0  0  0  0  0
  -17.6451  -30.6561   24.0522 C   0  0  0  0  0  0
  -25.9029  -34.9457   23.5120 C   0  0  0  0  0  0
  -16.5336  -29.9059   23.6318 C   0  0  0  0  0  0
  -16.7249  -28.6464   23.0370 C   0  0  0  0  0  0
  -26.4467  -31.6575   25.0714 C   0  0  0  0  0  0
  -25.3732  -31.3702   26.1468 C   0  0  0  0  0  0
  -27.0311  -30.3018   24.6135 C   0  0  0  0  0  0
  -27.6036  -32.4302   25.7477 C   0  0  0  0  0  0
  -27.5584  -37.1813   24.8460 C   0  0  0  0  0  0
  -21.4170  -29.2996   22.3753 N   0  0  0  0  0  0
  -26.4299  -37.3770   23.9395 N   0  0  0  0  0  0
  -24.6772  -31.0655   22.1005 N   0  0  0  0  0  0
  -23.4184  -28.8144   23.3060 O   0  0  0  0  0  0
  -28.3881  -26.6002   20.1069 O   0  0  0  0  0  0
  -26.5576  -34.8905   22.4676 O   0  0  0  0  0  0
  -23.5361  -32.1426   23.7418 O   0  0  0  0  0  0
  -30.5082  -18.0352   21.1149 C   0  0  0  0  0  0
  -29.4628  -19.0122   19.3778 C   0  0  0  0  0  0
  -30.1845  -19.3048   20.5004 C   0  0  0  0  0  0
  -29.9384  -17.0223   20.3673 C   0  0  0  0  0  0
  -30.5687  -20.7303   20.8066 C   0  0  0  0  0  0
  -29.7046  -23.4314   22.6857 C   0  0  0  0  0  0
  -29.1078  -24.1638   20.2507 C   0  0  0  0  0  0
  -28.6630  -17.0283   18.1180 C   0  0  0  0  0  0
  -30.6861  -24.3953   23.3477 C   0  0  0  0  0  0
  -28.1053  -17.9102   17.0042 C   0  0  0  0  0  0
  -28.2823  -25.3544   20.8534 C   0  0  0  0  0  0
  -29.8868  -23.1511   21.1844 C   0  0  2  0  0  0
  -29.3264  -17.6301   19.2576 N   0  0  0  0  0  0
  -29.8376  -15.6886   20.7416 N   0  0  0  0  0  0
  -29.6239  -21.6976   20.9080 N   0  0  0  0  0  0
  -31.7551  -20.9932   21.0013 O   0  0  0  0  0  0
  -28.8198  -22.9084   23.3687 O   0  0  0  0  0  0
  -29.1272  -24.0322   19.0210 O   0  0  0  0  0  0
  -28.5980  -15.8025   18.0381 O   0  0  0  0  0  0
  -31.4746  -12.4884   19.1319 H   0  0  0  0  0  0
  -30.3559  -11.3791   19.8861 H   0  0  0  0  0  0
  -29.7671  -11.7767   17.4512 H   0  0  0  0  0  0
  -29.6382  -13.4841   17.7585 H   0  0  0  0  0  0
  -27.8791  -11.2752   18.8741 H   0  0  0  0  0  0
  -27.3636  -12.5518   17.8013 H   0  0  0  0  0  0
  -27.6479  -14.2299   19.5398 H   0  0  0  0  0  0
  -28.7165  -12.0761   21.4147 H   0  0  0  0  0  0
  -28.4546  -13.7497   21.8224 H   0  0  0  0  0  0
  -25.2709   -9.5637   22.4791 H   0  0  0  0  0  0
  -23.9964   -7.4579   22.7452 H   0  0  0  0  0  0
  -21.0816   -8.8724   19.8954 H   0  0  0  0  0  0
  -22.3642  -10.9646   19.6185 H   0  0  0  0  0  0
  -21.1987   -7.6126   23.9682 H   0  0  0  0  0  0
  -21.1479   -6.0534   25.9067 H   0  0  0  0  0  0
  -22.0613   -2.7599   23.2876 H   0  0  0  0  0  0
  -22.4038  -11.9825   22.4790 H   0  0  0  0  0  0
  -21.1064  -13.1211   22.2628 H   0  0  0  0  0  0
  -24.6407  -15.8242   20.4607 H   0  0  0  0  0  0
  -26.2610  -15.6057   20.0304 H   0  0  0  0  0  0
  -26.7136  -32.5463   23.1108 H   0  0  0  0  0  0
  -25.0083  -33.9737   25.0474 H   0  0  0  0  0  0
  -22.7045  -31.2970   21.3998 H   0  0  0  0  0  0
  -23.3745  -35.9660   23.3321 H   0  0  0  0  0  0
  -24.3593  -36.8912   22.2051 H   0  0  0  0  0  0
  -23.7284  -37.6536   23.6632 H   0  0  0  0  0  0
  -26.0776  -31.5727   20.6113 H   0  0  0  0  0  0
  -26.8276  -30.8529   22.0062 H   0  0  0  0  0  0
  -28.1159  -29.0506   21.1967 H   0  0  0  0  0  0
  -26.0794  -25.9419   19.0147 H   0  0  0  0  0  0
  -23.9967  -27.2784   19.0293 H   0  0  0  0  0  0
  -23.7523  -30.5775   19.4078 H   0  0  0  0  0  0
  -22.7533  -29.2283   19.8593 H   0  0  0  0  0  0
  -25.1307  -36.1948   25.0848 H   0  0  0  0  0  0
  -20.9924  -28.3134   24.1451 H   0  0  0  0  0  0
  -20.5653  -26.2186   23.3580 H   0  0  0  0  0  0
  -21.6641  -26.7395   22.1202 H   0  0  0  0  0  0
  -19.6895  -25.6264   21.1224 H   0  0  0  0  0  0
  -19.6701  -27.3178   20.6739 H   0  0  0  0  0  0
  -17.4197  -26.6644   21.4023 H   0  0  0  0  0  0
  -18.0319  -26.0023   22.9000 H   0  0  0  0  0  0
  -19.7914  -30.7213   24.2322 H   0  0  0  0  0  0
  -17.4990  -31.6256   24.5094 H   0  0  0  0  0  0
  -15.5338  -30.2939   23.7640 H   0  0  0  0  0  0
  -15.8653  -28.0741   22.7136 H   0  0  0  0  0  0
  -24.5914  -30.7042   25.7806 H   0  0  0  0  0  0
  -24.8890  -32.2858   26.4877 H   0  0  0  0  0  0
  -25.8104  -30.8897   27.0233 H   0  0  0  0  0  0
  -26.2880  -29.6774   24.1181 H   0  0  0  0  0  0
  -27.4052  -29.7267   25.4603 H   0  0  0  0  0  0
  -27.8711  -30.4320   23.9318 H   0  0  0  0  0  0
  -27.2672  -33.3599   26.2069 H   0  0  0  0  0  0
  -28.3846  -32.6885   25.0317 H   0  0  0  0  0  0
  -28.0697  -31.8410   26.5383 H   0  0  0  0  0  0
  -28.2618  -38.0087   24.7482 H   0  0  0  0  0  0
  -28.1086  -36.2638   24.6343 H   0  0  0  0  0  0
  -27.2294  -37.1522   25.8858 H   0  0  0  0  0  0
  -20.9333  -29.8712   21.6996 H   0  0  0  0  0  0
  -26.0204  -38.2872   24.1343 H   0  0  0  0  0  0
  -31.0783  -17.8982   22.0235 H   0  0  0  0  0  0
  -29.0614  -19.6894   18.6381 H   0  0  0  0  0  0
  -31.4976  -23.8370   23.8126 H   0  0  0  0  0  0
  -30.1934  -24.9833   24.1228 H   0  0  0  0  0  0
  -31.1173  -25.0819   22.6168 H   0  0  0  0  0  0
  -28.9200  -18.4211   16.4880 H   0  0  0  0  0  0
  -27.4209  -18.6606   17.3980 H   0  0  0  0  0  0
  -27.5612  -17.3024   16.2827 H   0  0  0  0  0  0
  -28.5921  -25.5764   21.8726 H   0  0  0  0  0  0
  -27.2435  -25.0258   20.9130 H   0  0  0  0  0  0
  -30.9391  -23.3360   20.9634 H   0  0  0  0  0  0
  -28.9035  -15.3888   20.9774 H   0  0  0  0  0  0
  -28.6580  -21.4292   20.7859 H   0  0  0  0  0  0
  1 25  1  0  0  0
  1 30  2  0  0  0
  1 84  1  0  0  0
  2  3  1  0  0  0
  2 25  1  0  0  0
  2 90  1  0  0  0
  2 91  1  0  0  0
  3  4  1  0  0  0
  3 92  1  0  0  0
  3 93  1  0  0  0
  4  5  1  0  0  0
  4 94  1  0  0  0
  4 95  1  0  0  0
  5  6  1  0  0  0
  5 26  1  0  0  0
  5 96  1  0  0  0
  6 25  1  0  0  0
  6 97  1  0  0  0
  6 98  1  0  0  0
  7  8  2  0  0  0
  7 26  1  0  0  0
  7 29  1  0  0  0
  8  9  1  0  0  0
  8 22  1  0  0  0
  9 10  1  0  0  0
  9 27  2  0  0  0
 10 11  2  0  0  0
 10 15  1  0  0  0
 11 12  1  0  0  0
 11 99  1  0  0  0
 12 13  2  0  0  0
 12100  1  0  0  0
 13 14  1  0  0  0
 13 31  1  0  0  0
 14 15  2  0  0  0
 14101  1  0  0  0
 15102  1  0  0  0
 16 17  2  0  0  0
 16 21  1  0  0  0
 16 31  1  0  0  0
 17 18  1  0  0  0
 17103  1  0  0  0
 18 19  2  0  0  0
 18104  1  0  0  0
 19 20  1  0  0  0
 19 24  1  0  0  0
 20 21  2  0  0  0
 20105  1  0  0  0
 21 23  1  0  0  0
 22 28  1  0  0  0
 22 32  2  0  0  0
 26 27  1  0  0  0
 28106  1  0  0  0
 28107  1  0  0  0
 29108  1  0  0  0
 29109  1  0  0  0
 33 34  1  0  0  0
 33 66  1  0  0  0
 33 70  2  0  0  0
 34 36  1  0  0  0
 34 59  1  0  0  0
 34110  1  0  0  0
 35 44  2  0  0  0
 35 45  1  0  0  0
 35 68  1  0  0  0
 36 56  1  0  0  0
 36111  1  0  0  0
 37 39  1  0  0  0
 37 47  1  0  0  0
 37 66  1  0  0  0
 37112  1  0  0  0
 38 43  2  0  0  0
 38 46  1  0  0  0
 38 47  1  0  0  0
 39 64  1  0  0  0
 39 67  2  0  0  0
 40 52  1  0  0  0
 40 53  2  0  0  0
 40 58  1  0  0  0
 41113  1  0  0  0
 41114  1  0  0  0
 41115  1  0  0  0
 41 48  1  0  0  0
 42 43  1  0  0  0
 42 66  1  0  0  0
 42116  1  0  0  0
 42117  1  0  0  0
 43 44  1  0  0  0
 44118  1  0  0  0
 45 46  2  0  0  0
 45119  1  0  0  0
 46120  1  0  0  0
 47121  1  0  0  0
 47122  1  0  0  0
 48 56  1  0  0  0
 48 65  1  0  0  0
 48123  1  0  0  0
 49 50  1  0  0  0
 49 53  1  0  0  0
 49 64  1  0  0  0
 49124  1  0  0  0
 50 51  1  0  0  0
 50125  1  0  0  0
 50126  1  0  0  0
 51 52  1  0  0  0
 51127  1  0  0  0
 51128  1  0  0  0
 52129  1  0  0  0
 52130  1  0  0  0
 53 54  1  0  0  0
 54 55  2  0  0  0
 54131  1  0  0  0
 55 57  1  0  0  0
 55132  1  0  0  0
 56 69  2  0  0  0
 57 58  2  0  0  0
 57133  1  0  0  0
 58134  1  0  0  0
 59 60  1  0  0  0
 59 61  1  0  0  0
 59 62  1  0  0  0
 60135  1  0  0  0
 60136  1  0  0  0
 60137  1  0  0  0
 61138  1  0  0  0
 61139  1  0  0  0
 61140  1  0  0  0
 62141  1  0  0  0
 62142  1  0  0  0
 62143  1  0  0  0
 63 65  1  0  0  0
 63144  1  0  0  0
 63145  1  0  0  0
 63146  1  0  0  0
 64147  1  0  0  0
 65148  1  0  0  0
 68 81  1  0  0  0
 71 73  1  0  0  0
 71 74  2  0  0  0
 71149  1  0  0  0
 72 73  2  0  0  0
 72 83  1  0  0  0
 72150  1  0  0  0
 73 75  1  0  0  0
 74 83  1  0  0  0
 74 84  1  0  0  0
 75 85  1  0  0  0
 75 86  2  0  0  0
 76 79  1  0  0  0
 76 82  1  0  0  0
 76 87  2  0  0  0
 77 81  1  0  0  0
 77 82  1  0  0  0
 77 88  2  0  0  0
 78 80  1  0  0  0
 78 83  1  0  0  0
 78 89  2  0  0  0
 79151  1  0  0  0
 79152  1  0  0  0
 79153  1  0  0  0
 80154  1  0  0  0
 80155  1  0  0  0
 80156  1  0  0  0
 81157  1  0  0  0
 81158  1  0  0  0
 82 85  1  0  0  0
 82159  1  0  0  0
 84160  1  0  0  0
 85161  1  0  0  0
M  ISO  4   1 100  68 101  81 101  84 100
M  END
> <chiral flag>
0

> <version>
0

> <s_m_source_file>
/data/baiqing/PycharmProjects/Reinvent-master-3.2/result/LINK_invent/BTK/process_docking_weight1_custom_product_contain_oxygen_bond_distance_aromatic_linkinvent_7_9_3/rearranged_h_0174.sdf

> <i_m_source_file_index>
67

> <r_mmod_Potential_Energy-OPLS-2005>
-147.076156616211

> <r_mmod_Stretch_Energy-OPLS-2005>
59.5949516296387

> <r_mmod_Bend_Energy-OPLS-2005>
128.295257568359

> <r_mmod_Torsional_Energy-OPLS-2005>
273.360626220703

> <r_mmod_Improper_Torsional_Energy-OPLS-2005>
6.99404525756836

> <r_mmod_Van_der_Waal_Energy-OPLS-2005>
121.762596130371

> <r_mmod_Electrostatic_Energy-OPLS-2005>
-496.430847167969

> <r_mmod_Solvation_Energy-OPLS-2005>
-276.180572509766

> <b_mmod_Minimization_Converged-OPLS-2005>
0

> <r_mmod_RMS_Derivative-OPLS-2005>
4.18909502029419

$$$$
67
                    3D
 Structure written by MMmdl.
160168  0  0  1  0            999 V2000
  -30.6997  -14.5045   20.5046 C   0  0  0  0  0  0
  -30.4198  -12.3085   19.4442 C   0  0  0  0  0  0
  -29.5051  -12.4951   18.2155 C   0  0  0  0  0  0
  -28.0236  -12.3634   18.6204 C   0  0  0  0  0  0
  -27.6603  -13.2170   19.8660 C   0  0  2  0  0  0
  -28.7007  -13.0385   20.9963 C   0  0  0  0  0  0
  -25.2583  -13.8178   20.5672 C   0  0  0  0  0  0
  -24.1843  -13.0444   20.9174 C   0  0  0  0  0  0
  -24.6413  -11.6916   20.8722 C   0  0  0  0  0  0
  -23.9078  -10.4295   21.0402 C   0  0  0  0  0  0
  -24.3633   -9.4210   21.9176 C   0  0  0  0  0  0
  -23.6302   -8.2245   22.0737 C   0  0  0  0  0  0
  -22.4279   -8.0286   21.3536 C   0  0  0  0  0  0
  -21.9923   -9.0259   20.4637 C   0  0  0  0  0  0
  -22.7255  -10.2132   20.3049 C   0  0  0  0  0  0
  -21.6845   -6.0752   22.5284 C   0  0  0  0  0  0
  -21.4014   -6.5647   23.8223 C   0  0  0  0  0  0
  -21.3656   -5.6785   24.9175 C   0  0  0  0  0  0
  -21.6041   -4.3046   24.7218 C   0  0  0  0  0  0
  -21.8817   -3.8154   23.4332 C   0  0  0  0  0  0
  -21.9189   -4.6980   22.3398 C   0  0  0  0  0  0
  -22.7857  -13.5235   21.1836 C   0  0  0  0  0  0
  -22.1662   -4.2176   21.0968 F   0  0  0  0  0  0
  -21.5630   -3.4520   25.7727 F   0  0  0  0  0  0
  -30.0314  -13.3209   20.4402 N   0  0  0  0  0  0
  -26.3024  -12.9364   20.3318 N   0  0  0  0  0  0
  -25.9342  -11.6517   20.5722 N   0  0  0  0  0  0
  -22.0496  -12.8242   22.0395 N   0  0  0  0  0  0
  -25.4309  -15.1896   20.4116 N   0  0  0  0  0  0
  -31.8637  -14.6278   20.1147 O   0  0  0  0  0  0
  -21.6625   -6.8896   21.4243 O   0  0  0  0  0  0
  -22.3547  -14.5547   20.6687 O   0  0  0  0  0  0
  -24.6182  -31.8708   23.2125 C   0  0  0  0  0  0
  -25.9075  -32.4848   23.8408 C   0  0  1  0  0  0
  -27.2176  -27.4003   20.0976 C   0  0  0  0  0  0
  -25.5950  -33.8637   24.2361 N   0  0  0  0  0  0
  -23.4057  -30.4975   21.5546 C   0  0  2  0  0  0
  -24.8483  -28.9697   20.1132 C   0  0  0  0  0  0
  -22.7431  -29.4675   22.4990 C   0  0  0  0  0  0
  -18.0283  -28.1363   22.8498 C   0  0  0  0  0  0
  -24.1496  -36.7285   23.2637 C   0  0  0  0  0  0
  -25.9419  -30.8250   21.3732 C   0  0  0  0  0  0
  -26.0135  -29.4598   20.7130 C   0  0  0  0  0  0
  -27.2036  -28.6855   20.6995 C   0  0  0  0  0  0
  -26.0250  -26.9464   19.4800 C   0  0  0  0  0  0
  -24.8503  -27.7134   19.4928 C   0  0  0  0  0  0
  -23.6137  -29.8408   20.1660 C   0  0  0  0  0  0
  -25.4114  -36.3121   24.0361 C   0  0  1  0  0  0
  -20.5877  -28.3663   23.1318 C   0  0  2  0  0  0
  -20.6782  -26.9409   22.5407 C   0  0  0  0  0  0
  -19.5762  -26.6387   21.5212 C   0  0  0  0  0  0
  -18.1934  -26.7915   22.1619 C   0  0  0  0  0  0
  -19.1532  -28.8833   23.2903 C   0  0  0  0  0  0
  -18.9459  -30.1433   23.8923 C   0  0  0  0  0  0
  -17.6461  -30.6583   24.0549 C   0  0  0  0  0  0
  -25.9050  -34.9485   23.5148 C   0  0  0  0  0  0
  -16.5348  -29.9082   23.6318 C   0  0  0  0  0  0
  -16.7268  -28.6480   23.0377 C   0  0  0  0  0  0
  -26.4481  -31.6622   25.0735 C   0  0  0  0  0  0
  -25.3747  -31.3725   26.1485 C   0  0  0  0  0  0
  -27.0293  -30.3062   24.6096 C   0  0  0  0  0  0
  -27.6056  -32.4350   25.7493 C   0  0  0  0  0  0
  -27.5588  -37.1803   24.8475 C   0  0  0  0  0  0
  -21.4163  -29.3037   22.3732 N   0  0  0  0  0  0
  -26.4303  -37.3800   23.9422 N   0  0  0  0  0  0
  -24.6735  -31.0791   22.1041 N   0  0  0  0  0  0
  -23.4203  -28.8212   23.3029 O   0  0  0  0  0  0
  -28.3554  -26.6023   20.1377 O   0  0  0  0  0  0
  -26.5578  -34.8937   22.4686 O   0  0  0  0  0  0
  -23.5378  -32.1446   23.7524 O   0  0  0  0  0  0
  -30.0324  -18.1009   20.9839 C   0  0  0  0  0  0
  -30.4197  -17.0043   18.8478 C   0  0  0  0  0  0
  -30.2613  -19.3958   20.4145 C   0  0  0  0  0  0
  -30.1517  -16.8982   20.2301 C   0  0  0  0  0  0
  -30.6202  -18.2576   18.2532 C   0  0  0  0  0  0
  -30.5619  -19.4305   19.0268 C   0  0  0  0  0  0
  -31.5365  -20.6467   22.0509 C   0  0  0  0  0  0
  -29.2735  -24.2403   20.2961 C   0  0  0  0  0  0
  -28.1493  -22.2056   19.1766 C   0  0  0  0  0  0
  -28.1032  -25.1860   19.9431 C   0  0  0  0  0  0
  -30.2130  -20.6592   21.2693 C   0  0  1  0  0  0
  -28.9436  -22.7143   20.4027 C   0  0  1  0  0  0
  -29.9714  -15.6012   20.8271 N   0  0  0  0  0  0
  -30.2257  -21.9750   20.5638 N   0  3  0  0  0  0
  -32.1159  -21.6770   22.4132 O   0  0  0  0  0  0
  -30.4084  -24.6922   20.4899 O   0  0  0  0  0  0
  -30.8842  -18.3364   16.9262 F   0  0  0  0  0  0
  -30.8048  -20.6117   18.4083 F   0  0  0  0  0  0
  -31.4695  -12.3813   19.1537 H   0  0  0  0  0  0
  -30.2970  -11.3091   19.8642 H   0  0  0  0  0  0
  -29.7540  -11.7598   17.4497 H   0  0  0  0  0  0
  -29.6781  -13.4731   17.7643 H   0  0  0  0  0  0
  -27.8313  -11.3098   18.8253 H   0  0  0  0  0  0
  -27.3797  -12.6311   17.7822 H   0  0  0  0  0  0
  -27.6950  -14.2598   19.5475 H   0  0  0  0  0  0
  -28.6724  -12.0177   21.3813 H   0  0  0  0  0  0
  -28.4707  -13.6839   21.8444 H   0  0  0  0  0  0
  -25.2797   -9.5671   22.4729 H   0  0  0  0  0  0
  -24.0023   -7.4623   22.7442 H   0  0  0  0  0  0
  -21.0859   -8.8780   19.8932 H   0  0  0  0  0  0
  -22.3744  -10.9661   19.6138 H   0  0  0  0  0  0
  -21.2014   -7.6150   23.9746 H   0  0  0  0  0  0
  -21.1477   -6.0502   25.9085 H   0  0  0  0  0  0
  -22.0604   -2.7620   23.2810 H   0  0  0  0  0  0
  -22.4108  -11.9925   22.4816 H   0  0  0  0  0  0
  -21.1099  -13.1242   22.2553 H   0  0  0  0  0  0
  -24.6656  -15.8458   20.5237 H   0  0  0  0  0  0
  -26.2867  -15.6270   20.0945 H   0  0  0  0  0  0
  -26.7135  -32.5534   23.1155 H   0  0  0  0  0  0
  -25.0199  -33.9820   25.0579 H   0  0  0  0  0  0
  -22.6931  -31.3146   21.4218 H   0  0  0  0  0  0
  -23.3795  -35.9586   23.3317 H   0  0  0  0  0  0
  -24.3569  -36.8860   22.2044 H   0  0  0  0  0  0
  -23.7225  -37.6491   23.6609 H   0  0  0  0  0  0
  -26.0690  -31.5997   20.6160 H   0  0  0  0  0  0
  -26.8233  -30.8634   21.9997 H   0  0  0  0  0  0
  -28.0998  -29.0599   21.1731 H   0  0  0  0  0  0
  -25.9578  -25.9929   18.9789 H   0  0  0  0  0  0
  -23.9572  -27.3302   19.0209 H   0  0  0  0  0  0
  -23.7256  -30.6211   19.4125 H   0  0  0  0  0  0
  -22.7341  -29.2685   19.8675 H   0  0  0  0  0  0
  -25.1302  -36.1981   25.0861 H   0  0  0  0  0  0
  -20.9942  -28.3218   24.1447 H   0  0  0  0  0  0
  -20.5711  -26.2272   23.3586 H   0  0  0  0  0  0
  -21.6654  -26.7483   22.1187 H   0  0  0  0  0  0
  -19.6930  -25.6305   21.1243 H   0  0  0  0  0  0
  -19.6700  -27.3197   20.6740 H   0  0  0  0  0  0
  -17.4208  -26.6681   21.4009 H   0  0  0  0  0  0
  -18.0316  -26.0055   22.9005 H   0  0  0  0  0  0
  -19.7933  -30.7233   24.2317 H   0  0  0  0  0  0
  -17.5019  -31.6276   24.5136 H   0  0  0  0  0  0
  -15.5350  -30.2995   23.7635 H   0  0  0  0  0  0
  -15.8656  -28.0787   22.7129 H   0  0  0  0  0  0
  -24.5931  -30.7058   25.7822 H   0  0  0  0  0  0
  -24.8930  -32.2877   26.4936 H   0  0  0  0  0  0
  -25.8120  -30.8899   27.0234 H   0  0  0  0  0  0
  -26.2815  -29.6854   24.1147 H   0  0  0  0  0  0
  -27.4061  -29.7263   25.4531 H   0  0  0  0  0  0
  -27.8664  -30.4395   23.9242 H   0  0  0  0  0  0
  -27.2677  -33.3651   26.2070 H   0  0  0  0  0  0
  -28.3853  -32.6910   25.0313 H   0  0  0  0  0  0
  -28.0720  -31.8476   26.5413 H   0  0  0  0  0  0
  -28.2629  -38.0076   24.7528 H   0  0  0  0  0  0
  -28.1072  -36.2618   24.6317 H   0  0  0  0  0  0
  -27.2300  -37.1477   25.8874 H   0  0  0  0  0  0
  -20.9323  -29.8732   21.6936 H   0  0  0  0  0  0
  -26.0209  -38.2892   24.1389 H   0  0  0  0  0  0
  -29.8081  -18.0279   22.0399 H   0  0  0  0  0  0
  -30.4816  -16.1235   18.2265 H   0  0  0  0  0  0
  -31.9257  -19.6479   22.2560 H   0  0  0  0  0  0
  -27.1569  -22.6561   19.1340 H   0  0  0  0  0  0
  -27.9989  -21.1270   19.2230 H   0  0  0  0  0  0
  -28.6499  -22.4291   18.2324 H   0  0  0  0  0  0
  -27.2520  -24.8770   20.5525 H   0  0  0  0  0  0
  -27.8473  -25.0100   18.8981 H   0  0  0  0  0  0
  -29.3871  -20.6229   21.9793 H   0  0  0  0  0  0
  -28.3421  -22.5631   21.3007 H   0  0  0  0  0  0
  -29.1086  -15.4453   21.3269 H   0  0  0  0  0  0
  -30.7053  -21.8828   19.6802 H   0  0  0  0  0  0
  -30.8171  -22.5557   21.1457 H   0  0  0  0  0  0
  1 25  1  0  0  0
  1 30  2  0  0  0
  1 83  1  0  0  0
  2  3  1  0  0  0
  2 25  1  0  0  0
  2 89  1  0  0  0
  2 90  1  0  0  0
  3  4  1  0  0  0
  3 91  1  0  0  0
  3 92  1  0  0  0
  4  5  1  0  0  0
  4 93  1  0  0  0
  4 94  1  0  0  0
  5  6  1  0  0  0
  5 26  1  0  0  0
  5 95  1  0  0  0
  6 25  1  0  0  0
  6 96  1  0  0  0
  6 97  1  0  0  0
  7  8  2  0  0  0
  7 26  1  0  0  0
  7 29  1  0  0  0
  8  9  1  0  0  0
  8 22  1  0  0  0
  9 10  1  0  0  0
  9 27  2  0  0  0
 10 11  2  0  0  0
 10 15  1  0  0  0
 11 12  1  0  0  0
 11 98  1  0  0  0
 12 13  2  0  0  0
 12 99  1  0  0  0
 13 14  1  0  0  0
 13 31  1  0  0  0
 14 15  2  0  0  0
 14100  1  0  0  0
 15101  1  0  0  0
 16 17  2  0  0  0
 16 21  1  0  0  0
 16 31  1  0  0  0
 17 18  1  0  0  0
 17102  1  0  0  0
 18 19  2  0  0  0
 18103  1  0  0  0
 19 20  1  0  0  0
 19 24  1  0  0  0
 20 21  2  0  0  0
 20104  1  0  0  0
 21 23  1  0  0  0
 22 28  1  0  0  0
 22 32  2  0  0  0
 26 27  1  0  0  0
 28105  1  0  0  0
 28106  1  0  0  0
 29107  1  0  0  0
 29108  1  0  0  0
 33 34  1  0  0  0
 33 66  1  0  0  0
 33 70  2  0  0  0
 34 36  1  0  0  0
 34 59  1  0  0  0
 34109  1  0  0  0
 35 44  2  0  0  0
 35 45  1  0  0  0
 35 68  1  0  0  0
 36 56  1  0  0  0
 36110  1  0  0  0
 37 39  1  0  0  0
 37 47  1  0  0  0
 37 66  1  0  0  0
 37111  1  0  0  0
 38 43  2  0  0  0
 38 46  1  0  0  0
 38 47  1  0  0  0
 39 64  1  0  0  0
 39 67  2  0  0  0
 40 52  1  0  0  0
 40 53  2  0  0  0
 40 58  1  0  0  0
 41112  1  0  0  0
 41113  1  0  0  0
 41114  1  0  0  0
 41 48  1  0  0  0
 42 43  1  0  0  0
 42 66  1  0  0  0
 42115  1  0  0  0
 42116  1  0  0  0
 43 44  1  0  0  0
 44117  1  0  0  0
 45 46  2  0  0  0
 45118  1  0  0  0
 46119  1  0  0  0
 47120  1  0  0  0
 47121  1  0  0  0
 48 56  1  0  0  0
 48 65  1  0  0  0
 48122  1  0  0  0
 49 50  1  0  0  0
 49 53  1  0  0  0
 49 64  1  0  0  0
 49123  1  0  0  0
 50 51  1  0  0  0
 50124  1  0  0  0
 50125  1  0  0  0
 51 52  1  0  0  0
 51126  1  0  0  0
 51127  1  0  0  0
 52128  1  0  0  0
 52129  1  0  0  0
 53 54  1  0  0  0
 54 55  2  0  0  0
 54130  1  0  0  0
 55 57  1  0  0  0
 55131  1  0  0  0
 56 69  2  0  0  0
 57 58  2  0  0  0
 57132  1  0  0  0
 58133  1  0  0  0
 59 60  1  0  0  0
 59 61  1  0  0  0
 59 62  1  0  0  0
 60134  1  0  0  0
 60135  1  0  0  0
 60136  1  0  0  0
 61137  1  0  0  0
 61138  1  0  0  0
 61139  1  0  0  0
 62140  1  0  0  0
 62141  1  0  0  0
 62142  1  0  0  0
 63 65  1  0  0  0
 63143  1  0  0  0
 63144  1  0  0  0
 63145  1  0  0  0
 64146  1  0  0  0
 65147  1  0  0  0
 68 80  1  0  0  0
 71 73  2  0  0  0
 71 74  1  0  0  0
 71148  1  0  0  0
 72 74  2  0  0  0
 72 75  1  0  0  0
 72149  1  0  0  0
 73 76  1  0  0  0
 73 81  1  0  0  0
 74 83  1  0  0  0
 75 76  2  0  0  0
 75 87  1  0  0  0
 76 88  1  0  0  0
 77 81  1  0  0  0
 77 85  2  0  0  0
 77150  1  0  0  0
 78 80  1  0  0  0
 78 82  1  0  0  0
 78 86  2  0  0  0
 79151  1  0  0  0
 79152  1  0  0  0
 79153  1  0  0  0
 79 82  1  0  0  0
 80154  1  0  0  0
 80155  1  0  0  0
 81 84  1  0  0  0
 81156  1  0  0  0
 82 84  1  0  0  0
 82157  1  0  0  0
 83158  1  0  0  0
 84159  1  0  0  0
 84160  1  0  0  0
M  CHG  1  84   1
M  ISO  4   1 100  68 101  80 101  83 100
M  END
> <chiral flag>
0

> <version>
0

> <s_m_source_file>
/data/baiqing/PycharmProjects/Reinvent-master-3.2/result/LINK_invent/BTK/process_docking_weight1_custom_product_contain_oxygen_bond_distance_aromatic_linkinvent_7_9_3/rearranged_h_0174.sdf

> <i_m_source_file_index>
68

> <r_mmod_Potential_Energy-OPLS-2005>
-409.036346435547

> <r_mmod_Stretch_Energy-OPLS-2005>
49.158088684082

> <r_mmod_Bend_Energy-OPLS-2005>
106.55078125

> <r_mmod_Torsional_Energy-OPLS-2005>
247.366806030273

> <r_mmod_Improper_Torsional_Energy-OPLS-2005>
5.22015476226807

> <r_mmod_Van_der_Waal_Energy-OPLS-2005>
166.618606567383

> <r_mmod_Electrostatic_Energy-OPLS-2005>
-500.384307861328

> <r_mmod_Solvation_Energy-OPLS-2005>
-505.740325927734

> <b_mmod_Minimization_Converged-OPLS-2005>
0

> <r_mmod_RMS_Derivative-OPLS-2005>
2.59528112411499

$$$$
68
                    3D
 Structure written by MMmdl.
159167  0  0  1  0            999 V2000
  -30.7419  -14.4482   20.6361 C   0  0  0  0  0  0
  -30.4219  -12.3252   19.4140 C   0  0  0  0  0  0
  -29.4889  -12.5224   18.2029 C   0  0  0  0  0  0
  -28.0153  -12.3659   18.6252 C   0  0  0  0  0  0
  -27.6614  -13.2103   19.8781 C   0  0  2  0  0  0
  -28.7030  -12.9965   20.9983 C   0  0  0  0  0  0
  -25.2580  -13.8164   20.5695 C   0  0  0  0  0  0
  -24.1835  -13.0434   20.9183 C   0  0  0  0  0  0
  -24.6396  -11.6907   20.8746 C   0  0  0  0  0  0
  -23.9063  -10.4295   21.0408 C   0  0  0  0  0  0
  -24.3622   -9.4205   21.9180 C   0  0  0  0  0  0
  -23.6298   -8.2238   22.0743 C   0  0  0  0  0  0
  -22.4269   -8.0282   21.3547 C   0  0  0  0  0  0
  -21.9904   -9.0255   20.4645 C   0  0  0  0  0  0
  -22.7239  -10.2136   20.3057 C   0  0  0  0  0  0
  -21.6848   -6.0739   22.5285 C   0  0  0  0  0  0
  -21.4006   -6.5641   23.8216 C   0  0  0  0  0  0
  -21.3661   -5.6792   24.9178 C   0  0  0  0  0  0
  -21.6048   -4.3057   24.7225 C   0  0  0  0  0  0
  -21.8819   -3.8147   23.4344 C   0  0  0  0  0  0
  -21.9188   -4.6968   22.3406 C   0  0  0  0  0  0
  -22.7856  -13.5227   21.1850 C   0  0  0  0  0  0
  -22.1653   -4.2161   21.0979 F   0  0  0  0  0  0
  -21.5636   -3.4532   25.7732 F   0  0  0  0  0  0
  -30.0358  -13.3002   20.4489 N   0  0  0  0  0  0
  -26.3022  -12.9347   20.3397 N   0  0  0  0  0  0
  -25.9331  -11.6501   20.5797 N   0  0  0  0  0  0
  -22.0495  -12.8227   22.0418 N   0  0  0  0  0  0
  -25.4300  -15.1883   20.4090 N   0  0  0  0  0  0
  -31.8226  -14.6586   20.0792 O   0  0  0  0  0  0
  -21.6632   -6.8878   21.4246 O   0  0  0  0  0  0
  -22.3551  -14.5543   20.6712 O   0  0  0  0  0  0
  -24.6165  -31.8666   23.2130 C   0  0  0  0  0  0
  -25.9055  -32.4817   23.8417 C   0  0  1  0  0  0
  -27.2220  -27.3994   20.0886 C   0  0  0  0  0  0
  -25.5915  -33.8624   24.2335 N   0  0  0  0  0  0
  -23.4048  -30.4927   21.5547 C   0  0  2  0  0  0
  -24.8462  -28.9589   20.1162 C   0  0  0  0  0  0
  -22.7415  -29.4647   22.4998 C   0  0  0  0  0  0
  -18.0271  -28.1368   22.8481 C   0  0  0  0  0  0
  -24.1488  -36.7309   23.2637 C   0  0  0  0  0  0
  -25.9397  -30.8159   21.3771 C   0  0  0  0  0  0
  -26.0096  -29.4514   20.7172 C   0  0  0  0  0  0
  -27.1962  -28.6775   20.7041 C   0  0  0  0  0  0
  -26.0343  -26.9398   19.4681 C   0  0  0  0  0  0
  -24.8547  -27.7031   19.4917 C   0  0  0  0  0  0
  -23.6133  -29.8315   20.1675 C   0  0  0  0  0  0
  -25.4108  -36.3113   24.0342 C   0  0  1  0  0  0
  -20.5860  -28.3655   23.1317 C   0  0  2  0  0  0
  -20.6750  -26.9382   22.5446 C   0  0  0  0  0  0
  -19.5759  -26.6374   21.5211 C   0  0  0  0  0  0
  -18.1917  -26.7930   22.1574 C   0  0  0  0  0  0
  -19.1518  -28.8826   23.2898 C   0  0  0  0  0  0
  -18.9447  -30.1425   23.8918 C   0  0  0  0  0  0
  -17.6453  -30.6567   24.0571 C   0  0  0  0  0  0
  -25.9042  -34.9479   23.5132 C   0  0  0  0  0  0
  -16.5342  -29.9074   23.6330 C   0  0  0  0  0  0
  -16.7259  -28.6492   23.0347 C   0  0  0  0  0  0
  -26.4483  -31.6621   25.0761 C   0  0  0  0  0  0
  -25.3762  -31.3795   26.1543 C   0  0  0  0  0  0
  -27.0257  -30.3022   24.6192 C   0  0  0  0  0  0
  -27.6092  -32.4340   25.7462 C   0  0  0  0  0  0
  -27.5603  -37.1788   24.8445 C   0  0  0  0  0  0
  -21.4141  -29.3020   22.3720 N   0  0  0  0  0  0
  -26.4291  -37.3803   23.9426 N   0  0  0  0  0  0
  -24.6719  -31.0738   22.1052 N   0  0  0  0  0  0
  -23.4180  -28.8185   23.3041 O   0  0  0  0  0  0
  -28.3974  -26.6617   20.1169 O   0  0  0  0  0  0
  -26.5596  -34.8928   22.4690 O   0  0  0  0  0  0
  -23.5354  -32.1446   23.7504 O   0  0  0  0  0  0
  -30.1669  -19.8200   20.4455 C   0  0  0  0  0  0
  -29.4661  -20.5644   21.4237 C   0  0  0  0  0  0
  -29.4669  -18.5258   22.7767 C   0  0  0  0  0  0
  -29.0936  -19.8756   22.5942 C   0  0  0  0  0  0
  -30.2311  -17.8943   21.7682 C   0  0  0  0  0  0
  -28.9804  -24.3213   20.7544 C   0  0  0  0  0  0
  -29.2848  -22.8400   20.3256 C   0  0  0  0  0  0
  -29.6163  -18.0800   25.1689 C   0  0  0  0  0  0
  -29.0754  -17.2544   26.3279 C   0  0  0  0  0  0
  -30.9012  -16.5321   21.9928 C   0  0  0  0  0  0
  -28.4158  -25.2746   19.6776 C   0  0  0  0  0  0
  -30.5398  -18.5252   20.6119 N   0  0  0  0  0  0
  -29.1528  -21.9659   21.3447 N   0  0  0  0  0  0
  -29.0909  -17.8407   23.9612 N   0  0  0  0  0  0
  -30.1986  -15.3541   21.4656 N   0  0  0  0  0  0
  -29.1591  -24.7066   21.9183 O   0  0  0  0  0  0
  -29.5955  -22.5253   19.1722 O   0  0  0  0  0  0
  -30.5127  -18.9043   25.3586 O   0  0  0  0  0  0
  -28.3873  -20.5271   23.5530 F   0  0  0  0  0  0
  -31.4639  -12.4294   19.1072 H   0  0  0  0  0  0
  -30.3334  -11.3121   19.8068 H   0  0  0  0  0  0
  -29.7329  -11.8046   17.4181 H   0  0  0  0  0  0
  -29.6469  -13.5119   17.7715 H   0  0  0  0  0  0
  -27.8441  -11.3094   18.8325 H   0  0  0  0  0  0
  -27.3535  -12.6226   17.7978 H   0  0  0  0  0  0
  -27.7039  -14.2589   19.5817 H   0  0  0  0  0  0
  -28.6808  -11.9622   21.3440 H   0  0  0  0  0  0
  -28.4528  -13.5964   21.8732 H   0  0  0  0  0  0
  -25.2773   -9.5671   22.4741 H   0  0  0  0  0  0
  -24.0010   -7.4623   22.7451 H   0  0  0  0  0  0
  -21.0826   -8.8778   19.8958 H   0  0  0  0  0  0
  -22.3699  -10.9671   19.6161 H   0  0  0  0  0  0
  -21.1994   -7.6147   23.9726 H   0  0  0  0  0  0
  -21.1483   -6.0518   25.9085 H   0  0  0  0  0  0
  -22.0598   -2.7610   23.2836 H   0  0  0  0  0  0
  -22.4087  -11.9868   22.4802 H   0  0  0  0  0  0
  -21.1129  -13.1274   22.2643 H   0  0  0  0  0  0
  -24.6600  -15.8417   20.5001 H   0  0  0  0  0  0
  -26.2851  -15.6263   20.0891 H   0  0  0  0  0  0
  -26.7111  -32.5501   23.1162 H   0  0  0  0  0  0
  -25.0099  -33.9800   25.0500 H   0  0  0  0  0  0
  -22.6956  -31.3118   21.4183 H   0  0  0  0  0  0
  -23.3775  -35.9613   23.3257 H   0  0  0  0  0  0
  -24.3597  -36.8966   22.2060 H   0  0  0  0  0  0
  -23.7200  -37.6484   23.6678 H   0  0  0  0  0  0
  -26.0695  -31.5847   20.6150 H   0  0  0  0  0  0
  -26.8210  -30.8552   22.0053 H   0  0  0  0  0  0
  -28.0928  -29.0530   21.1779 H   0  0  0  0  0  0
  -25.9690  -26.0038   18.9390 H   0  0  0  0  0  0
  -23.9611  -27.3224   19.0151 H   0  0  0  0  0  0
  -23.7288  -30.6106   19.4129 H   0  0  0  0  0  0
  -22.7345  -29.2584   19.8659 H   0  0  0  0  0  0
  -25.1281  -36.1972   25.0835 H   0  0  0  0  0  0
  -20.9945  -28.3226   24.1440 H   0  0  0  0  0  0
  -20.5577  -26.2284   23.3645 H   0  0  0  0  0  0
  -21.6635  -26.7376   22.1293 H   0  0  0  0  0  0
  -19.6918  -25.6284   21.1239 H   0  0  0  0  0  0
  -19.6729  -27.3190   20.6750 H   0  0  0  0  0  0
  -17.4219  -26.6728   21.3935 H   0  0  0  0  0  0
  -18.0252  -26.0033   22.8918 H   0  0  0  0  0  0
  -19.7930  -30.7223   24.2303 H   0  0  0  0  0  0
  -17.5013  -31.6249   24.5168 H   0  0  0  0  0  0
  -15.5343  -30.2979   23.7643 H   0  0  0  0  0  0
  -15.8660  -28.0812   22.7058 H   0  0  0  0  0  0
  -24.5950  -30.7083   25.7963 H   0  0  0  0  0  0
  -24.8937  -32.2970   26.4927 H   0  0  0  0  0  0
  -25.8144  -30.9069   27.0343 H   0  0  0  0  0  0
  -26.2773  -29.6807   24.1261 H   0  0  0  0  0  0
  -27.3966  -29.7265   25.4684 H   0  0  0  0  0  0
  -27.8671  -30.4272   23.9371 H   0  0  0  0  0  0
  -27.2746  -33.3639   26.2073 H   0  0  0  0  0  0
  -28.3851  -32.6902   25.0235 H   0  0  0  0  0  0
  -28.0822  -31.8456   26.5335 H   0  0  0  0  0  0
  -28.2617  -38.0092   24.7519 H   0  0  0  0  0  0
  -28.1098  -36.2635   24.6197 H   0  0  0  0  0  0
  -27.2355  -37.1358   25.8856 H   0  0  0  0  0  0
  -20.9299  -29.8766   21.6962 H   0  0  0  0  0  0
  -26.0184  -38.2872   24.1477 H   0  0  0  0  0  0
  -30.4910  -20.2634   19.5176 H   0  0  0  0  0  0
  -29.0060  -16.2016   26.0527 H   0  0  0  0  0  0
  -28.0820  -17.6029   26.6094 H   0  0  0  0  0  0
  -29.7251  -17.3364   27.1996 H   0  0  0  0  0  0
  -31.0416  -16.3711   23.0615 H   0  0  0  0  0  0
  -31.9191  -16.5999   21.6048 H   0  0  0  0  0  0
  -27.4441  -24.8643   19.4269 H   0  0  0  0  0  0
  -29.0280  -25.2030   18.7788 H   0  0  0  0  0  0
  -28.8238  -22.3904   22.2041 H   0  0  0  0  0  0
  -28.3831  -17.1217   23.8838 H   0  0  0  0  0  0
  -29.2954  -15.1437   21.8603 H   0  0  0  0  0  0
  1 25  1  0  0  0
  1 30  2  0  0  0
  1 85  1  0  0  0
  2  3  1  0  0  0
  2 25  1  0  0  0
  2 90  1  0  0  0
  2 91  1  0  0  0
  3  4  1  0  0  0
  3 92  1  0  0  0
  3 93  1  0  0  0
  4  5  1  0  0  0
  4 94  1  0  0  0
  4 95  1  0  0  0
  5  6  1  0  0  0
  5 26  1  0  0  0
  5 96  1  0  0  0
  6 25  1  0  0  0
  6 97  1  0  0  0
  6 98  1  0  0  0
  7  8  2  0  0  0
  7 26  1  0  0  0
  7 29  1  0  0  0
  8  9  1  0  0  0
  8 22  1  0  0  0
  9 10  1  0  0  0
  9 27  2  0  0  0
 10 11  2  0  0  0
 10 15  1  0  0  0
 11 12  1  0  0  0
 11 99  1  0  0  0
 12 13  2  0  0  0
 12100  1  0  0  0
 13 14  1  0  0  0
 13 31  1  0  0  0
 14 15  2  0  0  0
 14101  1  0  0  0
 15102  1  0  0  0
 16 17  2  0  0  0
 16 21  1  0  0  0
 16 31  1  0  0  0
 17 18  1  0  0  0
 17103  1  0  0  0
 18 19  2  0  0  0
 18104  1  0  0  0
 19 20  1  0  0  0
 19 24  1  0  0  0
 20 21  2  0  0  0
 20105  1  0  0  0
 21 23  1  0  0  0
 22 28  1  0  0  0
 22 32  2  0  0  0
 26 27  1  0  0  0
 28106  1  0  0  0
 28107  1  0  0  0
 29108  1  0  0  0
 29109  1  0  0  0
 33 34  1  0  0  0
 33 66  1  0  0  0
 33 70  2  0  0  0
 34 36  1  0  0  0
 34 59  1  0  0  0
 34110  1  0  0  0
 35 44  2  0  0  0
 35 45  1  0  0  0
 35 68  1  0  0  0
 36 56  1  0  0  0
 36111  1  0  0  0
 37 39  1  0  0  0
 37 47  1  0  0  0
 37 66  1  0  0  0
 37112  1  0  0  0
 38 43  2  0  0  0
 38 46  1  0  0  0
 38 47  1  0  0  0
 39 64  1  0  0  0
 39 67  2  0  0  0
 40 52  1  0  0  0
 40 53  2  0  0  0
 40 58  1  0  0  0
 41113  1  0  0  0
 41114  1  0  0  0
 41115  1  0  0  0
 41 48  1  0  0  0
 42 43  1  0  0  0
 42 66  1  0  0  0
 42116  1  0  0  0
 42117  1  0  0  0
 43 44  1  0  0  0
 44118  1  0  0  0
 45 46  2  0  0  0
 45119  1  0  0  0
 46120  1  0  0  0
 47121  1  0  0  0
 47122  1  0  0  0
 48 56  1  0  0  0
 48 65  1  0  0  0
 48123  1  0  0  0
 49 50  1  0  0  0
 49 53  1  0  0  0
 49 64  1  0  0  0
 49124  1  0  0  0
 50 51  1  0  0  0
 50125  1  0  0  0
 50126  1  0  0  0
 51 52  1  0  0  0
 51127  1  0  0  0
 51128  1  0  0  0
 52129  1  0  0  0
 52130  1  0  0  0
 53 54  1  0  0  0
 54 55  2  0  0  0
 54131  1  0  0  0
 55 57  1  0  0  0
 55132  1  0  0  0
 56 69  2  0  0  0
 57 58  2  0  0  0
 57133  1  0  0  0
 58134  1  0  0  0
 59 60  1  0  0  0
 59 61  1  0  0  0
 59 62  1  0  0  0
 60135  1  0  0  0
 60136  1  0  0  0
 60137  1  0  0  0
 61138  1  0  0  0
 61139  1  0  0  0
 61140  1  0  0  0
 62141  1  0  0  0
 62142  1  0  0  0
 62143  1  0  0  0
 63 65  1  0  0  0
 63144  1  0  0  0
 63145  1  0  0  0
 63146  1  0  0  0
 64147  1  0  0  0
 65148  1  0  0  0
 68 81  1  0  0  0
 71 72  2  0  0  0
 71 82  1  0  0  0
 71149  1  0  0  0
 72 74  1  0  0  0
 72 83  1  0  0  0
 73 74  2  0  0  0
 73 75  1  0  0  0
 73 84  1  0  0  0
 74 89  1  0  0  0
 75 80  1  0  0  0
 75 82  2  0  0  0
 76 77  1  0  0  0
 76 81  1  0  0  0
 76 86  2  0  0  0
 77 83  1  0  0  0
 77 87  2  0  0  0
 78 79  1  0  0  0
 78 84  1  0  0  0
 78 88  2  0  0  0
 79150  1  0  0  0
 79151  1  0  0  0
 79152  1  0  0  0
 80 85  1  0  0  0
 80153  1  0  0  0
 80154  1  0  0  0
 81155  1  0  0  0
 81156  1  0  0  0
 83157  1  0  0  0
 84158  1  0  0  0
 85159  1  0  0  0
M  ISO  4   1 100  68 101  81 101  85 100
M  END
> <chiral flag>
0

> <version>
0

> <s_m_source_file>
/data/baiqing/PycharmProjects/Reinvent-master-3.2/result/LINK_invent/BTK/process_docking_weight1_custom_product_contain_oxygen_bond_distance_aromatic_linkinvent_7_9_3/rearranged_h_0174.sdf

> <i_m_source_file_index>
69

> <r_mmod_Potential_Energy-OPLS-2005>
-376.444915771484

> <r_mmod_Stretch_Energy-OPLS-2005>
43.6935386657715

> <r_mmod_Bend_Energy-OPLS-2005>
115.437149047852

> <r_mmod_Torsional_Energy-OPLS-2005>
240.576156616211

> <r_mmod_Improper_Torsional_Energy-OPLS-2005>
2.71694350242615

> <r_mmod_Van_der_Waal_Energy-OPLS-2005>
163.488143920898

> <r_mmod_Electrostatic_Energy-OPLS-2005>
-674.450317382812

> <r_mmod_Solvation_Energy-OPLS-2005>
-282.095306396484

> <b_mmod_Minimization_Converged-OPLS-2005>
0

> <r_mmod_RMS_Derivative-OPLS-2005>
1.70468163490295

$$$$
69
                    3D
 Structure written by MMmdl.
172180  0  0  1  0            999 V2000
  -30.7174  -14.3892   20.5761 C   0  0  0  0  0  0
  -30.4181  -12.2508   19.4138 C   0  0  0  0  0  0
  -29.4906  -12.4873   18.2022 C   0  0  0  0  0  0
  -28.0087  -12.3709   18.6116 C   0  0  0  0  0  0
  -27.6674  -13.1930   19.8830 C   0  0  2  0  0  0
  -28.7080  -12.9339   20.9999 C   0  0  0  0  0  0
  -25.2625  -13.8133   20.5699 C   0  0  0  0  0  0
  -24.1855  -13.0429   20.9161 C   0  0  0  0  0  0
  -24.6377  -11.6886   20.8720 C   0  0  0  0  0  0
  -23.9028  -10.4289   21.0394 C   0  0  0  0  0  0
  -24.3591   -9.4210   21.9172 C   0  0  0  0  0  0
  -23.6281   -8.2237   22.0742 C   0  0  0  0  0  0
  -22.4261   -8.0266   21.3527 C   0  0  0  0  0  0
  -21.9881   -9.0241   20.4627 C   0  0  0  0  0  0
  -22.7204  -10.2126   20.3042 C   0  0  0  0  0  0
  -21.6844   -6.0728   22.5280 C   0  0  0  0  0  0
  -21.4004   -6.5634   23.8216 C   0  0  0  0  0  0
  -21.3668   -5.6792   24.9177 C   0  0  0  0  0  0
  -21.6049   -4.3052   24.7222 C   0  0  0  0  0  0
  -21.8821   -3.8139   23.4345 C   0  0  0  0  0  0
  -21.9184   -4.6957   22.3400 C   0  0  0  0  0  0
  -22.7880  -13.5241   21.1853 C   0  0  0  0  0  0
  -22.1653   -4.2145   21.0977 F   0  0  0  0  0  0
  -21.5634   -3.4541   25.7737 F   0  0  0  0  0  0
  -30.0502  -13.2146   20.4583 N   0  0  0  0  0  0
  -26.3045  -12.9271   20.3398 N   0  0  0  0  0  0
  -25.9300  -11.6440   20.5770 N   0  0  0  0  0  0
  -22.0508  -12.8243   22.0404 N   0  0  0  0  0  0
  -25.4386  -15.1857   20.4140 N   0  0  0  0  0  0
  -31.8372  -14.5998   20.1011 O   0  0  0  0  0  0
  -21.6621   -6.8868   21.4240 O   0  0  0  0  0  0
  -22.3571  -14.5558   20.6709 O   0  0  0  0  0  0
  -24.6066  -31.8735   23.2148 C   0  0  0  0  0  0
  -25.9000  -32.4843   23.8398 C   0  0  1  0  0  0
  -27.2375  -27.4864   20.0729 C   0  0  0  0  0  0
  -25.5887  -33.8645   24.2328 N   0  0  0  0  0  0
  -23.3888  -30.4975   21.5570 C   0  0  2  0  0  0
  -24.8357  -28.9712   20.1165 C   0  0  0  0  0  0
  -22.7339  -29.4696   22.5066 C   0  0  0  0  0  0
  -18.0255  -28.1374   22.8503 C   0  0  0  0  0  0
  -24.1494  -36.7317   23.2633 C   0  0  0  0  0  0
  -25.9136  -30.8478   21.3663 C   0  0  0  0  0  0
  -25.9910  -29.4851   20.7167 C   0  0  0  0  0  0
  -27.1882  -28.7413   20.7101 C   0  0  0  0  0  0
  -26.0597  -26.9773   19.4726 C   0  0  0  0  0  0
  -24.8620  -27.7105   19.5005 C   0  0  0  0  0  0
  -23.5915  -29.8258   20.1720 C   0  0  0  0  0  0
  -25.4116  -36.3125   24.0331 C   0  0  1  0  0  0
  -20.5834  -28.3630   23.1379 C   0  0  2  0  0  0
  -20.6770  -26.9383   22.5443 C   0  0  0  0  0  0
  -19.5753  -26.6390   21.5232 C   0  0  0  0  0  0
  -18.1918  -26.7929   22.1627 C   0  0  0  0  0  0
  -19.1500  -28.8819   23.2935 C   0  0  0  0  0  0
  -18.9430  -30.1444   23.8911 C   0  0  0  0  0  0
  -17.6437  -30.6590   24.0563 C   0  0  0  0  0  0
  -25.9033  -34.9489   23.5121 C   0  0  0  0  0  0
  -16.5321  -29.9081   23.6346 C   0  0  0  0  0  0
  -16.7243  -28.6510   23.0345 C   0  0  0  0  0  0
  -26.4464  -31.6607   25.0702 C   0  0  0  0  0  0
  -25.3751  -31.3668   26.1453 C   0  0  0  0  0  0
  -27.0295  -30.3058   24.6052 C   0  0  0  0  0  0
  -27.6058  -32.4307   25.7457 C   0  0  0  0  0  0
  -27.5585  -37.1812   24.8458 C   0  0  0  0  0  0
  -21.4076  -29.3013   22.3792 N   0  0  0  0  0  0
  -26.4305  -37.3807   23.9401 N   0  0  0  0  0  0
  -24.6536  -31.0857   22.1045 N   0  0  0  0  0  0
  -23.4142  -28.8260   23.3097 O   0  0  0  0  0  0
  -28.4434  -26.8245   20.0529 O   0  0  0  0  0  0
  -26.5585  -34.8925   22.4675 O   0  0  0  0  0  0
  -23.5287  -32.1474   23.7601 O   0  0  0  0  0  0
  -28.1194  -18.3297   18.6171 C   0  0  0  0  0  0
  -29.5525  -16.3826   18.8011 C   0  0  0  0  0  0
  -28.7076  -17.4570   20.8239 C   0  0  0  0  0  0
  -28.8879  -17.3248   17.9966 C   0  0  0  0  0  0
  -28.0493  -18.4143   20.0270 C   0  0  0  0  0  0
  -29.4433  -16.4201   20.2159 C   0  0  0  0  0  0
  -26.4531  -21.6306   20.1469 C   0  0  0  0  0  0
  -26.3067  -20.1037   20.1901 C   0  0  0  0  0  0
  -29.1701  -18.5661   15.7716 C   0  0  0  0  0  0
  -28.3514  -24.4612   19.5183 C   0  0  0  0  0  0
  -30.4506  -19.3373   16.0584 C   0  0  0  0  0  0
  -27.7990  -16.4010   15.9207 C   0  0  0  0  0  0
  -27.6046  -23.7100   17.1776 C   0  0  0  0  0  0
  -27.4957  -22.0985   19.1237 C   0  0  0  0  0  0
  -28.6536  -25.8759   19.0119 C   0  0  0  0  0  0
  -28.9854  -17.2082   16.4759 C   0  0  2  0  0  0
  -27.3855  -23.5794   18.7011 C   0  0  1  0  0  0
  -27.4260  -19.5232   20.6418 N   0  0  0  0  0  0
  -29.9773  -15.3980   21.0460 N   0  0  0  0  0  0
  -25.7951  -22.4041   20.8515 O   0  0  0  0  0  0
  -25.2929  -19.5060   19.8133 O   0  0  0  0  0  0
  -28.3174  -19.0332   15.0108 O   0  0  0  0  0  0
  -28.8544  -24.0577   20.5726 O   0  0  0  0  0  0
  -31.4649  -12.3349   19.1156 H   0  0  0  0  0  0
  -30.2967  -11.2340   19.7909 H   0  0  0  0  0  0
  -29.7165  -11.7707   17.4110 H   0  0  0  0  0  0
  -29.6800  -13.4707   17.7731 H   0  0  0  0  0  0
  -27.7965  -11.3154   18.7848 H   0  0  0  0  0  0
  -27.3658  -12.6746   17.7851 H   0  0  0  0  0  0
  -27.7185  -14.2441   19.6032 H   0  0  0  0  0  0
  -28.6634  -11.8938   21.3248 H   0  0  0  0  0  0
  -28.4835  -13.5226   21.8900 H   0  0  0  0  0  0
  -25.2728   -9.5705   22.4748 H   0  0  0  0  0  0
  -23.9995   -7.4630   22.7458 H   0  0  0  0  0  0
  -21.0810   -8.8749   19.8935 H   0  0  0  0  0  0
  -22.3648  -10.9663   19.6153 H   0  0  0  0  0  0
  -21.1989   -7.6142   23.9722 H   0  0  0  0  0  0
  -21.1495   -6.0511   25.9086 H   0  0  0  0  0  0
  -22.0590   -2.7597   23.2838 H   0  0  0  0  0  0
  -22.4103  -11.9893   22.4803 H   0  0  0  0  0  0
  -21.1128  -13.1281   22.2608 H   0  0  0  0  0  0
  -24.6742  -15.8431   20.5201 H   0  0  0  0  0  0
  -26.3013  -15.6267   20.1220 H   0  0  0  0  0  0
  -26.7053  -32.5585   23.1154 H   0  0  0  0  0  0
  -25.0052  -33.9819   25.0479 H   0  0  0  0  0  0
  -22.6740  -31.3123   21.4217 H   0  0  0  0  0  0
  -23.3760  -35.9650   23.3317 H   0  0  0  0  0  0
  -24.3581  -36.8908   22.2042 H   0  0  0  0  0  0
  -23.7245  -37.6528   23.6629 H   0  0  0  0  0  0
  -26.0166  -31.6187   20.6014 H   0  0  0  0  0  0
  -26.8044  -30.9026   21.9804 H   0  0  0  0  0  0
  -28.0825  -29.1393   21.1717 H   0  0  0  0  0  0
  -26.0384  -26.0263   18.9678 H   0  0  0  0  0  0
  -23.9731  -27.3081   19.0360 H   0  0  0  0  0  0
  -23.6792  -30.5951   19.4044 H   0  0  0  0  0  0
  -22.7186  -29.2325   19.8908 H   0  0  0  0  0  0
  -25.1310  -36.2004   25.0833 H   0  0  0  0  0  0
  -20.9907  -28.3175   24.1508 H   0  0  0  0  0  0
  -20.5730  -26.2194   23.3590 H   0  0  0  0  0  0
  -21.6640  -26.7501   22.1198 H   0  0  0  0  0  0
  -19.6913  -25.6313   21.1230 H   0  0  0  0  0  0
  -19.6715  -27.3235   20.6794 H   0  0  0  0  0  0
  -17.4200  -26.6683   21.4014 H   0  0  0  0  0  0
  -18.0308  -26.0072   22.9023 H   0  0  0  0  0  0
  -19.7904  -30.7278   24.2257 H   0  0  0  0  0  0
  -17.4985  -31.6282   24.5151 H   0  0  0  0  0  0
  -15.5320  -30.2977   23.7700 H   0  0  0  0  0  0
  -15.8637  -28.0853   22.7026 H   0  0  0  0  0  0
  -24.5933  -30.7016   25.7763 H   0  0  0  0  0  0
  -24.8936  -32.2806   26.4944 H   0  0  0  0  0  0
  -25.8142  -30.8792   27.0163 H   0  0  0  0  0  0
  -26.2816  -29.6791   24.1169 H   0  0  0  0  0  0
  -27.4129  -29.7332   25.4508 H   0  0  0  0  0  0
  -27.8628  -30.4366   23.9139 H   0  0  0  0  0  0
  -27.2689  -33.3582   26.2093 H   0  0  0  0  0  0
  -28.3848  -32.6893   25.0272 H   0  0  0  0  0  0
  -28.0737  -31.8374   26.5320 H   0  0  0  0  0  0
  -28.2622  -38.0093   24.7523 H   0  0  0  0  0  0
  -28.1069  -36.2632   24.6299 H   0  0  0  0  0  0
  -27.2280  -37.1470   25.8852 H   0  0  0  0  0  0
  -20.9200  -29.8659   21.6979 H   0  0  0  0  0  0
  -26.0203  -38.2887   24.1427 H   0  0  0  0  0  0
  -27.6079  -19.0561   18.0020 H   0  0  0  0  0  0
  -30.1173  -15.6087   18.3027 H   0  0  0  0  0  0
  -28.6411  -17.5164   21.9015 H   0  0  0  0  0  0
  -31.1129  -18.7570   16.6995 H   0  0  0  0  0  0
  -30.2173  -20.2745   16.5622 H   0  0  0  0  0  0
  -30.9734  -19.5624   15.1296 H   0  0  0  0  0  0
  -27.7823  -15.3971   16.3457 H   0  0  0  0  0  0
  -27.8632  -16.2940   14.8370 H   0  0  0  0  0  0
  -26.8475  -16.8772   16.1573 H   0  0  0  0  0  0
  -27.3138  -24.6895   16.7975 H   0  0  0  0  0  0
  -26.9957  -22.9850   16.6360 H   0  0  0  0  0  0
  -28.6450  -23.5371   16.9003 H   0  0  0  0  0  0
  -27.3782  -21.4614   18.2466 H   0  0  0  0  0  0
  -28.4887  -21.8672   19.5100 H   0  0  0  0  0  0
  -28.0900  -26.1339   18.1176 H   0  0  0  0  0  0
  -29.7048  -25.9141   18.7279 H   0  0  0  0  0  0
  -29.8923  -16.6456   16.2519 H   0  0  0  0  0  0
  -26.3729  -23.9201   18.9120 H   0  0  0  0  0  0
  -28.0429  -20.1251   21.1721 H   0  0  0  0  0  0
  -29.3570  -15.1299   21.7959 H   0  0  0  0  0  0
  1 25  1  0  0  0
  1 30  2  0  0  0
  1 89  1  0  0  0
  2  3  1  0  0  0
  2 25  1  0  0  0
  2 94  1  0  0  0
  2 95  1  0  0  0
  3  4  1  0  0  0
  3 96  1  0  0  0
  3 97  1  0  0  0
  4  5  1  0  0  0
  4 98  1  0  0  0
  4 99  1  0  0  0
  5  6  1  0  0  0
  5 26  1  0  0  0
  5100  1  0  0  0
  6 25  1  0  0  0
  6101  1  0  0  0
  6102  1  0  0  0
  7  8  2  0  0  0
  7 26  1  0  0  0
  7 29  1  0  0  0
  8  9  1  0  0  0
  8 22  1  0  0  0
  9 10  1  0  0  0
  9 27  2  0  0  0
 10 11  2  0  0  0
 10 15  1  0  0  0
 11 12  1  0  0  0
 11103  1  0  0  0
 12 13  2  0  0  0
 12104  1  0  0  0
 13 14  1  0  0  0
 13 31  1  0  0  0
 14 15  2  0  0  0
 14105  1  0  0  0
 15106  1  0  0  0
 16 17  2  0  0  0
 16 21  1  0  0  0
 16 31  1  0  0  0
 17 18  1  0  0  0
 17107  1  0  0  0
 18 19  2  0  0  0
 18108  1  0  0  0
 19 20  1  0  0  0
 19 24  1  0  0  0
 20 21  2  0  0  0
 20109  1  0  0  0
 21 23  1  0  0  0
 22 28  1  0  0  0
 22 32  2  0  0  0
 26 27  1  0  0  0
 28110  1  0  0  0
 28111  1  0  0  0
 29112  1  0  0  0
 29113  1  0  0  0
 33 34  1  0  0  0
 33 66  1  0  0  0
 33 70  2  0  0  0
 34 36  1  0  0  0
 34 59  1  0  0  0
 34114  1  0  0  0
 35 44  2  0  0  0
 35 45  1  0  0  0
 35 68  1  0  0  0
 36 56  1  0  0  0
 36115  1  0  0  0
 37 39  1  0  0  0
 37 47  1  0  0  0
 37 66  1  0  0  0
 37116  1  0  0  0
 38 43  2  0  0  0
 38 46  1  0  0  0
 38 47  1  0  0  0
 39 64  1  0  0  0
 39 67  2  0  0  0
 40 52  1  0  0  0
 40 53  2  0  0  0
 40 58  1  0  0  0
 41117  1  0  0  0
 41118  1  0  0  0
 41119  1  0  0  0
 41 48  1  0  0  0
 42 43  1  0  0  0
 42 66  1  0  0  0
 42120  1  0  0  0
 42121  1  0  0  0
 43 44  1  0  0  0
 44122  1  0  0  0
 45 46  2  0  0  0
 45123  1  0  0  0
 46124  1  0  0  0
 47125  1  0  0  0
 47126  1  0  0  0
 48 56  1  0  0  0
 48 65  1  0  0  0
 48127  1  0  0  0
 49 50  1  0  0  0
 49 53  1  0  0  0
 49 64  1  0  0  0
 49128  1  0  0  0
 50 51  1  0  0  0
 50129  1  0  0  0
 50130  1  0  0  0
 51 52  1  0  0  0
 51131  1  0  0  0
 51132  1  0  0  0
 52133  1  0  0  0
 52134  1  0  0  0
 53 54  1  0  0  0
 54 55  2  0  0  0
 54135  1  0  0  0
 55 57  1  0  0  0
 55136  1  0  0  0
 56 69  2  0  0  0
 57 58  2  0  0  0
 57137  1  0  0  0
 58138  1  0  0  0
 59 60  1  0  0  0
 59 61  1  0  0  0
 59 62  1  0  0  0
 60139  1  0  0  0
 60140  1  0  0  0
 60141  1  0  0  0
 61142  1  0  0  0
 61143  1  0  0  0
 61144  1  0  0  0
 62145  1  0  0  0
 62146  1  0  0  0
 62147  1  0  0  0
 63 65  1  0  0  0
 63148  1  0  0  0
 63149  1  0  0  0
 63150  1  0  0  0
 64151  1  0  0  0
 65152  1  0  0  0
 68 85  1  0  0  0
 71 74  2  0  0  0
 71 75  1  0  0  0
 71153  1  0  0  0
 72 74  1  0  0  0
 72 76  2  0  0  0
 72154  1  0  0  0
 73 75  2  0  0  0
 73 76  1  0  0  0
 73155  1  0  0  0
 74 86  1  0  0  0
 75 88  1  0  0  0
 76 89  1  0  0  0
 77 78  1  0  0  0
 77 84  1  0  0  0
 77 90  2  0  0  0
 78 88  1  0  0  0
 78 91  2  0  0  0
 79 81  1  0  0  0
 79 86  1  0  0  0
 79 92  2  0  0  0
 80 85  1  0  0  0
 80 87  1  0  0  0
 80 93  2  0  0  0
 81156  1  0  0  0
 81157  1  0  0  0
 81158  1  0  0  0
 82159  1  0  0  0
 82160  1  0  0  0
 82161  1  0  0  0
 82 86  1  0  0  0
 83162  1  0  0  0
 83163  1  0  0  0
 83164  1  0  0  0
 83 87  1  0  0  0
 84 87  1  0  0  0
 84165  1  0  0  0
 84166  1  0  0  0
 85167  1  0  0  0
 85168  1  0  0  0
 86169  1  0  0  0
 87170  1  0  0  0
 88171  1  0  0  0
 89172  1  0  0  0
M  ISO  4   1 100  68 101  85 101  89 100
M  END
> <chiral flag>
0

> <version>
0

> <s_m_source_file>
/data/baiqing/PycharmProjects/Reinvent-master-3.2/result/LINK_invent/BTK/process_docking_weight1_custom_product_contain_oxygen_bond_distance_aromatic_linkinvent_7_9_3/rearranged_h_0174.sdf

> <i_m_source_file_index>
70

> <r_mmod_Potential_Energy-OPLS-2005>
37.6857948303223

> <r_mmod_Stretch_Energy-OPLS-2005>
33.6343536376953

> <r_mmod_Bend_Energy-OPLS-2005>
101.442123413086

> <r_mmod_Torsional_Energy-OPLS-2005>
324.270690917969

> <r_mmod_Improper_Torsional_Energy-OPLS-2005>
10.7396039962769

> <r_mmod_Van_der_Waal_Energy-OPLS-2005>
156.414855957031

> <r_mmod_Electrostatic_Energy-OPLS-2005>
-324.171905517578

> <r_mmod_Solvation_Energy-OPLS-2005>
-274.410919189453

> <b_mmod_Minimization_Converged-OPLS-2005>
0

> <r_mmod_RMS_Derivative-OPLS-2005>
2.09537386894226

$$$$
70
                    3D
 Structure written by MMmdl.
157165  0  0  1  0            999 V2000
  -30.5401  -14.6941   20.4855 C   0  0  0  0  0  0
  -30.4708  -12.4257   19.4420 C   0  0  0  0  0  0
  -29.5180  -12.5162   18.2238 C   0  0  0  0  0  0
  -28.0414  -12.3314   18.6399 C   0  0  0  0  0  0
  -27.6590  -13.1945   19.8689 C   0  0  2  0  0  0
  -28.7131  -13.0222   20.9907 C   0  0  0  0  0  0
  -25.2618  -13.8120   20.5704 C   0  0  0  0  0  0
  -24.1856  -13.0408   20.9167 C   0  0  0  0  0  0
  -24.6398  -11.6871   20.8740 C   0  0  0  0  0  0
  -23.9061  -10.4272   21.0416 C   0  0  0  0  0  0
  -24.3616   -9.4189   21.9194 C   0  0  0  0  0  0
  -23.6289   -8.2227   22.0760 C   0  0  0  0  0  0
  -22.4270   -8.0277   21.3548 C   0  0  0  0  0  0
  -21.9911   -9.0251   20.4652 C   0  0  0  0  0  0
  -22.7235  -10.2128   20.3064 C   0  0  0  0  0  0
  -21.6849   -6.0738   22.5277 C   0  0  0  0  0  0
  -21.4011   -6.5638   23.8210 C   0  0  0  0  0  0
  -21.3659   -5.6791   24.9171 C   0  0  0  0  0  0
  -21.6045   -4.3053   24.7218 C   0  0  0  0  0  0
  -21.8823   -3.8145   23.4336 C   0  0  0  0  0  0
  -21.9191   -4.6967   22.3396 C   0  0  0  0  0  0
  -22.7880  -13.5219   21.1834 C   0  0  0  0  0  0
  -22.1660   -4.2157   21.0973 F   0  0  0  0  0  0
  -21.5627   -3.4537   25.7731 F   0  0  0  0  0  0
  -30.0255  -13.4183   20.4377 N   0  0  0  0  0  0
  -26.3031  -12.9247   20.3366 N   0  0  0  0  0  0
  -25.9323  -11.6425   20.5778 N   0  0  0  0  0  0
  -22.0509  -12.8229   22.0394 N   0  0  0  0  0  0
  -25.4318  -15.1865   20.4220 N   0  0  0  0  0  0
  -31.6952  -14.9428   20.1293 O   0  0  0  0  0  0
  -21.6630   -6.8880   21.4241 O   0  0  0  0  0  0
  -22.3573  -14.5530   20.6681 O   0  0  0  0  0  0
  -24.6268  -31.8589   23.2005 C   0  0  0  0  0  0
  -25.9101  -32.4778   23.8345 C   0  0  1  0  0  0
  -27.2405  -27.3243   20.1009 C   0  0  0  0  0  0
  -25.5911  -33.8579   24.2277 N   0  0  0  0  0  0
  -23.4213  -30.4820   21.5453 C   0  0  2  0  0  0
  -24.8695  -28.9337   20.1183 C   0  0  0  0  0  0
  -22.7466  -29.4627   22.4941 C   0  0  0  0  0  0
  -18.0281  -28.1384   22.8480 C   0  0  0  0  0  0
  -24.1495  -36.7310   23.2637 C   0  0  0  0  0  0
  -25.9626  -30.7933   21.3674 C   0  0  0  0  0  0
  -26.0418  -29.4177   20.7145 C   0  0  0  0  0  0
  -27.2304  -28.6241   20.6988 C   0  0  0  0  0  0
  -26.0278  -26.8770   19.5266 C   0  0  0  0  0  0
  -24.8630  -27.6653   19.5200 C   0  0  0  0  0  0
  -23.6371  -29.8142   20.1628 C   0  0  0  0  0  0
  -25.4111  -36.3085   24.0330 C   0  0  1  0  0  0
  -20.5880  -28.3695   23.1289 C   0  0  2  0  0  0
  -20.6773  -26.9422   22.5415 C   0  0  0  0  0  0
  -19.5761  -26.6395   21.5211 C   0  0  0  0  0  0
  -18.1940  -26.7925   22.1624 C   0  0  0  0  0  0
  -19.1530  -28.8854   23.2883 C   0  0  0  0  0  0
  -18.9453  -30.1454   23.8908 C   0  0  0  0  0  0
  -17.6452  -30.6588   24.0569 C   0  0  0  0  0  0
  -25.9046  -34.9455   23.5109 C   0  0  0  0  0  0
  -16.5342  -29.9093   23.6322 C   0  0  0  0  0  0
  -16.7266  -28.6508   23.0342 C   0  0  0  0  0  0
  -26.4471  -31.6567   25.0706 C   0  0  0  0  0  0
  -25.3704  -31.3704   26.1430 C   0  0  0  0  0  0
  -27.0298  -30.2994   24.6139 C   0  0  0  0  0  0
  -27.6050  -32.4268   25.7479 C   0  0  0  0  0  0
  -27.5587  -37.1801   24.8455 C   0  0  0  0  0  0
  -21.4179  -29.3051   22.3677 N   0  0  0  0  0  0
  -26.4293  -37.3778   23.9406 N   0  0  0  0  0  0
  -24.6898  -31.0602   22.0957 N   0  0  0  0  0  0
  -23.4182  -28.8169   23.3024 O   0  0  0  0  0  0
  -28.3616  -26.4657   20.0999 O   0  0  0  0  0  0
  -26.5627  -34.8920   22.4684 O   0  0  0  0  0  0
  -23.5431  -32.1373   23.7343 O   0  0  0  0  0  0
  -29.3793  -19.4451   20.1227 C   0  0  0  0  0  0
  -31.1542  -20.8514   20.9759 C   0  0  0  0  0  0
  -30.0058  -18.2396   20.6253 C   0  0  0  0  0  0
  -29.9097  -20.7684   20.3117 C   0  0  0  0  0  0
  -31.8142  -19.6856   21.4377 C   0  0  0  0  0  0
  -31.2419  -18.3968   21.2883 C   0  0  0  0  0  0
  -29.1958  -16.9299   20.6772 C   0  0  0  0  0  0
  -28.8815  -24.2193   19.0253 C   0  0  0  0  0  0
  -28.5712  -25.5756   19.0273 C   0  0  0  0  0  0
  -29.2159  -23.2855   20.1460 C   0  0  0  0  0  0
  -28.4441  -26.3103   17.6876 C   0  0  0  0  0  0
  -33.0485  -19.8076   22.0800 N   0  0  0  0  0  0
  -29.2734  -21.9643   19.7468 N   0  0  0  0  0  0
  -29.5450  -15.6012   20.7317 N   0  0  0  0  0  0
  -27.9729  -17.0983   20.6834 O   0  0  0  0  0  0
  -29.4333  -23.6286   21.3102 O   0  0  0  0  0  0
  -28.9162  -23.6471   17.8070 O   0  0  0  0  0  0
  -31.8721  -17.3323   21.8439 F   0  0  0  0  0  0
  -31.5000  -12.6066   19.1285 H   0  0  0  0  0  0
  -30.4569  -11.4232   19.8720 H   0  0  0  0  0  0
  -29.7905  -11.7671   17.4789 H   0  0  0  0  0  0
  -29.6388  -13.4852   17.7365 H   0  0  0  0  0  0
  -27.8944  -11.2760   18.8733 H   0  0  0  0  0  0
  -27.3807  -12.5516   17.8011 H   0  0  0  0  0  0
  -27.6702  -14.2277   19.5244 H   0  0  0  0  0  0
  -28.7453  -11.9844   21.3273 H   0  0  0  0  0  0
  -28.4514  -13.6014   21.8777 H   0  0  0  0  0  0
  -25.2765   -9.5651   22.4763 H   0  0  0  0  0  0
  -23.9995   -7.4615   22.7480 H   0  0  0  0  0  0
  -21.0837   -8.8766   19.8964 H   0  0  0  0  0  0
  -22.3700  -10.9669   19.6167 H   0  0  0  0  0  0
  -21.2004   -7.6148   23.9718 H   0  0  0  0  0  0
  -21.1483   -6.0517   25.9076 H   0  0  0  0  0  0
  -22.0612   -2.7613   23.2826 H   0  0  0  0  0  0
  -22.4104  -11.9883   22.4778 H   0  0  0  0  0  0
  -21.1133  -13.1286   22.2604 H   0  0  0  0  0  0
  -24.6632  -15.8320   20.5693 H   0  0  0  0  0  0
  -26.3010  -15.6667   20.2112 H   0  0  0  0  0  0
  -26.7175  -32.5460   23.1104 H   0  0  0  0  0  0
  -24.9982  -33.9725   25.0366 H   0  0  0  0  0  0
  -22.7169  -31.3038   21.4004 H   0  0  0  0  0  0
  -23.3743  -35.9661   23.3288 H   0  0  0  0  0  0
  -24.3598  -36.8941   22.2057 H   0  0  0  0  0  0
  -23.7270  -37.6526   23.6649 H   0  0  0  0  0  0
  -26.0825  -31.5550   20.5950 H   0  0  0  0  0  0
  -26.8482  -30.8539   21.9884 H   0  0  0  0  0  0
  -28.1336  -28.9978   21.1614 H   0  0  0  0  0  0
  -25.9687  -25.8922   19.0868 H   0  0  0  0  0  0
  -23.9606  -27.2787   19.0671 H   0  0  0  0  0  0
  -23.7565  -30.5897   19.4053 H   0  0  0  0  0  0
  -22.7577  -29.2429   19.8610 H   0  0  0  0  0  0
  -25.1292  -36.1938   25.0827 H   0  0  0  0  0  0
  -20.9975  -28.3267   24.1410 H   0  0  0  0  0  0
  -20.5671  -26.2305   23.3604 H   0  0  0  0  0  0
  -21.6640  -26.7457   22.1211 H   0  0  0  0  0  0
  -19.6930  -25.6313   21.1234 H   0  0  0  0  0  0
  -19.6697  -27.3208   20.6738 H   0  0  0  0  0  0
  -17.4200  -26.6655   21.4037 H   0  0  0  0  0  0
  -18.0357  -26.0075   22.9029 H   0  0  0  0  0  0
  -19.7925  -30.7271   24.2281 H   0  0  0  0  0  0
  -17.5003  -31.6266   24.5180 H   0  0  0  0  0  0
  -15.5342  -30.3003   23.7639 H   0  0  0  0  0  0
  -15.8659  -28.0839   22.7046 H   0  0  0  0  0  0
  -24.5892  -30.7040   25.7745 H   0  0  0  0  0  0
  -24.8869  -32.2871   26.4825 H   0  0  0  0  0  0
  -25.8024  -30.8896   27.0220 H   0  0  0  0  0  0
  -26.2869  -29.6770   24.1136 H   0  0  0  0  0  0
  -27.3975  -29.7214   25.4628 H   0  0  0  0  0  0
  -27.8741  -30.4275   23.9361 H   0  0  0  0  0  0
  -27.2672  -33.3546   26.2103 H   0  0  0  0  0  0
  -28.3835  -32.6858   25.0291 H   0  0  0  0  0  0
  -28.0734  -31.8353   26.5355 H   0  0  0  0  0  0
  -28.2573  -38.0124   24.7515 H   0  0  0  0  0  0
  -28.1111  -36.2655   24.6242 H   0  0  0  0  0  0
  -27.2315  -37.1413   25.8861 H   0  0  0  0  0  0
  -20.9349  -29.8765   21.6889 H   0  0  0  0  0  0
  -26.0173  -38.2858   24.1403 H   0  0  0  0  0  0
  -28.4220  -19.3538   19.6274 H   0  0  0  0  0  0
  -31.6185  -21.8184   21.1090 H   0  0  0  0  0  0
  -29.2812  -26.0699   17.0306 H   0  0  0  0  0  0
  -28.4597  -27.3939   17.8089 H   0  0  0  0  0  0
  -27.5173  -26.0400   17.1797 H   0  0  0  0  0  0
  -33.2868  -20.6925   22.5139 H   0  0  0  0  0  0
  -33.3676  -19.0026   22.6100 H   0  0  0  0  0  0
  -28.8996  -21.8558   18.8113 H   0  0  0  0  0  0
  -28.7046  -15.0793   20.9033 H   0  0  0  0  0  0
  -28.7103  -24.3317   17.1836 H   0  0  0  0  0  0
  1 25  1  0  0  0
  1 30  2  0  0  0
  1 84  1  0  0  0
  2  3  1  0  0  0
  2 25  1  0  0  0
  2 89  1  0  0  0
  2 90  1  0  0  0
  3  4  1  0  0  0
  3 91  1  0  0  0
  3 92  1  0  0  0
  4  5  1  0  0  0
  4 93  1  0  0  0
  4 94  1  0  0  0
  5  6  1  0  0  0
  5 26  1  0  0  0
  5 95  1  0  0  0
  6 25  1  0  0  0
  6 96  1  0  0  0
  6 97  1  0  0  0
  7  8  2  0  0  0
  7 26  1  0  0  0
  7 29  1  0  0  0
  8  9  1  0  0  0
  8 22  1  0  0  0
  9 10  1  0  0  0
  9 27  2  0  0  0
 10 11  2  0  0  0
 10 15  1  0  0  0
 11 12  1  0  0  0
 11 98  1  0  0  0
 12 13  2  0  0  0
 12 99  1  0  0  0
 13 14  1  0  0  0
 13 31  1  0  0  0
 14 15  2  0  0  0
 14100  1  0  0  0
 15101  1  0  0  0
 16 17  2  0  0  0
 16 21  1  0  0  0
 16 31  1  0  0  0
 17 18  1  0  0  0
 17102  1  0  0  0
 18 19  2  0  0  0
 18103  1  0  0  0
 19 20  1  0  0  0
 19 24  1  0  0  0
 20 21  2  0  0  0
 20104  1  0  0  0
 21 23  1  0  0  0
 22 28  1  0  0  0
 22 32  2  0  0  0
 26 27  1  0  0  0
 28105  1  0  0  0
 28106  1  0  0  0
 29107  1  0  0  0
 29108  1  0  0  0
 33 34  1  0  0  0
 33 66  1  0  0  0
 33 70  2  0  0  0
 34 36  1  0  0  0
 34 59  1  0  0  0
 34109  1  0  0  0
 35 44  2  0  0  0
 35 45  1  0  0  0
 35 68  1  0  0  0
 36 56  1  0  0  0
 36110  1  0  0  0
 37 39  1  0  0  0
 37 47  1  0  0  0
 37 66  1  0  0  0
 37111  1  0  0  0
 38 43  2  0  0  0
 38 46  1  0  0  0
 38 47  1  0  0  0
 39 64  1  0  0  0
 39 67  2  0  0  0
 40 52  1  0  0  0
 40 53  2  0  0  0
 40 58  1  0  0  0
 41112  1  0  0  0
 41113  1  0  0  0
 41114  1  0  0  0
 41 48  1  0  0  0
 42 43  1  0  0  0
 42 66  1  0  0  0
 42115  1  0  0  0
 42116  1  0  0  0
 43 44  1  0  0  0
 44117  1  0  0  0
 45 46  2  0  0  0
 45118  1  0  0  0
 46119  1  0  0  0
 47120  1  0  0  0
 47121  1  0  0  0
 48 56  1  0  0  0
 48 65  1  0  0  0
 48122  1  0  0  0
 49 50  1  0  0  0
 49 53  1  0  0  0
 49 64  1  0  0  0
 49123  1  0  0  0
 50 51  1  0  0  0
 50124  1  0  0  0
 50125  1  0  0  0
 51 52  1  0  0  0
 51126  1  0  0  0
 51127  1  0  0  0
 52128  1  0  0  0
 52129  1  0  0  0
 53 54  1  0  0  0
 54 55  2  0  0  0
 54130  1  0  0  0
 55 57  1  0  0  0
 55131  1  0  0  0
 56 69  2  0  0  0
 57 58  2  0  0  0
 57132  1  0  0  0
 58133  1  0  0  0
 59 60  1  0  0  0
 59 61  1  0  0  0
 59 62  1  0  0  0
 60134  1  0  0  0
 60135  1  0  0  0
 60136  1  0  0  0
 61137  1  0  0  0
 61138  1  0  0  0
 61139  1  0  0  0
 62140  1  0  0  0
 62141  1  0  0  0
 62142  1  0  0  0
 63 65  1  0  0  0
 63143  1  0  0  0
 63144  1  0  0  0
 63145  1  0  0  0
 64146  1  0  0  0
 65147  1  0  0  0
 68 79  1  0  0  0
 71 73  2  0  0  0
 71 74  1  0  0  0
 71148  1  0  0  0
 72 74  2  0  0  0
 72 75  1  0  0  0
 72149  1  0  0  0
 73 76  1  0  0  0
 73 77  1  0  0  0
 74 83  1  0  0  0
 75 76  2  0  0  0
 75 82  1  0  0  0
 76 88  1  0  0  0
 77 84  1  0  0  0
 77 85  2  0  0  0
 78 79  2  0  0  0
 78 80  1  0  0  0
 78 87  1  0  0  0
 79 81  1  0  0  0
 80 83  1  0  0  0
 80 86  2  0  0  0
 81150  1  0  0  0
 81151  1  0  0  0
 81152  1  0  0  0
 82153  1  0  0  0
 82154  1  0  0  0
 83155  1  0  0  0
 84156  1  0  0  0
 87157  1  0  0  0
M  ISO  4   1 100  68 101  79 101  84 100
M  END
> <chiral flag>
0

> <version>
0

> <s_m_source_file>
/data/baiqing/PycharmProjects/Reinvent-master-3.2/result/LINK_invent/BTK/process_docking_weight1_custom_product_contain_oxygen_bond_distance_aromatic_linkinvent_7_9_3/rearranged_h_0174.sdf

> <i_m_source_file_index>
71

> <r_mmod_Potential_Energy-OPLS-2005>
86.0418548583984

> <r_mmod_Stretch_Energy-OPLS-2005>
87.0502548217773

> <r_mmod_Bend_Energy-OPLS-2005>
260.312316894531

> <r_mmod_Torsional_Energy-OPLS-2005>
252.836944580078

> <r_mmod_Improper_Torsional_Energy-OPLS-2005>
12.1185522079468

> <r_mmod_Van_der_Waal_Energy-OPLS-2005>
162.811279296875

> <r_mmod_Electrostatic_Energy-OPLS-2005>
-520.710632324219

> <r_mmod_Solvation_Energy-OPLS-2005>
-229.695663452148

> <b_mmod_Minimization_Converged-OPLS-2005>
0

> <r_mmod_RMS_Derivative-OPLS-2005>
1.82956802845001

$$$$
71
                    3D
 Structure written by MMmdl.
156164  0  0  1  0            999 V2000
  -30.7155  -14.4958   20.5627 C   0  0  0  0  0  0
  -30.4152  -12.3192   19.4271 C   0  0  0  0  0  0
  -29.4916  -12.4999   18.2068 C   0  0  0  0  0  0
  -28.0139  -12.3598   18.6213 C   0  0  0  0  0  0
  -27.6559  -13.2130   19.8681 C   0  0  2  0  0  0
  -28.6997  -13.0289   20.9926 C   0  0  0  0  0  0
  -25.2561  -13.8172   20.5676 C   0  0  0  0  0  0
  -24.1824  -13.0439   20.9181 C   0  0  0  0  0  0
  -24.6391  -11.6911   20.8743 C   0  0  0  0  0  0
  -23.9064  -10.4290   21.0406 C   0  0  0  0  0  0
  -24.3618   -9.4204   21.9183 C   0  0  0  0  0  0
  -23.6289   -8.2243   22.0757 C   0  0  0  0  0  0
  -22.4271   -8.0279   21.3546 C   0  0  0  0  0  0
  -21.9906   -9.0253   20.4651 C   0  0  0  0  0  0
  -22.7236  -10.2130   20.3057 C   0  0  0  0  0  0
  -21.6849   -6.0733   22.5277 C   0  0  0  0  0  0
  -21.4015   -6.5641   23.8211 C   0  0  0  0  0  0
  -21.3661   -5.6794   24.9172 C   0  0  0  0  0  0
  -21.6042   -4.3056   24.7222 C   0  0  0  0  0  0
  -21.8821   -3.8146   23.4344 C   0  0  0  0  0  0
  -21.9192   -4.6962   22.3400 C   0  0  0  0  0  0
  -22.7847  -13.5232   21.1843 C   0  0  0  0  0  0
  -22.1659   -4.2148   21.0977 F   0  0  0  0  0  0
  -21.5628   -3.4540   25.7735 F   0  0  0  0  0  0
  -30.0251  -13.3274   20.4277 N   0  0  0  0  0  0
  -26.2999  -12.9354   20.3344 N   0  0  0  0  0  0
  -25.9319  -11.6510   20.5768 N   0  0  0  0  0  0
  -22.0492  -12.8228   22.0403 N   0  0  0  0  0  0
  -25.4273  -15.1890   20.4071 N   0  0  0  0  0  0
  -31.8585  -14.6252   20.1125 O   0  0  0  0  0  0
  -21.6638   -6.8874   21.4239 O   0  0  0  0  0  0
  -22.3534  -14.5537   20.6685 O   0  0  0  0  0  0
  -24.6186  -31.8669   23.2099 C   0  0  0  0  0  0
  -25.9068  -32.4814   23.8397 C   0  0  1  0  0  0
  -27.2194  -27.3954   20.0968 C   0  0  0  0  0  0
  -25.5913  -33.8614   24.2322 N   0  0  0  0  0  0
  -23.4071  -30.4944   21.5510 C   0  0  2  0  0  0
  -24.8502  -28.9648   20.1095 C   0  0  0  0  0  0
  -22.7429  -29.4658   22.4961 C   0  0  0  0  0  0
  -18.0277  -28.1378   22.8492 C   0  0  0  0  0  0
  -24.1483  -36.7314   23.2638 C   0  0  0  0  0  0
  -25.9428  -30.8195   21.3712 C   0  0  0  0  0  0
  -26.0149  -29.4540   20.7133 C   0  0  0  0  0  0
  -27.2021  -28.6775   20.7050 C   0  0  0  0  0  0
  -26.0354  -26.9497   19.4589 C   0  0  0  0  0  0
  -24.8574  -27.7138   19.4778 C   0  0  0  0  0  0
  -23.6159  -29.8358   20.1629 C   0  0  0  0  0  0
  -25.4104  -36.3109   24.0335 C   0  0  1  0  0  0
  -20.5874  -28.3667   23.1307 C   0  0  2  0  0  0
  -20.6765  -26.9400   22.5415 C   0  0  0  0  0  0
  -19.5745  -26.6383   21.5216 C   0  0  0  0  0  0
  -18.1923  -26.7927   22.1625 C   0  0  0  0  0  0
  -19.1528  -28.8840   23.2900 C   0  0  0  0  0  0
  -18.9456  -30.1448   23.8909 C   0  0  0  0  0  0
  -17.6457  -30.6585   24.0564 C   0  0  0  0  0  0
  -25.9039  -34.9473   23.5128 C   0  0  0  0  0  0
  -16.5347  -29.9086   23.6324 C   0  0  0  0  0  0
  -16.7266  -28.6504   23.0347 C   0  0  0  0  0  0
  -26.4479  -31.6602   25.0739 C   0  0  0  0  0  0
  -25.3729  -31.3728   26.1481 C   0  0  0  0  0  0
  -27.0304  -30.3033   24.6143 C   0  0  0  0  0  0
  -27.6045  -32.4330   25.7504 C   0  0  0  0  0  0
  -27.5579  -37.1812   24.8467 C   0  0  0  0  0  0
  -21.4154  -29.3038   22.3709 N   0  0  0  0  0  0
  -26.4290  -37.3793   23.9412 N   0  0  0  0  0  0
  -24.6745  -31.0749   22.1014 N   0  0  0  0  0  0
  -23.4197  -28.8182   23.2997 O   0  0  0  0  0  0
  -28.3588  -26.6006   20.1506 O   0  0  0  0  0  0
  -26.5605  -34.8930   22.4693 O   0  0  0  0  0  0
  -23.5368  -32.1437   23.7470 O   0  0  0  0  0  0
  -29.7127  -17.9990   21.1290 C   0  0  0  0  0  0
  -30.1730  -19.2907   21.5010 C   0  0  0  0  0  0
  -31.4039  -19.3732   22.1995 C   0  0  0  0  0  0
  -32.1403  -18.1840   22.3997 C   0  0  0  0  0  0
  -30.5110  -16.8482   21.3807 C   0  0  0  0  0  0
  -28.6959  -22.7592   20.8649 C   0  0  0  0  0  0
  -29.1335  -24.2587   20.6886 C   0  0  0  0  0  0
  -29.7099  -21.5902   20.6197 C   0  0  0  0  0  0
  -33.4804  -18.1891   23.1110 C   0  0  0  0  0  0
  -28.1561  -25.1769   19.9222 C   0  0  0  0  0  0
  -31.7036  -16.9738   22.0051 N   0  0  0  0  0  0
  -31.8599  -20.5836   22.7343 N   0  0  0  0  0  0
  -29.3740  -20.4616   21.2919 N   0  0  0  0  0  0
  -30.0087  -15.5585   21.0172 N   0  0  0  0  0  0
  -27.5345  -22.5076   21.2210 O   0  0  0  0  0  0
  -30.1812  -24.6993   21.1838 O   0  0  0  0  0  0
  -30.6671  -21.6799   19.8394 O   0  0  0  0  0  0
  -31.4600  -12.4046   19.1243 H   0  0  0  0  0  0
  -30.3087  -11.3159   19.8430 H   0  0  0  0  0  0
  -29.7336  -11.7657   17.4375 H   0  0  0  0  0  0
  -29.6579  -13.4797   17.7576 H   0  0  0  0  0  0
  -27.8286  -11.3049   18.8281 H   0  0  0  0  0  0
  -27.3624  -12.6223   17.7867 H   0  0  0  0  0  0
  -27.6883  -14.2554   19.5510 H   0  0  0  0  0  0
  -28.6818  -12.0039   21.3663 H   0  0  0  0  0  0
  -28.4650  -13.6590   21.8512 H   0  0  0  0  0  0
  -25.2765   -9.5674   22.4756 H   0  0  0  0  0  0
  -23.9994   -7.4635   22.7480 H   0  0  0  0  0  0
  -21.0837   -8.8773   19.8959 H   0  0  0  0  0  0
  -22.3696  -10.9668   19.6166 H   0  0  0  0  0  0
  -21.2012   -7.6151   23.9711 H   0  0  0  0  0  0
  -21.1480   -6.0526   25.9073 H   0  0  0  0  0  0
  -22.0600   -2.7608   23.2844 H   0  0  0  0  0  0
  -22.4103  -11.9886   22.4787 H   0  0  0  0  0  0
  -21.1114  -13.1258   22.2619 H   0  0  0  0  0  0
  -24.6568  -15.8410   20.5086 H   0  0  0  0  0  0
  -26.2700  -15.6276   20.0581 H   0  0  0  0  0  0
  -26.7135  -32.5502   23.1150 H   0  0  0  0  0  0
  -25.0058  -33.9773   25.0463 H   0  0  0  0  0  0
  -22.6981  -31.3136   21.4148 H   0  0  0  0  0  0
  -23.3744  -35.9650   23.3316 H   0  0  0  0  0  0
  -24.3578  -36.8913   22.2051 H   0  0  0  0  0  0
  -23.7246  -37.6529   23.6643 H   0  0  0  0  0  0
  -26.0684  -31.5863   20.6053 H   0  0  0  0  0  0
  -26.8269  -30.8651   21.9956 H   0  0  0  0  0  0
  -28.0961  -29.0462   21.1881 H   0  0  0  0  0  0
  -25.9863  -26.0057   18.9364 H   0  0  0  0  0  0
  -23.9653  -27.3374   18.9959 H   0  0  0  0  0  0
  -23.7280  -30.6149   19.4082 H   0  0  0  0  0  0
  -22.7377  -29.2618   19.8610 H   0  0  0  0  0  0
  -25.1282  -36.1976   25.0827 H   0  0  0  0  0  0
  -20.9964  -28.3224   24.1428 H   0  0  0  0  0  0
  -20.5672  -26.2266   23.3595 H   0  0  0  0  0  0
  -21.6631  -26.7438   22.1203 H   0  0  0  0  0  0
  -19.6906  -25.6302   21.1232 H   0  0  0  0  0  0
  -19.6687  -27.3200   20.6755 H   0  0  0  0  0  0
  -17.4190  -26.6672   21.4030 H   0  0  0  0  0  0
  -18.0325  -26.0070   22.9024 H   0  0  0  0  0  0
  -19.7933  -30.7261   24.2277 H   0  0  0  0  0  0
  -17.5017  -31.6266   24.5162 H   0  0  0  0  0  0
  -15.5352  -30.2996   23.7649 H   0  0  0  0  0  0
  -15.8662  -28.0833   22.7054 H   0  0  0  0  0  0
  -24.5898  -30.7077   25.7827 H   0  0  0  0  0  0
  -24.8927  -32.2889   26.4928 H   0  0  0  0  0  0
  -25.8069  -30.8905   27.0246 H   0  0  0  0  0  0
  -26.2860  -29.6812   24.1163 H   0  0  0  0  0  0
  -27.4022  -29.7257   25.4619 H   0  0  0  0  0  0
  -27.8716  -30.4346   23.9336 H   0  0  0  0  0  0
  -27.2654  -33.3616   26.2109 H   0  0  0  0  0  0
  -28.3835  -32.6916   25.0320 H   0  0  0  0  0  0
  -28.0732  -31.8445   26.5402 H   0  0  0  0  0  0
  -28.2604  -38.0102   24.7506 H   0  0  0  0  0  0
  -28.1068  -36.2634   24.6297 H   0  0  0  0  0  0
  -27.2302  -37.1473   25.8872 H   0  0  0  0  0  0
  -20.9305  -29.8782   21.6956 H   0  0  0  0  0  0
  -26.0183  -38.2875   24.1404 H   0  0  0  0  0  0
  -28.7568  -17.8958   20.6357 H   0  0  0  0  0  0
  -33.3510  -18.4367   24.1644 H   0  0  0  0  0  0
  -34.1448  -18.9263   22.6603 H   0  0  0  0  0  0
  -33.9722  -17.2180   23.0486 H   0  0  0  0  0  0
  -27.1612  -24.8746   20.2486 H   0  0  0  0  0  0
  -28.2317  -24.9663   18.8555 H   0  0  0  0  0  0
  -31.1748  -21.3119   22.9007 H   0  0  0  0  0  0
  -32.5613  -20.5406   23.4669 H   0  0  0  0  0  0
  -28.4777  -20.4958   21.7581 H   0  0  0  0  0  0
  -29.0210  -15.4111   21.1408 H   0  0  0  0  0  0
  1 25  1  0  0  0
  1 30  2  0  0  0
  1 84  1  0  0  0
  2  3  1  0  0  0
  2 25  1  0  0  0
  2 88  1  0  0  0
  2 89  1  0  0  0
  3  4  1  0  0  0
  3 90  1  0  0  0
  3 91  1  0  0  0
  4  5  1  0  0  0
  4 92  1  0  0  0
  4 93  1  0  0  0
  5  6  1  0  0  0
  5 26  1  0  0  0
  5 94  1  0  0  0
  6 25  1  0  0  0
  6 95  1  0  0  0
  6 96  1  0  0  0
  7  8  2  0  0  0
  7 26  1  0  0  0
  7 29  1  0  0  0
  8  9  1  0  0  0
  8 22  1  0  0  0
  9 10  1  0  0  0
  9 27  2  0  0  0
 10 11  2  0  0  0
 10 15  1  0  0  0
 11 12  1  0  0  0
 11 97  1  0  0  0
 12 13  2  0  0  0
 12 98  1  0  0  0
 13 14  1  0  0  0
 13 31  1  0  0  0
 14 15  2  0  0  0
 14 99  1  0  0  0
 15100  1  0  0  0
 16 17  2  0  0  0
 16 21  1  0  0  0
 16 31  1  0  0  0
 17 18  1  0  0  0
 17101  1  0  0  0
 18 19  2  0  0  0
 18102  1  0  0  0
 19 20  1  0  0  0
 19 24  1  0  0  0
 20 21  2  0  0  0
 20103  1  0  0  0
 21 23  1  0  0  0
 22 28  1  0  0  0
 22 32  2  0  0  0
 26 27  1  0  0  0
 28104  1  0  0  0
 28105  1  0  0  0
 29106  1  0  0  0
 29107  1  0  0  0
 33 34  1  0  0  0
 33 66  1  0  0  0
 33 70  2  0  0  0
 34 36  1  0  0  0
 34 59  1  0  0  0
 34108  1  0  0  0
 35 44  2  0  0  0
 35 45  1  0  0  0
 35 68  1  0  0  0
 36 56  1  0  0  0
 36109  1  0  0  0
 37 39  1  0  0  0
 37 47  1  0  0  0
 37 66  1  0  0  0
 37110  1  0  0  0
 38 43  2  0  0  0
 38 46  1  0  0  0
 38 47  1  0  0  0
 39 64  1  0  0  0
 39 67  2  0  0  0
 40 52  1  0  0  0
 40 53  2  0  0  0
 40 58  1  0  0  0
 41111  1  0  0  0
 41112  1  0  0  0
 41113  1  0  0  0
 41 48  1  0  0  0
 42 43  1  0  0  0
 42 66  1  0  0  0
 42114  1  0  0  0
 42115  1  0  0  0
 43 44  1  0  0  0
 44116  1  0  0  0
 45 46  2  0  0  0
 45117  1  0  0  0
 46118  1  0  0  0
 47119  1  0  0  0
 47120  1  0  0  0
 48 56  1  0  0  0
 48 65  1  0  0  0
 48121  1  0  0  0
 49 50  1  0  0  0
 49 53  1  0  0  0
 49 64  1  0  0  0
 49122  1  0  0  0
 50 51  1  0  0  0
 50123  1  0  0  0
 50124  1  0  0  0
 51 52  1  0  0  0
 51125  1  0  0  0
 51126  1  0  0  0
 52127  1  0  0  0
 52128  1  0  0  0
 53 54  1  0  0  0
 54 55  2  0  0  0
 54129  1  0  0  0
 55 57  1  0  0  0
 55130  1  0  0  0
 56 69  2  0  0  0
 57 58  2  0  0  0
 57131  1  0  0  0
 58132  1  0  0  0
 59 60  1  0  0  0
 59 61  1  0  0  0
 59 62  1  0  0  0
 60133  1  0  0  0
 60134  1  0  0  0
 60135  1  0  0  0
 61136  1  0  0  0
 61137  1  0  0  0
 61138  1  0  0  0
 62139  1  0  0  0
 62140  1  0  0  0
 62141  1  0  0  0
 63 65  1  0  0  0
 63142  1  0  0  0
 63143  1  0  0  0
 63144  1  0  0  0
 64145  1  0  0  0
 65146  1  0  0  0
 68 80  1  0  0  0
 71 72  2  0  0  0
 71 75  1  0  0  0
 71147  1  0  0  0
 72 73  1  0  0  0
 72 83  1  0  0  0
 73 74  2  0  0  0
 73 82  1  0  0  0
 74 79  1  0  0  0
 74 81  1  0  0  0
 75 81  2  0  0  0
 75 84  1  0  0  0
 76 77  1  0  0  0
 76 78  1  0  0  0
 76 85  2  0  0  0
 77 80  1  0  0  0
 77 86  2  0  0  0
 78 83  1  0  0  0
 78 87  2  0  0  0
 79148  1  0  0  0
 79149  1  0  0  0
 79150  1  0  0  0
 80151  1  0  0  0
 80152  1  0  0  0
 82153  1  0  0  0
 82154  1  0  0  0
 83155  1  0  0  0
 84156  1  0  0  0
M  ISO  4   1 100  68 101  80 101  84 100
M  END
> <chiral flag>
0

> <version>
0

> <s_m_source_file>
/data/baiqing/PycharmProjects/Reinvent-master-3.2/result/LINK_invent/BTK/process_docking_weight1_custom_product_contain_oxygen_bond_distance_aromatic_linkinvent_7_9_3/rearranged_h_0174.sdf

> <i_m_source_file_index>
72

> <r_mmod_Potential_Energy-OPLS-2005>
-153.865036010742

> <r_mmod_Stretch_Energy-OPLS-2005>
48.0820236206055

> <r_mmod_Bend_Energy-OPLS-2005>
104.50122833252

> <r_mmod_Torsional_Energy-OPLS-2005>
254.007278442383

> <r_mmod_Improper_Torsional_Energy-OPLS-2005>
9.36656379699707

> <r_mmod_Van_der_Waal_Energy-OPLS-2005>
165.250427246094

> <r_mmod_Electrostatic_Energy-OPLS-2005>
-460.423217773438

> <r_mmod_Solvation_Energy-OPLS-2005>
-295.492095947266

> <b_mmod_Minimization_Converged-OPLS-2005>
0

> <r_mmod_RMS_Derivative-OPLS-2005>
1.02479290962219

$$$$
72
                    3D
 Structure written by MMmdl.
158166  0  0  1  0            999 V2000
  -30.7300  -14.3661   20.6526 C   0  0  0  0  0  0
  -30.4146  -12.2631   19.4178 C   0  0  0  0  0  0
  -29.4960  -12.5310   18.2083 C   0  0  0  0  0  0
  -28.0146  -12.3839   18.6048 C   0  0  0  0  0  0
  -27.6621  -13.2043   19.8749 C   0  0  2  0  0  0
  -28.6895  -12.9348   20.9987 C   0  0  0  0  0  0
  -25.2535  -13.8176   20.5688 C   0  0  0  0  0  0
  -24.1783  -13.0440   20.9150 C   0  0  0  0  0  0
  -24.6340  -11.6903   20.8695 C   0  0  0  0  0  0
  -23.9008  -10.4295   21.0375 C   0  0  0  0  0  0
  -24.3563   -9.4221   21.9165 C   0  0  0  0  0  0
  -23.6253   -8.2250   22.0757 C   0  0  0  0  0  0
  -22.4243   -8.0272   21.3553 C   0  0  0  0  0  0
  -21.9862   -9.0233   20.4653 C   0  0  0  0  0  0
  -22.7176  -10.2118   20.3038 C   0  0  0  0  0  0
  -21.6846   -6.0715   22.5263 C   0  0  0  0  0  0
  -21.4029   -6.5621   23.8205 C   0  0  0  0  0  0
  -21.3671   -5.6771   24.9164 C   0  0  0  0  0  0
  -21.6035   -4.3032   24.7214 C   0  0  0  0  0  0
  -21.8814   -3.8122   23.4338 C   0  0  0  0  0  0
  -21.9198   -4.6940   22.3392 C   0  0  0  0  0  0
  -22.7802  -13.5231   21.1828 C   0  0  0  0  0  0
  -22.1655   -4.2120   21.0970 F   0  0  0  0  0  0
  -21.5629   -3.4527   25.7735 F   0  0  0  0  0  0
  -30.0500  -13.2049   20.4840 N   0  0  0  0  0  0
  -26.2967  -12.9338   20.3270 N   0  0  0  0  0  0
  -25.9253  -11.6490   20.5645 N   0  0  0  0  0  0
  -22.0411  -12.8275   22.0397 N   0  0  0  0  0  0
  -25.4262  -15.1908   20.4261 N   0  0  0  0  0  0
  -31.7779  -14.6477   20.0570 O   0  0  0  0  0  0
  -21.6643   -6.8846   21.4225 O   0  0  0  0  0  0
  -22.3484  -14.5533   20.6648 O   0  0  0  0  0  0
  -24.6097  -31.8719   23.2159 C   0  0  0  0  0  0
  -25.9024  -32.4825   23.8387 C   0  0  1  0  0  0
  -27.2465  -27.4845   20.0751 C   0  0  0  0  0  0
  -25.5943  -33.8619   24.2358 N   0  0  0  0  0  0
  -23.3925  -30.4973   21.5560 C   0  0  2  0  0  0
  -24.8393  -28.9646   20.1226 C   0  0  0  0  0  0
  -22.7371  -29.4672   22.5017 C   0  0  0  0  0  0
  -18.0288  -28.1335   22.8482 C   0  0  0  0  0  0
  -24.1506  -36.7295   23.2622 C   0  0  0  0  0  0
  -25.9165  -30.8500   21.3627 C   0  0  0  0  0  0
  -25.9966  -29.4873   20.7099 C   0  0  0  0  0  0
  -27.1989  -28.7534   20.6870 C   0  0  0  0  0  0
  -26.0688  -26.9656   19.4852 C   0  0  0  0  0  0
  -24.8670  -27.6985   19.5130 C   0  0  0  0  0  0
  -23.6011  -29.8287   20.1700 C   0  0  0  0  0  0
  -25.4114  -36.3088   24.0333 C   0  0  1  0  0  0
  -20.5870  -28.3615   23.1368 C   0  0  2  0  0  0
  -20.6800  -26.9360   22.5460 C   0  0  0  0  0  0
  -19.5804  -26.6348   21.5228 C   0  0  0  0  0  0
  -18.1965  -26.7892   22.1611 C   0  0  0  0  0  0
  -19.1529  -28.8778   23.2921 C   0  0  0  0  0  0
  -18.9457  -30.1390   23.8909 C   0  0  0  0  0  0
  -17.6467  -30.6552   24.0534 C   0  0  0  0  0  0
  -25.9044  -34.9466   23.5126 C   0  0  0  0  0  0
  -16.5354  -29.9052   23.6282 C   0  0  0  0  0  0
  -16.7269  -28.6457   23.0326 C   0  0  0  0  0  0
  -26.4517  -31.6555   25.0663 C   0  0  0  0  0  0
  -25.3837  -31.3610   26.1447 C   0  0  0  0  0  0
  -27.0353  -30.3022   24.5949 C   0  0  0  0  0  0
  -27.6117  -32.4240   25.7439 C   0  0  0  0  0  0
  -27.5582  -37.1796   24.8462 C   0  0  0  0  0  0
  -21.4107  -29.3035   22.3794 N   0  0  0  0  0  0
  -26.4299  -37.3772   23.9418 N   0  0  0  0  0  0
  -24.6574  -31.0855   22.1045 N   0  0  0  0  0  0
  -23.4177  -28.8174   23.2998 O   0  0  0  0  0  0
  -28.4540  -26.8231   20.0572 O   0  0  0  0  0  0
  -26.5553  -34.8909   22.4650 O   0  0  0  0  0  0
  -23.5308  -32.1458   23.7596 O   0  0  0  0  0  0
  -29.3997  -17.3352   22.3427 C   0  0  0  0  0  0
  -28.8298  -18.6118   22.2013 C   0  0  0  0  0  0
  -29.7117  -16.5473   21.2188 C   0  0  0  0  0  0
  -28.5532  -19.1253   20.9150 C   0  0  0  0  0  0
  -29.4358  -17.0632   19.9183 C   0  0  0  0  0  0
  -28.8470  -18.3405   19.7837 C   0  0  0  0  0  0
  -28.1417  -24.9120   21.5162 C   0  0  0  0  0  0
  -27.8020  -21.4400   21.4847 C   0  0  0  0  0  0
  -27.0225  -23.8928   21.7253 C   0  0  0  0  0  0
  -28.4394  -25.4007   20.0915 C   0  0  0  0  0  0
  -27.1323  -22.6425   20.8267 C   0  0  0  0  0  0
  -29.6900  -16.3453   18.7483 N   0  0  0  0  0  0
  -27.9496  -20.3850   20.6745 N   0  0  0  0  0  0
  -30.1539  -15.2235   21.4966 N   0  0  0  0  0  0
  -28.7677  -25.3553   22.4830 O   0  0  0  0  0  0
  -28.1786  -21.4897   22.6576 O   0  0  0  0  0  0
  -28.5438  -18.8141   18.5449 F   0  0  0  0  0  0
  -31.4647  -12.3430   19.1323 H   0  0  0  0  0  0
  -30.2843  -11.2390   19.7702 H   0  0  0  0  0  0
  -29.7349  -11.8480   17.3930 H   0  0  0  0  0  0
  -29.6759  -13.5367   17.8228 H   0  0  0  0  0  0
  -27.8172  -11.3249   18.7788 H   0  0  0  0  0  0
  -27.3753  -12.6829   17.7735 H   0  0  0  0  0  0
  -27.7215  -14.2602   19.6041 H   0  0  0  0  0  0
  -28.6236  -11.8951   21.3201 H   0  0  0  0  0  0
  -28.4272  -13.5230   21.8790 H   0  0  0  0  0  0
  -25.2702   -9.5720   22.4751 H   0  0  0  0  0  0
  -23.9974   -7.4644   22.7481 H   0  0  0  0  0  0
  -21.0802   -8.8727   19.8956 H   0  0  0  0  0  0
  -22.3608  -10.9651   19.6149 H   0  0  0  0  0  0
  -21.2031   -7.6135   23.9692 H   0  0  0  0  0  0
  -21.1501   -6.0514   25.9066 H   0  0  0  0  0  0
  -22.0589   -2.7584   23.2846 H   0  0  0  0  0  0
  -22.4022  -11.9999   22.4908 H   0  0  0  0  0  0
  -21.0996  -13.1299   22.2496 H   0  0  0  0  0  0
  -24.6625  -15.8453   20.5621 H   0  0  0  0  0  0
  -26.2954  -15.6410   20.1667 H   0  0  0  0  0  0
  -26.7072  -32.5580   23.1128 H   0  0  0  0  0  0
  -25.0257  -33.9785   25.0613 H   0  0  0  0  0  0
  -22.6754  -31.3112   21.4211 H   0  0  0  0  0  0
  -23.3770  -35.9634   23.3302 H   0  0  0  0  0  0
  -24.3604  -36.8884   22.2034 H   0  0  0  0  0  0
  -23.7278  -37.6503   23.6640 H   0  0  0  0  0  0
  -26.0165  -31.6203   20.5967 H   0  0  0  0  0  0
  -26.8064  -30.9027   21.9780 H   0  0  0  0  0  0
  -28.0949  -29.1588   21.1360 H   0  0  0  0  0  0
  -26.0624  -26.0148   18.9742 H   0  0  0  0  0  0
  -23.9768  -27.2913   19.0525 H   0  0  0  0  0  0
  -23.7123  -30.6057   19.4117 H   0  0  0  0  0  0
  -22.7269  -29.2481   19.8702 H   0  0  0  0  0  0
  -25.1303  -36.1926   25.0829 H   0  0  0  0  0  0
  -20.9976  -28.3158   24.1492 H   0  0  0  0  0  0
  -20.5751  -26.2191   23.3616 H   0  0  0  0  0  0
  -21.6659  -26.7442   22.1209 H   0  0  0  0  0  0
  -19.6796  -27.3184   20.6783 H   0  0  0  0  0  0
  -19.6977  -25.6281   21.1210 H   0  0  0  0  0  0
  -17.4246  -26.6635   21.4001 H   0  0  0  0  0  0
  -18.0339  -26.0023   22.9000 H   0  0  0  0  0  0
  -19.7948  -30.7171   24.2324 H   0  0  0  0  0  0
  -17.5031  -31.6220   24.5163 H   0  0  0  0  0  0
  -15.5366  -30.2959   23.7595 H   0  0  0  0  0  0
  -15.8659  -28.0765   22.7050 H   0  0  0  0  0  0
  -24.6040  -30.6918   25.7790 H   0  0  0  0  0  0
  -24.9017  -32.2754   26.4919 H   0  0  0  0  0  0
  -25.8251  -30.8781   27.0175 H   0  0  0  0  0  0
  -26.2849  -29.6721   24.1171 H   0  0  0  0  0  0
  -27.4371  -29.7285   25.4300 H   0  0  0  0  0  0
  -27.8574  -30.4372   23.8919 H   0  0  0  0  0  0
  -27.2770  -33.3531   26.2067 H   0  0  0  0  0  0
  -28.3944  -32.6776   25.0277 H   0  0  0  0  0  0
  -28.0781  -31.8313   26.5323 H   0  0  0  0  0  0
  -28.2587  -38.0097   24.7523 H   0  0  0  0  0  0
  -28.1078  -36.2632   24.6286 H   0  0  0  0  0  0
  -27.2301  -37.1454   25.8857 H   0  0  0  0  0  0
  -20.9236  -29.8844   21.7108 H   0  0  0  0  0  0
  -26.0173  -38.2837   24.1438 H   0  0  0  0  0  0
  -29.5714  -16.9538   23.3404 H   0  0  0  0  0  0
  -28.5878  -19.1616   23.0975 H   0  0  0  0  0  0
  -26.0818  -24.3981   21.5075 H   0  0  0  0  0  0
  -26.9828  -23.6270   22.7800 H   0  0  0  0  0  0
  -27.7670  -24.9703   19.3554 H   0  0  0  0  0  0
  -29.4365  -25.0552   19.8237 H   0  0  0  0  0  0
  -26.1237  -22.3294   20.5540 H   0  0  0  0  0  0
  -27.6484  -22.8467   19.8886 H   0  0  0  0  0  0
  -29.6487  -16.9045   17.9045 H   0  0  0  0  0  0
  -30.5287  -15.7710   18.7785 H   0  0  0  0  0  0
  -27.6421  -20.5216   19.7188 H   0  0  0  0  0  0
  -29.5982  -14.7633   22.2009 H   0  0  0  0  0  0
  1 25  1  0  0  0
  1 30  2  0  0  0
  1 84  1  0  0  0
  2  3  1  0  0  0
  2 25  1  0  0  0
  2 88  1  0  0  0
  2 89  1  0  0  0
  3  4  1  0  0  0
  3 90  1  0  0  0
  3 91  1  0  0  0
  4  5  1  0  0  0
  4 92  1  0  0  0
  4 93  1  0  0  0
  5  6  1  0  0  0
  5 26  1  0  0  0
  5 94  1  0  0  0
  6 25  1  0  0  0
  6 95  1  0  0  0
  6 96  1  0  0  0
  7  8  2  0  0  0
  7 26  1  0  0  0
  7 29  1  0  0  0
  8  9  1  0  0  0
  8 22  1  0  0  0
  9 10  1  0  0  0
  9 27  2  0  0  0
 10 11  2  0  0  0
 10 15  1  0  0  0
 11 12  1  0  0  0
 11 97  1  0  0  0
 12 13  2  0  0  0
 12 98  1  0  0  0
 13 14  1  0  0  0
 13 31  1  0  0  0
 14 15  2  0  0  0
 14 99  1  0  0  0
 15100  1  0  0  0
 16 17  2  0  0  0
 16 21  1  0  0  0
 16 31  1  0  0  0
 17 18  1  0  0  0
 17101  1  0  0  0
 18 19  2  0  0  0
 18102  1  0  0  0
 19 20  1  0  0  0
 19 24  1  0  0  0
 20 21  2  0  0  0
 20103  1  0  0  0
 21 23  1  0  0  0
 22 28  1  0  0  0
 22 32  2  0  0  0
 26 27  1  0  0  0
 28104  1  0  0  0
 28105  1  0  0  0
 29106  1  0  0  0
 29107  1  0  0  0
 33 34  1  0  0  0
 33 66  1  0  0  0
 33 70  2  0  0  0
 34 36  1  0  0  0
 34 59  1  0  0  0
 34108  1  0  0  0
 35 44  2  0  0  0
 35 45  1  0  0  0
 35 68  1  0  0  0
 36 56  1  0  0  0
 36109  1  0  0  0
 37 39  1  0  0  0
 37 47  1  0  0  0
 37 66  1  0  0  0
 37110  1  0  0  0
 38 43  2  0  0  0
 38 46  1  0  0  0
 38 47  1  0  0  0
 39 64  1  0  0  0
 39 67  2  0  0  0
 40 52  1  0  0  0
 40 53  2  0  0  0
 40 58  1  0  0  0
 41111  1  0  0  0
 41112  1  0  0  0
 41113  1  0  0  0
 41 48  1  0  0  0
 42 43  1  0  0  0
 42 66  1  0  0  0
 42114  1  0  0  0
 42115  1  0  0  0
 43 44  1  0  0  0
 44116  1  0  0  0
 45 46  2  0  0  0
 45117  1  0  0  0
 46118  1  0  0  0
 47119  1  0  0  0
 47120  1  0  0  0
 48 56  1  0  0  0
 48 65  1  0  0  0
 48121  1  0  0  0
 49 50  1  0  0  0
 49 53  1  0  0  0
 49 64  1  0  0  0
 49122  1  0  0  0
 50 51  1  0  0  0
 50123  1  0  0  0
 50124  1  0  0  0
 51 52  1  0  0  0
 51125  1  0  0  0
 51126  1  0  0  0
 52127  1  0  0  0
 52128  1  0  0  0
 53 54  1  0  0  0
 54 55  2  0  0  0
 54129  1  0  0  0
 55 57  1  0  0  0
 55130  1  0  0  0
 56 69  2  0  0  0
 57 58  2  0  0  0
 57131  1  0  0  0
 58132  1  0  0  0
 59 60  1  0  0  0
 59 61  1  0  0  0
 59 62  1  0  0  0
 60133  1  0  0  0
 60134  1  0  0  0
 60135  1  0  0  0
 61136  1  0  0  0
 61137  1  0  0  0
 61138  1  0  0  0
 62139  1  0  0  0
 62140  1  0  0  0
 62141  1  0  0  0
 63 65  1  0  0  0
 63142  1  0  0  0
 63143  1  0  0  0
 63144  1  0  0  0
 64145  1  0  0  0
 65146  1  0  0  0
 68 80  1  0  0  0
 71 72  2  0  0  0
 71 73  1  0  0  0
 71147  1  0  0  0
 72 74  1  0  0  0
 72148  1  0  0  0
 73 75  2  0  0  0
 73 84  1  0  0  0
 74 76  2  0  0  0
 74 83  1  0  0  0
 75 76  1  0  0  0
 75 82  1  0  0  0
 76 87  1  0  0  0
 77 79  1  0  0  0
 77 80  1  0  0  0
 77 85  2  0  0  0
 78 81  1  0  0  0
 78 83  1  0  0  0
 78 86  2  0  0  0
 79 81  1  0  0  0
 79149  1  0  0  0
 79150  1  0  0  0
 80151  1  0  0  0
 80152  1  0  0  0
 81153  1  0  0  0
 81154  1  0  0  0
 82155  1  0  0  0
 82156  1  0  0  0
 83157  1  0  0  0
 84158  1  0  0  0
M  ISO  4   1 100  68 101  80 101  84 100
M  END
> <chiral flag>
0

> <version>
0

> <s_m_source_file>
/data/baiqing/PycharmProjects/Reinvent-master-3.2/result/LINK_invent/BTK/process_docking_weight1_custom_product_contain_oxygen_bond_distance_aromatic_linkinvent_7_9_3/rearranged_h_0174.sdf

> <i_m_source_file_index>
73

> <r_mmod_Potential_Energy-OPLS-2005>
-175.544921875

> <r_mmod_Stretch_Energy-OPLS-2005>
32.9339179992676

> <r_mmod_Bend_Energy-OPLS-2005>
111.210136413574

> <r_mmod_Torsional_Energy-OPLS-2005>
257.431213378906

> <r_mmod_Improper_Torsional_Energy-OPLS-2005>
10.031608581543

> <r_mmod_Van_der_Waal_Energy-OPLS-2005>
172.879165649414

> <r_mmod_Electrostatic_Energy-OPLS-2005>
-521.273864746094

> <r_mmod_Solvation_Energy-OPLS-2005>
-246.550857543945

> <b_mmod_Minimization_Converged-OPLS-2005>
0

> <r_mmod_RMS_Derivative-OPLS-2005>
4.16186285018921

$$$$
73
                    3D
 Structure written by MMmdl.
160168  0  0  1  0            999 V2000
  -30.6969  -14.5035   20.5223 C   0  0  0  0  0  0
  -30.4234  -12.3099   19.4442 C   0  0  0  0  0  0
  -29.5044  -12.4939   18.2189 C   0  0  0  0  0  0
  -28.0239  -12.3608   18.6237 C   0  0  0  0  0  0
  -27.6607  -13.2129   19.8703 C   0  0  2  0  0  0
  -28.7015  -13.0303   21.0000 C   0  0  0  0  0  0
  -25.2597  -13.8178   20.5666 C   0  0  0  0  0  0
  -24.1847  -13.0455   20.9147 C   0  0  0  0  0  0
  -24.6403  -11.6917   20.8713 C   0  0  0  0  0  0
  -23.9066  -10.4306   21.0386 C   0  0  0  0  0  0
  -24.3618   -9.4222   21.9163 C   0  0  0  0  0  0
  -23.6287   -8.2262   22.0746 C   0  0  0  0  0  0
  -22.4268   -8.0298   21.3542 C   0  0  0  0  0  0
  -21.9896   -9.0271   20.4648 C   0  0  0  0  0  0
  -22.7233  -10.2147   20.3048 C   0  0  0  0  0  0
  -21.6865   -6.0728   22.5270 C   0  0  0  0  0  0
  -21.4019   -6.5630   23.8204 C   0  0  0  0  0  0
  -21.3657   -5.6780   24.9162 C   0  0  0  0  0  0
  -21.6054   -4.3045   24.7208 C   0  0  0  0  0  0
  -21.8829   -3.8140   23.4331 C   0  0  0  0  0  0
  -21.9192   -4.6953   22.3384 C   0  0  0  0  0  0
  -22.7881  -13.5255   21.1806 C   0  0  0  0  0  0
  -22.1668   -4.2151   21.0956 F   0  0  0  0  0  0
  -21.5617   -3.4515   25.7713 F   0  0  0  0  0  0
  -30.0344  -13.3164   20.4477 N   0  0  0  0  0  0
  -26.3029  -12.9356   20.3334 N   0  0  0  0  0  0
  -25.9335  -11.6508   20.5753 N   0  0  0  0  0  0
  -22.0516  -12.8264   22.0373 N   0  0  0  0  0  0
  -25.4344  -15.1894   20.4089 N   0  0  0  0  0  0
  -31.8434  -14.6531   20.0915 O   0  0  0  0  0  0
  -21.6655   -6.8879   21.4237 O   0  0  0  0  0  0
  -22.3568  -14.5556   20.6652 O   0  0  0  0  0  0
  -24.6165  -31.8672   23.2077 C   0  0  0  0  0  0
  -25.9047  -32.4823   23.8385 C   0  0  1  0  0  0
  -27.2385  -27.4185   20.1091 C   0  0  0  0  0  0
  -25.5891  -33.8618   24.2315 N   0  0  0  0  0  0
  -23.4062  -30.4873   21.5489 C   0  0  2  0  0  0
  -24.8552  -28.9448   20.1200 C   0  0  0  0  0  0
  -22.7425  -29.4644   22.4994 C   0  0  0  0  0  0
  -18.0276  -28.1384   22.8490 C   0  0  0  0  0  0
  -24.1486  -36.7311   23.2638 C   0  0  0  0  0  0
  -25.9348  -30.8280   21.3617 C   0  0  0  0  0  0
  -26.0154  -29.4573   20.7160 C   0  0  0  0  0  0
  -27.2132  -28.7022   20.7059 C   0  0  0  0  0  0
  -26.0634  -26.9196   19.5119 C   0  0  0  0  0  0
  -24.8739  -27.6747   19.5154 C   0  0  0  0  0  0
  -23.6175  -29.8140   20.1657 C   0  0  0  0  0  0
  -25.4106  -36.3108   24.0337 C   0  0  1  0  0  0
  -20.5865  -28.3662   23.1322 C   0  0  2  0  0  0
  -20.6765  -26.9400   22.5419 C   0  0  0  0  0  0
  -19.5744  -26.6385   21.5215 C   0  0  0  0  0  0
  -18.1925  -26.7930   22.1628 C   0  0  0  0  0  0
  -19.1526  -28.8844   23.2902 C   0  0  0  0  0  0
  -18.9458  -30.1448   23.8923 C   0  0  0  0  0  0
  -17.6456  -30.6583   24.0569 C   0  0  0  0  0  0
  -25.9033  -34.9473   23.5124 C   0  0  0  0  0  0
  -16.5349  -29.9086   23.6324 C   0  0  0  0  0  0
  -16.7263  -28.6502   23.0348 C   0  0  0  0  0  0
  -26.4471  -31.6609   25.0715 C   0  0  0  0  0  0
  -25.3742  -31.3733   26.1474 C   0  0  0  0  0  0
  -27.0291  -30.3052   24.6084 C   0  0  0  0  0  0
  -27.6063  -32.4324   25.7465 C   0  0  0  0  0  0
  -27.5578  -37.1813   24.8465 C   0  0  0  0  0  0
  -21.4153  -29.3024   22.3734 N   0  0  0  0  0  0
  -26.4290  -37.3792   23.9411 N   0  0  0  0  0  0
  -24.6708  -31.0755   22.0987 N   0  0  0  0  0  0
  -23.4189  -28.8193   23.3049 O   0  0  0  0  0  0
  -28.3924  -26.6648   20.0698 O   0  0  0  0  0  0
  -26.5599  -34.8930   22.4692 O   0  0  0  0  0  0
  -23.5351  -32.1429   23.7464 O   0  0  0  0  0  0
  -29.9106  -18.0837   20.9138 C   0  0  0  0  0  0
  -30.0227  -16.8738   18.8007 C   0  0  0  0  0  0
  -29.9285  -19.3316   20.2153 C   0  0  0  0  0  0
  -29.9826  -16.8444   20.2163 C   0  0  0  0  0  0
  -30.0131  -18.0939   18.1019 C   0  0  0  0  0  0
  -29.9693  -19.3147   18.7996 C   0  0  0  0  0  0
  -29.9665  -20.6284   20.9363 C   0  0  0  0  0  0
  -31.1471  -23.6263   20.6504 C   0  0  0  0  0  0
  -28.6967  -24.1888   20.2511 C   0  0  0  0  0  0
  -31.7221  -24.7490   21.5055 C   0  0  0  0  0  0
  -28.4225  -25.5383   20.9708 C   0  0  0  0  0  0
  -29.6883  -23.1876   20.9131 C   0  0  1  0  0  0
  -29.9704  -15.5791   20.9042 N   0  0  0  0  0  0
  -29.4947  -21.7873   20.4120 N   0  0  0  0  0  0
  -30.5211  -20.6813   22.1520 N   0  3  0  0  0  0
  -31.8645  -23.0946   19.7964 O   0  0  0  0  0  0
  -28.1047  -23.9187   19.1989 O   0  0  0  0  0  0
  -30.0504  -18.0900   16.7467 F   0  0  0  0  0  0
  -29.9569  -20.4749   18.0936 F   0  0  0  0  0  0
  -31.4711  -12.3938   19.1480 H   0  0  0  0  0  0
  -30.3163  -11.3075   19.8593 H   0  0  0  0  0  0
  -29.7469  -11.7562   17.4529 H   0  0  0  0  0  0
  -29.6793  -13.4724   17.7687 H   0  0  0  0  0  0
  -27.8326  -11.3061   18.8265 H   0  0  0  0  0  0
  -27.3833  -12.6267   17.7830 H   0  0  0  0  0  0
  -27.6932  -14.2557   19.5531 H   0  0  0  0  0  0
  -28.6735  -12.0086   21.3811 H   0  0  0  0  0  0
  -28.4696  -13.6715   21.8516 H   0  0  0  0  0  0
  -25.2767   -9.5690   22.4727 H   0  0  0  0  0  0
  -23.9993   -7.4651   22.7468 H   0  0  0  0  0  0
  -21.0812   -8.8802   19.8961 H   0  0  0  0  0  0
  -22.3688  -10.9682   19.6158 H   0  0  0  0  0  0
  -21.2035   -7.6146   23.9693 H   0  0  0  0  0  0
  -21.1460   -6.0518   25.9061 H   0  0  0  0  0  0
  -22.0609   -2.7600   23.2833 H   0  0  0  0  0  0
  -22.4121  -11.9926   22.4768 H   0  0  0  0  0  0
  -21.1144  -13.1324   22.2567 H   0  0  0  0  0  0
  -24.6705  -15.8501   20.5121 H   0  0  0  0  0  0
  -26.2885  -15.6203   20.0806 H   0  0  0  0  0  0
  -26.7129  -32.5539   23.1166 H   0  0  0  0  0  0
  -25.0061  -33.9774   25.0471 H   0  0  0  0  0  0
  -22.6953  -31.3039   21.4059 H   0  0  0  0  0  0
  -23.3739  -35.9652   23.3324 H   0  0  0  0  0  0
  -24.3577  -36.8901   22.2046 H   0  0  0  0  0  0
  -23.7250  -37.6530   23.6637 H   0  0  0  0  0  0
  -26.0423  -31.5887   20.5869 H   0  0  0  0  0  0
  -26.8241  -30.8904   21.9772 H   0  0  0  0  0  0
  -28.1114  -29.0964   21.1612 H   0  0  0  0  0  0
  -26.0730  -25.9472   19.0392 H   0  0  0  0  0  0
  -23.9827  -27.2739   19.0520 H   0  0  0  0  0  0
  -23.7270  -30.5855   19.4028 H   0  0  0  0  0  0
  -22.7415  -29.2339   19.8714 H   0  0  0  0  0  0
  -25.1280  -36.1980   25.0827 H   0  0  0  0  0  0
  -20.9937  -28.3233   24.1452 H   0  0  0  0  0  0
  -20.5667  -26.2279   23.3609 H   0  0  0  0  0  0
  -21.6645  -26.7454   22.1223 H   0  0  0  0  0  0
  -19.6904  -25.6300   21.1238 H   0  0  0  0  0  0
  -19.6670  -27.3204   20.6752 H   0  0  0  0  0  0
  -17.4188  -26.6679   21.4037 H   0  0  0  0  0  0
  -18.0315  -26.0073   22.9021 H   0  0  0  0  0  0
  -19.7933  -30.7258   24.2314 H   0  0  0  0  0  0
  -17.5013  -31.6267   24.5156 H   0  0  0  0  0  0
  -15.5354  -30.2997   23.7631 H   0  0  0  0  0  0
  -15.8664  -28.0821   22.7059 H   0  0  0  0  0  0
  -24.5879  -30.7118   25.7821 H   0  0  0  0  0  0
  -24.8974  -32.2896   26.4964 H   0  0  0  0  0  0
  -25.8090  -30.8871   27.0214 H   0  0  0  0  0  0
  -26.2822  -29.6826   24.1142 H   0  0  0  0  0  0
  -27.4072  -29.7285   25.4538 H   0  0  0  0  0  0
  -27.8655  -30.4383   23.9220 H   0  0  0  0  0  0
  -27.2697  -33.3616   26.2082 H   0  0  0  0  0  0
  -28.3843  -32.6901   25.0263 H   0  0  0  0  0  0
  -28.0762  -31.8421   26.5346 H   0  0  0  0  0  0
  -28.2619  -38.0089   24.7499 H   0  0  0  0  0  0
  -28.1051  -36.2627   24.6302 H   0  0  0  0  0  0
  -27.2302  -37.1483   25.8871 H   0  0  0  0  0  0
  -20.9325  -29.8758   21.6961 H   0  0  0  0  0  0
  -26.0182  -38.2874   24.1399 H   0  0  0  0  0  0
  -29.8714  -18.0740   21.9946 H   0  0  0  0  0  0
  -30.0522  -15.9612   18.2258 H   0  0  0  0  0  0
  -31.4961  -24.5838   22.5588 H   0  0  0  0  0  0
  -31.3099  -25.7107   21.2019 H   0  0  0  0  0  0
  -32.8050  -24.7975   21.3933 H   0  0  0  0  0  0
  -29.1950  -25.7180   21.7169 H   0  0  0  0  0  0
  -27.4852  -25.4550   21.5236 H   0  0  0  0  0  0
  -29.5065  -23.1990   21.9882 H   0  0  0  0  0  0
  -29.1552  -15.3833   21.4649 H   0  0  0  0  0  0
  -29.1615  -21.7316   19.4542 H   0  0  0  0  0  0
  -31.0075  -19.8747   22.5129 H   0  0  0  0  0  0
  -30.4315  -21.4874   22.7459 H   0  0  0  0  0  0
  1 25  1  0  0  0
  1 30  2  0  0  0
  1 83  1  0  0  0
  2  3  1  0  0  0
  2 25  1  0  0  0
  2 90  1  0  0  0
  2 91  1  0  0  0
  3  4  1  0  0  0
  3 92  1  0  0  0
  3 93  1  0  0  0
  4  5  1  0  0  0
  4 94  1  0  0  0
  4 95  1  0  0  0
  5  6  1  0  0  0
  5 26  1  0  0  0
  5 96  1  0  0  0
  6 25  1  0  0  0
  6 97  1  0  0  0
  6 98  1  0  0  0
  7  8  2  0  0  0
  7 26  1  0  0  0
  7 29  1  0  0  0
  8  9  1  0  0  0
  8 22  1  0  0  0
  9 10  1  0  0  0
  9 27  2  0  0  0
 10 11  2  0  0  0
 10 15  1  0  0  0
 11 12  1  0  0  0
 11 99  1  0  0  0
 12 13  2  0  0  0
 12100  1  0  0  0
 13 14  1  0  0  0
 13 31  1  0  0  0
 14 15  2  0  0  0
 14101  1  0  0  0
 15102  1  0  0  0
 16 17  2  0  0  0
 16 21  1  0  0  0
 16 31  1  0  0  0
 17 18  1  0  0  0
 17103  1  0  0  0
 18 19  2  0  0  0
 18104  1  0  0  0
 19 20  1  0  0  0
 19 24  1  0  0  0
 20 21  2  0  0  0
 20105  1  0  0  0
 21 23  1  0  0  0
 22 28  1  0  0  0
 22 32  2  0  0  0
 26 27  1  0  0  0
 28106  1  0  0  0
 28107  1  0  0  0
 29108  1  0  0  0
 29109  1  0  0  0
 33 34  1  0  0  0
 33 66  1  0  0  0
 33 70  2  0  0  0
 34 36  1  0  0  0
 34 59  1  0  0  0
 34110  1  0  0  0
 35 44  2  0  0  0
 35 45  1  0  0  0
 35 68  1  0  0  0
 36 56  1  0  0  0
 36111  1  0  0  0
 37 39  1  0  0  0
 37 47  1  0  0  0
 37 66  1  0  0  0
 37112  1  0  0  0
 38 43  2  0  0  0
 38 46  1  0  0  0
 38 47  1  0  0  0
 39 64  1  0  0  0
 39 67  2  0  0  0
 40 52  1  0  0  0
 40 53  2  0  0  0
 40 58  1  0  0  0
 41113  1  0  0  0
 41114  1  0  0  0
 41115  1  0  0  0
 41 48  1  0  0  0
 42 43  1  0  0  0
 42 66  1  0  0  0
 42116  1  0  0  0
 42117  1  0  0  0
 43 44  1  0  0  0
 44118  1  0  0  0
 45 46  2  0  0  0
 45119  1  0  0  0
 46120  1  0  0  0
 47121  1  0  0  0
 47122  1  0  0  0
 48 56  1  0  0  0
 48 65  1  0  0  0
 48123  1  0  0  0
 49 50  1  0  0  0
 49 53  1  0  0  0
 49 64  1  0  0  0
 49124  1  0  0  0
 50 51  1  0  0  0
 50125  1  0  0  0
 50126  1  0  0  0
 51 52  1  0  0  0
 51127  1  0  0  0
 51128  1  0  0  0
 52129  1  0  0  0
 52130  1  0  0  0
 53 54  1  0  0  0
 54 55  2  0  0  0
 54131  1  0  0  0
 55 57  1  0  0  0
 55132  1  0  0  0
 56 69  2  0  0  0
 57 58  2  0  0  0
 57133  1  0  0  0
 58134  1  0  0  0
 59 60  1  0  0  0
 59 61  1  0  0  0
 59 62  1  0  0  0
 60135  1  0  0  0
 60136  1  0  0  0
 60137  1  0  0  0
 61138  1  0  0  0
 61139  1  0  0  0
 61140  1  0  0  0
 62141  1  0  0  0
 62142  1  0  0  0
 62143  1  0  0  0
 63 65  1  0  0  0
 63144  1  0  0  0
 63145  1  0  0  0
 63146  1  0  0  0
 64147  1  0  0  0
 65148  1  0  0  0
 68 81  1  0  0  0
 71 73  2  0  0  0
 71 74  1  0  0  0
 71149  1  0  0  0
 72 74  2  0  0  0
 72 75  1  0  0  0
 72150  1  0  0  0
 73 76  1  0  0  0
 73 77  1  0  0  0
 74 83  1  0  0  0
 75 76  2  0  0  0
 75 88  1  0  0  0
 76 89  1  0  0  0
 77 84  1  0  0  0
 77 85  2  0  0  0
 78 80  1  0  0  0
 78 82  1  0  0  0
 78 86  2  0  0  0
 79 81  1  0  0  0
 79 82  1  0  0  0
 79 87  2  0  0  0
 80151  1  0  0  0
 80152  1  0  0  0
 80153  1  0  0  0
 81154  1  0  0  0
 81155  1  0  0  0
 82 84  1  0  0  0
 82156  1  0  0  0
 83157  1  0  0  0
 84158  1  0  0  0
 85159  1  0  0  0
 85160  1  0  0  0
M  CHG  1  85   1
M  ISO  4   1 100  68 101  81 101  83 100
M  END
> <chiral flag>
0

> <version>
0

> <s_m_source_file>
/data/baiqing/PycharmProjects/Reinvent-master-3.2/result/LINK_invent/BTK/process_docking_weight1_custom_product_contain_oxygen_bond_distance_aromatic_linkinvent_7_9_3/rearranged_h_0174.sdf

> <i_m_source_file_index>
74

> <r_mmod_Potential_Energy-OPLS-2005>
-400.035675048828

> <r_mmod_Stretch_Energy-OPLS-2005>
45.9350242614746

> <r_mmod_Bend_Energy-OPLS-2005>
93.211555480957

> <r_mmod_Torsional_Energy-OPLS-2005>
280.993316650391

> <r_mmod_Improper_Torsional_Energy-OPLS-2005>
6.89153718948364

> <r_mmod_Van_der_Waal_Energy-OPLS-2005>
151.928466796875

> <r_mmod_Electrostatic_Energy-OPLS-2005>
-516.62353515625

> <r_mmod_Solvation_Energy-OPLS-2005>
-478.854614257812

> <b_mmod_Minimization_Converged-OPLS-2005>
0

> <r_mmod_RMS_Derivative-OPLS-2005>
2.32144117355347

$$$$
74
                    3D
 Structure written by MMmdl.
153161  0  0  1  0            999 V2000
  -30.7161  -14.4887   20.5570 C   0  0  0  0  0  0
  -30.4164  -12.3137   19.4311 C   0  0  0  0  0  0
  -29.4932  -12.4997   18.2100 C   0  0  0  0  0  0
  -28.0157  -12.3593   18.6237 C   0  0  0  0  0  0
  -27.6583  -13.2121   19.8709 C   0  0  2  0  0  0
  -28.7014  -13.0240   20.9966 C   0  0  0  0  0  0
  -25.2575  -13.8170   20.5685 C   0  0  0  0  0  0
  -24.1832  -13.0443   20.9185 C   0  0  0  0  0  0
  -24.6394  -11.6911   20.8741 C   0  0  0  0  0  0
  -23.9060  -10.4295   21.0407 C   0  0  0  0  0  0
  -24.3614   -9.4211   21.9184 C   0  0  0  0  0  0
  -23.6292   -8.2244   22.0753 C   0  0  0  0  0  0
  -22.4273   -8.0282   21.3545 C   0  0  0  0  0  0
  -21.9908   -9.0254   20.4646 C   0  0  0  0  0  0
  -22.7233  -10.2136   20.3056 C   0  0  0  0  0  0
  -21.6853   -6.0736   22.5280 C   0  0  0  0  0  0
  -21.4013   -6.5640   23.8213 C   0  0  0  0  0  0
  -21.3659   -5.6794   24.9175 C   0  0  0  0  0  0
  -21.6043   -4.3055   24.7225 C   0  0  0  0  0  0
  -21.8820   -3.8148   23.4346 C   0  0  0  0  0  0
  -21.9193   -4.6964   22.3403 C   0  0  0  0  0  0
  -22.7855  -13.5239   21.1847 C   0  0  0  0  0  0
  -22.1663   -4.2150   21.0980 F   0  0  0  0  0  0
  -21.5628   -3.4539   25.7737 F   0  0  0  0  0  0
  -30.0301  -13.3180   20.4366 N   0  0  0  0  0  0
  -26.3012  -12.9351   20.3357 N   0  0  0  0  0  0
  -25.9324  -11.6508   20.5773 N   0  0  0  0  0  0
  -22.0494  -12.8231   22.0401 N   0  0  0  0  0  0
  -25.4298  -15.1888   20.4089 N   0  0  0  0  0  0
  -31.8505  -14.6261   20.0922 O   0  0  0  0  0  0
  -21.6639   -6.8877   21.4241 O   0  0  0  0  0  0
  -22.3541  -14.5548   20.6697 O   0  0  0  0  0  0
  -24.6162  -31.8671   23.2091 C   0  0  0  0  0  0
  -25.9049  -32.4818   23.8391 C   0  0  1  0  0  0
  -27.2286  -27.4230   20.1024 C   0  0  0  0  0  0
  -25.5899  -33.8616   24.2326 N   0  0  0  0  0  0
  -23.4053  -30.4906   21.5497 C   0  0  2  0  0  0
  -24.8527  -28.9582   20.1108 C   0  0  0  0  0  0
  -22.7424  -29.4651   22.4978 C   0  0  0  0  0  0
  -18.0273  -28.1381   22.8491 C   0  0  0  0  0  0
  -24.1487  -36.7313   23.2637 C   0  0  0  0  0  0
  -25.9354  -30.8310   21.3628 C   0  0  0  0  0  0
  -26.0147  -29.4657   20.7079 C   0  0  0  0  0  0
  -27.2101  -28.7066   20.6983 C   0  0  0  0  0  0
  -26.0549  -26.9389   19.4870 C   0  0  0  0  0  0
  -24.8686  -27.6954   19.4944 C   0  0  0  0  0  0
  -23.6142  -29.8246   20.1634 C   0  0  0  0  0  0
  -25.4106  -36.3109   24.0339 C   0  0  1  0  0  0
  -20.5867  -28.3667   23.1315 C   0  0  2  0  0  0
  -20.6766  -26.9402   22.5418 C   0  0  0  0  0  0
  -19.5744  -26.6389   21.5213 C   0  0  0  0  0  0
  -18.1921  -26.7928   22.1623 C   0  0  0  0  0  0
  -19.1523  -28.8841   23.2899 C   0  0  0  0  0  0
  -18.9451  -30.1447   23.8908 C   0  0  0  0  0  0
  -17.6453  -30.6586   24.0566 C   0  0  0  0  0  0
  -25.9032  -34.9473   23.5131 C   0  0  0  0  0  0
  -16.5344  -29.9087   23.6327 C   0  0  0  0  0  0
  -16.7262  -28.6505   23.0347 C   0  0  0  0  0  0
  -26.4474  -31.6594   25.0718 C   0  0  0  0  0  0
  -25.3742  -31.3703   26.1469 C   0  0  0  0  0  0
  -27.0298  -30.3035   24.6088 C   0  0  0  0  0  0
  -27.6056  -32.4307   25.7479 C   0  0  0  0  0  0
  -27.5581  -37.1809   24.8464 C   0  0  0  0  0  0
  -21.4148  -29.3034   22.3723 N   0  0  0  0  0  0
  -26.4294  -37.3791   23.9409 N   0  0  0  0  0  0
  -24.6708  -31.0766   22.0993 N   0  0  0  0  0  0
  -23.4192  -28.8193   23.3023 O   0  0  0  0  0  0
  -28.3501  -26.6216   20.1394 O   0  0  0  0  0  0
  -26.5589  -34.8925   22.4687 O   0  0  0  0  0  0
  -23.5352  -32.1423   23.7482 O   0  0  0  0  0  0
  -29.4701  -17.9551   21.0315 C   0  0  0  0  0  0
  -31.7867  -17.2889   21.3402 C   0  0  0  0  0  0
  -29.8312  -19.3339   21.0990 C   0  0  0  0  0  0
  -30.4368  -16.9181   21.1321 C   0  0  0  0  0  0
  -32.1606  -18.6426   21.4107 C   0  0  0  0  0  0
  -31.1968  -19.6610   21.2925 C   0  0  0  0  0  0
  -28.7581  -20.4052   21.0484 C   0  0  0  0  0  0
  -28.8300  -24.1633   20.3838 C   0  0  0  0  0  0
  -28.1729  -22.8103   20.7386 C   0  0  0  0  0  0
  -28.1418  -25.4328   20.9381 C   0  0  0  0  0  0
  -30.0260  -15.5391   21.0629 N   0  0  0  0  0  0
  -29.1011  -21.6628   20.7056 N   0  0  0  0  0  0
  -27.5879  -20.1101   21.3039 O   0  0  0  0  0  0
  -29.8636  -24.2173   19.7076 O   0  0  0  0  0  0
  -33.4610  -18.9675   21.6058 F   0  0  0  0  0  0
  -31.6071  -20.9503   21.3863 F   0  0  0  0  0  0
  -31.4621  -12.3969   19.1293 H   0  0  0  0  0  0
  -30.3081  -11.3102   19.8451 H   0  0  0  0  0  0
  -29.7365  -11.7677   17.4385 H   0  0  0  0  0  0
  -29.6600  -13.4818   17.7641 H   0  0  0  0  0  0
  -27.8312  -11.3046   18.8320 H   0  0  0  0  0  0
  -27.3636  -12.6209   17.7895 H   0  0  0  0  0  0
  -27.6940  -14.2552   19.5564 H   0  0  0  0  0  0
  -28.6799  -11.9986   21.3685 H   0  0  0  0  0  0
  -28.4652  -13.6530   21.8558 H   0  0  0  0  0  0
  -25.2762   -9.5686   22.4755 H   0  0  0  0  0  0
  -24.0005   -7.4634   22.7471 H   0  0  0  0  0  0
  -21.0838   -8.8767   19.8953 H   0  0  0  0  0  0
  -22.3689  -10.9671   19.6161 H   0  0  0  0  0  0
  -21.2005   -7.6149   23.9715 H   0  0  0  0  0  0
  -21.1480   -6.0525   25.9078 H   0  0  0  0  0  0
  -22.0599   -2.7610   23.2845 H   0  0  0  0  0  0
  -22.4111  -11.9892   22.4789 H   0  0  0  0  0  0
  -21.1113  -13.1257   22.2609 H   0  0  0  0  0  0
  -24.6629  -15.8444   20.5139 H   0  0  0  0  0  0
  -26.2793  -15.6252   20.0741 H   0  0  0  0  0  0
  -26.7123  -32.5530   23.1160 H   0  0  0  0  0  0
  -25.0067  -33.9780   25.0483 H   0  0  0  0  0  0
  -22.6943  -31.3076   21.4111 H   0  0  0  0  0  0
  -23.3747  -35.9648   23.3307 H   0  0  0  0  0  0
  -24.3584  -36.8915   22.2050 H   0  0  0  0  0  0
  -23.7243  -37.6524   23.6643 H   0  0  0  0  0  0
  -26.0480  -31.5977   20.5950 H   0  0  0  0  0  0
  -26.8234  -30.8848   21.9809 H   0  0  0  0  0  0
  -28.1049  -29.0883   21.1703 H   0  0  0  0  0  0
  -26.0528  -25.9675   19.0131 H   0  0  0  0  0  0
  -23.9768  -27.3012   19.0264 H   0  0  0  0  0  0
  -23.7218  -30.6001   19.4040 H   0  0  0  0  0  0
  -22.7383  -29.2443   19.8680 H   0  0  0  0  0  0
  -25.1285  -36.1974   25.0833 H   0  0  0  0  0  0
  -20.9959  -28.3230   24.1436 H   0  0  0  0  0  0
  -20.5674  -26.2271   23.3602 H   0  0  0  0  0  0
  -21.6636  -26.7450   22.1207 H   0  0  0  0  0  0
  -19.6904  -25.6304   21.1230 H   0  0  0  0  0  0
  -19.6683  -27.3213   20.6753 H   0  0  0  0  0  0
  -17.4196  -26.6678   21.4022 H   0  0  0  0  0  0
  -18.0317  -26.0069   22.9018 H   0  0  0  0  0  0
  -19.7928  -30.7259   24.2283 H   0  0  0  0  0  0
  -17.5010  -31.6266   24.5167 H   0  0  0  0  0  0
  -15.5345  -30.2993   23.7648 H   0  0  0  0  0  0
  -15.8662  -28.0830   22.7052 H   0  0  0  0  0  0
  -24.5912  -30.7052   25.7811 H   0  0  0  0  0  0
  -24.8938  -32.2859   26.4927 H   0  0  0  0  0  0
  -25.8100  -30.8867   27.0222 H   0  0  0  0  0  0
  -26.2838  -29.6800   24.1148 H   0  0  0  0  0  0
  -27.4077  -29.7264   25.4537 H   0  0  0  0  0  0
  -27.8670  -30.4354   23.9230 H   0  0  0  0  0  0
  -27.2685  -33.3600   26.2084 H   0  0  0  0  0  0
  -28.3852  -32.6877   25.0294 H   0  0  0  0  0  0
  -28.0740  -31.8411   26.5369 H   0  0  0  0  0  0
  -28.2606  -38.0101   24.7512 H   0  0  0  0  0  0
  -28.1071  -36.2634   24.6289 H   0  0  0  0  0  0
  -27.2302  -37.1460   25.8868 H   0  0  0  0  0  0
  -20.9311  -29.8758   21.6947 H   0  0  0  0  0  0
  -26.0183  -38.2870   24.1410 H   0  0  0  0  0  0
  -28.4289  -17.6941   20.8991 H   0  0  0  0  0  0
  -32.5614  -16.5465   21.4581 H   0  0  0  0  0  0
  -27.3529  -22.6373   20.0408 H   0  0  0  0  0  0
  -27.7316  -22.8877   21.7335 H   0  0  0  0  0  0
  -28.5323  -25.6211   21.9382 H   0  0  0  0  0  0
  -27.0820  -25.2087   21.0645 H   0  0  0  0  0  0
  -29.0668  -15.3394   21.3029 H   0  0  0  0  0  0
  -30.0716  -21.8588   20.4936 H   0  0  0  0  0  0
  1 25  1  0  0  0
  1 30  2  0  0  0
  1 81  1  0  0  0
  2  3  1  0  0  0
  2 25  1  0  0  0
  2 87  1  0  0  0
  2 88  1  0  0  0
  3  4  1  0  0  0
  3 89  1  0  0  0
  3 90  1  0  0  0
  4  5  1  0  0  0
  4 91  1  0  0  0
  4 92  1  0  0  0
  5  6  1  0  0  0
  5 26  1  0  0  0
  5 93  1  0  0  0
  6 25  1  0  0  0
  6 94  1  0  0  0
  6 95  1  0  0  0
  7  8  2  0  0  0
  7 26  1  0  0  0
  7 29  1  0  0  0
  8  9  1  0  0  0
  8 22  1  0  0  0
  9 10  1  0  0  0
  9 27  2  0  0  0
 10 11  2  0  0  0
 10 15  1  0  0  0
 11 12  1  0  0  0
 11 96  1  0  0  0
 12 13  2  0  0  0
 12 97  1  0  0  0
 13 14  1  0  0  0
 13 31  1  0  0  0
 14 15  2  0  0  0
 14 98  1  0  0  0
 15 99  1  0  0  0
 16 17  2  0  0  0
 16 21  1  0  0  0
 16 31  1  0  0  0
 17 18  1  0  0  0
 17100  1  0  0  0
 18 19  2  0  0  0
 18101  1  0  0  0
 19 20  1  0  0  0
 19 24  1  0  0  0
 20 21  2  0  0  0
 20102  1  0  0  0
 21 23  1  0  0  0
 22 28  1  0  0  0
 22 32  2  0  0  0
 26 27  1  0  0  0
 28103  1  0  0  0
 28104  1  0  0  0
 29105  1  0  0  0
 29106  1  0  0  0
 33 34  1  0  0  0
 33 66  1  0  0  0
 33 70  2  0  0  0
 34 36  1  0  0  0
 34 59  1  0  0  0
 34107  1  0  0  0
 35 44  2  0  0  0
 35 45  1  0  0  0
 35 68  1  0  0  0
 36 56  1  0  0  0
 36108  1  0  0  0
 37 39  1  0  0  0
 37 47  1  0  0  0
 37 66  1  0  0  0
 37109  1  0  0  0
 38 43  2  0  0  0
 38 46  1  0  0  0
 38 47  1  0  0  0
 39 64  1  0  0  0
 39 67  2  0  0  0
 40 52  1  0  0  0
 40 53  2  0  0  0
 40 58  1  0  0  0
 41110  1  0  0  0
 41111  1  0  0  0
 41112  1  0  0  0
 41 48  1  0  0  0
 42 43  1  0  0  0
 42 66  1  0  0  0
 42113  1  0  0  0
 42114  1  0  0  0
 43 44  1  0  0  0
 44115  1  0  0  0
 45 46  2  0  0  0
 45116  1  0  0  0
 46117  1  0  0  0
 47118  1  0  0  0
 47119  1  0  0  0
 48 56  1  0  0  0
 48 65  1  0  0  0
 48120  1  0  0  0
 49 50  1  0  0  0
 49 53  1  0  0  0
 49 64  1  0  0  0
 49121  1  0  0  0
 50 51  1  0  0  0
 50122  1  0  0  0
 50123  1  0  0  0
 51 52  1  0  0  0
 51124  1  0  0  0
 51125  1  0  0  0
 52126  1  0  0  0
 52127  1  0  0  0
 53 54  1  0  0  0
 54 55  2  0  0  0
 54128  1  0  0  0
 55 57  1  0  0  0
 55129  1  0  0  0
 56 69  2  0  0  0
 57 58  2  0  0  0
 57130  1  0  0  0
 58131  1  0  0  0
 59 60  1  0  0  0
 59 61  1  0  0  0
 59 62  1  0  0  0
 60132  1  0  0  0
 60133  1  0  0  0
 60134  1  0  0  0
 61135  1  0  0  0
 61136  1  0  0  0
 61137  1  0  0  0
 62138  1  0  0  0
 62139  1  0  0  0
 62140  1  0  0  0
 63 65  1  0  0  0
 63141  1  0  0  0
 63142  1  0  0  0
 63143  1  0  0  0
 64144  1  0  0  0
 65145  1  0  0  0
 68 80  1  0  0  0
 71 73  2  0  0  0
 71 74  1  0  0  0
 71146  1  0  0  0
 72 74  2  0  0  0
 72 75  1  0  0  0
 72147  1  0  0  0
 73 76  1  0  0  0
 73 77  1  0  0  0
 74 81  1  0  0  0
 75 76  2  0  0  0
 75 85  1  0  0  0
 76 86  1  0  0  0
 77 82  1  0  0  0
 77 83  2  0  0  0
 78 79  1  0  0  0
 78 80  1  0  0  0
 78 84  2  0  0  0
 79 82  1  0  0  0
 79148  1  0  0  0
 79149  1  0  0  0
 80150  1  0  0  0
 80151  1  0  0  0
 81152  1  0  0  0
 82153  1  0  0  0
M  ISO  4   1 100  68 101  80 101  81 100
M  END
> <chiral flag>
0

> <version>
0

> <s_m_source_file>
/data/baiqing/PycharmProjects/Reinvent-master-3.2/result/LINK_invent/BTK/process_docking_weight1_custom_product_contain_oxygen_bond_distance_aromatic_linkinvent_7_9_3/rearranged_h_0174.sdf

> <i_m_source_file_index>
75

> <r_mmod_Potential_Energy-OPLS-2005>
-129.997436523438

> <r_mmod_Stretch_Energy-OPLS-2005>
42.5711555480957

> <r_mmod_Bend_Energy-OPLS-2005>
95.2241821289062

> <r_mmod_Torsional_Energy-OPLS-2005>
244.231857299805

> <r_mmod_Improper_Torsional_Energy-OPLS-2005>
4.08422517776489

> <r_mmod_Van_der_Waal_Energy-OPLS-2005>
159.608795166016

> <r_mmod_Electrostatic_Energy-OPLS-2005>
-458.191680908203

> <r_mmod_Solvation_Energy-OPLS-2005>
-234.742126464844

> <b_mmod_Minimization_Converged-OPLS-2005>
0

> <r_mmod_RMS_Derivative-OPLS-2005>
0.526545405387878

$$$$
75
                    3D
 Structure written by MMmdl.
156164  0  0  1  0            999 V2000
  -30.6755  -14.4749   20.5743 C   0  0  0  0  0  0
  -30.4387  -12.3075   19.4170 C   0  0  0  0  0  0
  -29.5007  -12.4861   18.2041 C   0  0  0  0  0  0
  -28.0226  -12.3418   18.6206 C   0  0  0  0  0  0
  -27.6647  -13.1907   19.8695 C   0  0  2  0  0  0
  -28.7053  -12.9625   20.9894 C   0  0  0  0  0  0
  -25.2623  -13.8121   20.5642 C   0  0  0  0  0  0
  -24.1863  -13.0428   20.9145 C   0  0  0  0  0  0
  -24.6385  -11.6880   20.8715 C   0  0  0  0  0  0
  -23.9037  -10.4285   21.0392 C   0  0  0  0  0  0
  -24.3604   -9.4212   21.9172 C   0  0  0  0  0  0
  -23.6287   -8.2247   22.0756 C   0  0  0  0  0  0
  -22.4269   -8.0280   21.3546 C   0  0  0  0  0  0
  -21.9895   -9.0241   20.4638 C   0  0  0  0  0  0
  -22.7213  -10.2122   20.3040 C   0  0  0  0  0  0
  -21.6842   -6.0733   22.5285 C   0  0  0  0  0  0
  -21.4007   -6.5643   23.8216 C   0  0  0  0  0  0
  -21.3655   -5.6797   24.9179 C   0  0  0  0  0  0
  -21.6044   -4.3059   24.7225 C   0  0  0  0  0  0
  -21.8822   -3.8150   23.4348 C   0  0  0  0  0  0
  -21.9195   -4.6964   22.3405 C   0  0  0  0  0  0
  -22.7892  -13.5249   21.1828 C   0  0  0  0  0  0
  -22.1665   -4.2157   21.0978 F   0  0  0  0  0  0
  -21.5630   -3.4539   25.7735 F   0  0  0  0  0  0
  -30.0348  -13.2826   20.4398 N   0  0  0  0  0  0
  -26.3036  -12.9255   20.3314 N   0  0  0  0  0  0
  -25.9304  -11.6433   20.5733 N   0  0  0  0  0  0
  -22.0523  -12.8242   22.0372 N   0  0  0  0  0  0
  -25.4371  -15.1840   20.4058 N   0  0  0  0  0  0
  -31.8095  -14.6839   20.1348 O   0  0  0  0  0  0
  -21.6641   -6.8873   21.4246 O   0  0  0  0  0  0
  -22.3582  -14.5557   20.6673 O   0  0  0  0  0  0
  -24.6157  -31.8659   23.2104 C   0  0  0  0  0  0
  -25.9038  -32.4816   23.8401 C   0  0  1  0  0  0
  -27.2456  -27.4344   20.1008 C   0  0  0  0  0  0
  -25.5890  -33.8610   24.2320 N   0  0  0  0  0  0
  -23.4054  -30.4873   21.5506 C   0  0  2  0  0  0
  -24.8566  -28.9482   20.1194 C   0  0  0  0  0  0
  -22.7417  -29.4644   22.5002 C   0  0  0  0  0  0
  -18.0277  -28.1377   22.8462 C   0  0  0  0  0  0
  -24.1493  -36.7314   23.2641 C   0  0  0  0  0  0
  -25.9339  -30.8333   21.3618 C   0  0  0  0  0  0
  -26.0153  -29.4641   20.7137 C   0  0  0  0  0  0
  -27.2148  -28.7143   20.7002 C   0  0  0  0  0  0
  -26.0719  -26.9280   19.5057 C   0  0  0  0  0  0
  -24.8785  -27.6774   19.5149 C   0  0  0  0  0  0
  -23.6173  -29.8143   20.1671 C   0  0  0  0  0  0
  -25.4109  -36.3102   24.0338 C   0  0  1  0  0  0
  -20.5871  -28.3653   23.1312 C   0  0  2  0  0  0
  -20.6771  -26.9391   22.5409 C   0  0  0  0  0  0
  -19.5752  -26.6385   21.5203 C   0  0  0  0  0  0
  -18.1925  -26.7924   22.1606 C   0  0  0  0  0  0
  -19.1526  -28.8830   23.2883 C   0  0  0  0  0  0
  -18.9460  -30.1445   23.8885 C   0  0  0  0  0  0
  -17.6457  -30.6570   24.0559 C   0  0  0  0  0  0
  -25.9035  -34.9462   23.5129 C   0  0  0  0  0  0
  -16.5343  -29.9074   23.6326 C   0  0  0  0  0  0
  -16.7268  -28.6508   23.0311 C   0  0  0  0  0  0
  -26.4465  -31.6602   25.0718 C   0  0  0  0  0  0
  -25.3718  -31.3709   26.1461 C   0  0  0  0  0  0
  -27.0329  -30.3060   24.6092 C   0  0  0  0  0  0
  -27.6045  -32.4316   25.7460 C   0  0  0  0  0  0
  -27.5580  -37.1811   24.8456 C   0  0  0  0  0  0
  -21.4146  -29.3013   22.3715 N   0  0  0  0  0  0
  -26.4298  -37.3780   23.9394 N   0  0  0  0  0  0
  -24.6700  -31.0750   22.1009 N   0  0  0  0  0  0
  -23.4183  -28.8171   23.3041 O   0  0  0  0  0  0
  -28.4036  -26.6922   20.0607 O   0  0  0  0  0  0
  -26.5590  -34.8913   22.4688 O   0  0  0  0  0  0
  -23.5342  -32.1397   23.7490 O   0  0  0  0  0  0
  -31.4774  -18.7961   21.7986 C   0  0  0  0  0  0
  -31.3400  -17.3993   21.6455 C   0  0  0  0  0  0
  -30.4423  -19.6892   21.4218 C   0  0  0  0  0  0
  -30.1481  -16.8590   21.1174 C   0  0  0  0  0  0
  -29.2627  -19.1447   20.8577 C   0  0  0  0  0  0
  -29.1182  -17.7430   20.7172 C   0  0  0  0  0  0
  -30.5799  -21.1601   21.7514 C   0  0  0  0  0  0
  -29.0926  -24.3216   20.2751 C   0  0  0  0  0  0
  -31.5607  -24.0705   20.8403 C   0  0  0  0  0  0
  -28.4061  -25.5437   20.9277 C   0  0  0  0  0  0
  -30.1364  -23.5434   21.1139 C   0  0  2  0  0  0
  -29.9029  -15.4546   21.0801 N   0  0  0  0  0  0
  -30.0731  -22.0796   20.9063 N   0  0  0  0  0  0
  -31.1965  -21.4908   22.7674 O   0  0  0  0  0  0
  -28.8119  -23.9912   19.1177 O   0  0  0  0  0  0
  -28.2402  -19.9534   20.4860 F   0  0  0  0  0  0
  -27.9648  -17.2405   20.2118 F   0  0  0  0  0  0
  -31.4795  -12.4320   19.1100 H   0  0  0  0  0  0
  -30.3672  -11.2940   19.8152 H   0  0  0  0  0  0
  -29.7444  -11.7513   17.4345 H   0  0  0  0  0  0
  -29.6629  -13.4659   17.7512 H   0  0  0  0  0  0
  -27.8449  -11.2857   18.8304 H   0  0  0  0  0  0
  -27.3690  -12.5964   17.7865 H   0  0  0  0  0  0
  -27.7115  -14.2365   19.5659 H   0  0  0  0  0  0
  -28.6869  -11.9216   21.3164 H   0  0  0  0  0  0
  -28.4596  -13.5452   21.8788 H   0  0  0  0  0  0
  -25.2755   -9.5697   22.4736 H   0  0  0  0  0  0
  -24.0005   -7.4638   22.7479 H   0  0  0  0  0  0
  -21.0835   -8.8729   19.8940 H   0  0  0  0  0  0
  -22.3664  -10.9645   19.6146 H   0  0  0  0  0  0
  -21.1992   -7.6148   23.9719 H   0  0  0  0  0  0
  -21.1475   -6.0524   25.9081 H   0  0  0  0  0  0
  -22.0605   -2.7613   23.2841 H   0  0  0  0  0  0
  -22.4143  -11.9915   22.4773 H   0  0  0  0  0  0
  -21.1130  -13.1255   22.2550 H   0  0  0  0  0  0
  -24.6687  -15.8364   20.5143 H   0  0  0  0  0  0
  -26.2928  -15.6299   20.0973 H   0  0  0  0  0  0
  -26.7095  -32.5529   23.1154 H   0  0  0  0  0  0
  -25.0021  -33.9768   25.0453 H   0  0  0  0  0  0
  -22.6927  -31.3019   21.4078 H   0  0  0  0  0  0
  -23.3737  -35.9671   23.3304 H   0  0  0  0  0  0
  -24.3588  -36.8922   22.2057 H   0  0  0  0  0  0
  -23.7266  -37.6527   23.6649 H   0  0  0  0  0  0
  -26.0382  -31.5974   20.5909 H   0  0  0  0  0  0
  -26.8228  -30.8902   21.9781 H   0  0  0  0  0  0
  -28.1120  -29.1139   21.1523 H   0  0  0  0  0  0
  -26.0853  -25.9568   19.0309 H   0  0  0  0  0  0
  -23.9869  -27.2687   19.0584 H   0  0  0  0  0  0
  -23.7256  -30.5858   19.4049 H   0  0  0  0  0  0
  -22.7428  -29.2314   19.8724 H   0  0  0  0  0  0
  -25.1294  -36.1971   25.0835 H   0  0  0  0  0  0
  -20.9943  -28.3228   24.1444 H   0  0  0  0  0  0
  -20.5711  -26.2244   23.3590 H   0  0  0  0  0  0
  -21.6642  -26.7458   22.1186 H   0  0  0  0  0  0
  -19.6914  -25.6311   21.1199 H   0  0  0  0  0  0
  -19.6715  -27.3226   20.6765 H   0  0  0  0  0  0
  -17.4203  -26.6664   21.4000 H   0  0  0  0  0  0
  -18.0310  -26.0088   22.9024 H   0  0  0  0  0  0
  -19.7948  -30.7247   24.2250 H   0  0  0  0  0  0
  -17.5020  -31.6257   24.5156 H   0  0  0  0  0  0
  -15.5343  -30.2949   23.7688 H   0  0  0  0  0  0
  -15.8670  -28.0843   22.6990 H   0  0  0  0  0  0
  -24.5869  -30.7091   25.7763 H   0  0  0  0  0  0
  -24.8938  -32.2883   26.4912 H   0  0  0  0  0  0
  -25.8058  -30.8842   27.0210 H   0  0  0  0  0  0
  -26.2896  -29.6772   24.1179 H   0  0  0  0  0  0
  -27.4147  -29.7335   25.4553 H   0  0  0  0  0  0
  -27.8691  -30.4387   23.9221 H   0  0  0  0  0  0
  -27.2674  -33.3601   26.2072 H   0  0  0  0  0  0
  -28.3835  -32.6896   25.0270 H   0  0  0  0  0  0
  -28.0732  -31.8413   26.5340 H   0  0  0  0  0  0
  -28.2596  -38.0114   24.7496 H   0  0  0  0  0  0
  -28.1090  -36.2639   24.6298 H   0  0  0  0  0  0
  -27.2292  -37.1463   25.8863 H   0  0  0  0  0  0
  -20.9306  -29.8715   21.6922 H   0  0  0  0  0  0
  -26.0188  -38.2862   24.1393 H   0  0  0  0  0  0
  -32.3818  -19.1795   22.2501 H   0  0  0  0  0  0
  -32.1346  -16.7459   21.9812 H   0  0  0  0  0  0
  -32.2919  -23.6128   21.5051 H   0  0  0  0  0  0
  -31.6205  -25.1486   20.9985 H   0  0  0  0  0  0
  -31.8759  -23.8681   19.8158 H   0  0  0  0  0  0
  -28.9239  -25.8018   21.8514 H   0  0  0  0  0  0
  -27.3910  -25.2536   21.2008 H   0  0  0  0  0  0
  -29.9064  -23.7310   22.1653 H   0  0  0  0  0  0
  -28.9553  -15.1724   21.2778 H   0  0  0  0  0  0
  -29.5652  -21.7532   20.0939 H   0  0  0  0  0  0
  1 25  1  0  0  0
  1 30  2  0  0  0
  1 82  1  0  0  0
  2  3  1  0  0  0
  2 25  1  0  0  0
  2 88  1  0  0  0
  2 89  1  0  0  0
  3  4  1  0  0  0
  3 90  1  0  0  0
  3 91  1  0  0  0
  4  5  1  0  0  0
  4 92  1  0  0  0
  4 93  1  0  0  0
  5  6  1  0  0  0
  5 26  1  0  0  0
  5 94  1  0  0  0
  6 25  1  0  0  0
  6 95  1  0  0  0
  6 96  1  0  0  0
  7  8  2  0  0  0
  7 26  1  0  0  0
  7 29  1  0  0  0
  8  9  1  0  0  0
  8 22  1  0  0  0
  9 10  1  0  0  0
  9 27  2  0  0  0
 10 11  2  0  0  0
 10 15  1  0  0  0
 11 12  1  0  0  0
 11 97  1  0  0  0
 12 13  2  0  0  0
 12 98  1  0  0  0
 13 14  1  0  0  0
 13 31  1  0  0  0
 14 15  2  0  0  0
 14 99  1  0  0  0
 15100  1  0  0  0
 16 17  2  0  0  0
 16 21  1  0  0  0
 16 31  1  0  0  0
 17 18  1  0  0  0
 17101  1  0  0  0
 18 19  2  0  0  0
 18102  1  0  0  0
 19 20  1  0  0  0
 19 24  1  0  0  0
 20 21  2  0  0  0
 20103  1  0  0  0
 21 23  1  0  0  0
 22 28  1  0  0  0
 22 32  2  0  0  0
 26 27  1  0  0  0
 28104  1  0  0  0
 28105  1  0  0  0
 29106  1  0  0  0
 29107  1  0  0  0
 33 34  1  0  0  0
 33 66  1  0  0  0
 33 70  2  0  0  0
 34 36  1  0  0  0
 34 59  1  0  0  0
 34108  1  0  0  0
 35 44  2  0  0  0
 35 45  1  0  0  0
 35 68  1  0  0  0
 36 56  1  0  0  0
 36109  1  0  0  0
 37 39  1  0  0  0
 37 47  1  0  0  0
 37 66  1  0  0  0
 37110  1  0  0  0
 38 43  2  0  0  0
 38 46  1  0  0  0
 38 47  1  0  0  0
 39 64  1  0  0  0
 39 67  2  0  0  0
 40 52  1  0  0  0
 40 53  2  0  0  0
 40 58  1  0  0  0
 41111  1  0  0  0
 41112  1  0  0  0
 41113  1  0  0  0
 41 48  1  0  0  0
 42 43  1  0  0  0
 42 66  1  0  0  0
 42114  1  0  0  0
 42115  1  0  0  0
 43 44  1  0  0  0
 44116  1  0  0  0
 45 46  2  0  0  0
 45117  1  0  0  0
 46118  1  0  0  0
 47119  1  0  0  0
 47120  1  0  0  0
 48 56  1  0  0  0
 48 65  1  0  0  0
 48121  1  0  0  0
 49 50  1  0  0  0
 49 53  1  0  0  0
 49 64  1  0  0  0
 49122  1  0  0  0
 50 51  1  0  0  0
 50123  1  0  0  0
 50124  1  0  0  0
 51 52  1  0  0  0
 51125  1  0  0  0
 51126  1  0  0  0
 52127  1  0  0  0
 52128  1  0  0  0
 53 54  1  0  0  0
 54 55  2  0  0  0
 54129  1  0  0  0
 55 57  1  0  0  0
 55130  1  0  0  0
 56 69  2  0  0  0
 57 58  2  0  0  0
 57131  1  0  0  0
 58132  1  0  0  0
 59 60  1  0  0  0
 59 61  1  0  0  0
 59 62  1  0  0  0
 60133  1  0  0  0
 60134  1  0  0  0
 60135  1  0  0  0
 61136  1  0  0  0
 61137  1  0  0  0
 61138  1  0  0  0
 62139  1  0  0  0
 62140  1  0  0  0
 62141  1  0  0  0
 63 65  1  0  0  0
 63142  1  0  0  0
 63143  1  0  0  0
 63144  1  0  0  0
 64145  1  0  0  0
 65146  1  0  0  0
 68 80  1  0  0  0
 71 72  2  0  0  0
 71 73  1  0  0  0
 71147  1  0  0  0
 72 74  1  0  0  0
 72148  1  0  0  0
 73 75  2  0  0  0
 73 77  1  0  0  0
 74 76  2  0  0  0
 74 82  1  0  0  0
 75 76  1  0  0  0
 75 86  1  0  0  0
 76 87  1  0  0  0
 77 83  1  0  0  0
 77 84  2  0  0  0
 78 80  1  0  0  0
 78 81  1  0  0  0
 78 85  2  0  0  0
 79149  1  0  0  0
 79150  1  0  0  0
 79151  1  0  0  0
 79 81  1  0  0  0
 80152  1  0  0  0
 80153  1  0  0  0
 81 83  1  0  0  0
 81154  1  0  0  0
 82155  1  0  0  0
 83156  1  0  0  0
M  ISO  4   1 100  68 101  80 101  82 100
M  END
> <chiral flag>
0

> <version>
0

> <s_m_source_file>
/data/baiqing/PycharmProjects/Reinvent-master-3.2/result/LINK_invent/BTK/process_docking_weight1_custom_product_contain_oxygen_bond_distance_aromatic_linkinvent_7_9_3/rearranged_h_0174.sdf

> <i_m_source_file_index>
76

> <r_mmod_Potential_Energy-OPLS-2005>
-82.5118103027344

> <r_mmod_Stretch_Energy-OPLS-2005>
38.7156639099121

> <r_mmod_Bend_Energy-OPLS-2005>
92.5895767211914

> <r_mmod_Torsional_Energy-OPLS-2005>
270.083831787109

> <r_mmod_Improper_Torsional_Energy-OPLS-2005>
4.97339630126953

> <r_mmod_Van_der_Waal_Energy-OPLS-2005>
149.182586669922

> <r_mmod_Electrostatic_Energy-OPLS-2005>
-428.253173828125

> <r_mmod_Solvation_Energy-OPLS-2005>
-222.562774658203

> <b_mmod_Minimization_Converged-OPLS-2005>
0

> <r_mmod_RMS_Derivative-OPLS-2005>
2.42672753334045

$$$$
76
                    3D
 Structure written by MMmdl.
161169  0  0  1  0            999 V2000
  -30.6280  -14.5995   20.4413 C   0  0  0  0  0  0
  -30.4325  -12.3525   19.4380 C   0  0  0  0  0  0
  -29.5005  -12.5026   18.2161 C   0  0  0  0  0  0
  -28.0222  -12.3489   18.6296 C   0  0  0  0  0  0
  -27.6536  -13.1940   19.8786 C   0  0  2  0  0  0
  -28.7095  -13.0390   20.9963 C   0  0  0  0  0  0
  -25.2578  -13.8074   20.5841 C   0  0  0  0  0  0
  -24.1797  -13.0364   20.9210 C   0  0  0  0  0  0
  -24.6357  -11.6837   20.8716 C   0  0  0  0  0  0
  -23.9038  -10.4241   21.0390 C   0  0  0  0  0  0
  -24.3595   -9.4170   21.9176 C   0  0  0  0  0  0
  -23.6276   -8.2211   22.0738 C   0  0  0  0  0  0
  -22.4259   -8.0257   21.3535 C   0  0  0  0  0  0
  -21.9894   -9.0225   20.4635 C   0  0  0  0  0  0
  -22.7219  -10.2099   20.3039 C   0  0  0  0  0  0
  -21.6841   -6.0724   22.5282 C   0  0  0  0  0  0
  -21.4012   -6.5618   23.8219 C   0  0  0  0  0  0
  -21.3645   -5.6760   24.9167 C   0  0  0  0  0  0
  -21.6041   -4.3030   24.7217 C   0  0  0  0  0  0
  -21.8831   -3.8137   23.4338 C   0  0  0  0  0  0
  -21.9209   -4.6960   22.3399 C   0  0  0  0  0  0
  -22.7832  -13.5184   21.1881 C   0  0  0  0  0  0
  -22.1673   -4.2152   21.0974 F   0  0  0  0  0  0
  -21.5626   -3.4511   25.7730 F   0  0  0  0  0  0
  -30.0251  -13.3709   20.4202 N   0  0  0  0  0  0
  -26.2985  -12.9223   20.3432 N   0  0  0  0  0  0
  -25.9279  -11.6399   20.5757 N   0  0  0  0  0  0
  -22.0475  -12.8154   22.0422 N   0  0  0  0  0  0
  -25.4316  -15.1803   20.4486 N   0  0  0  0  0  0
  -31.8026  -14.7649   20.1018 O   0  0  0  0  0  0
  -21.6621   -6.8864   21.4245 O   0  0  0  0  0  0
  -22.3521  -14.5513   20.6759 O   0  0  0  0  0  0
  -24.6244  -31.8634   23.2036 C   0  0  0  0  0  0
  -25.9100  -32.4792   23.8357 C   0  0  1  0  0  0
  -27.2237  -27.3613   20.0866 C   0  0  0  0  0  0
  -25.5939  -33.8579   24.2298 N   0  0  0  0  0  0
  -23.4171  -30.4886   21.5465 C   0  0  2  0  0  0
  -24.8647  -28.9549   20.0998 C   0  0  0  0  0  0
  -22.7474  -29.4649   22.4934 C   0  0  0  0  0  0
  -18.0310  -28.1382   22.8495 C   0  0  0  0  0  0
  -24.1486  -36.7278   23.2637 C   0  0  0  0  0  0
  -25.9566  -30.8028   21.3718 C   0  0  0  0  0  0
  -26.0336  -29.4373   20.7062 C   0  0  0  0  0  0
  -27.2207  -28.6472   20.6999 C   0  0  0  0  0  0
  -26.0409  -26.9319   19.4458 C   0  0  0  0  0  0
  -24.8680  -27.7054   19.4626 C   0  0  0  0  0  0
  -23.6296  -29.8289   20.1590 C   0  0  0  0  0  0
  -25.4102  -36.3079   24.0347 C   0  0  1  0  0  0
  -20.5904  -28.3684   23.1277 C   0  0  2  0  0  0
  -20.6787  -26.9405   22.5401 C   0  0  0  0  0  0
  -19.5750  -26.6390   21.5211 C   0  0  0  0  0  0
  -18.1943  -26.7933   22.1630 C   0  0  0  0  0  0
  -19.1556  -28.8853   23.2892 C   0  0  0  0  0  0
  -18.9475  -30.1471   23.8886 C   0  0  0  0  0  0
  -17.6465  -30.6581   24.0568 C   0  0  0  0  0  0
  -25.9038  -34.9450   23.5106 C   0  0  0  0  0  0
  -16.5362  -29.9076   23.6329 C   0  0  0  0  0  0
  -16.7296  -28.6500   23.0344 C   0  0  0  0  0  0
  -26.4480  -31.6582   25.0709 C   0  0  0  0  0  0
  -25.3725  -31.3742   26.1460 C   0  0  0  0  0  0
  -27.0301  -30.3011   24.6122 C   0  0  0  0  0  0
  -27.6063  -32.4282   25.7479 C   0  0  0  0  0  0
  -27.5578  -37.1798   24.8472 C   0  0  0  0  0  0
  -21.4189  -29.3045   22.3669 N   0  0  0  0  0  0
  -26.4280  -37.3774   23.9426 N   0  0  0  0  0  0
  -24.6848  -31.0667   22.0984 N   0  0  0  0  0  0
  -23.4218  -28.8175   23.2988 O   0  0  0  0  0  0
  -28.2673  -26.4367   20.1830 O   0  0  0  0  0  0
  -26.5592  -34.8908   22.4665 O   0  0  0  0  0  0
  -23.5411  -32.1431   23.7380 O   0  0  0  0  0  0
  -29.0149  -18.7900   18.9015 C   0  0  0  0  0  0
  -28.9536  -17.3754   19.1196 C   0  0  0  0  0  0
  -29.9583  -19.4656   19.6341 C   0  0  0  0  0  0
  -29.7927  -16.9135   20.1150 C   0  0  0  0  0  0
  -27.8710  -25.2754   20.8578 C   0  0  0  0  0  0
  -28.2247  -23.9494   20.8142 C   0  0  0  0  0  0
  -29.2869  -23.2924   19.9950 C   0  0  0  0  0  0
  -30.4533  -21.3002   17.9600 C   0  0  0  0  0  0
  -28.0360  -16.5287   18.2924 C   0  0  0  0  0  0
  -31.8363  -21.4247   17.3347 C   0  0  0  0  0  0
  -29.6858  -21.5697   21.7596 C   0  0  0  0  0  0
  -30.3754  -20.9562   19.4757 C   0  0  1  0  0  0
  -29.7855  -15.6433   20.6633 N   0  0  0  0  0  0
  -29.6667  -21.9880   20.3422 N   0  0  0  0  0  0
  -29.7806  -23.8780   19.0299 O   0  0  0  0  0  0
  -29.4577  -21.4386   17.2422 O   0  0  0  0  0  0
  -27.4548  -23.1703   21.5903 O   0  0  0  0  0  0
  -30.7633  -18.2836   20.6886 S   0  0  0  0  0  0
  -31.4766  -12.4601   19.1397 H   0  0  0  0  0  0
  -30.3442  -11.3538   19.8680 H   0  0  0  0  0  0
  -29.7557  -11.7651   17.4549 H   0  0  0  0  0  0
  -29.6540  -13.4798   17.7559 H   0  0  0  0  0  0
  -27.8447  -11.2925   18.8331 H   0  0  0  0  0  0
  -27.3681  -12.6091   17.7979 H   0  0  0  0  0  0
  -27.6643  -14.2298   19.5677 H   0  0  0  0  0  0
  -28.7133  -12.0138   21.3702 H   0  0  0  0  0  0
  -28.4720  -13.6669   21.8572 H   0  0  0  0  0  0
  -25.2754   -9.5634   22.4727 H   0  0  0  0  0  0
  -24.0004   -7.4584   22.7420 H   0  0  0  0  0  0
  -21.0841   -8.8729   19.8918 H   0  0  0  0  0  0
  -22.3703  -10.9623   19.6124 H   0  0  0  0  0  0
  -21.1992   -7.6123   23.9725 H   0  0  0  0  0  0
  -21.1445   -6.0477   25.9066 H   0  0  0  0  0  0
  -22.0637   -2.7607   23.2831 H   0  0  0  0  0  0
  -22.4073  -11.9761   22.4720 H   0  0  0  0  0  0
  -21.1116  -13.1172   22.2699 H   0  0  0  0  0  0
  -24.6758  -15.8364   20.6074 H   0  0  0  0  0  0
  -26.3001  -15.6346   20.2041 H   0  0  0  0  0  0
  -26.7159  -32.5479   23.1104 H   0  0  0  0  0  0
  -25.0133  -33.9726   25.0471 H   0  0  0  0  0  0
  -22.7088  -31.3087   21.4073 H   0  0  0  0  0  0
  -23.3763  -35.9599   23.3284 H   0  0  0  0  0  0
  -24.3582  -36.8884   22.2052 H   0  0  0  0  0  0
  -23.7216  -37.6469   23.6650 H   0  0  0  0  0  0
  -26.0877  -31.5715   20.6086 H   0  0  0  0  0  0
  -26.8373  -30.8475   22.0003 H   0  0  0  0  0  0
  -28.1104  -28.9931   21.2065 H   0  0  0  0  0  0
  -26.0091  -25.9608   18.9697 H   0  0  0  0  0  0
  -23.9748  -27.3293   18.9829 H   0  0  0  0  0  0
  -23.7445  -30.6098   19.4058 H   0  0  0  0  0  0
  -22.7477  -29.2602   19.8575 H   0  0  0  0  0  0
  -25.1282  -36.1937   25.0846 H   0  0  0  0  0  0
  -21.0029  -28.3263   24.1384 H   0  0  0  0  0  0
  -20.5694  -26.2284   23.3594 H   0  0  0  0  0  0
  -21.6659  -26.7438   22.1200 H   0  0  0  0  0  0
  -19.6894  -25.6313   21.1224 H   0  0  0  0  0  0
  -19.6669  -27.3195   20.6740 H   0  0  0  0  0  0
  -17.4209  -26.6701   21.4041 H   0  0  0  0  0  0
  -18.0332  -26.0084   22.9028 H   0  0  0  0  0  0
  -19.7948  -30.7321   24.2217 H   0  0  0  0  0  0
  -17.5017  -31.6254   24.5184 H   0  0  0  0  0  0
  -15.5358  -30.2967   23.7669 H   0  0  0  0  0  0
  -15.8710  -28.0830   22.7027 H   0  0  0  0  0  0
  -24.5886  -30.7090   25.7831 H   0  0  0  0  0  0
  -24.8929  -32.2912   26.4895 H   0  0  0  0  0  0
  -25.8066  -30.8941   27.0237 H   0  0  0  0  0  0
  -26.2859  -29.6774   24.1165 H   0  0  0  0  0  0
  -27.4043  -29.7251   25.4591 H   0  0  0  0  0  0
  -27.8705  -30.4309   23.9299 H   0  0  0  0  0  0
  -27.2740  -33.3639   26.1985 H   0  0  0  0  0  0
  -28.3930  -32.6725   25.0331 H   0  0  0  0  0  0
  -28.0654  -31.8428   26.5452 H   0  0  0  0  0  0
  -28.2608  -38.0086   24.7536 H   0  0  0  0  0  0
  -28.1062  -36.2627   24.6282 H   0  0  0  0  0  0
  -27.2306  -37.1433   25.8874 H   0  0  0  0  0  0
  -20.9344  -29.8756   21.6883 H   0  0  0  0  0  0
  -26.0166  -38.2853   24.1417 H   0  0  0  0  0  0
  -28.3853  -19.2555   18.1540 H   0  0  0  0  0  0
  -27.0792  -25.5279   21.5529 H   0  0  0  0  0  0
  -27.8249  -16.9959   17.3306 H   0  0  0  0  0  0
  -27.0783  -16.3812   18.7838 H   0  0  0  0  0  0
  -28.4730  -15.5588   18.0643 H   0  0  0  0  0  0
  -32.4427  -20.5508   17.5699 H   0  0  0  0  0  0
  -32.3369  -22.3139   17.7140 H   0  0  0  0  0  0
  -31.7641  -21.5066   16.2496 H   0  0  0  0  0  0
  -28.7871  -21.0084   22.0204 H   0  0  0  0  0  0
  -29.7897  -22.4121   22.4474 H   0  0  0  0  0  0
  -30.5310  -20.9164   21.9775 H   0  0  0  0  0  0
  -31.4082  -21.0103   19.8229 H   0  0  0  0  0  0
  -28.8736  -15.3178   20.9389 H   0  0  0  0  0  0
  -27.7534  -22.2767   21.4623 H   0  0  0  0  0  0
  1 25  1  0  0  0
  1 30  2  0  0  0
  1 83  1  0  0  0
  2  3  1  0  0  0
  2 25  1  0  0  0
  2 89  1  0  0  0
  2 90  1  0  0  0
  3  4  1  0  0  0
  3 91  1  0  0  0
  3 92  1  0  0  0
  4  5  1  0  0  0
  4 93  1  0  0  0
  4 94  1  0  0  0
  5  6  1  0  0  0
  5 26  1  0  0  0
  5 95  1  0  0  0
  6 25  1  0  0  0
  6 96  1  0  0  0
  6 97  1  0  0  0
  7  8  2  0  0  0
  7 26  1  0  0  0
  7 29  1  0  0  0
  8  9  1  0  0  0
  8 22  1  0  0  0
  9 10  1  0  0  0
  9 27  2  0  0  0
 10 11  2  0  0  0
 10 15  1  0  0  0
 11 12  1  0  0  0
 11 98  1  0  0  0
 12 13  2  0  0  0
 12 99  1  0  0  0
 13 14  1  0  0  0
 13 31  1  0  0  0
 14 15  2  0  0  0
 14100  1  0  0  0
 15101  1  0  0  0
 16 17  2  0  0  0
 16 21  1  0  0  0
 16 31  1  0  0  0
 17 18  1  0  0  0
 17102  1  0  0  0
 18 19  2  0  0  0
 18103  1  0  0  0
 19 20  1  0  0  0
 19 24  1  0  0  0
 20 21  2  0  0  0
 20104  1  0  0  0
 21 23  1  0  0  0
 22 28  1  0  0  0
 22 32  2  0  0  0
 26 27  1  0  0  0
 28105  1  0  0  0
 28106  1  0  0  0
 29107  1  0  0  0
 29108  1  0  0  0
 33 34  1  0  0  0
 33 66  1  0  0  0
 33 70  2  0  0  0
 34 36  1  0  0  0
 34 59  1  0  0  0
 34109  1  0  0  0
 35 44  2  0  0  0
 35 45  1  0  0  0
 35 68  1  0  0  0
 36 56  1  0  0  0
 36110  1  0  0  0
 37 39  1  0  0  0
 37 47  1  0  0  0
 37 66  1  0  0  0
 37111  1  0  0  0
 38 43  2  0  0  0
 38 46  1  0  0  0
 38 47  1  0  0  0
 39 64  1  0  0  0
 39 67  2  0  0  0
 40 52  1  0  0  0
 40 53  2  0  0  0
 40 58  1  0  0  0
 41112  1  0  0  0
 41113  1  0  0  0
 41114  1  0  0  0
 41 48  1  0  0  0
 42 43  1  0  0  0
 42 66  1  0  0  0
 42115  1  0  0  0
 42116  1  0  0  0
 43 44  1  0  0  0
 44117  1  0  0  0
 45 46  2  0  0  0
 45118  1  0  0  0
 46119  1  0  0  0
 47120  1  0  0  0
 47121  1  0  0  0
 48 56  1  0  0  0
 48 65  1  0  0  0
 48122  1  0  0  0
 49 50  1  0  0  0
 49 53  1  0  0  0
 49 64  1  0  0  0
 49123  1  0  0  0
 50 51  1  0  0  0
 50124  1  0  0  0
 50125  1  0  0  0
 51 52  1  0  0  0
 51126  1  0  0  0
 51127  1  0  0  0
 52128  1  0  0  0
 52129  1  0  0  0
 53 54  1  0  0  0
 54 55  2  0  0  0
 54130  1  0  0  0
 55 57  1  0  0  0
 55131  1  0  0  0
 56 69  2  0  0  0
 57 58  2  0  0  0
 57132  1  0  0  0
 58133  1  0  0  0
 59 60  1  0  0  0
 59 61  1  0  0  0
 59 62  1  0  0  0
 60134  1  0  0  0
 60135  1  0  0  0
 60136  1  0  0  0
 61137  1  0  0  0
 61138  1  0  0  0
 61139  1  0  0  0
 62140  1  0  0  0
 62141  1  0  0  0
 62142  1  0  0  0
 63 65  1  0  0  0
 63143  1  0  0  0
 63144  1  0  0  0
 63145  1  0  0  0
 64146  1  0  0  0
 65147  1  0  0  0
 68 75  1  0  0  0
 71 72  1  0  0  0
 71 73  2  0  0  0
 71148  1  0  0  0
 72 74  2  0  0  0
 72 79  1  0  0  0
 73 82  1  0  0  0
 73 88  1  0  0  0
 74 83  1  0  0  0
 74 88  1  0  0  0
 75 76  2  0  0  0
 75149  1  0  0  0
 76 77  1  0  0  0
 76 87  1  0  0  0
 77 84  1  0  0  0
 77 85  2  0  0  0
 78 80  1  0  0  0
 78 82  1  0  0  0
 78 86  2  0  0  0
 79150  1  0  0  0
 79151  1  0  0  0
 79152  1  0  0  0
 80153  1  0  0  0
 80154  1  0  0  0
 80155  1  0  0  0
 81 84  1  0  0  0
 81156  1  0  0  0
 81157  1  0  0  0
 81158  1  0  0  0
 82 84  1  0  0  0
 82159  1  0  0  0
 83160  1  0  0  0
 87161  1  0  0  0
M  ISO  4   1 100  68 101  75 101  83 100
M  END
> <chiral flag>
0

> <version>
0

> <s_m_source_file>
/data/baiqing/PycharmProjects/Reinvent-master-3.2/result/LINK_invent/BTK/process_docking_weight1_custom_product_contain_oxygen_bond_distance_aromatic_linkinvent_7_9_3/rearranged_h_0174.sdf

> <i_m_source_file_index>
77

> <r_mmod_Potential_Energy-OPLS-2005>
80.9278259277344

> <r_mmod_Stretch_Energy-OPLS-2005>
75.8726959228516

> <r_mmod_Bend_Energy-OPLS-2005>
175.918182373047

> <r_mmod_Torsional_Energy-OPLS-2005>
271.785430908203

> <r_mmod_Improper_Torsional_Energy-OPLS-2005>
8.54598999023438

> <r_mmod_Van_der_Waal_Energy-OPLS-2005>
152.754180908203

> <r_mmod_Electrostatic_Energy-OPLS-2005>
-399.163330078125

> <r_mmod_Solvation_Energy-OPLS-2005>
-250.525588989258

> <b_mmod_Minimization_Converged-OPLS-2005>
0

> <r_mmod_RMS_Derivative-OPLS-2005>
3.00795316696167

$$$$
77
                    3D
 Structure written by MMmdl.
156164  0  0  1  0            999 V2000
  -30.7441  -14.4314   20.5848 C   0  0  0  0  0  0
  -30.4197  -12.2870   19.4092 C   0  0  0  0  0  0
  -29.4821  -12.4358   18.1957 C   0  0  0  0  0  0
  -28.0045  -12.3245   18.6237 C   0  0  0  0  0  0
  -27.6530  -13.1842   19.8686 C   0  0  2  0  0  0
  -28.7044  -13.0030   20.9849 C   0  0  0  0  0  0
  -25.2594  -13.8106   20.5693 C   0  0  0  0  0  0
  -24.1819  -13.0413   20.9185 C   0  0  0  0  0  0
  -24.6353  -11.6880   20.8776 C   0  0  0  0  0  0
  -23.9022  -10.4285   21.0437 C   0  0  0  0  0  0
  -24.3589   -9.4198   21.9199 C   0  0  0  0  0  0
  -23.6277   -8.2230   22.0761 C   0  0  0  0  0  0
  -22.4260   -8.0270   21.3553 C   0  0  0  0  0  0
  -21.9892   -9.0240   20.4654 C   0  0  0  0  0  0
  -22.7212  -10.2124   20.3071 C   0  0  0  0  0  0
  -21.6842   -6.0737   22.5285 C   0  0  0  0  0  0
  -21.3999   -6.5643   23.8217 C   0  0  0  0  0  0
  -21.3655   -5.6799   24.9181 C   0  0  0  0  0  0
  -21.6045   -4.3062   24.7230 C   0  0  0  0  0  0
  -21.8818   -3.8153   23.4351 C   0  0  0  0  0  0
  -21.9187   -4.6967   22.3407 C   0  0  0  0  0  0
  -22.7854  -13.5245   21.1839 C   0  0  0  0  0  0
  -22.1661   -4.2153   21.0983 F   0  0  0  0  0  0
  -21.5619   -3.4545   25.7741 F   0  0  0  0  0  0
  -30.0283  -13.2899   20.4083 N   0  0  0  0  0  0
  -26.2989  -12.9220   20.3412 N   0  0  0  0  0  0
  -25.9271  -11.6412   20.5841 N   0  0  0  0  0  0
  -22.0489  -12.8247   22.0395 N   0  0  0  0  0  0
  -25.4371  -15.1819   20.4085 N   0  0  0  0  0  0
  -31.8901  -14.5900   20.1608 O   0  0  0  0  0  0
  -21.6625   -6.8874   21.4249 O   0  0  0  0  0  0
  -22.3560  -14.5563   20.6696 O   0  0  0  0  0  0
  -24.6092  -31.8712   23.2125 C   0  0  0  0  0  0
  -25.9006  -32.4832   23.8418 C   0  0  1  0  0  0
  -27.2422  -27.4831   20.0938 C   0  0  0  0  0  0
  -25.5896  -33.8635   24.2362 N   0  0  0  0  0  0
  -23.3973  -30.4935   21.5499 C   0  0  2  0  0  0
  -24.8446  -28.9622   20.1171 C   0  0  0  0  0  0
  -22.7393  -29.4673   22.4986 C   0  0  0  0  0  0
  -18.0289  -28.1374   22.8495 C   0  0  0  0  0  0
  -24.1497  -36.7331   23.2642 C   0  0  0  0  0  0
  -25.9193  -30.8507   21.3597 C   0  0  0  0  0  0
  -25.9986  -29.4874   20.7111 C   0  0  0  0  0  0
  -27.2008  -28.7553   20.6962 C   0  0  0  0  0  0
  -26.0741  -26.9546   19.5029 C   0  0  0  0  0  0
  -24.8753  -27.6939   19.5100 C   0  0  0  0  0  0
  -23.6038  -29.8223   20.1650 C   0  0  0  0  0  0
  -25.4109  -36.3123   24.0349 C   0  0  1  0  0  0
  -20.5875  -28.3649   23.1302 C   0  0  2  0  0  0
  -20.6801  -26.9408   22.5352 C   0  0  0  0  0  0
  -19.5736  -26.6371   21.5208 C   0  0  0  0  0  0
  -18.1950  -26.7897   22.1687 C   0  0  0  0  0  0
  -19.1533  -28.8826   23.2912 C   0  0  0  0  0  0
  -18.9480  -30.1418   23.8954 C   0  0  0  0  0  0
  -17.6489  -30.6560   24.0618 C   0  0  0  0  0  0
  -25.9032  -34.9483   23.5149 C   0  0  0  0  0  0
  -16.5377  -29.9088   23.6347 C   0  0  0  0  0  0
  -16.7282  -28.6516   23.0346 C   0  0  0  0  0  0
  -26.4465  -31.6594   25.0719 C   0  0  0  0  0  0
  -25.3758  -31.3672   26.1478 C   0  0  0  0  0  0
  -27.0286  -30.3047   24.6053 C   0  0  0  0  0  0
  -27.6068  -32.4289   25.7472 C   0  0  0  0  0  0
  -27.5586  -37.1815   24.8462 C   0  0  0  0  0  0
  -21.4129  -29.3031   22.3722 N   0  0  0  0  0  0
  -26.4299  -37.3794   23.9409 N   0  0  0  0  0  0
  -24.6595  -31.0858   22.0998 N   0  0  0  0  0  0
  -23.4190  -28.8228   23.3023 O   0  0  0  0  0  0
  -28.4339  -26.8086   20.0643 O   0  0  0  0  0  0
  -26.5570  -34.8924   22.4692 O   0  0  0  0  0  0
  -23.5295  -32.1442   23.7549 O   0  0  0  0  0  0
  -29.1310  -17.7220   20.8814 C   0  0  0  0  0  0
  -28.1306  -18.4801   18.7834 C   0  0  0  0  0  0
  -29.0802  -16.2517   18.9424 C   0  0  0  0  0  0
  -28.4934  -18.7357   20.1275 C   0  0  0  0  0  0
  -29.4222  -16.4666   20.3005 C   0  0  0  0  0  0
  -28.4239  -17.2410   18.1953 C   0  0  0  0  0  0
  -27.8705  -22.3506   20.8973 C   0  0  0  0  0  0
  -27.4546  -20.9763   20.3543 C   0  0  0  0  0  0
  -28.9863  -23.0465   20.1130 C   0  0  0  0  0  0
  -28.4383  -25.5088   20.6429 C   0  0  0  0  0  0
  -28.6214  -24.4330   19.5589 C   0  0  1  0  0  0
  -28.3260  -20.0198   20.7128 N   0  0  0  0  0  0
  -30.0792  -15.4789   21.0955 N   0  0  0  0  0  0
  -27.3661  -22.8457   21.9095 O   0  0  0  0  0  0
  -26.4237  -20.8101   19.6925 O   0  0  0  0  0  0
  -28.0912  -17.0053   16.9038 F   0  0  0  0  0  0
  -29.6253  -24.8012   18.7583 F   0  0  0  0  0  0
  -31.4615  -12.3845   19.0975 H   0  0  0  0  0  0
  -30.3310  -11.2870   19.8362 H   0  0  0  0  0  0
  -29.7074  -11.6600   17.4635 H   0  0  0  0  0  0
  -29.6631  -13.3788   17.6837 H   0  0  0  0  0  0
  -27.8144  -11.2740   18.8449 H   0  0  0  0  0  0
  -27.3491  -12.5763   17.7895 H   0  0  0  0  0  0
  -27.6689  -14.2190   19.5486 H   0  0  0  0  0  0
  -28.6863  -11.9809   21.3667 H   0  0  0  0  0  0
  -28.4749  -13.6420   21.8394 H   0  0  0  0  0  0
  -25.2736   -9.5661   22.4773 H   0  0  0  0  0  0
  -23.9985   -7.4616   22.7472 H   0  0  0  0  0  0
  -21.0830   -8.8757   19.8955 H   0  0  0  0  0  0
  -22.3682  -10.9663   19.6177 H   0  0  0  0  0  0
  -21.1989   -7.6151   23.9720 H   0  0  0  0  0  0
  -21.1476   -6.0529   25.9083 H   0  0  0  0  0  0
  -22.0600   -2.7615   23.2848 H   0  0  0  0  0  0
  -22.4088  -11.9901   22.4792 H   0  0  0  0  0  0
  -21.1115  -13.1284   22.2609 H   0  0  0  0  0  0
  -24.6779  -15.8457   20.5131 H   0  0  0  0  0  0
  -26.3127  -15.6180   20.1502 H   0  0  0  0  0  0
  -26.7086  -32.5574   23.1210 H   0  0  0  0  0  0
  -25.0090  -33.9826   25.0529 H   0  0  0  0  0  0
  -22.6840  -31.3075   21.4104 H   0  0  0  0  0  0
  -23.3747  -35.9678   23.3315 H   0  0  0  0  0  0
  -24.3604  -36.8911   22.2055 H   0  0  0  0  0  0
  -23.7256  -37.6549   23.6634 H   0  0  0  0  0  0
  -26.0247  -31.6174   20.5903 H   0  0  0  0  0  0
  -26.8103  -30.9081   21.9719 H   0  0  0  0  0  0
  -28.0960  -29.1600   21.1478 H   0  0  0  0  0  0
  -26.0901  -25.9907   19.0171 H   0  0  0  0  0  0
  -23.9905  -27.2892   19.0397 H   0  0  0  0  0  0
  -23.7066  -30.5944   19.4012 H   0  0  0  0  0  0
  -22.7307  -29.2358   19.8745 H   0  0  0  0  0  0
  -25.1283  -36.2003   25.0841 H   0  0  0  0  0  0
  -20.9986  -28.3203   24.1410 H   0  0  0  0  0  0
  -20.5813  -26.2227   23.3510 H   0  0  0  0  0  0
  -21.6640  -26.7538   22.1036 H   0  0  0  0  0  0
  -19.6890  -25.6273   21.1256 H   0  0  0  0  0  0
  -19.6611  -27.3169   20.6718 H   0  0  0  0  0  0
  -17.4164  -26.6532   21.4175 H   0  0  0  0  0  0
  -18.0457  -26.0093   22.9169 H   0  0  0  0  0  0
  -19.7962  -30.7187   24.2375 H   0  0  0  0  0  0
  -17.5066  -31.6208   24.5292 H   0  0  0  0  0  0
  -15.5385  -30.3002   23.7692 H   0  0  0  0  0  0
  -15.8670  -28.0862   22.7054 H   0  0  0  0  0  0
  -24.5943  -30.7010   25.7814 H   0  0  0  0  0  0
  -24.8949  -32.2819   26.4961 H   0  0  0  0  0  0
  -25.8140  -30.8818   27.0212 H   0  0  0  0  0  0
  -26.2810  -29.6808   24.1139 H   0  0  0  0  0  0
  -27.4111  -29.7278   25.4490 H   0  0  0  0  0  0
  -27.8633  -30.4393   23.9165 H   0  0  0  0  0  0
  -27.2715  -33.3574   26.2119 H   0  0  0  0  0  0
  -28.3848  -32.6858   25.0266 H   0  0  0  0  0  0
  -28.0780  -31.8362   26.5322 H   0  0  0  0  0  0
  -28.2604  -38.0111   24.7490 H   0  0  0  0  0  0
  -28.1076  -36.2631   24.6304 H   0  0  0  0  0  0
  -27.2310  -37.1500   25.8869 H   0  0  0  0  0  0
  -20.9292  -29.8731   21.6927 H   0  0  0  0  0  0
  -26.0194  -38.2886   24.1356 H   0  0  0  0  0  0
  -29.4161  -17.9167   21.9058 H   0  0  0  0  0  0
  -27.6584  -19.2333   18.1708 H   0  0  0  0  0  0
  -29.3129  -15.3287   18.4421 H   0  0  0  0  0  0
  -29.2724  -22.4020   19.2807 H   0  0  0  0  0  0
  -29.8637  -23.1217   20.7539 H   0  0  0  0  0  0
  -29.2770  -25.4719   21.3386 H   0  0  0  0  0  0
  -27.5423  -25.3317   21.2405 H   0  0  0  0  0  0
  -27.7368  -24.3714   18.9248 H   0  0  0  0  0  0
  -29.0033  -20.2950   21.4121 H   0  0  0  0  0  0
  -30.5430  -15.8716   21.9019 H   0  0  0  0  0  0
  1 25  1  0  0  0
  1 30  2  0  0  0
  1 83  1  0  0  0
  2  3  1  0  0  0
  2 25  1  0  0  0
  2 88  1  0  0  0
  2 89  1  0  0  0
  3  4  1  0  0  0
  3 90  1  0  0  0
  3 91  1  0  0  0
  4  5  1  0  0  0
  4 92  1  0  0  0
  4 93  1  0  0  0
  5  6  1  0  0  0
  5 26  1  0  0  0
  5 94  1  0  0  0
  6 25  1  0  0  0
  6 95  1  0  0  0
  6 96  1  0  0  0
  7  8  2  0  0  0
  7 26  1  0  0  0
  7 29  1  0  0  0
  8  9  1  0  0  0
  8 22  1  0  0  0
  9 10  1  0  0  0
  9 27  2  0  0  0
 10 11  2  0  0  0
 10 15  1  0  0  0
 11 12  1  0  0  0
 11 97  1  0  0  0
 12 13  2  0  0  0
 12 98  1  0  0  0
 13 14  1  0  0  0
 13 31  1  0  0  0
 14 15  2  0  0  0
 14 99  1  0  0  0
 15100  1  0  0  0
 16 17  2  0  0  0
 16 21  1  0  0  0
 16 31  1  0  0  0
 17 18  1  0  0  0
 17101  1  0  0  0
 18 19  2  0  0  0
 18102  1  0  0  0
 19 20  1  0  0  0
 19 24  1  0  0  0
 20 21  2  0  0  0
 20103  1  0  0  0
 21 23  1  0  0  0
 22 28  1  0  0  0
 22 32  2  0  0  0
 26 27  1  0  0  0
 28104  1  0  0  0
 28105  1  0  0  0
 29106  1  0  0  0
 29107  1  0  0  0
 33 34  1  0  0  0
 33 66  1  0  0  0
 33 70  2  0  0  0
 34 36  1  0  0  0
 34 59  1  0  0  0
 34108  1  0  0  0
 35 44  2  0  0  0
 35 45  1  0  0  0
 35 68  1  0  0  0
 36 56  1  0  0  0
 36109  1  0  0  0
 37 39  1  0  0  0
 37 47  1  0  0  0
 37 66  1  0  0  0
 37110  1  0  0  0
 38 43  2  0  0  0
 38 46  1  0  0  0
 38 47  1  0  0  0
 39 64  1  0  0  0
 39 67  2  0  0  0
 40 52  1  0  0  0
 40 53  2  0  0  0
 40 58  1  0  0  0
 41111  1  0  0  0
 41112  1  0  0  0
 41113  1  0  0  0
 41 48  1  0  0  0
 42 43  1  0  0  0
 42 66  1  0  0  0
 42114  1  0  0  0
 42115  1  0  0  0
 43 44  1  0  0  0
 44116  1  0  0  0
 45 46  2  0  0  0
 45117  1  0  0  0
 46118  1  0  0  0
 47119  1  0  0  0
 47120  1  0  0  0
 48 56  1  0  0  0
 48 65  1  0  0  0
 48121  1  0  0  0
 49 50  1  0  0  0
 49 53  1  0  0  0
 49 64  1  0  0  0
 49122  1  0  0  0
 50 51  1  0  0  0
 50123  1  0  0  0
 50124  1  0  0  0
 51 52  1  0  0  0
 51125  1  0  0  0
 51126  1  0  0  0
 52127  1  0  0  0
 52128  1  0  0  0
 53 54  1  0  0  0
 54 55  2  0  0  0
 54129  1  0  0  0
 55 57  1  0  0  0
 55130  1  0  0  0
 56 69  2  0  0  0
 57 58  2  0  0  0
 57131  1  0  0  0
 58132  1  0  0  0
 59 60  1  0  0  0
 59 61  1  0  0  0
 59 62  1  0  0  0
 60133  1  0  0  0
 60134  1  0  0  0
 60135  1  0  0  0
 61136  1  0  0  0
 61137  1  0  0  0
 61138  1  0  0  0
 62139  1  0  0  0
 62140  1  0  0  0
 62141  1  0  0  0
 63 65  1  0  0  0
 63142  1  0  0  0
 63143  1  0  0  0
 63144  1  0  0  0
 64145  1  0  0  0
 65146  1  0  0  0
 68 80  1  0  0  0
 71 74  2  0  0  0
 71 75  1  0  0  0
 71147  1  0  0  0
 72 74  1  0  0  0
 72 76  2  0  0  0
 72148  1  0  0  0
 73 75  2  0  0  0
 73 76  1  0  0  0
 73149  1  0  0  0
 74 82  1  0  0  0
 75 83  1  0  0  0
 76 86  1  0  0  0
 77 78  1  0  0  0
 77 79  1  0  0  0
 77 84  2  0  0  0
 78 82  1  0  0  0
 78 85  2  0  0  0
 79 81  1  0  0  0
 79150  1  0  0  0
 79151  1  0  0  0
 80 81  1  0  0  0
 80152  1  0  0  0
 80153  1  0  0  0
 81 87  1  0  0  0
 81154  1  0  0  0
 82155  1  0  0  0
 83156  1  0  0  0
M  ISO  4   1 100  68 101  80 101  83 100
M  END
> <chiral flag>
0

> <version>
0

> <s_m_source_file>
/data/baiqing/PycharmProjects/Reinvent-master-3.2/result/LINK_invent/BTK/process_docking_weight1_custom_product_contain_oxygen_bond_distance_aromatic_linkinvent_7_9_3/rearranged_h_0174.sdf

> <i_m_source_file_index>
78

> <r_mmod_Potential_Energy-OPLS-2005>
27.1638202667236

> <r_mmod_Stretch_Energy-OPLS-2005>
31.6012115478516

> <r_mmod_Bend_Energy-OPLS-2005>
97.4679794311523

> <r_mmod_Torsional_Energy-OPLS-2005>
301.307983398438

> <r_mmod_Improper_Torsional_Energy-OPLS-2005>
7.19612789154053

> <r_mmod_Van_der_Waal_Energy-OPLS-2005>
152.154815673828

> <r_mmod_Electrostatic_Energy-OPLS-2005>
-333.556793212891

> <r_mmod_Solvation_Energy-OPLS-2005>
-242.599212646484

> <b_mmod_Minimization_Converged-OPLS-2005>
0

> <r_mmod_RMS_Derivative-OPLS-2005>
1.90691733360291

$$$$
78
                    3D
 Structure written by MMmdl.
163171  0  0  1  0            999 V2000
  -30.6257  -14.6325   20.5245 C   0  0  0  0  0  0
  -30.4464  -12.3932   19.4481 C   0  0  0  0  0  0
  -29.5119  -12.5111   18.2229 C   0  0  0  0  0  0
  -28.0353  -12.3362   18.6358 C   0  0  0  0  0  0
  -27.6555  -13.2116   19.8596 C   0  0  2  0  0  0
  -28.7011  -13.0601   20.9883 C   0  0  0  0  0  0
  -25.2570  -13.8152   20.5682 C   0  0  0  0  0  0
  -24.1828  -13.0425   20.9177 C   0  0  0  0  0  0
  -24.6392  -11.6893   20.8714 C   0  0  0  0  0  0
  -23.9066  -10.4282   21.0392 C   0  0  0  0  0  0
  -24.3618   -9.4197   21.9182 C   0  0  0  0  0  0
  -23.6288   -8.2242   22.0758 C   0  0  0  0  0  0
  -22.4263   -8.0282   21.3550 C   0  0  0  0  0  0
  -21.9895   -9.0264   20.4652 C   0  0  0  0  0  0
  -22.7228  -10.2137   20.3050 C   0  0  0  0  0  0
  -21.6843   -6.0736   22.5289 C   0  0  0  0  0  0
  -21.4020   -6.5646   23.8216 C   0  0  0  0  0  0
  -21.3661   -5.6791   24.9183 C   0  0  0  0  0  0
  -21.6041   -4.3056   24.7215 C   0  0  0  0  0  0
  -21.8818   -3.8154   23.4337 C   0  0  0  0  0  0
  -21.9184   -4.6976   22.3392 C   0  0  0  0  0  0
  -22.7848  -13.5229   21.1823 C   0  0  0  0  0  0
  -22.1653   -4.2163   21.0971 F   0  0  0  0  0  0
  -21.5621   -3.4529   25.7731 F   0  0  0  0  0  0
  -30.0186  -13.4078   20.4306 N   0  0  0  0  0  0
  -26.3003  -12.9329   20.3303 N   0  0  0  0  0  0
  -25.9316  -11.6475   20.5717 N   0  0  0  0  0  0
  -22.0481  -12.8263   22.0406 N   0  0  0  0  0  0
  -25.4233  -15.1872   20.4117 N   0  0  0  0  0  0
  -31.7891  -14.8134   20.1531 O   0  0  0  0  0  0
  -21.6626   -6.8885   21.4248 O   0  0  0  0  0  0
  -22.3530  -14.5527   20.6657 O   0  0  0  0  0  0
  -24.6248  -31.8615   23.2015 C   0  0  0  0  0  0
  -25.9093  -32.4801   23.8355 C   0  0  1  0  0  0
  -27.2406  -27.3265   20.1162 C   0  0  0  0  0  0
  -25.5890  -33.8596   24.2276 N   0  0  0  0  0  0
  -23.4193  -30.4849   21.5414 C   0  0  2  0  0  0
  -24.8712  -28.9402   20.1074 C   0  0  0  0  0  0
  -22.7468  -29.4660   22.4915 C   0  0  0  0  0  0
  -18.0290  -28.1407   22.8481 C   0  0  0  0  0  0
  -24.1487  -36.7316   23.2642 C   0  0  0  0  0  0
  -25.9596  -30.7906   21.3766 C   0  0  0  0  0  0
  -26.0353  -29.4171   20.7230 C   0  0  0  0  0  0
  -27.2158  -28.6189   20.7254 C   0  0  0  0  0  0
  -26.0559  -26.9122   19.4589 C   0  0  0  0  0  0
  -24.8843  -27.6929   19.4660 C   0  0  0  0  0  0
  -23.6363  -29.8170   20.1577 C   0  0  0  0  0  0
  -25.4110  -36.3096   24.0336 C   0  0  1  0  0  0
  -20.5892  -28.3718   23.1261 C   0  0  2  0  0  0
  -20.6775  -26.9434   22.5402 C   0  0  0  0  0  0
  -19.5758  -26.6397   21.5201 C   0  0  0  0  0  0
  -18.1939  -26.7948   22.1621 C   0  0  0  0  0  0
  -19.1543  -28.8876   23.2876 C   0  0  0  0  0  0
  -18.9469  -30.1464   23.8912 C   0  0  0  0  0  0
  -17.6479  -30.6599   24.0568 C   0  0  0  0  0  0
  -25.9045  -34.9470   23.5122 C   0  0  0  0  0  0
  -16.5367  -29.9109   23.6327 C   0  0  0  0  0  0
  -16.7276  -28.6525   23.0343 C   0  0  0  0  0  0
  -26.4467  -31.6612   25.0737 C   0  0  0  0  0  0
  -25.3694  -31.3756   26.1467 C   0  0  0  0  0  0
  -27.0297  -30.3027   24.6202 C   0  0  0  0  0  0
  -27.6047  -32.4339   25.7475 C   0  0  0  0  0  0
  -27.5585  -37.1812   24.8466 C   0  0  0  0  0  0
  -21.4187  -29.3071   22.3642 N   0  0  0  0  0  0
  -26.4290  -37.3788   23.9412 N   0  0  0  0  0  0
  -24.6862  -31.0628   22.0966 N   0  0  0  0  0  0
  -23.4186  -28.8217   23.3013 O   0  0  0  0  0  0
  -28.3790  -26.4995   20.2000 O   0  0  0  0  0  0
  -26.5618  -34.8932   22.4693 O   0  0  0  0  0  0
  -23.5414  -32.1417   23.7344 O   0  0  0  0  0  0
  -30.9584  -17.8638   21.3998 C   0  0  0  0  0  0
  -28.8565  -17.8779   20.2368 C   0  0  0  0  0  0
  -30.9256  -19.2957   21.4569 C   0  0  0  0  0  0
  -29.9159  -17.1165   20.7966 C   0  0  0  0  0  0
  -29.8614  -20.0617   20.8818 C   0  0  0  0  0  0
  -28.8255  -19.3004   20.2688 C   0  0  0  0  0  0
  -29.8501  -22.2679   18.6361 C   0  0  0  0  0  0
  -32.0482  -19.9999   22.2028 C   0  0  0  0  0  0
  -28.9687  -21.7068   17.5290 C   0  0  0  0  0  0
  -28.7104  -25.2944   18.1899 C   0  0  0  0  0  0
  -29.2781  -24.0252   20.4387 C   0  0  0  0  0  0
  -29.2157  -22.4645   20.0255 C   0  0  2  0  0  0
  -28.3667  -25.1119   19.6820 C   0  0  1  0  0  0
  -29.7923  -15.6624   20.8701 N   0  0  0  0  0  0
  -29.8565  -21.5020   20.9852 N   0  0  0  0  0  0
  -31.0382  -22.5078   18.4079 O   0  0  0  0  0  0
  -27.7540  -19.9292   19.7278 F   0  0  0  0  0  0
  -31.4870  -12.5255   19.1486 H   0  0  0  0  0  0
  -30.3867  -11.3969   19.8902 H   0  0  0  0  0  0
  -29.7847  -11.7691   17.4717 H   0  0  0  0  0  0
  -29.6445  -13.4845   17.7475 H   0  0  0  0  0  0
  -27.8846  -11.2850   18.8831 H   0  0  0  0  0  0
  -27.3771  -12.5505   17.7931 H   0  0  0  0  0  0
  -27.6744  -14.2451   19.5139 H   0  0  0  0  0  0
  -28.7109  -12.0370   21.3643 H   0  0  0  0  0  0
  -28.4447  -13.6810   21.8485 H   0  0  0  0  0  0
  -25.2777   -9.5665   22.4743 H   0  0  0  0  0  0
  -23.9999   -7.4625   22.7478 H   0  0  0  0  0  0
  -21.0825   -8.8787   19.8964 H   0  0  0  0  0  0
  -22.3701  -10.9676   19.6158 H   0  0  0  0  0  0
  -21.2032   -7.6150   23.9735 H   0  0  0  0  0  0
  -21.1478   -6.0513   25.9087 H   0  0  0  0  0  0
  -22.0591   -2.7616   23.2816 H   0  0  0  0  0  0
  -22.4067  -11.9964   22.4873 H   0  0  0  0  0  0
  -21.1116  -13.1327   22.2577 H   0  0  0  0  0  0
  -24.6492  -15.8329   20.5239 H   0  0  0  0  0  0
  -26.2610  -15.6344   20.0676 H   0  0  0  0  0  0
  -26.7173  -32.5459   23.1117 H   0  0  0  0  0  0
  -24.9973  -33.9727   25.0368 H   0  0  0  0  0  0
  -22.7129  -31.3052   21.3950 H   0  0  0  0  0  0
  -23.3742  -35.9658   23.3317 H   0  0  0  0  0  0
  -24.3573  -36.8920   22.2053 H   0  0  0  0  0  0
  -23.7256  -37.6533   23.6649 H   0  0  0  0  0  0
  -26.0907  -31.5505   20.6054 H   0  0  0  0  0  0
  -26.8408  -30.8423   22.0051 H   0  0  0  0  0  0
  -28.1059  -28.9762   21.2242 H   0  0  0  0  0  0
  -25.9981  -25.9774   18.9243 H   0  0  0  0  0  0
  -24.0006  -27.3298   18.9594 H   0  0  0  0  0  0
  -23.7503  -30.5902   19.3970 H   0  0  0  0  0  0
  -22.7586  -29.2421   19.8583 H   0  0  0  0  0  0
  -25.1290  -36.1963   25.0826 H   0  0  0  0  0  0
  -20.9982  -28.3316   24.1386 H   0  0  0  0  0  0
  -20.5657  -26.2343   23.3617 H   0  0  0  0  0  0
  -21.6648  -26.7468   22.1213 H   0  0  0  0  0  0
  -19.6922  -25.6302   21.1247 H   0  0  0  0  0  0
  -19.6689  -27.3192   20.6715 H   0  0  0  0  0  0
  -17.4195  -26.6677   21.4032 H   0  0  0  0  0  0
  -18.0362  -26.0094   22.9028 H   0  0  0  0  0  0
  -19.7942  -30.7263   24.2307 H   0  0  0  0  0  0
  -17.5037  -31.6272   24.5177 H   0  0  0  0  0  0
  -15.5375  -30.3028   23.7632 H   0  0  0  0  0  0
  -15.8670  -28.0848   22.7074 H   0  0  0  0  0  0
  -24.5862  -30.7117   25.7794 H   0  0  0  0  0  0
  -24.8885  -32.2920   26.4900 H   0  0  0  0  0  0
  -25.8008  -30.8924   27.0243 H   0  0  0  0  0  0
  -26.2864  -29.6796   24.1221 H   0  0  0  0  0  0
  -27.3966  -29.7284   25.4719 H   0  0  0  0  0  0
  -27.8749  -30.4305   23.9440 H   0  0  0  0  0  0
  -27.2687  -33.3648   26.2057 H   0  0  0  0  0  0
  -28.3826  -32.6898   25.0268 H   0  0  0  0  0  0
  -28.0752  -31.8468   26.5372 H   0  0  0  0  0  0
  -28.2626  -38.0086   24.7483 H   0  0  0  0  0  0
  -28.1053  -36.2621   24.6316 H   0  0  0  0  0  0
  -27.2298  -37.1495   25.8866 H   0  0  0  0  0  0
  -20.9374  -29.8782   21.6836 H   0  0  0  0  0  0
  -26.0193  -38.2877   24.1376 H   0  0  0  0  0  0
  -31.7717  -17.3314   21.8742 H   0  0  0  0  0  0
  -28.0260  -17.3664   19.7755 H   0  0  0  0  0  0
  -32.8978  -19.3359   22.3669 H   0  0  0  0  0  0
  -31.6993  -20.3348   23.1810 H   0  0  0  0  0  0
  -32.4085  -20.8674   21.6501 H   0  0  0  0  0  0
  -27.9914  -22.1877   17.5361 H   0  0  0  0  0  0
  -28.8250  -20.6373   17.6685 H   0  0  0  0  0  0
  -29.4321  -21.8654   16.5563 H   0  0  0  0  0  0
  -28.5062  -24.4075   17.5979 H   0  0  0  0  0  0
  -29.7582  -25.5613   18.0504 H   0  0  0  0  0  0
  -28.1181  -26.0908   17.7384 H   0  0  0  0  0  0
  -30.3141  -24.3631   20.3906 H   0  0  0  0  0  0
  -29.0107  -24.0838   21.4934 H   0  0  0  0  0  0
  -28.1604  -22.2002   19.9746 H   0  0  0  0  0  0
  -27.3648  -24.6998   19.7768 H   0  0  0  0  0  0
  -28.8563  -15.3331   21.0477 H   0  0  0  0  0  0
  -30.6667  -21.8813   21.4622 H   0  0  0  0  0  0
  1 25  1  0  0  0
  1 30  2  0  0  0
  1 84  1  0  0  0
  2  3  1  0  0  0
  2 25  1  0  0  0
  2 88  1  0  0  0
  2 89  1  0  0  0
  3  4  1  0  0  0
  3 90  1  0  0  0
  3 91  1  0  0  0
  4  5  1  0  0  0
  4 92  1  0  0  0
  4 93  1  0  0  0
  5  6  1  0  0  0
  5 26  1  0  0  0
  5 94  1  0  0  0
  6 25  1  0  0  0
  6 95  1  0  0  0
  6 96  1  0  0  0
  7  8  2  0  0  0
  7 26  1  0  0  0
  7 29  1  0  0  0
  8  9  1  0  0  0
  8 22  1  0  0  0
  9 10  1  0  0  0
  9 27  2  0  0  0
 10 11  2  0  0  0
 10 15  1  0  0  0
 11 12  1  0  0  0
 11 97  1  0  0  0
 12 13  2  0  0  0
 12 98  1  0  0  0
 13 14  1  0  0  0
 13 31  1  0  0  0
 14 15  2  0  0  0
 14 99  1  0  0  0
 15100  1  0  0  0
 16 17  2  0  0  0
 16 21  1  0  0  0
 16 31  1  0  0  0
 17 18  1  0  0  0
 17101  1  0  0  0
 18 19  2  0  0  0
 18102  1  0  0  0
 19 20  1  0  0  0
 19 24  1  0  0  0
 20 21  2  0  0  0
 20103  1  0  0  0
 21 23  1  0  0  0
 22 28  1  0  0  0
 22 32  2  0  0  0
 26 27  1  0  0  0
 28104  1  0  0  0
 28105  1  0  0  0
 29106  1  0  0  0
 29107  1  0  0  0
 33 34  1  0  0  0
 33 66  1  0  0  0
 33 70  2  0  0  0
 34 36  1  0  0  0
 34 59  1  0  0  0
 34108  1  0  0  0
 35 44  2  0  0  0
 35 45  1  0  0  0
 35 68  1  0  0  0
 36 56  1  0  0  0
 36109  1  0  0  0
 37 39  1  0  0  0
 37 47  1  0  0  0
 37 66  1  0  0  0
 37110  1  0  0  0
 38 43  2  0  0  0
 38 46  1  0  0  0
 38 47  1  0  0  0
 39 64  1  0  0  0
 39 67  2  0  0  0
 40 52  1  0  0  0
 40 53  2  0  0  0
 40 58  1  0  0  0
 41111  1  0  0  0
 41112  1  0  0  0
 41113  1  0  0  0
 41 48  1  0  0  0
 42 43  1  0  0  0
 42 66  1  0  0  0
 42114  1  0  0  0
 42115  1  0  0  0
 43 44  1  0  0  0
 44116  1  0  0  0
 45 46  2  0  0  0
 45117  1  0  0  0
 46118  1  0  0  0
 47119  1  0  0  0
 47120  1  0  0  0
 48 56  1  0  0  0
 48 65  1  0  0  0
 48121  1  0  0  0
 49 50  1  0  0  0
 49 53  1  0  0  0
 49 64  1  0  0  0
 49122  1  0  0  0
 50 51  1  0  0  0
 50123  1  0  0  0
 50124  1  0  0  0
 51 52  1  0  0  0
 51125  1  0  0  0
 51126  1  0  0  0
 52127  1  0  0  0
 52128  1  0  0  0
 53 54  1  0  0  0
 54 55  2  0  0  0
 54129  1  0  0  0
 55 57  1  0  0  0
 55130  1  0  0  0
 56 69  2  0  0  0
 57 58  2  0  0  0
 57131  1  0  0  0
 58132  1  0  0  0
 59 60  1  0  0  0
 59 61  1  0  0  0
 59 62  1  0  0  0
 60133  1  0  0  0
 60134  1  0  0  0
 60135  1  0  0  0
 61136  1  0  0  0
 61137  1  0  0  0
 61138  1  0  0  0
 62139  1  0  0  0
 62140  1  0  0  0
 62141  1  0  0  0
 63 65  1  0  0  0
 63142  1  0  0  0
 63143  1  0  0  0
 63144  1  0  0  0
 64145  1  0  0  0
 65146  1  0  0  0
 68 83  1  0  0  0
 71 73  2  0  0  0
 71 74  1  0  0  0
 71147  1  0  0  0
 72 74  2  0  0  0
 72 76  1  0  0  0
 72148  1  0  0  0
 73 75  1  0  0  0
 73 78  1  0  0  0
 74 84  1  0  0  0
 75 76  2  0  0  0
 75 85  1  0  0  0
 76 87  1  0  0  0
 77 79  1  0  0  0
 77 82  1  0  0  0
 77 86  2  0  0  0
 78149  1  0  0  0
 78150  1  0  0  0
 78151  1  0  0  0
 79152  1  0  0  0
 79153  1  0  0  0
 79154  1  0  0  0
 80155  1  0  0  0
 80156  1  0  0  0
 80157  1  0  0  0
 80 83  1  0  0  0
 81 83  1  0  0  0
 81158  1  0  0  0
 81159  1  0  0  0
 81 82  1  0  0  0
 82 85  1  0  0  0
 82160  1  0  0  0
 83161  1  0  0  0
 84162  1  0  0  0
 85163  1  0  0  0
M  ISO  4   1 100  68 101  83 101  84 100
M  END
> <chiral flag>
0

> <version>
0

> <s_m_source_file>
/data/baiqing/PycharmProjects/Reinvent-master-3.2/result/LINK_invent/BTK/process_docking_weight1_custom_product_contain_oxygen_bond_distance_aromatic_linkinvent_7_9_3/rearranged_h_0174.sdf

> <i_m_source_file_index>
79

> <r_mmod_Potential_Energy-OPLS-2005>
47.35595703125

> <r_mmod_Stretch_Energy-OPLS-2005>
86.2082366943359

> <r_mmod_Bend_Energy-OPLS-2005>
154.087677001953

> <r_mmod_Torsional_Energy-OPLS-2005>
215.840515136719

> <r_mmod_Improper_Torsional_Energy-OPLS-2005>
7.71917247772217

> <r_mmod_Van_der_Waal_Energy-OPLS-2005>
146.257446289062

> <r_mmod_Electrostatic_Energy-OPLS-2005>
-387.015899658203

> <r_mmod_Solvation_Energy-OPLS-2005>
-222.712753295898

> <b_mmod_Minimization_Converged-OPLS-2005>
0

> <r_mmod_RMS_Derivative-OPLS-2005>
3.05554938316345

$$$$
79
                    3D
 Structure written by MMmdl.
154162  0  0  1  0            999 V2000
  -30.6939  -14.4291   20.6408 C   0  0  0  0  0  0
  -30.4357  -12.3036   19.4015 C   0  0  0  0  0  0
  -29.4960  -12.5230   18.1971 C   0  0  0  0  0  0
  -28.0158  -12.3811   18.6068 C   0  0  0  0  0  0
  -27.6696  -13.1956   19.8810 C   0  0  2  0  0  0
  -28.7064  -12.9148   20.9903 C   0  0  0  0  0  0
  -25.2642  -13.8141   20.5679 C   0  0  0  0  0  0
  -24.1873  -13.0439   20.9170 C   0  0  0  0  0  0
  -24.6399  -11.6898   20.8722 C   0  0  0  0  0  0
  -23.9055  -10.4293   21.0405 C   0  0  0  0  0  0
  -24.3608   -9.4212   21.9185 C   0  0  0  0  0  0
  -23.6286   -8.2248   22.0753 C   0  0  0  0  0  0
  -22.4267   -8.0284   21.3542 C   0  0  0  0  0  0
  -21.9897   -9.0260   20.4646 C   0  0  0  0  0  0
  -22.7224  -10.2142   20.3056 C   0  0  0  0  0  0
  -21.6852   -6.0734   22.5280 C   0  0  0  0  0  0
  -21.4010   -6.5639   23.8214 C   0  0  0  0  0  0
  -21.3659   -5.6789   24.9175 C   0  0  0  0  0  0
  -21.6041   -4.3050   24.7228 C   0  0  0  0  0  0
  -21.8820   -3.8140   23.4351 C   0  0  0  0  0  0
  -21.9196   -4.6957   22.3405 C   0  0  0  0  0  0
  -22.7899  -13.5262   21.1843 C   0  0  0  0  0  0
  -22.1668   -4.2142   21.0983 F   0  0  0  0  0  0
  -21.5628   -3.4537   25.7742 F   0  0  0  0  0  0
  -30.0479  -13.2439   20.4633 N   0  0  0  0  0  0
  -26.3061  -12.9281   20.3358 N   0  0  0  0  0  0
  -25.9319  -11.6453   20.5734 N   0  0  0  0  0  0
  -22.0511  -12.8270   22.0390 N   0  0  0  0  0  0
  -25.4422  -15.1856   20.4107 N   0  0  0  0  0  0
  -31.7623  -14.7024   20.0788 O   0  0  0  0  0  0
  -21.6636   -6.8879   21.4242 O   0  0  0  0  0  0
  -22.3601  -14.5577   20.6698 O   0  0  0  0  0  0
  -24.6123  -31.8686   23.2110 C   0  0  0  0  0  0
  -25.9031  -32.4821   23.8399 C   0  0  1  0  0  0
  -27.2401  -27.4583   20.0933 C   0  0  0  0  0  0
  -25.5910  -33.8618   24.2341 N   0  0  0  0  0  0
  -23.4003  -30.4904   21.5510 C   0  0  2  0  0  0
  -24.8492  -28.9574   20.1163 C   0  0  0  0  0  0
  -22.7397  -29.4650   22.4995 C   0  0  0  0  0  0
  -18.0277  -28.1355   22.8491 C   0  0  0  0  0  0
  -24.1490  -36.7308   23.2636 C   0  0  0  0  0  0
  -25.9264  -30.8415   21.3601 C   0  0  0  0  0  0
  -26.0075  -29.4767   20.7098 C   0  0  0  0  0  0
  -27.2091  -28.7342   20.6960 C   0  0  0  0  0  0
  -26.0687  -26.9446   19.4996 C   0  0  0  0  0  0
  -24.8734  -27.6883   19.5099 C   0  0  0  0  0  0
  -23.6078  -29.8193   20.1667 C   0  0  0  0  0  0
  -25.4108  -36.3107   24.0336 C   0  0  1  0  0  0
  -20.5865  -28.3642   23.1312 C   0  0  2  0  0  0
  -20.6768  -26.9377   22.5406 C   0  0  0  0  0  0
  -19.5746  -26.6369   21.5199 C   0  0  0  0  0  0
  -18.1927  -26.7906   22.1614 C   0  0  0  0  0  0
  -19.1526  -28.8814   23.2901 C   0  0  0  0  0  0
  -18.9454  -30.1426   23.8901 C   0  0  0  0  0  0
  -17.6458  -30.6561   24.0555 C   0  0  0  0  0  0
  -25.9031  -34.9472   23.5132 C   0  0  0  0  0  0
  -16.5348  -29.9062   23.6320 C   0  0  0  0  0  0
  -16.7268  -28.6476   23.0348 C   0  0  0  0  0  0
  -26.4476  -31.6587   25.0708 C   0  0  0  0  0  0
  -25.3763  -31.3692   26.1470 C   0  0  0  0  0  0
  -27.0293  -30.3037   24.6049 C   0  0  0  0  0  0
  -27.6073  -32.4282   25.7462 C   0  0  0  0  0  0
  -27.5582  -37.1808   24.8464 C   0  0  0  0  0  0
  -21.4131  -29.3014   22.3724 N   0  0  0  0  0  0
  -26.4299  -37.3784   23.9401 N   0  0  0  0  0  0
  -24.6645  -31.0805   22.0998 N   0  0  0  0  0  0
  -23.4173  -28.8193   23.3035 O   0  0  0  0  0  0
  -28.3942  -26.7139   20.0713 O   0  0  0  0  0  0
  -26.5582  -34.8920   22.4686 O   0  0  0  0  0  0
  -23.5322  -32.1428   23.7520 O   0  0  0  0  0  0
  -28.6725  -17.1184   21.9674 C   0  0  0  0  0  0
  -30.5177  -18.8643   20.9619 C   0  0  0  0  0  0
  -28.3643  -18.4946   21.9967 C   0  0  0  0  0  0
  -29.3168  -19.4089   21.4748 C   0  0  0  0  0  0
  -29.8881  -16.6628   21.4325 C   0  0  0  0  0  0
  -28.3698  -25.5557   20.8089 C   0  0  0  0  0  0
  -29.0160  -24.4308   20.4410 C   0  0  0  0  0  0
  -28.9454  -23.2097   21.3077 C   0  0  0  0  0  0
  -29.6242  -21.8540   20.8793 C   0  0  0  0  0  0
  -27.0108  -18.9436   22.5544 C   0  0  0  0  0  0
  -30.7931  -17.5385   20.9403 N   0  0  0  0  0  0
  -29.0511  -20.8185   21.5235 N   0  0  0  0  0  0
  -30.0569  -15.2565   21.4871 N   0  0  0  0  0  0
  -28.3233  -23.2304   22.3800 O   0  0  0  0  0  0
  -30.5587  -21.7527   20.0779 O   0  0  0  0  0  0
  -29.7139  -24.4091   19.2951 O   0  0  0  0  0  0
  -26.3939  -17.9656   23.2210 F   0  0  0  0  0  0
  -27.1634  -19.9743   23.3871 F   0  0  0  0  0  0
  -26.2287  -19.3228   21.5440 F   0  0  0  0  0  0
  -31.4768  -12.4268   19.0962 H   0  0  0  0  0  0
  -30.3561  -11.2786   19.7675 H   0  0  0  0  0  0
  -29.7315  -11.8111   17.4050 H   0  0  0  0  0  0
  -29.6643  -13.5152   17.7757 H   0  0  0  0  0  0
  -27.8175  -11.3223   18.7776 H   0  0  0  0  0  0
  -27.3680  -12.6808   17.7823 H   0  0  0  0  0  0
  -27.7323  -14.2517   19.6178 H   0  0  0  0  0  0
  -28.6808  -11.8585   21.2624 H   0  0  0  0  0  0
  -28.4436  -13.4426   21.9075 H   0  0  0  0  0  0
  -25.2758   -9.5680   22.4758 H   0  0  0  0  0  0
  -23.9992   -7.4635   22.7472 H   0  0  0  0  0  0
  -21.0825   -8.8785   19.8957 H   0  0  0  0  0  0
  -22.3691  -10.9684   19.6166 H   0  0  0  0  0  0
  -21.2001   -7.6147   23.9719 H   0  0  0  0  0  0
  -21.1478   -6.0518   25.9079 H   0  0  0  0  0  0
  -22.0601   -2.7599   23.2859 H   0  0  0  0  0  0
  -22.4100  -11.9927   22.4788 H   0  0  0  0  0  0
  -21.1134  -13.1331   22.2576 H   0  0  0  0  0  0
  -24.6765  -15.8426   20.5107 H   0  0  0  0  0  0
  -26.2903  -15.6149   20.0636 H   0  0  0  0  0  0
  -26.7099  -32.5546   23.1168 H   0  0  0  0  0  0
  -25.0132  -33.9778   25.0536 H   0  0  0  0  0  0
  -22.6881  -31.3060   21.4116 H   0  0  0  0  0  0
  -23.3737  -35.9657   23.3313 H   0  0  0  0  0  0
  -24.3602  -36.8898   22.2050 H   0  0  0  0  0  0
  -23.7249  -37.6523   23.6633 H   0  0  0  0  0  0
  -26.0346  -31.6073   20.5908 H   0  0  0  0  0  0
  -26.8158  -30.8971   21.9756 H   0  0  0  0  0  0
  -28.1058  -29.1307   21.1516 H   0  0  0  0  0  0
  -26.0875  -25.9710   19.0300 H   0  0  0  0  0  0
  -23.9833  -27.2813   19.0499 H   0  0  0  0  0  0
  -23.7071  -30.5910   19.4024 H   0  0  0  0  0  0
  -22.7330  -29.2342   19.8773 H   0  0  0  0  0  0
  -25.1278  -36.1987   25.0825 H   0  0  0  0  0  0
  -20.9966  -28.3205   24.1429 H   0  0  0  0  0  0
  -20.5660  -26.2244   23.3590 H   0  0  0  0  0  0
  -21.6642  -26.7416   22.1205 H   0  0  0  0  0  0
  -19.6905  -25.6286   21.1211 H   0  0  0  0  0  0
  -19.6678  -27.3190   20.6739 H   0  0  0  0  0  0
  -17.4196  -26.6648   21.4020 H   0  0  0  0  0  0
  -18.0328  -26.0037   22.8998 H   0  0  0  0  0  0
  -19.7930  -30.7247   24.2257 H   0  0  0  0  0  0
  -17.5006  -31.6243   24.5153 H   0  0  0  0  0  0
  -15.5349  -30.2966   23.7629 H   0  0  0  0  0  0
  -15.8669  -28.0794   22.7064 H   0  0  0  0  0  0
  -24.5919  -30.7053   25.7815 H   0  0  0  0  0  0
  -24.8979  -32.2852   26.4950 H   0  0  0  0  0  0
  -25.8134  -30.8836   27.0205 H   0  0  0  0  0  0
  -26.2813  -29.6794   24.1146 H   0  0  0  0  0  0
  -27.4133  -29.7271   25.4476 H   0  0  0  0  0  0
  -27.8618  -30.4372   23.9136 H   0  0  0  0  0  0
  -27.2729  -33.3585   26.2067 H   0  0  0  0  0  0
  -28.3881  -32.6825   25.0278 H   0  0  0  0  0  0
  -28.0736  -31.8371   26.5357 H   0  0  0  0  0  0
  -28.2612  -38.0096   24.7508 H   0  0  0  0  0  0
  -28.1070  -36.2632   24.6298 H   0  0  0  0  0  0
  -27.2301  -37.1461   25.8868 H   0  0  0  0  0  0
  -20.9279  -29.8754   21.6967 H   0  0  0  0  0  0
  -26.0190  -38.2862   24.1397 H   0  0  0  0  0  0
  -27.9497  -16.4123   22.3515 H   0  0  0  0  0  0
  -31.3080  -19.4881   20.5770 H   0  0  0  0  0  0
  -27.7795  -25.6507   21.7131 H   0  0  0  0  0  0
  -28.3127  -21.1365   22.1436 H   0  0  0  0  0  0
  -29.3213  -14.7801   21.9824 H   0  0  0  0  0  0
  -29.6259  -25.2718   18.9085 H   0  0  0  0  0  0
  1 25  1  0  0  0
  1 30  2  0  0  0
  1 83  1  0  0  0
  2  3  1  0  0  0
  2 25  1  0  0  0
  2 90  1  0  0  0
  2 91  1  0  0  0
  3  4  1  0  0  0
  3 92  1  0  0  0
  3 93  1  0  0  0
  4  5  1  0  0  0
  4 94  1  0  0  0
  4 95  1  0  0  0
  5  6  1  0  0  0
  5 26  1  0  0  0
  5 96  1  0  0  0
  6 25  1  0  0  0
  6 97  1  0  0  0
  6 98  1  0  0  0
  7  8  2  0  0  0
  7 26  1  0  0  0
  7 29  1  0  0  0
  8  9  1  0  0  0
  8 22  1  0  0  0
  9 10  1  0  0  0
  9 27  2  0  0  0
 10 11  2  0  0  0
 10 15  1  0  0  0
 11 12  1  0  0  0
 11 99  1  0  0  0
 12 13  2  0  0  0
 12100  1  0  0  0
 13 14  1  0  0  0
 13 31  1  0  0  0
 14 15  2  0  0  0
 14101  1  0  0  0
 15102  1  0  0  0
 16 17  2  0  0  0
 16 21  1  0  0  0
 16 31  1  0  0  0
 17 18  1  0  0  0
 17103  1  0  0  0
 18 19  2  0  0  0
 18104  1  0  0  0
 19 20  1  0  0  0
 19 24  1  0  0  0
 20 21  2  0  0  0
 20105  1  0  0  0
 21 23  1  0  0  0
 22 28  1  0  0  0
 22 32  2  0  0  0
 26 27  1  0  0  0
 28106  1  0  0  0
 28107  1  0  0  0
 29108  1  0  0  0
 29109  1  0  0  0
 33 34  1  0  0  0
 33 66  1  0  0  0
 33 70  2  0  0  0
 34 36  1  0  0  0
 34 59  1  0  0  0
 34110  1  0  0  0
 35 44  2  0  0  0
 35 45  1  0  0  0
 35 68  1  0  0  0
 36 56  1  0  0  0
 36111  1  0  0  0
 37 39  1  0  0  0
 37 47  1  0  0  0
 37 66  1  0  0  0
 37112  1  0  0  0
 38 43  2  0  0  0
 38 46  1  0  0  0
 38 47  1  0  0  0
 39 64  1  0  0  0
 39 67  2  0  0  0
 40 52  1  0  0  0
 40 53  2  0  0  0
 40 58  1  0  0  0
 41113  1  0  0  0
 41114  1  0  0  0
 41115  1  0  0  0
 41 48  1  0  0  0
 42 43  1  0  0  0
 42 66  1  0  0  0
 42116  1  0  0  0
 42117  1  0  0  0
 43 44  1  0  0  0
 44118  1  0  0  0
 45 46  2  0  0  0
 45119  1  0  0  0
 46120  1  0  0  0
 47121  1  0  0  0
 47122  1  0  0  0
 48 56  1  0  0  0
 48 65  1  0  0  0
 48123  1  0  0  0
 49 50  1  0  0  0
 49 53  1  0  0  0
 49 64  1  0  0  0
 49124  1  0  0  0
 50 51  1  0  0  0
 50125  1  0  0  0
 50126  1  0  0  0
 51 52  1  0  0  0
 51127  1  0  0  0
 51128  1  0  0  0
 52129  1  0  0  0
 52130  1  0  0  0
 53 54  1  0  0  0
 54 55  2  0  0  0
 54131  1  0  0  0
 55 57  1  0  0  0
 55132  1  0  0  0
 56 69  2  0  0  0
 57 58  2  0  0  0
 57133  1  0  0  0
 58134  1  0  0  0
 59 60  1  0  0  0
 59 61  1  0  0  0
 59 62  1  0  0  0
 60135  1  0  0  0
 60136  1  0  0  0
 60137  1  0  0  0
 61138  1  0  0  0
 61139  1  0  0  0
 61140  1  0  0  0
 62141  1  0  0  0
 62142  1  0  0  0
 62143  1  0  0  0
 63 65  1  0  0  0
 63144  1  0  0  0
 63145  1  0  0  0
 63146  1  0  0  0
 64147  1  0  0  0
 65148  1  0  0  0
 68 76  1  0  0  0
 71 73  2  0  0  0
 71 75  1  0  0  0
 71149  1  0  0  0
 72 74  2  0  0  0
 72 81  1  0  0  0
 72150  1  0  0  0
 73 74  1  0  0  0
 73 80  1  0  0  0
 74 82  1  0  0  0
 75 81  2  0  0  0
 75 83  1  0  0  0
 76 77  2  0  0  0
 76151  1  0  0  0
 77 78  1  0  0  0
 77 86  1  0  0  0
 78 79  1  0  0  0
 78 84  2  0  0  0
 79 82  1  0  0  0
 79 85  2  0  0  0
 80 87  1  0  0  0
 80 88  1  0  0  0
 80 89  1  0  0  0
 82152  1  0  0  0
 83153  1  0  0  0
 86154  1  0  0  0
M  ISO  4   1 100  68 101  76 101  83 100
M  END
> <chiral flag>
0

> <version>
0

> <s_m_source_file>
/data/baiqing/PycharmProjects/Reinvent-master-3.2/result/LINK_invent/BTK/process_docking_weight1_custom_product_contain_oxygen_bond_distance_aromatic_linkinvent_7_9_3/rearranged_h_0174.sdf

> <i_m_source_file_index>
80

> <r_mmod_Potential_Energy-OPLS-2005>
-87.8233489990234

> <r_mmod_Stretch_Energy-OPLS-2005>
40.2209587097168

> <r_mmod_Bend_Energy-OPLS-2005>
115.417167663574

> <r_mmod_Torsional_Energy-OPLS-2005>
216.876037597656

> <r_mmod_Improper_Torsional_Energy-OPLS-2005>
3.97137379646301

> <r_mmod_Van_der_Waal_Energy-OPLS-2005>
165.826370239258

> <r_mmod_Electrostatic_Energy-OPLS-2005>
-385.995178222656

> <r_mmod_Solvation_Energy-OPLS-2005>
-252.620498657227

> <b_mmod_Minimization_Converged-OPLS-2005>
0

> <r_mmod_RMS_Derivative-OPLS-2005>
1.23101890087128

$$$$
80
                    3D
 Structure written by MMmdl.
160168  0  0  1  0            999 V2000
  -30.8356  -14.3511   20.4763 C   0  0  0  0  0  0
  -30.3960  -12.2062   19.4083 C   0  0  0  0  0  0
  -29.4553  -12.4193   18.1986 C   0  0  0  0  0  0
  -27.9950  -12.2825   18.6573 C   0  0  0  0  0  0
  -27.6562  -13.1846   19.8709 C   0  0  2  0  0  0
  -28.7230  -13.0461   20.9922 C   0  0  0  0  0  0
  -25.2608  -13.8074   20.5761 C   0  0  0  0  0  0
  -24.1809  -13.0389   20.9237 C   0  0  0  0  0  0
  -24.6330  -11.6867   20.8849 C   0  0  0  0  0  0
  -23.8934  -10.4275   21.0480 C   0  0  0  0  0  0
  -24.3496   -9.4191   21.9249 C   0  0  0  0  0  0
  -23.6198   -8.2225   22.0761 C   0  0  0  0  0  0
  -22.4202   -8.0258   21.3554 C   0  0  0  0  0  0
  -21.9843   -9.0226   20.4666 C   0  0  0  0  0  0
  -22.7114  -10.2132   20.3090 C   0  0  0  0  0  0
  -21.6840   -6.0689   22.5276 C   0  0  0  0  0  0
  -21.3980   -6.5618   23.8195 C   0  0  0  0  0  0
  -21.3658   -5.6818   24.9197 C   0  0  0  0  0  0
  -21.6035   -4.3067   24.7281 C   0  0  0  0  0  0
  -21.8791   -3.8126   23.4411 C   0  0  0  0  0  0
  -21.9144   -4.6920   22.3434 C   0  0  0  0  0  0
  -22.7835  -13.5258   21.1821 C   0  0  0  0  0  0
  -22.1639   -4.2081   21.1031 F   0  0  0  0  0  0
  -21.5647   -3.4569   25.7802 F   0  0  0  0  0  0
  -30.0646  -13.2347   20.4072 N   0  0  0  0  0  0
  -26.3026  -12.9215   20.3513 N   0  0  0  0  0  0
  -25.9290  -11.6425   20.6011 N   0  0  0  0  0  0
  -22.0394  -12.8361   22.0427 N   0  0  0  0  0  0
  -25.4390  -15.1783   20.4129 N   0  0  0  0  0  0
  -32.0387  -14.3780   20.2043 O   0  0  0  0  0  0
  -21.6617   -6.8817   21.4215 O   0  0  0  0  0  0
  -22.3594  -14.5588   20.6647 O   0  0  0  0  0  0
  -24.6093  -31.8672   23.2143 C   0  0  0  0  0  0
  -25.8986  -32.4827   23.8432 C   0  0  1  0  0  0
  -27.2470  -27.5129   20.0686 C   0  0  0  0  0  0
  -25.5812  -33.8646   24.2364 N   0  0  0  0  0  0
  -23.3920  -30.4944   21.5559 C   0  0  2  0  0  0
  -24.8354  -28.9659   20.1067 C   0  0  0  0  0  0
  -22.7337  -29.4686   22.5092 C   0  0  0  0  0  0
  -18.0216  -28.1366   22.8460 C   0  0  0  0  0  0
  -24.1461  -36.7351   23.2640 C   0  0  0  0  0  0
  -25.9020  -30.8695   21.3379 C   0  0  0  0  0  0
  -25.9860  -29.5004   20.7011 C   0  0  0  0  0  0
  -27.1927  -28.7754   20.6924 C   0  0  0  0  0  0
  -26.0942  -26.9851   19.4533 C   0  0  0  0  0  0
  -24.8832  -27.7066   19.4769 C   0  0  0  0  0  0
  -23.5886  -29.8186   20.1676 C   0  0  0  0  0  0
  -25.4127  -36.3136   24.0302 C   0  0  1  0  0  0
  -20.5817  -28.3620   23.1327 C   0  0  2  0  0  0
  -20.6714  -26.9351   22.5381 C   0  0  0  0  0  0
  -19.5691  -26.6379   21.5165 C   0  0  0  0  0  0
  -18.1903  -26.7905   22.1625 C   0  0  0  0  0  0
  -19.1470  -28.8808   23.2888 C   0  0  0  0  0  0
  -18.9407  -30.1461   23.8857 C   0  0  0  0  0  0
  -17.6406  -30.6559   24.0608 C   0  0  0  0  0  0
  -25.8974  -34.9488   23.5116 C   0  0  0  0  0  0
  -16.5299  -29.9066   23.6353 C   0  0  0  0  0  0
  -16.7224  -28.6509   23.0317 C   0  0  0  0  0  0
  -26.4454  -31.6596   25.0718 C   0  0  0  0  0  0
  -25.3781  -31.3594   26.1483 C   0  0  0  0  0  0
  -27.0258  -30.3081   24.5970 C   0  0  0  0  0  0
  -27.6040  -32.4271   25.7458 C   0  0  0  0  0  0
  -27.5584  -37.1905   24.8492 C   0  0  0  0  0  0
  -21.4078  -29.3029   22.3753 N   0  0  0  0  0  0
  -26.4333  -37.3795   23.9343 N   0  0  0  0  0  0
  -24.6536  -31.0891   22.0975 N   0  0  0  0  0  0
  -23.4103  -28.8205   23.3098 O   0  0  0  0  0  0
  -28.4083  -26.7926   20.0470 O   0  0  0  0  0  0
  -26.5576  -34.8917   22.4698 O   0  0  0  0  0  0
  -23.5311  -32.1380   23.7639 O   0  0  0  0  0  0
  -30.2049  -18.0626   16.9986 C   0  0  0  0  0  0
  -30.6838  -15.8639   17.9111 C   0  0  0  0  0  0
  -30.6188  -16.7280   16.7946 C   0  0  0  0  0  0
  -29.8640  -18.4872   18.3013 C   0  0  0  0  0  0
  -30.2148  -16.2984   19.1866 C   0  0  0  0  0  0
  -29.6867  -21.8496   19.9675 C   0  0  0  0  0  0
  -29.4161  -20.3425   19.8618 C   0  0  0  0  0  0
  -29.1250  -25.0261   21.5096 C   0  0  0  0  0  0
  -28.5863  -22.6338   20.6740 C   0  0  0  0  0  0
  -28.5900  -24.1413   20.3789 C   0  0  0  0  0  0
  -28.9439  -26.5358   21.3439 C   0  0  0  0  0  0
  -29.8122  -17.5732   19.2964 N   0  3  0  0  0  0
  -30.9906  -16.2738   15.5237 N   0  0  0  0  0  0
  -29.6878  -19.8522   18.6364 N   0  0  0  0  0  0
  -30.1564  -15.4861   20.3650 N   0  0  0  0  0  0
  -30.7268  -22.3827   19.5537 O   0  0  0  0  0  0
  -28.9602  -19.6937   20.8179 O   0  0  0  0  0  0
  -29.6637  -24.5508   22.5166 O   0  0  0  0  0  0
  -31.4401  -12.2381   19.0887 H   0  0  0  0  0  0
  -30.2596  -11.2104   19.8327 H   0  0  0  0  0  0
  -29.6775  -11.7016   17.4058 H   0  0  0  0  0  0
  -29.5916  -13.3993   17.7491 H   0  0  0  0  0  0
  -27.8539  -11.2361   18.9316 H   0  0  0  0  0  0
  -27.3031  -12.4744   17.8399 H   0  0  0  0  0  0
  -27.6828  -14.2094   19.5069 H   0  0  0  0  0  0
  -28.6684  -12.0587   21.4582 H   0  0  0  0  0  0
  -28.5291  -13.7615   21.7982 H   0  0  0  0  0  0
  -25.2598   -9.5759   22.4887 H   0  0  0  0  0  0
  -23.9935   -7.4609   22.7458 H   0  0  0  0  0  0
  -21.0793   -8.8652   19.8993 H   0  0  0  0  0  0
  -22.3466  -10.9660   19.6242 H   0  0  0  0  0  0
  -21.1972   -7.6123   23.9687 H   0  0  0  0  0  0
  -21.1531   -6.0574   25.9089 H   0  0  0  0  0  0
  -22.0577   -2.7573   23.2943 H   0  0  0  0  0  0
  -22.3993  -12.0078   22.4948 H   0  0  0  0  0  0
  -21.1009  -13.1479   22.2535 H   0  0  0  0  0  0
  -24.6626  -15.8333   20.4237 H   0  0  0  0  0  0
  -26.3145  -15.6080   20.1527 H   0  0  0  0  0  0
  -26.7122  -32.5550   23.1317 H   0  0  0  0  0  0
  -25.0021  -33.9807   25.0581 H   0  0  0  0  0  0
  -22.6793  -31.3089   21.4288 H   0  0  0  0  0  0
  -23.3618  -35.9780   23.3383 H   0  0  0  0  0  0
  -24.3585  -36.8846   22.2048 H   0  0  0  0  0  0
  -23.7297  -37.6636   23.6563 H   0  0  0  0  0  0
  -25.9760  -31.6359   20.5645 H   0  0  0  0  0  0
  -26.8028  -30.9437   21.9312 H   0  0  0  0  0  0
  -28.0878  -29.1948   21.1399 H   0  0  0  0  0  0
  -26.1351  -26.0215   18.9556 H   0  0  0  0  0  0
  -24.0035  -27.2954   19.0045 H   0  0  0  0  0  0
  -23.6700  -30.5722   19.3853 H   0  0  0  0  0  0
  -22.7188  -29.2175   19.9031 H   0  0  0  0  0  0
  -25.1367  -36.2063   25.0808 H   0  0  0  0  0  0
  -20.9959  -28.3167   24.1441 H   0  0  0  0  0  0
  -20.5580  -26.2233   23.3567 H   0  0  0  0  0  0
  -21.6635  -26.7417   22.1257 H   0  0  0  0  0  0
  -19.6811  -25.6292   21.1196 H   0  0  0  0  0  0
  -19.6601  -27.3202   20.6716 H   0  0  0  0  0  0
  -17.4168  -26.6583   21.4042 H   0  0  0  0  0  0
  -18.0286  -26.0097   22.9104 H   0  0  0  0  0  0
  -19.7911  -30.7285   24.2198 H   0  0  0  0  0  0
  -17.4984  -31.6235   24.5199 H   0  0  0  0  0  0
  -15.5322  -30.2964   23.7674 H   0  0  0  0  0  0
  -15.8671  -28.0863   22.6991 H   0  0  0  0  0  0
  -24.5952  -30.6951   25.7758 H   0  0  0  0  0  0
  -24.9016  -32.2711   26.5094 H   0  0  0  0  0  0
  -25.8230  -30.8637   27.0122 H   0  0  0  0  0  0
  -26.2748  -29.6809   24.1143 H   0  0  0  0  0  0
  -27.4220  -29.7330   25.4347 H   0  0  0  0  0  0
  -27.8446  -30.4466   23.8898 H   0  0  0  0  0  0
  -27.2693  -33.3550   26.2142 H   0  0  0  0  0  0
  -28.3796  -32.6904   25.0216 H   0  0  0  0  0  0
  -28.0756  -31.8326   26.5320 H   0  0  0  0  0  0
  -28.2757  -38.0064   24.7493 H   0  0  0  0  0  0
  -28.0896  -36.2646   24.6419 H   0  0  0  0  0  0
  -27.2243  -37.1710   25.8864 H   0  0  0  0  0  0
  -20.9168  -29.8831   21.7086 H   0  0  0  0  0  0
  -26.0165  -38.2808   24.1348 H   0  0  0  0  0  0
  -30.1966  -18.7522   16.1655 H   0  0  0  0  0  0
  -31.0947  -14.8742   17.7685 H   0  0  0  0  0  0
  -28.6098  -22.4146   21.7417 H   0  0  0  0  0  0
  -27.6514  -22.2270   20.2938 H   0  0  0  0  0  0
  -29.1137  -24.3721   19.4477 H   0  0  0  0  0  0
  -27.5516  -24.4307   20.2209 H   0  0  0  0  0  0
  -29.8813  -27.0720   21.4755 H   0  0  0  0  0  0
  -28.2637  -26.8844   22.1248 H   0  0  0  0  0  0
  -29.5171  -17.9295   20.2132 H   0  0  0  0  0  0
  -30.5272  -16.6935   14.7211 H   0  0  0  0  0  0
  -31.1282  -15.2765   15.3880 H   0  0  0  0  0  0
  -29.9829  -20.5322   17.9485 H   0  0  0  0  0  0
  -29.4468  -15.6620   21.0543 H   0  0  0  0  0  0
  1 25  1  0  0  0
  1 30  2  0  0  0
  1 85  1  0  0  0
  2  3  1  0  0  0
  2 25  1  0  0  0
  2 89  1  0  0  0
  2 90  1  0  0  0
  3  4  1  0  0  0
  3 91  1  0  0  0
  3 92  1  0  0  0
  4  5  1  0  0  0
  4 93  1  0  0  0
  4 94  1  0  0  0
  5  6  1  0  0  0
  5 26  1  0  0  0
  5 95  1  0  0  0
  6 25  1  0  0  0
  6 96  1  0  0  0
  6 97  1  0  0  0
  7  8  2  0  0  0
  7 26  1  0  0  0
  7 29  1  0  0  0
  8  9  1  0  0  0
  8 22  1  0  0  0
  9 10  1  0  0  0
  9 27  2  0  0  0
 10 11  2  0  0  0
 10 15  1  0  0  0
 11 12  1  0  0  0
 11 98  1  0  0  0
 12 13  2  0  0  0
 12 99  1  0  0  0
 13 14  1  0  0  0
 13 31  1  0  0  0
 14 15  2  0  0  0
 14100  1  0  0  0
 15101  1  0  0  0
 16 17  2  0  0  0
 16 21  1  0  0  0
 16 31  1  0  0  0
 17 18  1  0  0  0
 17102  1  0  0  0
 18 19  2  0  0  0
 18103  1  0  0  0
 19 20  1  0  0  0
 19 24  1  0  0  0
 20 21  2  0  0  0
 20104  1  0  0  0
 21 23  1  0  0  0
 22 28  1  0  0  0
 22 32  2  0  0  0
 26 27  1  0  0  0
 28105  1  0  0  0
 28106  1  0  0  0
 29107  1  0  0  0
 29108  1  0  0  0
 33 34  1  0  0  0
 33 66  1  0  0  0
 33 70  2  0  0  0
 34 36  1  0  0  0
 34 59  1  0  0  0
 34109  1  0  0  0
 35 44  2  0  0  0
 35 45  1  0  0  0
 35 68  1  0  0  0
 36 56  1  0  0  0
 36110  1  0  0  0
 37 39  1  0  0  0
 37 47  1  0  0  0
 37 66  1  0  0  0
 37111  1  0  0  0
 38 43  2  0  0  0
 38 46  1  0  0  0
 38 47  1  0  0  0
 39 64  1  0  0  0
 39 67  2  0  0  0
 40 52  1  0  0  0
 40 53  2  0  0  0
 40 58  1  0  0  0
 41112  1  0  0  0
 41113  1  0  0  0
 41114  1  0  0  0
 41 48  1  0  0  0
 42 43  1  0  0  0
 42 66  1  0  0  0
 42115  1  0  0  0
 42116  1  0  0  0
 43 44  1  0  0  0
 44117  1  0  0  0
 45 46  2  0  0  0
 45118  1  0  0  0
 46119  1  0  0  0
 47120  1  0  0  0
 47121  1  0  0  0
 48 56  1  0  0  0
 48 65  1  0  0  0
 48122  1  0  0  0
 49 50  1  0  0  0
 49 53  1  0  0  0
 49 64  1  0  0  0
 49123  1  0  0  0
 50 51  1  0  0  0
 50124  1  0  0  0
 50125  1  0  0  0
 51 52  1  0  0  0
 51126  1  0  0  0
 51127  1  0  0  0
 52128  1  0  0  0
 52129  1  0  0  0
 53 54  1  0  0  0
 54 55  2  0  0  0
 54130  1  0  0  0
 55 57  1  0  0  0
 55131  1  0  0  0
 56 69  2  0  0  0
 57 58  2  0  0  0
 57132  1  0  0  0
 58133  1  0  0  0
 59 60  1  0  0  0
 59 61  1  0  0  0
 59 62  1  0  0  0
 60134  1  0  0  0
 60135  1  0  0  0
 60136  1  0  0  0
 61137  1  0  0  0
 61138  1  0  0  0
 61139  1  0  0  0
 62140  1  0  0  0
 62141  1  0  0  0
 62142  1  0  0  0
 63 65  1  0  0  0
 63143  1  0  0  0
 63144  1  0  0  0
 63145  1  0  0  0
 64146  1  0  0  0
 65147  1  0  0  0
 68 81  1  0  0  0
 71 73  2  0  0  0
 71 74  1  0  0  0
 71148  1  0  0  0
 72 73  1  0  0  0
 72 75  2  0  0  0
 72149  1  0  0  0
 73 83  1  0  0  0
 74 82  2  0  0  0
 74 84  1  0  0  0
 75 82  1  0  0  0
 75 85  1  0  0  0
 76 77  1  0  0  0
 76 79  1  0  0  0
 76 86  2  0  0  0
 77 84  1  0  0  0
 77 87  2  0  0  0
 78 80  1  0  0  0
 78 81  1  0  0  0
 78 88  2  0  0  0
 79 80  1  0  0  0
 79150  1  0  0  0
 79151  1  0  0  0
 80152  1  0  0  0
 80153  1  0  0  0
 81154  1  0  0  0
 81155  1  0  0  0
 82156  1  0  0  0
 83157  1  0  0  0
 83158  1  0  0  0
 84159  1  0  0  0
 85160  1  0  0  0
M  CHG  1  82   1
M  ISO  4   1 100  68 101  81 101  85 100
M  END
> <chiral flag>
0

> <version>
0

> <s_m_source_file>
/data/baiqing/PycharmProjects/Reinvent-master-3.2/result/LINK_invent/BTK/process_docking_weight1_custom_product_contain_oxygen_bond_distance_aromatic_linkinvent_7_9_3/rearranged_h_0174.sdf

> <i_m_source_file_index>
81

> <r_mmod_Potential_Energy-OPLS-2005>
-12.2125253677368

> <r_mmod_Stretch_Energy-OPLS-2005>
35.0305976867676

> <r_mmod_Bend_Energy-OPLS-2005>
100.396263122559

> <r_mmod_Torsional_Energy-OPLS-2005>
298.492797851562

> <r_mmod_Improper_Torsional_Energy-OPLS-2005>
20.2312469482422

> <r_mmod_Van_der_Waal_Energy-OPLS-2005>
168.584106445312

> <r_mmod_Electrostatic_Energy-OPLS-2005>
-200.627731323242

> <r_mmod_Solvation_Energy-OPLS-2005>
-466.814575195312

> <b_mmod_Minimization_Converged-OPLS-2005>
0

> <r_mmod_RMS_Derivative-OPLS-2005>
10.2626686096191

$$$$
81
                    3D
 Structure written by MMmdl.
153161  0  0  1  0            999 V2000
  -30.6978  -14.4869   20.5633 C   0  0  0  0  0  0
  -30.4181  -12.3119   19.4239 C   0  0  0  0  0  0
  -29.4946  -12.5097   18.2051 C   0  0  0  0  0  0
  -28.0129  -12.3771   18.6135 C   0  0  0  0  0  0
  -27.6582  -13.2125   19.8727 C   0  0  2  0  0  0
  -28.7011  -13.0055   20.9945 C   0  0  0  0  0  0
  -25.2550  -13.8166   20.5676 C   0  0  0  0  0  0
  -24.1819  -13.0441   20.9192 C   0  0  0  0  0  0
  -24.6387  -11.6911   20.8744 C   0  0  0  0  0  0
  -23.9048  -10.4297   21.0404 C   0  0  0  0  0  0
  -24.3601   -9.4218   21.9187 C   0  0  0  0  0  0
  -23.6293   -8.2246   22.0758 C   0  0  0  0  0  0
  -22.4268   -8.0279   21.3550 C   0  0  0  0  0  0
  -21.9900   -9.0248   20.4645 C   0  0  0  0  0  0
  -22.7215  -10.2130   20.3060 C   0  0  0  0  0  0
  -21.6856   -6.0737   22.5290 C   0  0  0  0  0  0
  -21.4008   -6.5641   23.8222 C   0  0  0  0  0  0
  -21.3657   -5.6793   24.9181 C   0  0  0  0  0  0
  -21.6049   -4.3059   24.7232 C   0  0  0  0  0  0
  -21.8816   -3.8150   23.4353 C   0  0  0  0  0  0
  -21.9183   -4.6962   22.3407 C   0  0  0  0  0  0
  -22.7836  -13.5240   21.1854 C   0  0  0  0  0  0
  -22.1655   -4.2150   21.0987 F   0  0  0  0  0  0
  -21.5628   -3.4541   25.7744 F   0  0  0  0  0  0
  -30.0269  -13.3078   20.4346 N   0  0  0  0  0  0
  -26.3004  -12.9349   20.3364 N   0  0  0  0  0  0
  -25.9318  -11.6507   20.5764 N   0  0  0  0  0  0
  -22.0455  -12.8254   22.0399 N   0  0  0  0  0  0
  -25.4254  -15.1895   20.4059 N   0  0  0  0  0  0
  -31.8400  -14.6452   20.1229 O   0  0  0  0  0  0
  -21.6635   -6.8873   21.4253 O   0  0  0  0  0  0
  -22.3531  -14.5543   20.6679 O   0  0  0  0  0  0
  -24.6138  -31.8671   23.2104 C   0  0  0  0  0  0
  -25.9036  -32.4810   23.8386 C   0  0  1  0  0  0
  -27.2273  -27.4225   20.0806 C   0  0  0  0  0  0
  -25.5894  -33.8608   24.2306 N   0  0  0  0  0  0
  -23.3995  -30.4916   21.5531 C   0  0  2  0  0  0
  -24.8403  -28.9562   20.1164 C   0  0  0  0  0  0
  -22.7400  -29.4630   22.5009 C   0  0  0  0  0  0
  -18.0261  -28.1366   22.8499 C   0  0  0  0  0  0
  -24.1480  -36.7327   23.2637 C   0  0  0  0  0  0
  -25.9283  -30.8272   21.3619 C   0  0  0  0  0  0
  -26.0020  -29.4592   20.7123 C   0  0  0  0  0  0
  -27.1941  -28.6984   20.6935 C   0  0  0  0  0  0
  -26.0368  -26.9306   19.4931 C   0  0  0  0  0  0
  -24.8531  -27.6906   19.5085 C   0  0  0  0  0  0
  -23.6072  -29.8296   20.1658 C   0  0  0  0  0  0
  -25.4098  -36.3099   24.0324 C   0  0  1  0  0  0
  -20.5849  -28.3636   23.1352 C   0  0  2  0  0  0
  -20.6747  -26.9378   22.5436 C   0  0  0  0  0  0
  -19.5730  -26.6373   21.5220 C   0  0  0  0  0  0
  -18.1906  -26.7915   22.1628 C   0  0  0  0  0  0
  -19.1512  -28.8817   23.2922 C   0  0  0  0  0  0
  -18.9440  -30.1432   23.8919 C   0  0  0  0  0  0
  -17.6444  -30.6580   24.0561 C   0  0  0  0  0  0
  -25.9031  -34.9465   23.5113 C   0  0  0  0  0  0
  -16.5335  -29.9084   23.6323 C   0  0  0  0  0  0
  -16.7250  -28.6501   23.0343 C   0  0  0  0  0  0
  -26.4467  -31.6597   25.0714 C   0  0  0  0  0  0
  -25.3752  -31.3714   26.1486 C   0  0  0  0  0  0
  -27.0287  -30.3045   24.6066 C   0  0  0  0  0  0
  -27.6043  -32.4309   25.7497 C   0  0  0  0  0  0
  -27.5574  -37.1809   24.8450 C   0  0  0  0  0  0
  -21.4123  -29.3008   22.3762 N   0  0  0  0  0  0
  -26.4275  -37.3793   23.9411 N   0  0  0  0  0  0
  -24.6663  -31.0762   22.1010 N   0  0  0  0  0  0
  -23.4190  -28.8149   23.3022 O   0  0  0  0  0  0
  -28.4238  -26.7276   20.0765 O   0  0  0  0  0  0
  -26.5604  -34.8928   22.4682 O   0  0  0  0  0  0
  -23.5333  -32.1417   23.7513 O   0  0  0  0  0  0
  -29.4949  -17.9622   20.8952 C   0  0  0  0  0  0
  -31.6718  -17.2094   21.6834 C   0  0  0  0  0  0
  -30.3862  -16.8932   21.1914 C   0  0  0  0  0  0
  -29.8789  -19.3269   21.0348 C   0  0  0  0  0  0
  -32.0737  -18.5497   21.8209 C   0  0  0  0  0  0
  -31.1969  -19.6017   21.4874 C   0  0  0  0  0  0
  -28.6356  -22.8133   20.1389 C   0  0  0  0  0  0
  -28.4794  -24.2987   20.6009 C   0  0  0  0  0  0
  -28.9300  -21.7251   21.2027 C   0  0  0  0  0  0
  -28.5132  -25.3981   19.5158 C   0  0  0  0  0  0
  -29.9680  -15.5268   21.0325 N   0  0  0  0  0  0
  -28.9505  -20.3383   20.6751 N   0  0  0  0  0  0
  -28.5005  -22.5038   18.9484 O   0  0  0  0  0  0
  -28.3291  -24.5816   21.7971 O   0  0  0  0  0  0
  -33.3235  -18.8281   22.2656 F   0  0  0  0  0  0
  -31.6637  -20.8692   21.5815 F   0  0  0  0  0  0
  -31.4652  -12.4012   19.1273 H   0  0  0  0  0  0
  -30.3088  -11.3041   19.8259 H   0  0  0  0  0  0
  -29.7359  -11.7842   17.4266 H   0  0  0  0  0  0
  -29.6693  -13.4930   17.7672 H   0  0  0  0  0  0
  -27.8108  -11.3225   18.7995 H   0  0  0  0  0  0
  -27.3683  -12.6663   17.7826 H   0  0  0  0  0  0
  -27.6951  -14.2592   19.5718 H   0  0  0  0  0  0
  -28.6816  -11.9738   21.3489 H   0  0  0  0  0  0
  -28.4702  -13.6184   21.8665 H   0  0  0  0  0  0
  -25.2742   -9.5706   22.4761 H   0  0  0  0  0  0
  -24.0008   -7.4641   22.7483 H   0  0  0  0  0  0
  -21.0827   -8.8757   19.8959 H   0  0  0  0  0  0
  -22.3671  -10.9665   19.6171 H   0  0  0  0  0  0
  -21.2007   -7.6152   23.9735 H   0  0  0  0  0  0
  -21.1480   -6.0517   25.9086 H   0  0  0  0  0  0
  -22.0592   -2.7615   23.2850 H   0  0  0  0  0  0
  -22.4021  -11.9921   22.4835 H   0  0  0  0  0  0
  -21.1082  -13.1309   22.2576 H   0  0  0  0  0  0
  -24.6545  -15.8396   20.5098 H   0  0  0  0  0  0
  -26.2666  -15.6287   20.0542 H   0  0  0  0  0  0
  -26.7095  -32.5514   23.1142 H   0  0  0  0  0  0
  -25.0027  -33.9775   25.0434 H   0  0  0  0  0  0
  -22.6858  -31.3072   21.4188 H   0  0  0  0  0  0
  -23.3725  -35.9680   23.3291 H   0  0  0  0  0  0
  -24.3573  -36.8962   22.2055 H   0  0  0  0  0  0
  -23.7256  -37.6533   23.6671 H   0  0  0  0  0  0
  -26.0337  -31.5888   20.5883 H   0  0  0  0  0  0
  -26.8198  -30.8872   21.9738 H   0  0  0  0  0  0
  -28.0927  -29.0888   21.1515 H   0  0  0  0  0  0
  -25.9792  -25.9689   19.0099 H   0  0  0  0  0  0
  -23.9575  -27.2954   19.0489 H   0  0  0  0  0  0
  -23.7263  -30.6088   19.4124 H   0  0  0  0  0  0
  -22.7272  -29.2596   19.8622 H   0  0  0  0  0  0
  -25.1278  -36.1948   25.0814 H   0  0  0  0  0  0
  -20.9932  -28.3176   24.1477 H   0  0  0  0  0  0
  -20.5637  -26.2228   23.3608 H   0  0  0  0  0  0
  -21.6618  -26.7411   22.1232 H   0  0  0  0  0  0
  -19.6886  -25.6286   21.1235 H   0  0  0  0  0  0
  -19.6684  -27.3198   20.6763 H   0  0  0  0  0  0
  -17.4179  -26.6669   21.4025 H   0  0  0  0  0  0
  -18.0301  -26.0054   22.9018 H   0  0  0  0  0  0
  -19.7918  -30.7243   24.2296 H   0  0  0  0  0  0
  -17.5000  -31.6267   24.5152 H   0  0  0  0  0  0
  -15.5338  -30.2995   23.7629 H   0  0  0  0  0  0
  -15.8646  -28.0831   22.7039 H   0  0  0  0  0  0
  -24.5898  -30.7079   25.7842 H   0  0  0  0  0  0
  -24.8982  -32.2882   26.4965 H   0  0  0  0  0  0
  -25.8128  -30.8865   27.0223 H   0  0  0  0  0  0
  -26.2811  -29.6829   24.1118 H   0  0  0  0  0  0
  -27.4069  -29.7255   25.4501 H   0  0  0  0  0  0
  -27.8645  -30.4376   23.9193 H   0  0  0  0  0  0
  -27.2647  -33.3584   26.2129 H   0  0  0  0  0  0
  -28.3855  -32.6907   25.0336 H   0  0  0  0  0  0
  -28.0713  -31.8394   26.5388 H   0  0  0  0  0  0
  -28.2568  -38.0127   24.7516 H   0  0  0  0  0  0
  -28.1091  -36.2659   24.6237 H   0  0  0  0  0  0
  -27.2307  -37.1414   25.8857 H   0  0  0  0  0  0
  -20.9248  -29.8800   21.7066 H   0  0  0  0  0  0
  -26.0152  -38.2860   24.1446 H   0  0  0  0  0  0
  -28.5034  -17.7282   20.5356 H   0  0  0  0  0  0
  -32.3703  -16.4314   21.9535 H   0  0  0  0  0  0
  -28.1492  -21.7949   21.9606 H   0  0  0  0  0  0
  -29.8447  -22.0059   21.7156 H   0  0  0  0  0  0
  -27.7870  -25.1938   18.7328 H   0  0  0  0  0  0
  -29.4817  -25.3248   19.0229 H   0  0  0  0  0  0
  -28.9925  -15.3256   21.1925 H   0  0  0  0  0  0
  -28.1148  -20.0684   20.1652 H   0  0  0  0  0  0
  1 25  1  0  0  0
  1 30  2  0  0  0
  1 81  1  0  0  0
  2  3  1  0  0  0
  2 25  1  0  0  0
  2 87  1  0  0  0
  2 88  1  0  0  0
  3  4  1  0  0  0
  3 89  1  0  0  0
  3 90  1  0  0  0
  4  5  1  0  0  0
  4 91  1  0  0  0
  4 92  1  0  0  0
  5  6  1  0  0  0
  5 26  1  0  0  0
  5 93  1  0  0  0
  6 25  1  0  0  0
  6 94  1  0  0  0
  6 95  1  0  0  0
  7  8  2  0  0  0
  7 26  1  0  0  0
  7 29  1  0  0  0
  8  9  1  0  0  0
  8 22  1  0  0  0
  9 10  1  0  0  0
  9 27  2  0  0  0
 10 11  2  0  0  0
 10 15  1  0  0  0
 11 12  1  0  0  0
 11 96  1  0  0  0
 12 13  2  0  0  0
 12 97  1  0  0  0
 13 14  1  0  0  0
 13 31  1  0  0  0
 14 15  2  0  0  0
 14 98  1  0  0  0
 15 99  1  0  0  0
 16 17  2  0  0  0
 16 21  1  0  0  0
 16 31  1  0  0  0
 17 18  1  0  0  0
 17100  1  0  0  0
 18 19  2  0  0  0
 18101  1  0  0  0
 19 20  1  0  0  0
 19 24  1  0  0  0
 20 21  2  0  0  0
 20102  1  0  0  0
 21 23  1  0  0  0
 22 28  1  0  0  0
 22 32  2  0  0  0
 26 27  1  0  0  0
 28103  1  0  0  0
 28104  1  0  0  0
 29105  1  0  0  0
 29106  1  0  0  0
 33 34  1  0  0  0
 33 66  1  0  0  0
 33 70  2  0  0  0
 34 36  1  0  0  0
 34 59  1  0  0  0
 34107  1  0  0  0
 35 44  2  0  0  0
 35 45  1  0  0  0
 35 68  1  0  0  0
 36 56  1  0  0  0
 36108  1  0  0  0
 37 39  1  0  0  0
 37 47  1  0  0  0
 37 66  1  0  0  0
 37109  1  0  0  0
 38 43  2  0  0  0
 38 46  1  0  0  0
 38 47  1  0  0  0
 39 64  1  0  0  0
 39 67  2  0  0  0
 40 52  1  0  0  0
 40 53  2  0  0  0
 40 58  1  0  0  0
 41110  1  0  0  0
 41111  1  0  0  0
 41112  1  0  0  0
 41 48  1  0  0  0
 42 43  1  0  0  0
 42 66  1  0  0  0
 42113  1  0  0  0
 42114  1  0  0  0
 43 44  1  0  0  0
 44115  1  0  0  0
 45 46  2  0  0  0
 45116  1  0  0  0
 46117  1  0  0  0
 47118  1  0  0  0
 47119  1  0  0  0
 48 56  1  0  0  0
 48 65  1  0  0  0
 48120  1  0  0  0
 49 50  1  0  0  0
 49 53  1  0  0  0
 49 64  1  0  0  0
 49121  1  0  0  0
 50 51  1  0  0  0
 50122  1  0  0  0
 50123  1  0  0  0
 51 52  1  0  0  0
 51124  1  0  0  0
 51125  1  0  0  0
 52126  1  0  0  0
 52127  1  0  0  0
 53 54  1  0  0  0
 54 55  2  0  0  0
 54128  1  0  0  0
 55 57  1  0  0  0
 55129  1  0  0  0
 56 69  2  0  0  0
 57 58  2  0  0  0
 57130  1  0  0  0
 58131  1  0  0  0
 59 60  1  0  0  0
 59 61  1  0  0  0
 59 62  1  0  0  0
 60132  1  0  0  0
 60133  1  0  0  0
 60134  1  0  0  0
 61135  1  0  0  0
 61136  1  0  0  0
 61137  1  0  0  0
 62138  1  0  0  0
 62139  1  0  0  0
 62140  1  0  0  0
 63 65  1  0  0  0
 63141  1  0  0  0
 63142  1  0  0  0
 63143  1  0  0  0
 64144  1  0  0  0
 65145  1  0  0  0
 68 80  1  0  0  0
 71 73  2  0  0  0
 71 74  1  0  0  0
 71146  1  0  0  0
 72 73  1  0  0  0
 72 75  2  0  0  0
 72147  1  0  0  0
 73 81  1  0  0  0
 74 76  2  0  0  0
 74 82  1  0  0  0
 75 76  1  0  0  0
 75 85  1  0  0  0
 76 86  1  0  0  0
 77 78  1  0  0  0
 77 79  1  0  0  0
 77 83  2  0  0  0
 78 80  1  0  0  0
 78 84  2  0  0  0
 79 82  1  0  0  0
 79148  1  0  0  0
 79149  1  0  0  0
 80150  1  0  0  0
 80151  1  0  0  0
 81152  1  0  0  0
 82153  1  0  0  0
M  ISO  4   1 100  68 101  80 101  81 100
M  END
> <chiral flag>
0

> <version>
0

> <s_m_source_file>
/data/baiqing/PycharmProjects/Reinvent-master-3.2/result/LINK_invent/BTK/process_docking_weight1_custom_product_contain_oxygen_bond_distance_aromatic_linkinvent_7_9_3/rearranged_h_0174.sdf

> <i_m_source_file_index>
82

> <r_mmod_Potential_Energy-OPLS-2005>
130.160247802734

> <r_mmod_Stretch_Energy-OPLS-2005>
45.5335922241211

> <r_mmod_Bend_Energy-OPLS-2005>
121.090240478516

> <r_mmod_Torsional_Energy-OPLS-2005>
202.60383605957

> <r_mmod_Improper_Torsional_Energy-OPLS-2005>
4.7969651222229

> <r_mmod_Van_der_Waal_Energy-OPLS-2005>
157.100509643555

> <r_mmod_Electrostatic_Energy-OPLS-2005>
-174.712127685547

> <r_mmod_Solvation_Energy-OPLS-2005>
-240.699813842773

> <b_mmod_Minimization_Converged-OPLS-2005>
0

> <r_mmod_RMS_Derivative-OPLS-2005>
2.13872838020325

$$$$
82
                    3D
 Structure written by MMmdl.
158166  0  0  1  0            999 V2000
  -30.2515  -14.4315   19.3727 C   0  0  0  0  0  0
  -30.7653  -12.1524   19.4644 C   0  0  0  0  0  0
  -29.6885  -11.7732   18.4681 C   0  0  0  0  0  0
  -28.3965  -11.7847   19.2958 C   0  0  0  0  0  0
  -28.1586  -13.0174   20.4478 C   0  0  2  0  0  0
  -29.3481  -13.1202   21.2490 C   0  0  0  0  0  0
  -25.9175  -14.1682   20.8744 C   0  0  0  0  0  0
  -24.1823  -13.6129   20.6544 C   0  0  0  0  0  0
  -24.0192  -12.3641   20.2601 C   0  0  0  0  0  0
  -23.6411  -10.8532   20.8104 C   0  0  0  0  0  0
  -24.2022   -9.8651   21.7434 C   0  0  0  0  0  0
  -23.6314   -8.5630   21.9984 C   0  0  0  0  0  0
  -22.4493   -8.1614   21.3300 C   0  0  0  0  0  0
  -21.9247   -9.0755   20.4056 C   0  0  0  0  0  0
  -22.5062  -10.3401   20.1567 C   0  0  0  0  0  0
  -21.7661   -6.1207   22.5245 C   0  0  0  0  0  0
  -21.4666   -6.5976   23.8185 C   0  0  0  0  0  0
  -21.3883   -5.7014   24.9072 C   0  0  0  0  0  0
  -21.6025   -4.3227   24.7088 C   0  0  0  0  0  0
  -21.8742   -3.8375   23.4177 C   0  0  0  0  0  0
  -21.9437   -4.7298   22.3318 C   0  0  0  0  0  0
  -22.6450  -13.9684   21.0785 C   0  0  0  0  0  0
  -22.1769   -4.2404   21.0906 F   0  0  0  0  0  0
  -21.5458   -3.4654   25.7574 F   0  0  0  0  0  0
  -30.2895  -13.3356   20.1595 N   0  0  0  0  0  0
  -26.8707  -13.7429   20.9976 N   0  0  0  0  0  0
  -24.9874  -13.5156   20.6106 N   0  0  0  0  0  0
  -22.0213  -13.1530   21.9553 N   0  0  0  0  0  0
  -26.8756  -15.2563   21.2335 N   0  0  0  0  0  0
  -31.2801  -15.1178   19.4869 O   0  0  0  0  0  0
  -21.7898   -6.9402   21.4145 O   0  0  0  0  0  0
  -22.0727  -14.9177   20.5853 O   0  0  0  0  0  0
  -24.6948  -31.7934   23.1551 C   0  0  0  0  0  0
  -25.9518  -32.4421   23.8064 C   0  0  1  0  0  0
  -26.6486  -26.3476   20.3532 C   0  0  0  0  0  0
  -25.6081  -33.8287   24.1904 N   0  0  0  0  0  0
  -23.4988  -30.4311   21.5170 C   0  0  2  0  0  0
  -24.8584  -28.7554   20.0875 C   0  0  0  0  0  0
  -22.7682  -29.4353   22.4597 C   0  0  0  0  0  0
  -18.0306  -28.1418   22.8430 C   0  0  0  0  0  0
  -24.1467  -36.7119   23.2642 C   0  0  0  0  0  0
  -26.0788  -30.3932   21.4708 C   0  0  0  0  0  0
  -26.0301  -28.9398   20.8228 C   0  0  0  0  0  0
  -26.9447  -27.7475   20.9310 C   0  0  0  0  0  0
  -25.6159  -26.4940   19.4272 C   0  0  0  0  0  0
  -24.7243  -27.5838   19.3395 C   0  0  0  0  0  0
  -23.7360  -29.7956   20.1216 C   0  0  0  0  0  0
  -25.4133  -36.2897   24.0271 C   0  0  1  0  0  0
  -20.5940  -28.3795   23.1078 C   0  0  2  0  0  0
  -20.6803  -26.9450   22.5370 C   0  0  0  0  0  0
  -19.5784  -26.6362   21.5191 C   0  0  0  0  0  0
  -18.1948  -26.7940   22.1588 C   0  0  0  0  0  0
  -19.1574  -28.8918   23.2752 C   0  0  0  0  0  0
  -18.9502  -30.1493   23.8819 C   0  0  0  0  0  0
  -17.6504  -30.6614   24.0536 C   0  0  0  0  0  0
  -25.9146  -34.9293   23.4907 C   0  0  0  0  0  0
  -16.5381  -29.9101   23.6357 C   0  0  0  0  0  0
  -16.7289  -28.6516   23.0377 C   0  0  0  0  0  0
  -26.4623  -31.6591   25.0808 C   0  0  0  0  0  0
  -25.3635  -31.4042   26.1408 C   0  0  0  0  0  0
  -27.0645  -30.2920   24.6944 C   0  0  0  0  0  0
  -27.6019  -32.4527   25.7645 C   0  0  0  0  0  0
  -27.5559  -37.1721   24.8451 C   0  0  0  0  0  0
  -21.4333  -29.3055   22.3356 N   0  0  0  0  0  0
  -26.4233  -37.3701   23.9437 N   0  0  0  0  0  0
  -24.7892  -30.9164   22.0955 N   0  0  0  0  0  0
  -23.4123  -28.7850   23.2876 O   0  0  0  0  0  0
  -27.1064  -24.8326   20.4655 O   0  0  0  0  0  0
  -26.5790  -34.8891   22.4529 O   0  0  0  0  0  0
  -23.5965  -32.1220   23.6383 O   0  0  0  0  0  0
  -26.1832  -11.6849   20.6383 C   0  0  0  0  0  0
  -24.7561  -14.8333   22.6191 C   0  0  0  0  0  0
  -25.4808  -12.6918   22.6018 C   0  0  0  0  0  0
  -26.2043  -13.2527   18.7811 C   0  0  0  0  0  0
  -24.7228  -16.0853   20.7302 C   0  0  0  0  0  0
  -25.9851  -21.2995   20.3621 C   0  0  0  0  0  0
  -25.4664  -19.3638   21.1086 C   0  0  0  0  0  0
  -26.2899  -23.1878   20.9388 C   0  0  0  0  0  0
  -27.6252  -13.8971   17.9050 C   0  0  1  0  0  0
  -27.6206  -13.4092   16.4280 C   0  0  0  0  0  0
  -25.3422  -15.1489   18.9825 N   0  3  0  0  0  0
  -25.5812  -12.0182   23.8202 N   0  0  0  0  0  0
  -25.0296  -17.8979   20.5326 N   0  0  0  0  0  0
  -29.1548  -14.5457   18.3669 N   0  0  0  0  0  0
  -26.1247  -21.2418   19.1325 O   0  0  0  0  0  0
  -25.5185  -19.3810   22.3501 O   0  0  0  0  0  0
  -27.6696  -12.0839   16.3221 F   0  0  0  0  0  0
  -26.5064  -13.8198   15.8176 F   0  0  0  0  0  0
  -28.6594  -13.9299   15.7743 F   0  0  0  0  0  0
  -31.7185  -12.3295   18.9594 H   0  0  0  0  0  0
  -30.9395  -11.3449   20.1806 H   0  0  0  0  0  0
  -29.8703  -10.7518   18.1280 H   0  0  0  0  0  0
  -29.7201  -12.3437   17.5479 H   0  0  0  0  0  0
  -28.5562  -10.9029   19.9222 H   0  0  0  0  0  0
  -27.6069  -11.4036   18.6530 H   0  0  0  0  0  0
  -28.1513  -13.9342   20.0842 H   0  0  0  0  0  0
  -29.5532  -12.2108   21.8163 H   0  0  0  0  0  0
  -29.3294  -13.9728   21.9310 H   0  0  0  0  0  0
  -25.1008  -10.0775   22.2898 H   0  0  0  0  0  0
  -24.1102   -7.8973   22.6990 H   0  0  0  0  0  0
  -21.0412   -8.7946   19.8505 H   0  0  0  0  0  0
  -22.0192  -10.9732   19.4274 H   0  0  0  0  0  0
  -21.3001   -7.6519   23.9814 H   0  0  0  0  0  0
  -21.1705   -6.0706   25.8986 H   0  0  0  0  0  0
  -22.0223   -2.7805   23.2589 H   0  0  0  0  0  0
  -22.4925  -12.3668   22.3765 H   0  0  0  0  0  0
  -21.0637  -13.3399   22.2203 H   0  0  0  0  0  0
  -26.4670  -15.9293   21.8654 H   0  0  0  0  0  0
  -26.9914  -15.7306   20.3467 H   0  0  0  0  0  0
  -26.7604  -32.4760   23.0755 H   0  0  0  0  0  0
  -25.0199  -33.9364   25.0038 H   0  0  0  0  0  0
  -22.8342  -31.2831   21.3640 H   0  0  0  0  0  0
  -23.3825  -35.9349   23.3184 H   0  0  0  0  0  0
  -24.3521  -36.8914   22.2077 H   0  0  0  0  0  0
  -23.7082  -37.6196   23.6802 H   0  0  0  0  0  0
  -26.3485  -31.0904   20.6740 H   0  0  0  0  0  0
  -26.9210  -30.4149   22.1496 H   0  0  0  0  0  0
  -27.7861  -27.8411   21.6010 H   0  0  0  0  0  0
  -25.3526  -25.6185   18.8504 H   0  0  0  0  0  0
  -23.8590  -27.4695   18.7027 H   0  0  0  0  0  0
  -23.9925  -30.5854   19.4132 H   0  0  0  0  0  0
  -22.8089  -29.3610   19.7425 H   0  0  0  0  0  0
  -25.1327  -36.1670   25.0764 H   0  0  0  0  0  0
  -21.0070  -28.3454   24.1181 H   0  0  0  0  0  0
  -20.5676  -26.2418   23.3634 H   0  0  0  0  0  0
  -21.6653  -26.7396   22.1160 H   0  0  0  0  0  0
  -19.6968  -25.6247   21.1282 H   0  0  0  0  0  0
  -19.6744  -27.3094   20.6653 H   0  0  0  0  0  0
  -17.4208  -26.6617   21.3996 H   0  0  0  0  0  0
  -18.0369  -26.0110   22.9020 H   0  0  0  0  0  0
  -19.7992  -30.7313   24.2142 H   0  0  0  0  0  0
  -17.5078  -31.6290   24.5142 H   0  0  0  0  0  0
  -15.5385  -30.3005   23.7777 H   0  0  0  0  0  0
  -15.8660  -28.0847   22.7184 H   0  0  0  0  0  0
  -24.5722  -30.7506   25.7723 H   0  0  0  0  0  0
  -24.8971  -32.3355   26.4647 H   0  0  0  0  0  0
  -25.7754  -30.9299   27.0323 H   0  0  0  0  0  0
  -26.3444  -29.6371   24.2041 H   0  0  0  0  0  0
  -27.4043  -29.7604   25.5834 H   0  0  0  0  0  0
  -27.9418  -30.4021   24.0566 H   0  0  0  0  0  0
  -27.2510  -33.3927   26.1926 H   0  0  0  0  0  0
  -28.4002  -32.6925   25.0609 H   0  0  0  0  0  0
  -28.0492  -31.8880   26.5835 H   0  0  0  0  0  0
  -28.2476  -38.0121   24.7654 H   0  0  0  0  0  0
  -28.1164  -36.2656   24.6099 H   0  0  0  0  0  0
  -27.2301  -37.1136   25.8856 H   0  0  0  0  0  0
  -20.9574  -29.8806   21.6559 H   0  0  0  0  0  0
  -26.0057  -38.2739   24.1526 H   0  0  0  0  0  0
  -26.6208  -10.6975   20.6498 H   0  0  0  0  0  0
  -24.5669  -15.3209   23.5645 H   0  0  0  0  0  0
  -26.8083  -23.0064   21.8868 H   0  0  0  0  0  0
  -25.2945  -23.4992   21.2650 H   0  0  0  0  0  0
  -27.2481  -14.9008   17.7366 H   0  0  0  0  0  0
  -25.4870  -15.7778   18.1911 H   0  0  0  0  0  0
  -25.5536  -11.0075   23.8219 H   0  0  0  0  0  0
  -25.1070  -12.4210   24.6180 H   0  0  0  0  0  0
  -24.9562  -18.0885   19.5469 H   0  0  0  0  0  0
  -29.3761  -15.3162   17.7530 H   0  0  0  0  0  0
  1 25  1  0  0  0
  1 30  2  0  0  0
  1 84  1  0  0  0
  2  3  1  0  0  0
  2 25  1  0  0  0
  2 90  1  0  0  0
  2 91  1  0  0  0
  3  4  1  0  0  0
  3 92  1  0  0  0
  3 93  1  0  0  0
  4  5  1  0  0  0
  4 94  1  0  0  0
  4 95  1  0  0  0
  5  6  1  0  0  0
  5 26  1  0  0  0
  5 96  1  0  0  0
  6 25  1  0  0  0
  6 97  1  0  0  0
  6 98  1  0  0  0
  7  8  2  0  0  0
  7 26  1  0  0  0
  7 29  1  0  0  0
  8  9  1  0  0  0
  8 22  1  0  0  0
  9 10  1  0  0  0
  9 27  2  0  0  0
 10 11  2  0  0  0
 10 15  1  0  0  0
 11 12  1  0  0  0
 11 99  1  0  0  0
 12 13  2  0  0  0
 12100  1  0  0  0
 13 14  1  0  0  0
 13 31  1  0  0  0
 14 15  2  0  0  0
 14101  1  0  0  0
 15102  1  0  0  0
 16 17  2  0  0  0
 16 21  1  0  0  0
 16 31  1  0  0  0
 17 18  1  0  0  0
 17103  1  0  0  0
 18 19  2  0  0  0
 18104  1  0  0  0
 19 20  1  0  0  0
 19 24  1  0  0  0
 20 21  2  0  0  0
 20105  1  0  0  0
 21 23  1  0  0  0
 22 28  1  0  0  0
 22 32  2  0  0  0
 26 27  1  0  0  0
 28106  1  0  0  0
 28107  1  0  0  0
 29108  1  0  0  0
 29109  1  0  0  0
 33 34  1  0  0  0
 33 66  1  0  0  0
 33 70  2  0  0  0
 34 36  1  0  0  0
 34 59  1  0  0  0
 34110  1  0  0  0
 35 44  2  0  0  0
 35 45  1  0  0  0
 35 68  1  0  0  0
 36 56  1  0  0  0
 36111  1  0  0  0
 37 39  1  0  0  0
 37 47  1  0  0  0
 37 66  1  0  0  0
 37112  1  0  0  0
 38 43  2  0  0  0
 38 46  1  0  0  0
 38 47  1  0  0  0
 39 64  1  0  0  0
 39 67  2  0  0  0
 40 52  1  0  0  0
 40 53  2  0  0  0
 40 58  1  0  0  0
 41113  1  0  0  0
 41114  1  0  0  0
 41115  1  0  0  0
 41 48  1  0  0  0
 42 43  1  0  0  0
 42 66  1  0  0  0
 42116  1  0  0  0
 42117  1  0  0  0
 43 44  1  0  0  0
 44118  1  0  0  0
 45 46  2  0  0  0
 45119  1  0  0  0
 46120  1  0  0  0
 47121  1  0  0  0
 47122  1  0  0  0
 48 56  1  0  0  0
 48 65  1  0  0  0
 48123  1  0  0  0
 49 50  1  0  0  0
 49 53  1  0  0  0
 49 64  1  0  0  0
 49124  1  0  0  0
 50 51  1  0  0  0
 50125  1  0  0  0
 50126  1  0  0  0
 51 52  1  0  0  0
 51127  1  0  0  0
 51128  1  0  0  0
 52129  1  0  0  0
 52130  1  0  0  0
 53 54  1  0  0  0
 54 55  2  0  0  0
 54131  1  0  0  0
 55 57  1  0  0  0
 55132  1  0  0  0
 56 69  2  0  0  0
 57 58  2  0  0  0
 57133  1  0  0  0
 58134  1  0  0  0
 59 60  1  0  0  0
 59 61  1  0  0  0
 59 62  1  0  0  0
 60135  1  0  0  0
 60136  1  0  0  0
 60137  1  0  0  0
 61138  1  0  0  0
 61139  1  0  0  0
 61140  1  0  0  0
 62141  1  0  0  0
 62142  1  0  0  0
 62143  1  0  0  0
 63 65  1  0  0  0
 63144  1  0  0  0
 63145  1  0  0  0
 63146  1  0  0  0
 64147  1  0  0  0
 65148  1  0  0  0
 68 78  1  0  0  0
 71 73  2  0  0  0
 71 74  1  0  0  0
 71149  1  0  0  0
 72 73  1  0  0  0
 72 75  2  0  0  0
 72150  1  0  0  0
 73 82  1  0  0  0
 74 79  1  0  0  0
 74 81  2  0  0  0
 75 81  1  0  0  0
 75 83  1  0  0  0
 76 77  1  0  0  0
 76 78  1  0  0  0
 76 85  2  0  0  0
 77 83  1  0  0  0
 77 86  2  0  0  0
 78151  1  0  0  0
 78152  1  0  0  0
 79 80  1  0  0  0
 79 84  1  0  0  0
 79153  1  0  0  0
 80 87  1  0  0  0
 80 88  1  0  0  0
 80 89  1  0  0  0
 81154  1  0  0  0
 82155  1  0  0  0
 82156  1  0  0  0
 83157  1  0  0  0
 84158  1  0  0  0
M  CHG  1  81   1
M  ISO  4   1 100  68 101  78 101  84 100
M  END
> <chiral flag>
0

> <version>
0

> <s_m_source_file>
/data/baiqing/PycharmProjects/Reinvent-master-3.2/result/LINK_invent/BTK/process_docking_weight1_custom_product_contain_oxygen_bond_distance_aromatic_linkinvent_7_9_3/rearranged_h_0174.sdf

> <i_m_source_file_index>
83

> <r_mmod_Potential_Energy-OPLS-2005>
22592.462890625

> <r_mmod_Stretch_Energy-OPLS-2005>
12441.0478515625

> <r_mmod_Bend_Energy-OPLS-2005>
2851.52075195312

> <r_mmod_Torsional_Energy-OPLS-2005>
667.199645996094

> <r_mmod_Improper_Torsional_Energy-OPLS-2005>
86.3232192993164

> <r_mmod_Van_der_Waal_Energy-OPLS-2005>
4620.3623046875

> <r_mmod_Electrostatic_Energy-OPLS-2005>
-367.04541015625

> <r_mmod_Solvation_Energy-OPLS-2005>
-494.204925537109

> <b_mmod_Minimization_Converged-OPLS-2005>
0

> <r_mmod_RMS_Derivative-OPLS-2005>
10.6516580581665

$$$$
83
                    3D
 Structure written by MMmdl.
170178  0  0  1  0            999 V2000
  -30.7372  -14.4574   20.5120 C   0  0  0  0  0  0
  -30.4014  -12.2835   19.4335 C   0  0  0  0  0  0
  -29.4869  -12.4803   18.2090 C   0  0  0  0  0  0
  -28.0090  -12.3545   18.6228 C   0  0  0  0  0  0
  -27.6536  -13.2155   19.8653 C   0  0  2  0  0  0
  -28.6962  -13.0457   20.9932 C   0  0  0  0  0  0
  -25.2559  -13.8187   20.5682 C   0  0  0  0  0  0
  -24.1828  -13.0447   20.9193 C   0  0  0  0  0  0
  -24.6398  -11.6922   20.8761 C   0  0  0  0  0  0
  -23.9077  -10.4298   21.0426 C   0  0  0  0  0  0
  -24.3628   -9.4203   21.9198 C   0  0  0  0  0  0
  -23.6295   -8.2244   22.0762 C   0  0  0  0  0  0
  -22.4280   -8.0286   21.3548 C   0  0  0  0  0  0
  -21.9921   -9.0268   20.4658 C   0  0  0  0  0  0
  -22.7254  -10.2144   20.3067 C   0  0  0  0  0  0
  -21.6849   -6.0736   22.5283 C   0  0  0  0  0  0
  -21.4015   -6.5643   23.8215 C   0  0  0  0  0  0
  -21.3656   -5.6792   24.9179 C   0  0  0  0  0  0
  -21.6042   -4.3057   24.7230 C   0  0  0  0  0  0
  -21.8818   -3.8149   23.4354 C   0  0  0  0  0  0
  -21.9194   -4.6965   22.3404 C   0  0  0  0  0  0
  -22.7849  -13.5242   21.1844 C   0  0  0  0  0  0
  -22.1661   -4.2149   21.0985 F   0  0  0  0  0  0
  -21.5627   -3.4540   25.7746 F   0  0  0  0  0  0
  -30.0236  -13.3054   20.4224 N   0  0  0  0  0  0
  -26.2992  -12.9375   20.3352 N   0  0  0  0  0  0
  -25.9325  -11.6526   20.5790 N   0  0  0  0  0  0
  -22.0494  -12.8233   22.0409 N   0  0  0  0  0  0
  -25.4267  -15.1908   20.4075 N   0  0  0  0  0  0
  -31.9259  -14.4935   20.1981 O   0  0  0  0  0  0
  -21.6640   -6.8887   21.4245 O   0  0  0  0  0  0
  -22.3535  -14.5543   20.6689 O   0  0  0  0  0  0
  -24.6074  -31.8716   23.2119 C   0  0  0  0  0  0
  -25.8991  -32.4844   23.8403 C   0  0  1  0  0  0
  -27.2476  -27.4622   20.1135 C   0  0  0  0  0  0
  -25.5862  -33.8642   24.2342 N   0  0  0  0  0  0
  -23.3974  -30.4903   21.5495 C   0  0  2  0  0  0
  -24.8523  -28.9562   20.1197 C   0  0  0  0  0  0
  -22.7387  -29.4651   22.4985 C   0  0  0  0  0  0
  -18.0251  -28.1380   22.8487 C   0  0  0  0  0  0
  -24.1492  -36.7328   23.2639 C   0  0  0  0  0  0
  -25.9204  -30.8454   21.3625 C   0  0  0  0  0  0
  -26.0046  -29.4774   20.7216 C   0  0  0  0  0  0
  -27.2051  -28.7364   20.7249 C   0  0  0  0  0  0
  -26.0882  -26.9590   19.4912 C   0  0  0  0  0  0
  -24.8862  -27.6925   19.5031 C   0  0  0  0  0  0
  -23.6104  -29.8175   20.1657 C   0  0  0  0  0  0
  -25.4114  -36.3124   24.0332 C   0  0  1  0  0  0
  -20.5844  -28.3659   23.1326 C   0  0  2  0  0  0
  -20.6746  -26.9398   22.5426 C   0  0  0  0  0  0
  -19.5725  -26.6375   21.5219 C   0  0  0  0  0  0
  -18.1898  -26.7920   22.1625 C   0  0  0  0  0  0
  -19.1505  -28.8832   23.2897 C   0  0  0  0  0  0
  -18.9445  -30.1441   23.8902 C   0  0  0  0  0  0
  -17.6457  -30.6592   24.0563 C   0  0  0  0  0  0
  -25.9029  -34.9489   23.5139 C   0  0  0  0  0  0
  -16.5339  -29.9098   23.6337 C   0  0  0  0  0  0
  -16.7243  -28.6513   23.0346 C   0  0  0  0  0  0
  -26.4446  -31.6607   25.0715 C   0  0  0  0  0  0
  -25.3729  -31.3692   26.1475 C   0  0  0  0  0  0
  -27.0277  -30.3056   24.6058 C   0  0  0  0  0  0
  -27.6032  -32.4318   25.7479 C   0  0  0  0  0  0
  -27.5587  -37.1806   24.8461 C   0  0  0  0  0  0
  -21.4114  -29.3030   22.3742 N   0  0  0  0  0  0
  -26.4307  -37.3801   23.9395 N   0  0  0  0  0  0
  -24.6596  -31.0829   22.1010 N   0  0  0  0  0  0
  -23.4186  -28.8169   23.2986 O   0  0  0  0  0  0
  -28.3811  -26.6853   20.0658 O   0  0  0  0  0  0
  -26.5614  -34.8929   22.4710 O   0  0  0  0  0  0
  -23.5276  -32.1448   23.7531 O   0  0  0  0  0  0
  -31.5671  -17.2708   19.7062 C   0  0  0  0  0  0
  -29.7408  -18.0293   21.1012 C   0  0  0  0  0  0
  -31.3764  -19.6541   20.2152 C   0  0  0  0  0  0
  -32.0488  -18.5838   19.5720 C   0  0  0  0  0  0
  -30.4597  -16.9497   20.5302 C   0  0  0  0  0  0
  -30.1579  -19.3756   20.9141 C   0  0  0  0  0  0
  -31.9626  -21.0326   20.1361 C   0  0  0  0  0  0
  -28.2499  -22.5721   21.5953 C   0  0  0  0  0  0
  -28.7454  -21.3816   20.7403 C   0  0  0  0  0  0
  -33.3294  -18.7805   18.7652 C   0  0  0  0  0  0
  -32.2636  -21.7113   21.4667 C   0  0  0  0  0  0
  -29.5261  -24.9278   23.2334 C   0  0  0  0  0  0
  -28.5997  -23.9705   21.0455 C   0  0  0  0  0  0
  -29.0876  -26.4568   21.2908 C   0  0  0  0  0  0
  -28.5764  -25.1850   22.0339 C   0  0  2  0  0  0
  -29.3507  -20.4193   21.4626 N   0  0  0  0  0  0
  -30.0378  -15.5888   20.7643 N   0  0  0  0  0  0
  -27.2058  -25.4403   22.5509 N   0  3  0  0  0  0
  -32.2524  -21.6096   19.0844 O   0  0  0  0  0  0
  -27.6225  -22.4218   22.6499 O   0  0  0  0  0  0
  -28.6299  -21.3648   19.5103 O   0  0  0  0  0  0
  -31.4488  -12.3425   19.1321 H   0  0  0  0  0  0
  -30.2715  -11.2864   19.8564 H   0  0  0  0  0  0
  -29.7226  -11.7442   17.4396 H   0  0  0  0  0  0
  -29.6652  -13.4601   17.7614 H   0  0  0  0  0  0
  -27.8176  -11.3020   18.8351 H   0  0  0  0  0  0
  -27.3595  -12.6163   17.7871 H   0  0  0  0  0  0
  -27.6851  -14.2560   19.5409 H   0  0  0  0  0  0
  -28.6645  -12.0323   21.3970 H   0  0  0  0  0  0
  -28.4798  -13.7105   21.8314 H   0  0  0  0  0  0
  -25.2773   -9.5666   22.4772 H   0  0  0  0  0  0
  -24.0001   -7.4629   22.7476 H   0  0  0  0  0  0
  -21.0849   -8.8795   19.8960 H   0  0  0  0  0  0
  -22.3724  -10.9688   19.6176 H   0  0  0  0  0  0
  -21.2009   -7.6151   23.9719 H   0  0  0  0  0  0
  -21.1474   -6.0526   25.9081 H   0  0  0  0  0  0
  -22.0602   -2.7609   23.2857 H   0  0  0  0  0  0
  -22.4109  -11.9898   22.4792 H   0  0  0  0  0  0
  -21.1117  -13.1270   22.2627 H   0  0  0  0  0  0
  -24.6575  -15.8442   20.5082 H   0  0  0  0  0  0
  -26.2733  -15.6275   20.0649 H   0  0  0  0  0  0
  -26.7064  -32.5598   23.1179 H   0  0  0  0  0  0
  -24.9964  -33.9809   25.0449 H   0  0  0  0  0  0
  -22.6836  -31.3050   21.4079 H   0  0  0  0  0  0
  -23.3745  -35.9673   23.3315 H   0  0  0  0  0  0
  -24.3575  -36.8937   22.2053 H   0  0  0  0  0  0
  -23.7260  -37.6534   23.6663 H   0  0  0  0  0  0
  -26.0241  -31.6076   20.5884 H   0  0  0  0  0  0
  -26.8094  -30.9102   21.9775 H   0  0  0  0  0  0
  -28.0914  -29.1563   21.1803 H   0  0  0  0  0  0
  -26.1178  -25.9931   19.0054 H   0  0  0  0  0  0
  -24.0024  -27.2852   19.0316 H   0  0  0  0  0  0
  -23.7194  -30.5921   19.4057 H   0  0  0  0  0  0
  -22.7380  -29.2323   19.8693 H   0  0  0  0  0  0
  -25.1290  -36.1996   25.0826 H   0  0  0  0  0  0
  -20.9922  -28.3239   24.1451 H   0  0  0  0  0  0
  -20.5660  -26.2262   23.3604 H   0  0  0  0  0  0
  -21.6612  -26.7449   22.1216 H   0  0  0  0  0  0
  -19.6893  -25.6289   21.1246 H   0  0  0  0  0  0
  -19.6673  -27.3190   20.6758 H   0  0  0  0  0  0
  -17.4164  -26.6641   21.4036 H   0  0  0  0  0  0
  -18.0301  -26.0077   22.9039 H   0  0  0  0  0  0
  -19.7937  -30.7234   24.2279 H   0  0  0  0  0  0
  -17.5031  -31.6284   24.5158 H   0  0  0  0  0  0
  -15.5350  -30.3008   23.7673 H   0  0  0  0  0  0
  -15.8630  -28.0853   22.7060 H   0  0  0  0  0  0
  -24.5899  -30.7039   25.7804 H   0  0  0  0  0  0
  -24.8915  -32.2843   26.4950 H   0  0  0  0  0  0
  -25.8091  -30.8844   27.0222 H   0  0  0  0  0  0
  -26.2798  -29.6799   24.1171 H   0  0  0  0  0  0
  -27.4114  -29.7311   25.4497 H   0  0  0  0  0  0
  -27.8609  -30.4366   23.9147 H   0  0  0  0  0  0
  -27.2654  -33.3604   26.2096 H   0  0  0  0  0  0
  -28.3829  -32.6897   25.0297 H   0  0  0  0  0  0
  -28.0714  -31.8416   26.5365 H   0  0  0  0  0  0
  -28.2603  -38.0108   24.7528 H   0  0  0  0  0  0
  -28.1086  -36.2637   24.6277 H   0  0  0  0  0  0
  -27.2295  -37.1442   25.8863 H   0  0  0  0  0  0
  -20.9265  -29.8759   21.6979 H   0  0  0  0  0  0
  -26.0200  -38.2878   24.1412 H   0  0  0  0  0  0
  -32.1098  -16.5115   19.1670 H   0  0  0  0  0  0
  -28.8519  -17.8291   21.6832 H   0  0  0  0  0  0
  -33.7592  -17.8279   18.4516 H   0  0  0  0  0  0
  -34.0883  -19.2887   19.3606 H   0  0  0  0  0  0
  -33.1401  -19.3654   17.8648 H   0  0  0  0  0  0
  -32.4638  -20.9640   22.2344 H   0  0  0  0  0  0
  -31.4236  -22.3248   21.7875 H   0  0  0  0  0  0
  -33.1419  -22.3500   21.3754 H   0  0  0  0  0  0
  -30.5266  -24.6471   22.9000 H   0  0  0  0  0  0
  -29.1717  -24.1299   23.8867 H   0  0  0  0  0  0
  -29.6357  -25.8146   23.8591 H   0  0  0  0  0  0
  -27.9272  -24.1593   20.2089 H   0  0  0  0  0  0
  -29.5936  -23.8968   20.6017 H   0  0  0  0  0  0
  -30.1359  -26.3167   21.0222 H   0  0  0  0  0  0
  -29.0773  -27.3236   21.9528 H   0  0  0  0  0  0
  -29.2448  -20.4737   22.4682 H   0  0  0  0  0  0
  -29.0927  -15.4552   21.0916 H   0  0  0  0  0  0
  -26.8323  -24.6232   23.0084 H   0  0  0  0  0  0
  -26.5798  -25.6990   21.8048 H   0  0  0  0  0  0
  -27.1998  -26.1924   23.2210 H   0  0  0  0  0  0
  1 25  1  0  0  0
  1 30  2  0  0  0
  1 87  1  0  0  0
  2  3  1  0  0  0
  2 25  1  0  0  0
  2 92  1  0  0  0
  2 93  1  0  0  0
  3  4  1  0  0  0
  3 94  1  0  0  0
  3 95  1  0  0  0
  4  5  1  0  0  0
  4 96  1  0  0  0
  4 97  1  0  0  0
  5  6  1  0  0  0
  5 26  1  0  0  0
  5 98  1  0  0  0
  6 25  1  0  0  0
  6 99  1  0  0  0
  6100  1  0  0  0
  7  8  2  0  0  0
  7 26  1  0  0  0
  7 29  1  0  0  0
  8  9  1  0  0  0
  8 22  1  0  0  0
  9 10  1  0  0  0
  9 27  2  0  0  0
 10 11  2  0  0  0
 10 15  1  0  0  0
 11 12  1  0  0  0
 11101  1  0  0  0
 12 13  2  0  0  0
 12102  1  0  0  0
 13 14  1  0  0  0
 13 31  1  0  0  0
 14 15  2  0  0  0
 14103  1  0  0  0
 15104  1  0  0  0
 16 17  2  0  0  0
 16 21  1  0  0  0
 16 31  1  0  0  0
 17 18  1  0  0  0
 17105  1  0  0  0
 18 19  2  0  0  0
 18106  1  0  0  0
 19 20  1  0  0  0
 19 24  1  0  0  0
 20 21  2  0  0  0
 20107  1  0  0  0
 21 23  1  0  0  0
 22 28  1  0  0  0
 22 32  2  0  0  0
 26 27  1  0  0  0
 28108  1  0  0  0
 28109  1  0  0  0
 29110  1  0  0  0
 29111  1  0  0  0
 33 34  1  0  0  0
 33 66  1  0  0  0
 33 70  2  0  0  0
 34 36  1  0  0  0
 34 59  1  0  0  0
 34112  1  0  0  0
 35 44  2  0  0  0
 35 45  1  0  0  0
 35 68  1  0  0  0
 36 56  1  0  0  0
 36113  1  0  0  0
 37 39  1  0  0  0
 37 47  1  0  0  0
 37 66  1  0  0  0
 37114  1  0  0  0
 38 43  2  0  0  0
 38 46  1  0  0  0
 38 47  1  0  0  0
 39 64  1  0  0  0
 39 67  2  0  0  0
 40 52  1  0  0  0
 40 53  2  0  0  0
 40 58  1  0  0  0
 41115  1  0  0  0
 41116  1  0  0  0
 41117  1  0  0  0
 41 48  1  0  0  0
 42 43  1  0  0  0
 42 66  1  0  0  0
 42118  1  0  0  0
 42119  1  0  0  0
 43 44  1  0  0  0
 44120  1  0  0  0
 45 46  2  0  0  0
 45121  1  0  0  0
 46122  1  0  0  0
 47123  1  0  0  0
 47124  1  0  0  0
 48 56  1  0  0  0
 48 65  1  0  0  0
 48125  1  0  0  0
 49 50  1  0  0  0
 49 53  1  0  0  0
 49 64  1  0  0  0
 49126  1  0  0  0
 50 51  1  0  0  0
 50127  1  0  0  0
 50128  1  0  0  0
 51 52  1  0  0  0
 51129  1  0  0  0
 51130  1  0  0  0
 52131  1  0  0  0
 52132  1  0  0  0
 53 54  1  0  0  0
 54 55  2  0  0  0
 54133  1  0  0  0
 55 57  1  0  0  0
 55134  1  0  0  0
 56 69  2  0  0  0
 57 58  2  0  0  0
 57135  1  0  0  0
 58136  1  0  0  0
 59 60  1  0  0  0
 59 61  1  0  0  0
 59 62  1  0  0  0
 60137  1  0  0  0
 60138  1  0  0  0
 60139  1  0  0  0
 61140  1  0  0  0
 61141  1  0  0  0
 61142  1  0  0  0
 62143  1  0  0  0
 62144  1  0  0  0
 62145  1  0  0  0
 63 65  1  0  0  0
 63146  1  0  0  0
 63147  1  0  0  0
 63148  1  0  0  0
 64149  1  0  0  0
 65150  1  0  0  0
 68 84  1  0  0  0
 71 74  2  0  0  0
 71 75  1  0  0  0
 71151  1  0  0  0
 72 75  2  0  0  0
 72 76  1  0  0  0
 72152  1  0  0  0
 73 74  1  0  0  0
 73 76  2  0  0  0
 73 77  1  0  0  0
 74 80  1  0  0  0
 75 87  1  0  0  0
 76 86  1  0  0  0
 77 81  1  0  0  0
 77 89  2  0  0  0
 78 79  1  0  0  0
 78 83  1  0  0  0
 78 90  2  0  0  0
 79 86  1  0  0  0
 79 91  2  0  0  0
 80153  1  0  0  0
 80154  1  0  0  0
 80155  1  0  0  0
 81156  1  0  0  0
 81157  1  0  0  0
 81158  1  0  0  0
 82159  1  0  0  0
 82160  1  0  0  0
 82161  1  0  0  0
 82 85  1  0  0  0
 83 85  1  0  0  0
 83162  1  0  0  0
 83163  1  0  0  0
 84 85  1  0  0  0
 84164  1  0  0  0
 84165  1  0  0  0
 85 88  1  0  0  0
 86166  1  0  0  0
 87167  1  0  0  0
 88168  1  0  0  0
 88169  1  0  0  0
 88170  1  0  0  0
M  CHG  1  88   1
M  ISO  4   1 100  68 101  84 101  87 100
M  END
> <chiral flag>
0

> <version>
0

> <s_m_source_file>
/data/baiqing/PycharmProjects/Reinvent-master-3.2/result/LINK_invent/BTK/process_docking_weight1_custom_product_contain_oxygen_bond_distance_aromatic_linkinvent_7_9_3/rearranged_h_0174.sdf

> <i_m_source_file_index>
84

> <r_mmod_Potential_Energy-OPLS-2005>
-64.4801864624023

> <r_mmod_Stretch_Energy-OPLS-2005>
44.6419563293457

> <r_mmod_Bend_Energy-OPLS-2005>
109.99877166748

> <r_mmod_Torsional_Energy-OPLS-2005>
302.822265625

> <r_mmod_Improper_Torsional_Energy-OPLS-2005>
4.96006202697754

> <r_mmod_Van_der_Waal_Energy-OPLS-2005>
166.275604248047

> <r_mmod_Electrostatic_Energy-OPLS-2005>
-234.920227050781

> <r_mmod_Solvation_Energy-OPLS-2005>
-477.741180419922

> <b_mmod_Minimization_Converged-OPLS-2005>
0

> <r_mmod_RMS_Derivative-OPLS-2005>
1.68956613540649

$$$$
84
                    3D
 Structure written by MMmdl.
160168  0  0  1  0            999 V2000
  -30.6350  -14.5718   20.5188 C   0  0  0  0  0  0
  -30.4343  -12.3434   19.4671 C   0  0  0  0  0  0
  -29.5170  -12.5116   18.2354 C   0  0  0  0  0  0
  -28.0319  -12.3896   18.6317 C   0  0  0  0  0  0
  -27.6619  -13.2219   19.8912 C   0  0  2  0  0  0
  -28.7020  -13.0317   21.0201 C   0  0  0  0  0  0
  -25.2588  -13.8177   20.5832 C   0  0  0  0  0  0
  -24.1806  -13.0415   20.9166 C   0  0  0  0  0  0
  -24.6400  -11.6906   20.8711 C   0  0  0  0  0  0
  -23.9067  -10.4307   21.0421 C   0  0  0  0  0  0
  -24.3625   -9.4240   21.9211 C   0  0  0  0  0  0
  -23.6295   -8.2288   22.0791 C   0  0  0  0  0  0
  -22.4285   -8.0327   21.3567 C   0  0  0  0  0  0
  -21.9912   -9.0287   20.4675 C   0  0  0  0  0  0
  -22.7242  -10.2154   20.3088 C   0  0  0  0  0  0
  -21.6862   -6.0755   22.5286 C   0  0  0  0  0  0
  -21.4025   -6.5645   23.8222 C   0  0  0  0  0  0
  -21.3643   -5.6781   24.9166 C   0  0  0  0  0  0
  -21.6038   -4.3047   24.7215 C   0  0  0  0  0  0
  -21.8805   -3.8164   23.4328 C   0  0  0  0  0  0
  -21.9187   -4.6991   22.3395 C   0  0  0  0  0  0
  -22.7829  -13.5247   21.1777 C   0  0  0  0  0  0
  -22.1673   -4.2186   21.0964 F   0  0  0  0  0  0
  -21.5617   -3.4516   25.7725 F   0  0  0  0  0  0
  -30.0253  -13.3506   20.4652 N   0  0  0  0  0  0
  -26.3028  -12.9377   20.3451 N   0  0  0  0  0  0
  -25.9340  -11.6505   20.5768 N   0  0  0  0  0  0
  -22.0386  -12.8311   22.0343 N   0  0  0  0  0  0
  -25.4267  -15.1919   20.4528 N   0  0  0  0  0  0
  -31.7800  -14.7435   20.0848 O   0  0  0  0  0  0
  -21.6669   -6.8912   21.4253 O   0  0  0  0  0  0
  -22.3567  -14.5565   20.6652 O   0  0  0  0  0  0
  -24.6179  -31.8657   23.2108 C   0  0  0  0  0  0
  -25.9050  -32.4823   23.8412 C   0  0  1  0  0  0
  -27.2198  -27.3933   20.1276 C   0  0  0  0  0  0
  -25.5904  -33.8626   24.2338 N   0  0  0  0  0  0
  -23.4079  -30.4852   21.5558 C   0  0  2  0  0  0
  -24.8541  -28.9476   20.1152 C   0  0  0  0  0  0
  -22.7447  -29.4599   22.5048 C   0  0  0  0  0  0
  -18.0260  -28.1371   22.8505 C   0  0  0  0  0  0
  -24.1470  -36.7304   23.2637 C   0  0  0  0  0  0
  -25.9369  -30.8224   21.3657 C   0  0  0  0  0  0
  -26.0147  -29.4520   20.7163 C   0  0  0  0  0  0
  -27.2053  -28.6833   20.7152 C   0  0  0  0  0  0
  -26.0465  -26.9092   19.5141 C   0  0  0  0  0  0
  -24.8677  -27.6811   19.5046 C   0  0  0  0  0  0
  -23.6158  -29.8177   20.1697 C   0  0  0  0  0  0
  -25.4100  -36.3122   24.0342 C   0  0  1  0  0  0
  -20.5849  -28.3628   23.1346 C   0  0  2  0  0  0
  -20.6742  -26.9368   22.5427 C   0  0  0  0  0  0
  -19.5723  -26.6370   21.5224 C   0  0  0  0  0  0
  -18.1900  -26.7930   22.1618 C   0  0  0  0  0  0
  -19.1508  -28.8828   23.2916 C   0  0  0  0  0  0
  -18.9437  -30.1440   23.8921 C   0  0  0  0  0  0
  -17.6440  -30.6589   24.0556 C   0  0  0  0  0  0
  -25.9030  -34.9480   23.5137 C   0  0  0  0  0  0
  -16.5331  -29.9085   23.6330 C   0  0  0  0  0  0
  -16.7247  -28.6489   23.0374 C   0  0  0  0  0  0
  -26.4464  -31.6619   25.0752 C   0  0  0  0  0  0
  -25.3733  -31.3740   26.1512 C   0  0  0  0  0  0
  -27.0285  -30.3074   24.6101 C   0  0  0  0  0  0
  -27.6055  -32.4341   25.7507 C   0  0  0  0  0  0
  -27.5579  -37.1805   24.8463 C   0  0  0  0  0  0
  -21.4165  -29.3011   22.3803 N   0  0  0  0  0  0
  -26.4285  -37.3808   23.9421 N   0  0  0  0  0  0
  -24.6735  -31.0716   22.1042 N   0  0  0  0  0  0
  -23.4205  -28.8140   23.3095 O   0  0  0  0  0  0
  -28.3480  -26.5998   20.1509 O   0  0  0  0  0  0
  -26.5587  -34.8928   22.4694 O   0  0  0  0  0  0
  -23.5370  -32.1411   23.7485 O   0  0  0  0  0  0
  -29.2343  -16.6397   18.8277 C   0  0  0  0  0  0
  -28.8699  -17.7290   18.0257 C   0  0  0  0  0  0
  -28.8499  -19.0379   18.5805 C   0  0  0  0  0  0
  -29.5658  -16.8122   20.1776 C   0  0  0  0  0  0
  -29.1195  -19.1681   19.9832 C   0  0  0  0  0  0
  -28.4951  -17.4048   16.6429 C   0  0  0  0  0  0
  -28.6790  -22.8118   21.1668 C   0  0  0  0  0  0
  -28.1610  -21.3913   20.7343 C   0  0  0  0  0  0
  -27.0268  -20.3724   17.3567 C   0  0  0  0  0  0
  -28.3028  -24.0498   20.2935 C   0  0  0  0  0  0
  -28.2797  -25.4369   21.0199 C   0  0  0  0  0  0
  -28.5330  -20.2281   17.6408 C   0  0  0  0  0  0
  -29.4732  -18.0643   20.7260 N   0  0  0  0  0  0
  -29.1472  -20.4675   20.6031 N   0  0  0  0  0  0
  -29.8656  -15.6182   20.9343 N   0  0  0  0  0  0
  -29.3567  -17.3615   15.7699 O   0  0  0  0  0  0
  -29.4000  -22.9416   22.1626 O   0  0  0  0  0  0
  -26.9563  -21.1682   20.5678 O   0  0  0  0  0  0
  -27.2146  -17.1093   16.3705 F   0  0  0  0  0  0
  -29.1430  -20.0614   16.4684 F   0  0  0  0  0  0
  -28.9960  -21.3992   18.0722 F   0  0  0  0  0  0
  -31.4818  -12.4483   19.1776 H   0  0  0  0  0  0
  -30.3482  -11.3398   19.8894 H   0  0  0  0  0  0
  -29.7590  -11.7663   17.4798 H   0  0  0  0  0  0
  -29.6986  -13.4798   17.7672 H   0  0  0  0  0  0
  -27.8146  -11.3338   18.8025 H   0  0  0  0  0  0
  -27.4036  -12.7002   17.7966 H   0  0  0  0  0  0
  -27.6842  -14.2706   19.5944 H   0  0  0  0  0  0
  -28.6948  -12.0027   21.3840 H   0  0  0  0  0  0
  -28.4630  -13.6520   21.8862 H   0  0  0  0  0  0
  -25.2767   -9.5730   22.4774 H   0  0  0  0  0  0
  -23.9993   -7.4703   22.7535 H   0  0  0  0  0  0
  -21.0825   -8.8813   19.8989 H   0  0  0  0  0  0
  -22.3710  -10.9697   19.6206 H   0  0  0  0  0  0
  -21.2055   -7.6161   23.9737 H   0  0  0  0  0  0
  -21.1464   -6.0523   25.9063 H   0  0  0  0  0  0
  -22.0612   -2.7633   23.2833 H   0  0  0  0  0  0
  -22.3910  -11.9948   22.4737 H   0  0  0  0  0  0
  -21.1088  -13.1517   22.2639 H   0  0  0  0  0  0
  -24.6649  -15.8311   20.6543 H   0  0  0  0  0  0
  -26.2946  -15.6669   20.2473 H   0  0  0  0  0  0
  -26.7126  -32.5515   23.1187 H   0  0  0  0  0  0
  -25.0108  -33.9802   25.0521 H   0  0  0  0  0  0
  -22.6954  -31.3016   21.4214 H   0  0  0  0  0  0
  -23.3747  -35.9616   23.3308 H   0  0  0  0  0  0
  -24.3547  -36.8912   22.2047 H   0  0  0  0  0  0
  -23.7189  -37.6503   23.6636 H   0  0  0  0  0  0
  -26.0425  -31.5823   20.5902 H   0  0  0  0  0  0
  -26.8281  -30.8857   21.9789 H   0  0  0  0  0  0
  -28.1016  -29.0626   21.1862 H   0  0  0  0  0  0
  -26.0399  -25.9325   19.0503 H   0  0  0  0  0  0
  -23.9757  -27.2934   19.0323 H   0  0  0  0  0  0
  -23.7226  -30.5920   19.4106 H   0  0  0  0  0  0
  -22.7374  -29.2407   19.8773 H   0  0  0  0  0  0
  -25.1264  -36.2004   25.0833 H   0  0  0  0  0  0
  -20.9901  -28.3161   24.1483 H   0  0  0  0  0  0
  -20.5636  -26.2227   23.3603 H   0  0  0  0  0  0
  -21.6619  -26.7421   22.1233 H   0  0  0  0  0  0
  -19.6870  -25.6290   21.1250 H   0  0  0  0  0  0
  -19.6662  -27.3173   20.6760 H   0  0  0  0  0  0
  -17.4170  -26.6690   21.4017 H   0  0  0  0  0  0
  -18.0268  -26.0065   22.8997 H   0  0  0  0  0  0
  -19.7906  -30.7249   24.2303 H   0  0  0  0  0  0
  -17.4990  -31.6274   24.5130 H   0  0  0  0  0  0
  -15.5330  -30.2985   23.7653 H   0  0  0  0  0  0
  -15.8640  -28.0803   22.7118 H   0  0  0  0  0  0
  -24.5901  -30.7083   25.7873 H   0  0  0  0  0  0
  -24.8923  -32.2895   26.4968 H   0  0  0  0  0  0
  -25.8090  -30.8924   27.0273 H   0  0  0  0  0  0
  -26.2814  -29.6881   24.1126 H   0  0  0  0  0  0
  -27.4050  -29.7273   25.4532 H   0  0  0  0  0  0
  -27.8651  -30.4436   23.9246 H   0  0  0  0  0  0
  -27.2697  -33.3652   26.2094 H   0  0  0  0  0  0
  -28.3853  -32.6892   25.0316 H   0  0  0  0  0  0
  -28.0729  -31.8461   26.5420 H   0  0  0  0  0  0
  -28.2610  -38.0097   24.7547 H   0  0  0  0  0  0
  -28.1068  -36.2638   24.6246 H   0  0  0  0  0  0
  -27.2304  -37.1426   25.8868 H   0  0  0  0  0  0
  -20.9334  -29.8769   21.7057 H   0  0  0  0  0  0
  -26.0181  -38.2882   24.1454 H   0  0  0  0  0  0
  -29.2364  -15.6600   18.3756 H   0  0  0  0  0  0
  -26.6336  -19.4917   16.8566 H   0  0  0  0  0  0
  -26.8343  -21.2269   16.7079 H   0  0  0  0  0  0
  -26.4373  -20.5000   18.2623 H   0  0  0  0  0  0
  -27.3428  -23.8688   19.8107 H   0  0  0  0  0  0
  -29.0454  -24.1008   19.4992 H   0  0  0  0  0  0
  -29.1350  -25.5149   21.6916 H   0  0  0  0  0  0
  -27.4023  -25.4844   21.6699 H   0  0  0  0  0  0
  -30.0457  -20.7735   20.9515 H   0  0  0  0  0  0
  -29.1307  -15.3497   21.5684 H   0  0  0  0  0  0
  1 25  1  0  0  0
  1 30  2  0  0  0
  1 85  1  0  0  0
  2  3  1  0  0  0
  2 25  1  0  0  0
  2 92  1  0  0  0
  2 93  1  0  0  0
  3  4  1  0  0  0
  3 94  1  0  0  0
  3 95  1  0  0  0
  4  5  1  0  0  0
  4 96  1  0  0  0
  4 97  1  0  0  0
  5  6  1  0  0  0
  5 26  1  0  0  0
  5 98  1  0  0  0
  6 25  1  0  0  0
  6 99  1  0  0  0
  6100  1  0  0  0
  7  8  2  0  0  0
  7 26  1  0  0  0
  7 29  1  0  0  0
  8  9  1  0  0  0
  8 22  1  0  0  0
  9 10  1  0  0  0
  9 27  2  0  0  0
 10 11  2  0  0  0
 10 15  1  0  0  0
 11 12  1  0  0  0
 11101  1  0  0  0
 12 13  2  0  0  0
 12102  1  0  0  0
 13 14  1  0  0  0
 13 31  1  0  0  0
 14 15  2  0  0  0
 14103  1  0  0  0
 15104  1  0  0  0
 16 17  2  0  0  0
 16 21  1  0  0  0
 16 31  1  0  0  0
 17 18  1  0  0  0
 17105  1  0  0  0
 18 19  2  0  0  0
 18106  1  0  0  0
 19 20  1  0  0  0
 19 24  1  0  0  0
 20 21  2  0  0  0
 20107  1  0  0  0
 21 23  1  0  0  0
 22 28  1  0  0  0
 22 32  2  0  0  0
 26 27  1  0  0  0
 28108  1  0  0  0
 28109  1  0  0  0
 29110  1  0  0  0
 29111  1  0  0  0
 33 34  1  0  0  0
 33 66  1  0  0  0
 33 70  2  0  0  0
 34 36  1  0  0  0
 34 59  1  0  0  0
 34112  1  0  0  0
 35 44  2  0  0  0
 35 45  1  0  0  0
 35 68  1  0  0  0
 36 56  1  0  0  0
 36113  1  0  0  0
 37 39  1  0  0  0
 37 47  1  0  0  0
 37 66  1  0  0  0
 37114  1  0  0  0
 38 43  2  0  0  0
 38 46  1  0  0  0
 38 47  1  0  0  0
 39 64  1  0  0  0
 39 67  2  0  0  0
 40 52  1  0  0  0
 40 53  2  0  0  0
 40 58  1  0  0  0
 41115  1  0  0  0
 41116  1  0  0  0
 41117  1  0  0  0
 41 48  1  0  0  0
 42 43  1  0  0  0
 42 66  1  0  0  0
 42118  1  0  0  0
 42119  1  0  0  0
 43 44  1  0  0  0
 44120  1  0  0  0
 45 46  2  0  0  0
 45121  1  0  0  0
 46122  1  0  0  0
 47123  1  0  0  0
 47124  1  0  0  0
 48 56  1  0  0  0
 48 65  1  0  0  0
 48125  1  0  0  0
 49 50  1  0  0  0
 49 53  1  0  0  0
 49 64  1  0  0  0
 49126  1  0  0  0
 50 51  1  0  0  0
 50127  1  0  0  0
 50128  1  0  0  0
 51 52  1  0  0  0
 51129  1  0  0  0
 51130  1  0  0  0
 52131  1  0  0  0
 52132  1  0  0  0
 53 54  1  0  0  0
 54 55  2  0  0  0
 54133  1  0  0  0
 55 57  1  0  0  0
 55134  1  0  0  0
 56 69  2  0  0  0
 57 58  2  0  0  0
 57135  1  0  0  0
 58136  1  0  0  0
 59 60  1  0  0  0
 59 61  1  0  0  0
 59 62  1  0  0  0
 60137  1  0  0  0
 60138  1  0  0  0
 60139  1  0  0  0
 61140  1  0  0  0
 61141  1  0  0  0
 61142  1  0  0  0
 62143  1  0  0  0
 62144  1  0  0  0
 62145  1  0  0  0
 63 65  1  0  0  0
 63146  1  0  0  0
 63147  1  0  0  0
 63148  1  0  0  0
 64149  1  0  0  0
 65150  1  0  0  0
 68 81  1  0  0  0
 71 72  2  0  0  0
 71 74  1  0  0  0
 71151  1  0  0  0
 72 73  1  0  0  0
 72 76  1  0  0  0
 73 75  2  0  0  0
 73 82  1  0  0  0
 74 83  2  0  0  0
 74 85  1  0  0  0
 75 83  1  0  0  0
 75 84  1  0  0  0
 76 86  2  0  0  0
 76 89  1  0  0  0
 77 78  1  0  0  0
 77 80  1  0  0  0
 77 87  2  0  0  0
 78 84  1  0  0  0
 78 88  2  0  0  0
 79152  1  0  0  0
 79153  1  0  0  0
 79154  1  0  0  0
 79 82  1  0  0  0
 80 81  1  0  0  0
 80155  1  0  0  0
 80156  1  0  0  0
 81157  1  0  0  0
 81158  1  0  0  0
 82 90  1  0  0  0
 82 91  1  0  0  0
 84159  1  0  0  0
 85160  1  0  0  0
M  ISO  4   1 100  68 101  81 101  85 100
M  END
> <chiral flag>
0

> <version>
0

> <s_m_source_file>
/data/baiqing/PycharmProjects/Reinvent-master-3.2/result/LINK_invent/BTK/process_docking_weight1_custom_product_contain_oxygen_bond_distance_aromatic_linkinvent_7_9_3/rearranged_h_0174.sdf

> <i_m_source_file_index>
85

> <r_mmod_Potential_Energy-OPLS-2005>
-165.080535888672

> <r_mmod_Stretch_Energy-OPLS-2005>
57.4180221557617

> <r_mmod_Bend_Energy-OPLS-2005>
121.140045166016

> <r_mmod_Torsional_Energy-OPLS-2005>
301.589569091797

> <r_mmod_Improper_Torsional_Energy-OPLS-2005>
6.81450510025024

> <r_mmod_Van_der_Waal_Energy-OPLS-2005>
149.355911254883

> <r_mmod_Electrostatic_Energy-OPLS-2005>
-593.050476074219

> <r_mmod_Solvation_Energy-OPLS-2005>
-235.178161621094

> <b_mmod_Minimization_Converged-OPLS-2005>
0

> <r_mmod_RMS_Derivative-OPLS-2005>
4.53392171859741

$$$$
85
                    3D
 Structure written by MMmdl.
168176  0  0  1  0            999 V2000
  -30.6591  -14.5031   20.7012 C   0  0  0  0  0  0
  -30.4518  -12.3820   19.4003 C   0  0  0  0  0  0
  -29.5055  -12.5781   18.1944 C   0  0  0  0  0  0
  -28.0262  -12.4064   18.5970 C   0  0  0  0  0  0
  -27.6681  -13.2074   19.8770 C   0  0  2  0  0  0
  -28.7035  -12.9229   20.9863 C   0  0  0  0  0  0
  -25.2612  -13.8163   20.5632 C   0  0  0  0  0  0
  -24.1844  -13.0457   20.9099 C   0  0  0  0  0  0
  -24.6405  -11.6916   20.8665 C   0  0  0  0  0  0
  -23.9068  -10.4304   21.0383 C   0  0  0  0  0  0
  -24.3630   -9.4222   21.9149 C   0  0  0  0  0  0
  -23.6308   -8.2254   22.0739 C   0  0  0  0  0  0
  -22.4278   -8.0297   21.3543 C   0  0  0  0  0  0
  -21.9906   -9.0259   20.4629 C   0  0  0  0  0  0
  -22.7252  -10.2128   20.3026 C   0  0  0  0  0  0
  -21.6846   -6.0743   22.5281 C   0  0  0  0  0  0
  -21.4004   -6.5641   23.8216 C   0  0  0  0  0  0
  -21.3639   -5.6784   24.9167 C   0  0  0  0  0  0
  -21.6057   -4.3054   24.7199 C   0  0  0  0  0  0
  -21.8836   -3.8156   23.4317 C   0  0  0  0  0  0
  -21.9195   -4.6976   22.3386 C   0  0  0  0  0  0
  -22.7872  -13.5264   21.1787 C   0  0  0  0  0  0
  -22.1683   -4.2171   21.0961 F   0  0  0  0  0  0
  -21.5609   -3.4533   25.7698 F   0  0  0  0  0  0
  -30.0421  -13.3001   20.4791 N   0  0  0  0  0  0
  -26.3056  -12.9321   20.3328 N   0  0  0  0  0  0
  -25.9336  -11.6494   20.5681 N   0  0  0  0  0  0
  -22.0488  -12.8278   22.0343 N   0  0  0  0  0  0
  -25.4390  -15.1863   20.4091 N   0  0  0  0  0  0
  -31.6849  -14.8417   20.0921 O   0  0  0  0  0  0
  -21.6649   -6.8897   21.4246 O   0  0  0  0  0  0
  -22.3565  -14.5557   20.6614 O   0  0  0  0  0  0
  -24.6136  -31.8653   23.2074 C   0  0  0  0  0  0
  -25.9014  -32.4831   23.8332 C   0  0  1  0  0  0
  -27.2719  -27.4200   20.1117 C   0  0  0  0  0  0
  -25.5862  -33.8620   24.2269 N   0  0  0  0  0  0
  -23.4100  -30.4908   21.5421 C   0  0  2  0  0  0
  -24.8708  -28.9471   20.1227 C   0  0  0  0  0  0
  -22.7435  -29.4653   22.4901 C   0  0  0  0  0  0
  -18.0292  -28.1414   22.8489 C   0  0  0  0  0  0
  -24.1452  -36.7288   23.2648 C   0  0  0  0  0  0
  -25.9390  -30.8255   21.3657 C   0  0  0  0  0  0
  -26.0275  -29.4499   20.7346 C   0  0  0  0  0  0
  -27.2311  -28.6936   20.7423 C   0  0  0  0  0  0
  -26.0946  -26.9419   19.4984 C   0  0  0  0  0  0
  -24.8986  -27.6861   19.5078 C   0  0  0  0  0  0
  -23.6308  -29.8179   20.1591 C   0  0  0  0  0  0
  -25.4092  -36.3093   24.0332 C   0  0  1  0  0  0
  -20.5896  -28.3683   23.1287 C   0  0  2  0  0  0
  -20.6782  -26.9414   22.5418 C   0  0  0  0  0  0
  -19.5758  -26.6378   21.5223 C   0  0  0  0  0  0
  -18.1935  -26.7941   22.1624 C   0  0  0  0  0  0
  -19.1556  -28.8852   23.2893 C   0  0  0  0  0  0
  -18.9491  -30.1469   23.8903 C   0  0  0  0  0  0
  -17.6512  -30.6625   24.0587 C   0  0  0  0  0  0
  -25.9011  -34.9486   23.5081 C   0  0  0  0  0  0
  -16.5388  -29.9160   23.6348 C   0  0  0  0  0  0
  -16.7284  -28.6566   23.0356 C   0  0  0  0  0  0
  -26.4444  -31.6621   25.0649 C   0  0  0  0  0  0
  -25.3717  -31.3839   26.1409 C   0  0  0  0  0  0
  -27.0295  -30.3048   24.6033 C   0  0  0  0  0  0
  -27.5966  -32.4363   25.7488 C   0  0  0  0  0  0
  -27.5564  -37.1795   24.8478 C   0  0  0  0  0  0
  -21.4156  -29.3058   22.3649 N   0  0  0  0  0  0
  -26.4271  -37.3783   23.9430 N   0  0  0  0  0  0
  -24.6736  -31.0753   22.0974 N   0  0  0  0  0  0
  -23.4198  -28.8177   23.2925 O   0  0  0  0  0  0
  -28.3828  -26.5979   20.0034 O   0  0  0  0  0  0
  -26.5587  -34.8962   22.4660 O   0  0  0  0  0  0
  -23.5311  -32.1406   23.7451 O   0  0  0  0  0  0
  -28.4121  -16.6210   22.5089 C   0  0  0  0  0  0
  -27.8527  -17.8380   22.9333 C   0  0  0  0  0  0
  -28.6276  -19.0207   22.8169 C   0  0  0  0  0  0
  -29.6667  -16.5668   21.8862 C   0  0  0  0  0  0
  -29.8120  -18.9528   22.0148 C   0  0  0  0  0  0
  -26.4640  -17.7977   23.4577 C   0  0  0  0  0  0
  -29.9362  -21.2555   21.0500 C   0  0  0  0  0  0
  -31.5302  -25.5643   21.8804 C   0  0  0  0  0  0
  -30.9762  -25.4066   19.4595 C   0  0  0  0  0  0
  -30.6603  -22.6334   21.0893 C   0  0  0  0  0  0
  -29.7234  -23.9073   21.1266 C   0  0  0  0  0  0
  -29.3487  -26.5230   21.0578 C   0  0  0  0  0  0
  -28.2079  -20.2882   23.6041 C   0  0  0  0  0  0
  -30.3735  -25.3285   20.8806 C   0  0  0  0  0  0
  -30.3227  -17.7367   21.6084 N   0  0  0  0  0  0
  -25.6007  -18.7093   23.3026 N   0  0  0  0  0  0
  -30.4875  -20.1804   21.6797 N   0  0  0  0  0  0
  -30.1115  -15.2062   21.7205 N   0  0  0  0  0  0
  -28.8804  -21.1622   20.4220 O   0  0  0  0  0  0
  -27.7491  -19.9656   24.8137 F   0  0  0  0  0  0
  -29.2203  -21.1163   23.8596 F   0  0  0  0  0  0
  -27.2621  -20.9697   22.9583 F   0  0  0  0  0  0
  -31.4887  -12.5469   19.0994 H   0  0  0  0  0  0
  -30.4106  -11.3502   19.7500 H   0  0  0  0  0  0
  -29.7678  -11.8864   17.3909 H   0  0  0  0  0  0
  -29.6492  -13.5816   17.7883 H   0  0  0  0  0  0
  -27.8460  -11.3440   18.7597 H   0  0  0  0  0  0
  -27.3716  -12.7006   17.7732 H   0  0  0  0  0  0
  -27.7297  -14.2670   19.6280 H   0  0  0  0  0  0
  -28.6926  -11.8592   21.2311 H   0  0  0  0  0  0
  -28.4199  -13.4210   21.9122 H   0  0  0  0  0  0
  -25.2777   -9.5695   22.4714 H   0  0  0  0  0  0
  -24.0021   -7.4642   22.7454 H   0  0  0  0  0  0
  -21.0829   -8.8782   19.8939 H   0  0  0  0  0  0
  -22.3733  -10.9653   19.6117 H   0  0  0  0  0  0
  -21.2022   -7.6152   23.9733 H   0  0  0  0  0  0
  -21.1429   -6.0496   25.9074 H   0  0  0  0  0  0
  -22.0637   -2.7622   23.2796 H   0  0  0  0  0  0
  -22.4100  -12.0003   22.4838 H   0  0  0  0  0  0
  -21.1077  -13.1290   22.2464 H   0  0  0  0  0  0
  -24.6671  -15.8410   20.4643 H   0  0  0  0  0  0
  -26.3041  -15.6128   20.1066 H   0  0  0  0  0  0
  -26.7093  -32.5559   23.1111 H   0  0  0  0  0  0
  -25.0012  -33.9792   25.0396 H   0  0  0  0  0  0
  -22.6963  -31.3076   21.3981 H   0  0  0  0  0  0
  -23.3716  -35.9615   23.3320 H   0  0  0  0  0  0
  -24.3556  -36.8872   22.2059 H   0  0  0  0  0  0
  -23.7197  -37.6500   23.6639 H   0  0  0  0  0  0
  -26.0384  -31.5753   20.5790 H   0  0  0  0  0  0
  -26.8297  -30.8983   21.9766 H   0  0  0  0  0  0
  -28.1136  -29.0955   21.2227 H   0  0  0  0  0  0
  -26.1108  -25.9745   19.0176 H   0  0  0  0  0  0
  -24.0170  -27.2863   19.0289 H   0  0  0  0  0  0
  -23.7545  -30.5939   19.4023 H   0  0  0  0  0  0
  -22.7531  -29.2466   19.8510 H   0  0  0  0  0  0
  -25.1281  -36.1906   25.0821 H   0  0  0  0  0  0
  -21.0026  -28.3251   24.1392 H   0  0  0  0  0  0
  -20.5673  -26.2312   23.3626 H   0  0  0  0  0  0
  -21.6659  -26.7461   22.1233 H   0  0  0  0  0  0
  -19.6963  -25.6289   21.1255 H   0  0  0  0  0  0
  -19.6714  -27.3195   20.6760 H   0  0  0  0  0  0
  -17.4229  -26.6680   21.4013 H   0  0  0  0  0  0
  -18.0340  -26.0100   22.9025 H   0  0  0  0  0  0
  -19.7985  -30.7258   24.2259 H   0  0  0  0  0  0
  -17.5108  -31.6318   24.5164 H   0  0  0  0  0  0
  -15.5404  -30.3098   23.7686 H   0  0  0  0  0  0
  -15.8656  -28.0930   22.7061 H   0  0  0  0  0  0
  -24.5856  -30.7198   25.7800 H   0  0  0  0  0  0
  -24.8976  -32.3078   26.4714 H   0  0  0  0  0  0
  -25.8041  -30.9128   27.0236 H   0  0  0  0  0  0
  -26.2876  -29.6826   24.1010 H   0  0  0  0  0  0
  -27.4009  -29.7230   25.4475 H   0  0  0  0  0  0
  -27.8697  -30.4372   23.9224 H   0  0  0  0  0  0
  -27.2502  -33.3669   26.2012 H   0  0  0  0  0  0
  -28.3853  -32.6923   25.0400 H   0  0  0  0  0  0
  -28.0521  -31.8515   26.5488 H   0  0  0  0  0  0
  -28.2591  -38.0084   24.7525 H   0  0  0  0  0  0
  -28.1034  -36.2617   24.6267 H   0  0  0  0  0  0
  -27.2293  -37.1404   25.8885 H   0  0  0  0  0  0
  -20.9272  -29.8824   21.6948 H   0  0  0  0  0  0
  -26.0125  -38.2831   24.1476 H   0  0  0  0  0  0
  -27.8570  -15.7084   22.6838 H   0  0  0  0  0  0
  -26.1778  -16.8864   23.9866 H   0  0  0  0  0  0
  -32.2961  -24.7908   21.8287 H   0  0  0  0  0  0
  -31.1734  -25.6158   22.9107 H   0  0  0  0  0  0
  -32.0421  -26.5047   21.6706 H   0  0  0  0  0  0
  -31.8323  -24.7448   19.3292 H   0  0  0  0  0  0
  -31.3238  -26.4169   19.2409 H   0  0  0  0  0  0
  -30.2477  -25.1401   18.6934 H   0  0  0  0  0  0
  -31.2940  -22.6714   20.2068 H   0  0  0  0  0  0
  -31.3334  -22.6435   21.9478 H   0  0  0  0  0  0
  -29.2284  -23.9286   22.0978 H   0  0  0  0  0  0
  -28.9127  -23.7761   20.4072 H   0  0  0  0  0  0
  -29.8854  -27.4741   21.0704 H   0  0  0  0  0  0
  -28.8380  -26.4481   22.0193 H   0  0  0  0  0  0
  -25.9733  -19.4916   22.7735 H   0  0  0  0  0  0
  -31.4278  -20.2832   22.0366 H   0  0  0  0  0  0
  -29.5214  -14.5788   22.2406 H   0  0  0  0  0  0
  1 25  1  0  0  0
  1 30  2  0  0  0
  1 88  1  0  0  0
  2  3  1  0  0  0
  2 25  1  0  0  0
  2 93  1  0  0  0
  2 94  1  0  0  0
  3  4  1  0  0  0
  3 95  1  0  0  0
  3 96  1  0  0  0
  4  5  1  0  0  0
  4 97  1  0  0  0
  4 98  1  0  0  0
  5  6  1  0  0  0
  5 26  1  0  0  0
  5 99  1  0  0  0
  6 25  1  0  0  0
  6100  1  0  0  0
  6101  1  0  0  0
  7  8  2  0  0  0
  7 26  1  0  0  0
  7 29  1  0  0  0
  8  9  1  0  0  0
  8 22  1  0  0  0
  9 10  1  0  0  0
  9 27  2  0  0  0
 10 11  2  0  0  0
 10 15  1  0  0  0
 11 12  1  0  0  0
 11102  1  0  0  0
 12 13  2  0  0  0
 12103  1  0  0  0
 13 14  1  0  0  0
 13 31  1  0  0  0
 14 15  2  0  0  0
 14104  1  0  0  0
 15105  1  0  0  0
 16 17  2  0  0  0
 16 21  1  0  0  0
 16 31  1  0  0  0
 17 18  1  0  0  0
 17106  1  0  0  0
 18 19  2  0  0  0
 18107  1  0  0  0
 19 20  1  0  0  0
 19 24  1  0  0  0
 20 21  2  0  0  0
 20108  1  0  0  0
 21 23  1  0  0  0
 22 28  1  0  0  0
 22 32  2  0  0  0
 26 27  1  0  0  0
 28109  1  0  0  0
 28110  1  0  0  0
 29111  1  0  0  0
 29112  1  0  0  0
 33 34  1  0  0  0
 33 66  1  0  0  0
 33 70  2  0  0  0
 34 36  1  0  0  0
 34 59  1  0  0  0
 34113  1  0  0  0
 35 44  2  0  0  0
 35 45  1  0  0  0
 35 68  1  0  0  0
 36 56  1  0  0  0
 36114  1  0  0  0
 37 39  1  0  0  0
 37 47  1  0  0  0
 37 66  1  0  0  0
 37115  1  0  0  0
 38 43  2  0  0  0
 38 46  1  0  0  0
 38 47  1  0  0  0
 39 64  1  0  0  0
 39 67  2  0  0  0
 40 52  1  0  0  0
 40 53  2  0  0  0
 40 58  1  0  0  0
 41116  1  0  0  0
 41117  1  0  0  0
 41118  1  0  0  0
 41 48  1  0  0  0
 42 43  1  0  0  0
 42 66  1  0  0  0
 42119  1  0  0  0
 42120  1  0  0  0
 43 44  1  0  0  0
 44121  1  0  0  0
 45 46  2  0  0  0
 45122  1  0  0  0
 46123  1  0  0  0
 47124  1  0  0  0
 47125  1  0  0  0
 48 56  1  0  0  0
 48 65  1  0  0  0
 48126  1  0  0  0
 49 50  1  0  0  0
 49 53  1  0  0  0
 49 64  1  0  0  0
 49127  1  0  0  0
 50 51  1  0  0  0
 50128  1  0  0  0
 50129  1  0  0  0
 51 52  1  0  0  0
 51130  1  0  0  0
 51131  1  0  0  0
 52132  1  0  0  0
 52133  1  0  0  0
 53 54  1  0  0  0
 54 55  2  0  0  0
 54134  1  0  0  0
 55 57  1  0  0  0
 55135  1  0  0  0
 56 69  2  0  0  0
 57 58  2  0  0  0
 57136  1  0  0  0
 58137  1  0  0  0
 59 60  1  0  0  0
 59 61  1  0  0  0
 59 62  1  0  0  0
 60138  1  0  0  0
 60139  1  0  0  0
 60140  1  0  0  0
 61141  1  0  0  0
 61142  1  0  0  0
 61143  1  0  0  0
 62144  1  0  0  0
 62145  1  0  0  0
 62146  1  0  0  0
 63 65  1  0  0  0
 63147  1  0  0  0
 63148  1  0  0  0
 63149  1  0  0  0
 64150  1  0  0  0
 65151  1  0  0  0
 68 82  1  0  0  0
 71 72  2  0  0  0
 71 74  1  0  0  0
 71152  1  0  0  0
 72 73  1  0  0  0
 72 76  1  0  0  0
 73 75  2  0  0  0
 73 83  1  0  0  0
 74 85  2  0  0  0
 74 88  1  0  0  0
 75 85  1  0  0  0
 75 87  1  0  0  0
 76 86  2  0  0  0
 76153  1  0  0  0
 77 80  1  0  0  0
 77 87  1  0  0  0
 77 89  2  0  0  0
 78154  1  0  0  0
 78155  1  0  0  0
 78156  1  0  0  0
 78 84  1  0  0  0
 79 84  1  0  0  0
 79157  1  0  0  0
 79158  1  0  0  0
 79159  1  0  0  0
 80 81  1  0  0  0
 80160  1  0  0  0
 80161  1  0  0  0
 81 84  1  0  0  0
 81162  1  0  0  0
 81163  1  0  0  0
 82 84  1  0  0  0
 82164  1  0  0  0
 82165  1  0  0  0
 83 90  1  0  0  0
 83 91  1  0  0  0
 83 92  1  0  0  0
 86166  1  0  0  0
 87167  1  0  0  0
 88168  1  0  0  0
M  ISO  4   1 100  68 101  82 101  88 100
M  END
> <chiral flag>
0

> <version>
0

> <s_m_source_file>
/data/baiqing/PycharmProjects/Reinvent-master-3.2/result/LINK_invent/BTK/process_docking_weight1_custom_product_contain_oxygen_bond_distance_aromatic_linkinvent_7_9_3/rearranged_h_0174.sdf

> <i_m_source_file_index>
86

> <r_mmod_Potential_Energy-OPLS-2005>
-161.621887207031

> <r_mmod_Stretch_Energy-OPLS-2005>
63.3471069335938

> <r_mmod_Bend_Energy-OPLS-2005>
155.293395996094

> <r_mmod_Torsional_Energy-OPLS-2005>
291.655609130859

> <r_mmod_Improper_Torsional_Energy-OPLS-2005>
6.31878900527954

> <r_mmod_Van_der_Waal_Energy-OPLS-2005>
155.270034790039

> <r_mmod_Electrostatic_Energy-OPLS-2005>
-602.815979003906

> <r_mmod_Solvation_Energy-OPLS-2005>
-251.180236816406

> <b_mmod_Minimization_Converged-OPLS-2005>
0

> <r_mmod_RMS_Derivative-OPLS-2005>
5.19573593139648

$$$$
86
                    3D
 Structure written by MMmdl.
158166  0  0  1  0            999 V2000
  -30.7580  -14.4039   20.6523 C   0  0  0  0  0  0
  -30.4183  -12.3005   19.4067 C   0  0  0  0  0  0
  -29.4869  -12.5129   18.1981 C   0  0  0  0  0  0
  -28.0112  -12.3714   18.6155 C   0  0  0  0  0  0
  -27.6643  -13.2048   19.8777 C   0  0  2  0  0  0
  -28.7047  -12.9705   20.9959 C   0  0  0  0  0  0
  -25.2608  -13.8168   20.5678 C   0  0  0  0  0  0
  -24.1850  -13.0449   20.9167 C   0  0  0  0  0  0
  -24.6401  -11.6911   20.8738 C   0  0  0  0  0  0
  -23.9065  -10.4297   21.0411 C   0  0  0  0  0  0
  -24.3615   -9.4209   21.9188 C   0  0  0  0  0  0
  -23.6292   -8.2244   22.0756 C   0  0  0  0  0  0
  -22.4276   -8.0285   21.3544 C   0  0  0  0  0  0
  -21.9913   -9.0259   20.4644 C   0  0  0  0  0  0
  -22.7243  -10.2138   20.3056 C   0  0  0  0  0  0
  -21.6853   -6.0737   22.5279 C   0  0  0  0  0  0
  -21.4012   -6.5641   23.8212 C   0  0  0  0  0  0
  -21.3658   -5.6794   24.9176 C   0  0  0  0  0  0
  -21.6044   -4.3057   24.7228 C   0  0  0  0  0  0
  -21.8822   -3.8148   23.4350 C   0  0  0  0  0  0
  -21.9193   -4.6963   22.3403 C   0  0  0  0  0  0
  -22.7872  -13.5244   21.1834 C   0  0  0  0  0  0
  -22.1663   -4.2147   21.0983 F   0  0  0  0  0  0
  -21.5628   -3.4544   25.7741 F   0  0  0  0  0  0
  -30.0402  -13.2682   20.4473 N   0  0  0  0  0  0
  -26.3041  -12.9329   20.3382 N   0  0  0  0  0  0
  -25.9325  -11.6488   20.5769 N   0  0  0  0  0  0
  -22.0515  -12.8231   22.0388 N   0  0  0  0  0  0
  -25.4382  -15.1882   20.4090 N   0  0  0  0  0  0
  -31.8325  -14.6282   20.0862 O   0  0  0  0  0  0
  -21.6642   -6.8880   21.4241 O   0  0  0  0  0  0
  -22.3562  -14.5557   20.6693 O   0  0  0  0  0  0
  -24.6138  -31.8696   23.2101 C   0  0  0  0  0  0
  -25.9040  -32.4830   23.8389 C   0  0  1  0  0  0
  -27.2363  -27.4385   20.0863 C   0  0  0  0  0  0
  -25.5895  -33.8624   24.2337 N   0  0  0  0  0  0
  -23.3995  -30.4933   21.5521 C   0  0  2  0  0  0
  -24.8430  -28.9556   20.1193 C   0  0  0  0  0  0
  -22.7397  -29.4676   22.5009 C   0  0  0  0  0  0
  -18.0262  -28.1385   22.8499 C   0  0  0  0  0  0
  -24.1487  -36.7324   23.2634 C   0  0  0  0  0  0
  -25.9267  -30.8362   21.3591 C   0  0  0  0  0  0
  -26.0024  -29.4680   20.7118 C   0  0  0  0  0  0
  -27.1977  -28.7156   20.6925 C   0  0  0  0  0  0
  -26.0502  -26.9329   19.5019 C   0  0  0  0  0  0
  -24.8612  -27.6870   19.5158 C   0  0  0  0  0  0
  -23.6060  -29.8234   20.1676 C   0  0  0  0  0  0
  -25.4106  -36.3119   24.0339 C   0  0  1  0  0  0
  -20.5852  -28.3672   23.1333 C   0  0  2  0  0  0
  -20.6756  -26.9414   22.5426 C   0  0  0  0  0  0
  -19.5734  -26.6390   21.5219 C   0  0  0  0  0  0
  -18.1911  -26.7933   22.1624 C   0  0  0  0  0  0
  -19.1514  -28.8842   23.2912 C   0  0  0  0  0  0
  -18.9447  -30.1441   23.8924 C   0  0  0  0  0  0
  -17.6455  -30.6596   24.0570 C   0  0  0  0  0  0
  -25.9026  -34.9479   23.5135 C   0  0  0  0  0  0
  -16.5343  -29.9109   23.6322 C   0  0  0  0  0  0
  -16.7252  -28.6523   23.0352 C   0  0  0  0  0  0
  -26.4467  -31.6596   25.0707 C   0  0  0  0  0  0
  -25.3735  -31.3684   26.1455 C   0  0  0  0  0  0
  -27.0296  -30.3049   24.6051 C   0  0  0  0  0  0
  -27.6050  -32.4300   25.7477 C   0  0  0  0  0  0
  -27.5586  -37.1817   24.8463 C   0  0  0  0  0  0
  -21.4122  -29.3048   22.3753 N   0  0  0  0  0  0
  -26.4299  -37.3800   23.9403 N   0  0  0  0  0  0
  -24.6657  -31.0801   22.0995 N   0  0  0  0  0  0
  -23.4182  -28.8207   23.3034 O   0  0  0  0  0  0
  -28.4440  -26.7679   20.0785 O   0  0  0  0  0  0
  -26.5594  -34.8932   22.4699 O   0  0  0  0  0  0
  -23.5341  -32.1443   23.7515 O   0  0  0  0  0  0
  -30.1460  -17.7266   21.9431 C   0  0  0  0  0  0
  -32.0928  -16.4163   22.5876 C   0  0  0  0  0  0
  -32.0141  -18.8083   23.1264 C   0  0  0  0  0  0
  -30.8196  -16.4850   21.9827 C   0  0  0  0  0  0
  -30.7431  -18.8930   22.4874 C   0  0  0  0  0  0
  -32.6866  -17.5604   23.1515 C   0  0  0  0  0  0
  -28.8673  -23.0315   20.7143 C   0  0  0  0  0  0
  -29.2013  -22.1725   21.7116 C   0  0  0  0  0  0
  -28.5007  -24.4542   20.9197 C   0  0  0  0  0  0
  -29.5707  -20.7925   21.3800 C   0  0  0  0  0  0
  -28.5264  -25.3843   19.6931 C   0  0  0  0  0  0
  -32.6593  -20.0543   23.7500 C   0  0  0  0  0  0
  -30.0590  -20.1442   22.4496 N   0  0  0  0  0  0
  -30.1940  -15.3139   21.4666 N   0  0  0  0  0  0
  -28.2026  -24.9107   22.0306 O   0  0  0  0  0  0
  -29.4623  -20.2686   20.2689 O   0  0  0  0  0  0
  -29.2223  -22.5560   23.0047 O   0  0  0  0  0  0
  -33.9139  -17.4267   23.7133 F   0  0  0  0  0  0
  -31.7862  -20.6878   24.5365 F   0  0  0  0  0  0
  -33.7317  -19.7907   24.4966 F   0  0  0  0  0  0
  -33.0316  -20.8912   22.7808 F   0  0  0  0  0  0
  -31.4616  -12.3972   19.1007 H   0  0  0  0  0  0
  -30.3193  -11.2851   19.7929 H   0  0  0  0  0  0
  -29.7216  -11.7940   17.4123 H   0  0  0  0  0  0
  -29.6559  -13.5025   17.7704 H   0  0  0  0  0  0
  -27.8205  -11.3147   18.8060 H   0  0  0  0  0  0
  -27.3582  -12.6529   17.7893 H   0  0  0  0  0  0
  -27.7155  -14.2552   19.5901 H   0  0  0  0  0  0
  -28.6764  -11.9316   21.3277 H   0  0  0  0  0  0
  -28.4576  -13.5599   21.8792 H   0  0  0  0  0  0
  -25.2764   -9.5683   22.4758 H   0  0  0  0  0  0
  -24.0004   -7.4638   22.7474 H   0  0  0  0  0  0
  -21.0846   -8.8782   19.8946 H   0  0  0  0  0  0
  -22.3713  -10.9677   19.6160 H   0  0  0  0  0  0
  -21.2003   -7.6151   23.9714 H   0  0  0  0  0  0
  -21.1473   -6.0528   25.9078 H   0  0  0  0  0  0
  -22.0602   -2.7611   23.2856 H   0  0  0  0  0  0
  -22.4128  -11.9879   22.4750 H   0  0  0  0  0  0
  -21.1135  -13.1255   22.2602 H   0  0  0  0  0  0
  -24.6805  -15.8529   20.5184 H   0  0  0  0  0  0
  -26.3004  -15.6183   20.0986 H   0  0  0  0  0  0
  -26.7110  -32.5542   23.1155 H   0  0  0  0  0  0
  -25.0053  -33.9779   25.0489 H   0  0  0  0  0  0
  -22.6888  -31.3104   21.4139 H   0  0  0  0  0  0
  -23.3752  -35.9654   23.3292 H   0  0  0  0  0  0
  -24.3581  -36.8936   22.2047 H   0  0  0  0  0  0
  -23.7240  -37.6527   23.6654 H   0  0  0  0  0  0
  -26.0290  -31.5986   20.5857 H   0  0  0  0  0  0
  -26.8191  -30.8970   21.9696 H   0  0  0  0  0  0
  -28.0966  -29.1120   21.1438 H   0  0  0  0  0  0
  -26.0093  -25.9692   19.0197 H   0  0  0  0  0  0
  -23.9668  -27.2862   19.0589 H   0  0  0  0  0  0
  -23.7141  -30.5976   19.4074 H   0  0  0  0  0  0
  -22.7292  -29.2427   19.8735 H   0  0  0  0  0  0
  -25.1283  -36.1984   25.0838 H   0  0  0  0  0  0
  -20.9925  -28.3237   24.1458 H   0  0  0  0  0  0
  -20.5659  -26.2280   23.3607 H   0  0  0  0  0  0
  -21.6633  -26.7464   22.1218 H   0  0  0  0  0  0
  -19.6896  -25.6300   21.1251 H   0  0  0  0  0  0
  -19.6681  -27.3197   20.6751 H   0  0  0  0  0  0
  -17.4182  -26.6678   21.4029 H   0  0  0  0  0  0
  -18.0305  -26.0080   22.9020 H   0  0  0  0  0  0
  -19.7926  -30.7236   24.2330 H   0  0  0  0  0  0
  -17.5021  -31.6285   24.5162 H   0  0  0  0  0  0
  -15.5344  -30.3029   23.7637 H   0  0  0  0  0  0
  -15.8644  -28.0852   22.7065 H   0  0  0  0  0  0
  -24.5940  -30.6995   25.7796 H   0  0  0  0  0  0
  -24.8885  -32.2821   26.4898 H   0  0  0  0  0  0
  -25.8090  -30.8876   27.0221 H   0  0  0  0  0  0
  -26.2831  -29.6810   24.1126 H   0  0  0  0  0  0
  -27.4107  -29.7277   25.4482 H   0  0  0  0  0  0
  -27.8638  -30.4382   23.9161 H   0  0  0  0  0  0
  -27.2696  -33.3603   26.2074 H   0  0  0  0  0  0
  -28.3864  -32.6841   25.0305 H   0  0  0  0  0  0
  -28.0714  -31.8402   26.5376 H   0  0  0  0  0  0
  -28.2605  -38.0118   24.7527 H   0  0  0  0  0  0
  -28.1083  -36.2647   24.6275 H   0  0  0  0  0  0
  -27.2302  -37.1452   25.8868 H   0  0  0  0  0  0
  -20.9275  -29.8794   21.6999 H   0  0  0  0  0  0
  -26.0189  -38.2881   24.1405 H   0  0  0  0  0  0
  -29.1680  -17.7884   21.4866 H   0  0  0  0  0  0
  -32.6285  -15.4798   22.6385 H   0  0  0  0  0  0
  -28.8705  -22.6898   19.6880 H   0  0  0  0  0  0
  -27.7833  -25.0754   18.9620 H   0  0  0  0  0  0
  -29.4902  -25.2456   19.2027 H   0  0  0  0  0  0
  -30.1451  -20.7477   23.2608 H   0  0  0  0  0  0
  -29.2407  -15.1338   21.7461 H   0  0  0  0  0  0
  -28.9225  -23.4611   23.0301 H   0  0  0  0  0  0
  1 25  1  0  0  0
  1 30  2  0  0  0
  1 84  1  0  0  0
  2  3  1  0  0  0
  2 25  1  0  0  0
  2 92  1  0  0  0
  2 93  1  0  0  0
  3  4  1  0  0  0
  3 94  1  0  0  0
  3 95  1  0  0  0
  4  5  1  0  0  0
  4 96  1  0  0  0
  4 97  1  0  0  0
  5  6  1  0  0  0
  5 26  1  0  0  0
  5 98  1  0  0  0
  6 25  1  0  0  0
  6 99  1  0  0  0
  6100  1  0  0  0
  7  8  2  0  0  0
  7 26  1  0  0  0
  7 29  1  0  0  0
  8  9  1  0  0  0
  8 22  1  0  0  0
  9 10  1  0  0  0
  9 27  2  0  0  0
 10 11  2  0  0  0
 10 15  1  0  0  0
 11 12  1  0  0  0
 11101  1  0  0  0
 12 13  2  0  0  0
 12102  1  0  0  0
 13 14  1  0  0  0
 13 31  1  0  0  0
 14 15  2  0  0  0
 14103  1  0  0  0
 15104  1  0  0  0
 16 17  2  0  0  0
 16 21  1  0  0  0
 16 31  1  0  0  0
 17 18  1  0  0  0
 17105  1  0  0  0
 18 19  2  0  0  0
 18106  1  0  0  0
 19 20  1  0  0  0
 19 24  1  0  0  0
 20 21  2  0  0  0
 20107  1  0  0  0
 21 23  1  0  0  0
 22 28  1  0  0  0
 22 32  2  0  0  0
 26 27  1  0  0  0
 28108  1  0  0  0
 28109  1  0  0  0
 29110  1  0  0  0
 29111  1  0  0  0
 33 34  1  0  0  0
 33 66  1  0  0  0
 33 70  2  0  0  0
 34 36  1  0  0  0
 34 59  1  0  0  0
 34112  1  0  0  0
 35 44  2  0  0  0
 35 45  1  0  0  0
 35 68  1  0  0  0
 36 56  1  0  0  0
 36113  1  0  0  0
 37 39  1  0  0  0
 37 47  1  0  0  0
 37 66  1  0  0  0
 37114  1  0  0  0
 38 43  2  0  0  0
 38 46  1  0  0  0
 38 47  1  0  0  0
 39 64  1  0  0  0
 39 67  2  0  0  0
 40 52  1  0  0  0
 40 53  2  0  0  0
 40 58  1  0  0  0
 41115  1  0  0  0
 41116  1  0  0  0
 41117  1  0  0  0
 41 48  1  0  0  0
 42 43  1  0  0  0
 42 66  1  0  0  0
 42118  1  0  0  0
 42119  1  0  0  0
 43 44  1  0  0  0
 44120  1  0  0  0
 45 46  2  0  0  0
 45121  1  0  0  0
 46122  1  0  0  0
 47123  1  0  0  0
 47124  1  0  0  0
 48 56  1  0  0  0
 48 65  1  0  0  0
 48125  1  0  0  0
 49 50  1  0  0  0
 49 53  1  0  0  0
 49 64  1  0  0  0
 49126  1  0  0  0
 50 51  1  0  0  0
 50127  1  0  0  0
 50128  1  0  0  0
 51 52  1  0  0  0
 51129  1  0  0  0
 51130  1  0  0  0
 52131  1  0  0  0
 52132  1  0  0  0
 53 54  1  0  0  0
 54 55  2  0  0  0
 54133  1  0  0  0
 55 57  1  0  0  0
 55134  1  0  0  0
 56 69  2  0  0  0
 57 58  2  0  0  0
 57135  1  0  0  0
 58136  1  0  0  0
 59 60  1  0  0  0
 59 61  1  0  0  0
 59 62  1  0  0  0
 60137  1  0  0  0
 60138  1  0  0  0
 60139  1  0  0  0
 61140  1  0  0  0
 61141  1  0  0  0
 61142  1  0  0  0
 62143  1  0  0  0
 62144  1  0  0  0
 62145  1  0  0  0
 63 65  1  0  0  0
 63146  1  0  0  0
 63147  1  0  0  0
 63148  1  0  0  0
 64149  1  0  0  0
 65150  1  0  0  0
 68 81  1  0  0  0
 71 74  2  0  0  0
 71 75  1  0  0  0
 71151  1  0  0  0
 72 74  1  0  0  0
 72 76  2  0  0  0
 72152  1  0  0  0
 73 75  2  0  0  0
 73 76  1  0  0  0
 73 82  1  0  0  0
 74 84  1  0  0  0
 75 83  1  0  0  0
 76 88  1  0  0  0
 77 78  2  0  0  0
 77 79  1  0  0  0
 77153  1  0  0  0
 78 80  1  0  0  0
 78 87  1  0  0  0
 79 81  1  0  0  0
 79 85  2  0  0  0
 80 83  1  0  0  0
 80 86  2  0  0  0
 81154  1  0  0  0
 81155  1  0  0  0
 82 89  1  0  0  0
 82 90  1  0  0  0
 82 91  1  0  0  0
 83156  1  0  0  0
 84157  1  0  0  0
 87158  1  0  0  0
M  ISO  4   1 100  68 101  81 101  84 100
M  END
> <chiral flag>
0

> <version>
0

> <s_m_source_file>
/data/baiqing/PycharmProjects/Reinvent-master-3.2/result/LINK_invent/BTK/process_docking_weight1_custom_product_contain_oxygen_bond_distance_aromatic_linkinvent_7_9_3/rearranged_h_0174.sdf

> <i_m_source_file_index>
87

> <r_mmod_Potential_Energy-OPLS-2005>
-20.6748523712158

> <r_mmod_Stretch_Energy-OPLS-2005>
39.877311706543

> <r_mmod_Bend_Energy-OPLS-2005>
106.469955444336

> <r_mmod_Torsional_Energy-OPLS-2005>
228.49235534668

> <r_mmod_Improper_Torsional_Energy-OPLS-2005>
2.79291653633118

> <r_mmod_Van_der_Waal_Energy-OPLS-2005>
178.924102783203

> <r_mmod_Electrostatic_Energy-OPLS-2005>
-351.301818847656

> <r_mmod_Solvation_Energy-OPLS-2005>
-235.102416992188

> <b_mmod_Minimization_Converged-OPLS-2005>
0

> <r_mmod_RMS_Derivative-OPLS-2005>
1.25519394874573

$$$$
87
                    3D
 Structure written by MMmdl.
158166  0  0  1  0            999 V2000
  -30.7056  -14.4243   20.6680 C   0  0  0  0  0  0
  -30.4345  -12.3153   19.3942 C   0  0  0  0  0  0
  -29.4902  -12.5264   18.1930 C   0  0  0  0  0  0
  -28.0126  -12.3800   18.6094 C   0  0  0  0  0  0
  -27.6685  -13.1979   19.8821 C   0  0  2  0  0  0
  -28.7075  -12.9208   20.9897 C   0  0  0  0  0  0
  -25.2617  -13.8145   20.5669 C   0  0  0  0  0  0
  -24.1850  -13.0436   20.9170 C   0  0  0  0  0  0
  -24.6395  -11.6898   20.8727 C   0  0  0  0  0  0
  -23.9056  -10.4286   21.0395 C   0  0  0  0  0  0
  -24.3612   -9.4209   21.9181 C   0  0  0  0  0  0
  -23.6288   -8.2245   22.0752 C   0  0  0  0  0  0
  -22.4273   -8.0279   21.3545 C   0  0  0  0  0  0
  -21.9903   -9.0249   20.4650 C   0  0  0  0  0  0
  -22.7224  -10.2130   20.3053 C   0  0  0  0  0  0
  -21.6854   -6.0735   22.5280 C   0  0  0  0  0  0
  -21.4012   -6.5636   23.8214 C   0  0  0  0  0  0
  -21.3654   -5.6789   24.9178 C   0  0  0  0  0  0
  -21.6044   -4.3051   24.7231 C   0  0  0  0  0  0
  -21.8817   -3.8146   23.4350 C   0  0  0  0  0  0
  -21.9189   -4.6963   22.3406 C   0  0  0  0  0  0
  -22.7871  -13.5238   21.1836 C   0  0  0  0  0  0
  -22.1652   -4.2154   21.0980 F   0  0  0  0  0  0
  -21.5639   -3.4530   25.7739 F   0  0  0  0  0  0
  -30.0467  -13.2521   20.4596 N   0  0  0  0  0  0
  -26.3057  -12.9297   20.3388 N   0  0  0  0  0  0
  -25.9320  -11.6466   20.5763 N   0  0  0  0  0  0
  -22.0511  -12.8232   22.0400 N   0  0  0  0  0  0
  -25.4358  -15.1863   20.4068 N   0  0  0  0  0  0
  -31.7427  -14.7427   20.0766 O   0  0  0  0  0  0
  -21.6636   -6.8878   21.4242 O   0  0  0  0  0  0
  -22.3546  -14.5540   20.6682 O   0  0  0  0  0  0
  -24.6135  -31.8692   23.2114 C   0  0  0  0  0  0
  -25.9037  -32.4831   23.8410 C   0  0  1  0  0  0
  -27.2376  -27.4434   20.1000 C   0  0  0  0  0  0
  -25.5897  -33.8632   24.2341 N   0  0  0  0  0  0
  -23.4024  -30.4919   21.5506 C   0  0  2  0  0  0
  -24.8529  -28.9571   20.1195 C   0  0  0  0  0  0
  -22.7407  -29.4666   22.4989 C   0  0  0  0  0  0
  -18.0268  -28.1369   22.8494 C   0  0  0  0  0  0
  -24.1486  -36.7322   23.2637 C   0  0  0  0  0  0
  -25.9302  -30.8341   21.3671 C   0  0  0  0  0  0
  -26.0104  -29.4651   20.7252 C   0  0  0  0  0  0
  -27.2074  -28.7115   20.7267 C   0  0  0  0  0  0
  -26.0709  -26.9531   19.4829 C   0  0  0  0  0  0
  -24.8758  -27.6955   19.5005 C   0  0  0  0  0  0
  -23.6138  -29.8238   20.1657 C   0  0  0  0  0  0
  -25.4109  -36.3123   24.0340 C   0  0  1  0  0  0
  -20.5858  -28.3662   23.1314 C   0  0  2  0  0  0
  -20.6763  -26.9402   22.5413 C   0  0  0  0  0  0
  -19.5747  -26.6378   21.5209 C   0  0  0  0  0  0
  -18.1921  -26.7916   22.1617 C   0  0  0  0  0  0
  -19.1518  -28.8834   23.2896 C   0  0  0  0  0  0
  -18.9447  -30.1439   23.8909 C   0  0  0  0  0  0
  -17.6452  -30.6580   24.0565 C   0  0  0  0  0  0
  -25.9033  -34.9483   23.5135 C   0  0  0  0  0  0
  -16.5344  -29.9083   23.6319 C   0  0  0  0  0  0
  -16.7259  -28.6495   23.0348 C   0  0  0  0  0  0
  -26.4469  -31.6608   25.0735 C   0  0  0  0  0  0
  -25.3738  -31.3711   26.1487 C   0  0  0  0  0  0
  -27.0303  -30.3056   24.6100 C   0  0  0  0  0  0
  -27.6048  -32.4321   25.7489 C   0  0  0  0  0  0
  -27.5582  -37.1815   24.8462 C   0  0  0  0  0  0
  -21.4136  -29.3035   22.3726 N   0  0  0  0  0  0
  -26.4296  -37.3807   23.9407 N   0  0  0  0  0  0
  -24.6666  -31.0794   22.1016 N   0  0  0  0  0  0
  -23.4180  -28.8204   23.3026 O   0  0  0  0  0  0
  -28.3664  -26.6634   20.0055 O   0  0  0  0  0  0
  -26.5587  -34.8931   22.4691 O   0  0  0  0  0  0
  -23.5327  -32.1443   23.7509 O   0  0  0  0  0  0
  -30.4502  -17.6323   21.0662 C   0  0  0  0  0  0
  -30.6217  -16.8183   23.3383 C   0  0  0  0  0  0
  -30.5925  -18.9526   21.5668 C   0  0  0  0  0  0
  -30.4484  -16.5438   21.9727 C   0  0  0  0  0  0
  -30.7870  -19.0924   22.9631 C   0  0  0  0  0  0
  -30.5825  -20.1394   20.6269 C   0  0  0  0  0  0
  -29.6552  -23.7683   21.0490 C   0  0  0  0  0  0
  -30.1017  -25.2460   20.9420 C   0  0  0  0  0  0
  -29.0454  -26.3483   21.2183 C   0  0  0  0  0  0
  -30.5659  -22.6519   20.4444 C   0  0  1  0  0  0
  -32.0848  -22.9869   20.4200 C   0  0  0  0  0  0
  -30.8011  -18.0568   23.8273 N   0  0  0  0  0  0
  -30.1394  -15.2076   21.5990 N   0  0  0  0  0  0
  -30.3568  -21.3635   21.1378 N   0  0  0  0  0  0
  -30.7675  -19.9687   19.4208 O   0  0  0  0  0  0
  -28.5952  -23.4949   21.6253 O   0  0  0  0  0  0
  -30.9589  -20.3190   23.5138 F   0  0  0  0  0  0
  -32.3424  -24.0380   19.6431 F   0  0  0  0  0  0
  -32.5073  -23.2642   21.6553 F   0  0  0  0  0  0
  -32.8132  -21.9720   19.9517 F   0  0  0  0  0  0
  -31.4725  -12.4518   19.0834 H   0  0  0  0  0  0
  -30.3655  -11.2886   19.7585 H   0  0  0  0  0  0
  -29.7241  -11.8161   17.3993 H   0  0  0  0  0  0
  -29.6531  -13.5184   17.7696 H   0  0  0  0  0  0
  -27.8177  -11.3210   18.7864 H   0  0  0  0  0  0
  -27.3582  -12.6734   17.7876 H   0  0  0  0  0  0
  -27.7291  -14.2545   19.6209 H   0  0  0  0  0  0
  -28.6842  -11.8654   21.2661 H   0  0  0  0  0  0
  -28.4429  -13.4521   21.9038 H   0  0  0  0  0  0
  -25.2760   -9.5677   22.4755 H   0  0  0  0  0  0
  -24.0001   -7.4624   22.7457 H   0  0  0  0  0  0
  -21.0844   -8.8750   19.8953 H   0  0  0  0  0  0
  -22.3675  -10.9663   19.6155 H   0  0  0  0  0  0
  -21.1997   -7.6145   23.9714 H   0  0  0  0  0  0
  -21.1482   -6.0525   25.9078 H   0  0  0  0  0  0
  -22.0605   -2.7609   23.2849 H   0  0  0  0  0  0
  -22.4117  -11.9887   22.4785 H   0  0  0  0  0  0
  -21.1130  -13.1255   22.2607 H   0  0  0  0  0  0
  -24.6771  -15.8491   20.5256 H   0  0  0  0  0  0
  -26.2968  -15.6204   20.0964 H   0  0  0  0  0  0
  -26.7114  -32.5559   23.1181 H   0  0  0  0  0  0
  -25.0076  -33.9799   25.0505 H   0  0  0  0  0  0
  -22.6916  -31.3086   21.4101 H   0  0  0  0  0  0
  -23.3745  -35.9658   23.3311 H   0  0  0  0  0  0
  -24.3584  -36.8922   22.2049 H   0  0  0  0  0  0
  -23.7239  -37.6534   23.6640 H   0  0  0  0  0  0
  -26.0380  -31.5969   20.5953 H   0  0  0  0  0  0
  -26.8194  -30.8940   21.9825 H   0  0  0  0  0  0
  -28.1009  -29.1109   21.1849 H   0  0  0  0  0  0
  -26.0887  -25.9892   18.9927 H   0  0  0  0  0  0
  -23.9891  -27.2992   19.0257 H   0  0  0  0  0  0
  -23.7233  -30.5980   19.4056 H   0  0  0  0  0  0
  -22.7382  -29.2433   19.8678 H   0  0  0  0  0  0
  -25.1282  -36.1993   25.0835 H   0  0  0  0  0  0
  -20.9949  -28.3226   24.1435 H   0  0  0  0  0  0
  -20.5655  -26.2276   23.3602 H   0  0  0  0  0  0
  -21.6634  -26.7443   22.1211 H   0  0  0  0  0  0
  -19.6909  -25.6287   21.1232 H   0  0  0  0  0  0
  -19.6679  -27.3194   20.6744 H   0  0  0  0  0  0
  -17.4190  -26.6665   21.4016 H   0  0  0  0  0  0
  -18.0327  -26.0054   22.9008 H   0  0  0  0  0  0
  -19.7927  -30.7245   24.2288 H   0  0  0  0  0  0
  -17.5010  -31.6263   24.5156 H   0  0  0  0  0  0
  -15.5344  -30.2987   23.7641 H   0  0  0  0  0  0
  -15.8659  -28.0816   22.7060 H   0  0  0  0  0  0
  -24.5896  -30.7072   25.7815 H   0  0  0  0  0  0
  -24.8946  -32.2869   26.4959 H   0  0  0  0  0  0
  -25.8095  -30.8851   27.0225 H   0  0  0  0  0  0
  -26.2845  -29.6815   24.1154 H   0  0  0  0  0  0
  -27.4080  -29.7290   25.4552 H   0  0  0  0  0  0
  -27.8676  -30.4381   23.9246 H   0  0  0  0  0  0
  -27.2677  -33.3607   26.2107 H   0  0  0  0  0  0
  -28.3843  -32.6904   25.0307 H   0  0  0  0  0  0
  -28.0741  -31.8423   26.5374 H   0  0  0  0  0  0
  -28.2605  -38.0109   24.7521 H   0  0  0  0  0  0
  -28.1076  -36.2644   24.6273 H   0  0  0  0  0  0
  -27.2302  -37.1449   25.8866 H   0  0  0  0  0  0
  -20.9296  -29.8766   21.6956 H   0  0  0  0  0  0
  -26.0187  -38.2885   24.1411 H   0  0  0  0  0  0
  -30.2976  -17.4577   20.0109 H   0  0  0  0  0  0
  -30.6003  -16.0210   24.0672 H   0  0  0  0  0  0
  -30.5335  -25.4271   19.9593 H   0  0  0  0  0  0
  -30.9102  -25.3704   21.6616 H   0  0  0  0  0  0
  -29.5539  -27.2421   21.5801 H   0  0  0  0  0  0
  -28.3401  -26.0534   21.9972 H   0  0  0  0  0  0
  -30.2469  -22.5243   19.4090 H   0  0  0  0  0  0
  -29.4061  -14.7544   22.1258 H   0  0  0  0  0  0
  -30.1674  -21.4398   22.1286 H   0  0  0  0  0  0
  1 25  1  0  0  0
  1 30  2  0  0  0
  1 83  1  0  0  0
  2  3  1  0  0  0
  2 25  1  0  0  0
  2 91  1  0  0  0
  2 92  1  0  0  0
  3  4  1  0  0  0
  3 93  1  0  0  0
  3 94  1  0  0  0
  4  5  1  0  0  0
  4 95  1  0  0  0
  4 96  1  0  0  0
  5  6  1  0  0  0
  5 26  1  0  0  0
  5 97  1  0  0  0
  6 25  1  0  0  0
  6 98  1  0  0  0
  6 99  1  0  0  0
  7  8  2  0  0  0
  7 26  1  0  0  0
  7 29  1  0  0  0
  8  9  1  0  0  0
  8 22  1  0  0  0
  9 10  1  0  0  0
  9 27  2  0  0  0
 10 11  2  0  0  0
 10 15  1  0  0  0
 11 12  1  0  0  0
 11100  1  0  0  0
 12 13  2  0  0  0
 12101  1  0  0  0
 13 14  1  0  0  0
 13 31  1  0  0  0
 14 15  2  0  0  0
 14102  1  0  0  0
 15103  1  0  0  0
 16 17  2  0  0  0
 16 21  1  0  0  0
 16 31  1  0  0  0
 17 18  1  0  0  0
 17104  1  0  0  0
 18 19  2  0  0  0
 18105  1  0  0  0
 19 20  1  0  0  0
 19 24  1  0  0  0
 20 21  2  0  0  0
 20106  1  0  0  0
 21 23  1  0  0  0
 22 28  1  0  0  0
 22 32  2  0  0  0
 26 27  1  0  0  0
 28107  1  0  0  0
 28108  1  0  0  0
 29109  1  0  0  0
 29110  1  0  0  0
 33 34  1  0  0  0
 33 66  1  0  0  0
 33 70  2  0  0  0
 34 36  1  0  0  0
 34 59  1  0  0  0
 34111  1  0  0  0
 35 44  2  0  0  0
 35 45  1  0  0  0
 35 68  1  0  0  0
 36 56  1  0  0  0
 36112  1  0  0  0
 37 39  1  0  0  0
 37 47  1  0  0  0
 37 66  1  0  0  0
 37113  1  0  0  0
 38 43  2  0  0  0
 38 46  1  0  0  0
 38 47  1  0  0  0
 39 64  1  0  0  0
 39 67  2  0  0  0
 40 52  1  0  0  0
 40 53  2  0  0  0
 40 58  1  0  0  0
 41114  1  0  0  0
 41115  1  0  0  0
 41116  1  0  0  0
 41 48  1  0  0  0
 42 43  1  0  0  0
 42 66  1  0  0  0
 42117  1  0  0  0
 42118  1  0  0  0
 43 44  1  0  0  0
 44119  1  0  0  0
 45 46  2  0  0  0
 45120  1  0  0  0
 46121  1  0  0  0
 47122  1  0  0  0
 47123  1  0  0  0
 48 56  1  0  0  0
 48 65  1  0  0  0
 48124  1  0  0  0
 49 50  1  0  0  0
 49 53  1  0  0  0
 49 64  1  0  0  0
 49125  1  0  0  0
 50 51  1  0  0  0
 50126  1  0  0  0
 50127  1  0  0  0
 51 52  1  0  0  0
 51128  1  0  0  0
 51129  1  0  0  0
 52130  1  0  0  0
 52131  1  0  0  0
 53 54  1  0  0  0
 54 55  2  0  0  0
 54132  1  0  0  0
 55 57  1  0  0  0
 55133  1  0  0  0
 56 69  2  0  0  0
 57 58  2  0  0  0
 57134  1  0  0  0
 58135  1  0  0  0
 59 60  1  0  0  0
 59 61  1  0  0  0
 59 62  1  0  0  0
 60136  1  0  0  0
 60137  1  0  0  0
 60138  1  0  0  0
 61139  1  0  0  0
 61140  1  0  0  0
 61141  1  0  0  0
 62142  1  0  0  0
 62143  1  0  0  0
 62144  1  0  0  0
 63 65  1  0  0  0
 63145  1  0  0  0
 63146  1  0  0  0
 63147  1  0  0  0
 64148  1  0  0  0
 65149  1  0  0  0
 68 79  1  0  0  0
 71 73  2  0  0  0
 71 74  1  0  0  0
 71150  1  0  0  0
 72 74  2  0  0  0
 72 82  1  0  0  0
 72151  1  0  0  0
 73 75  1  0  0  0
 73 76  1  0  0  0
 74 83  1  0  0  0
 75 82  2  0  0  0
 75 87  1  0  0  0
 76 84  1  0  0  0
 76 85  2  0  0  0
 77 78  1  0  0  0
 77 80  1  0  0  0
 77 86  2  0  0  0
 78 79  1  0  0  0
 78152  1  0  0  0
 78153  1  0  0  0
 79154  1  0  0  0
 79155  1  0  0  0
 80 81  1  0  0  0
 80 84  1  0  0  0
 80156  1  0  0  0
 81 88  1  0  0  0
 81 89  1  0  0  0
 81 90  1  0  0  0
 83157  1  0  0  0
 84158  1  0  0  0
M  ISO  4   1 100  68 101  79 101  83 100
M  END
> <chiral flag>
0

> <version>
0

> <s_m_source_file>
/data/baiqing/PycharmProjects/Reinvent-master-3.2/result/LINK_invent/BTK/process_docking_weight1_custom_product_contain_oxygen_bond_distance_aromatic_linkinvent_7_9_3/rearranged_h_0174.sdf

> <i_m_source_file_index>
88

> <r_mmod_Potential_Energy-OPLS-2005>
-401.334136962891

> <r_mmod_Stretch_Energy-OPLS-2005>
39.0408096313477

> <r_mmod_Bend_Energy-OPLS-2005>
108.022529602051

> <r_mmod_Torsional_Energy-OPLS-2005>
234.864501953125

> <r_mmod_Improper_Torsional_Energy-OPLS-2005>
2.80442690849304

> <r_mmod_Van_der_Waal_Energy-OPLS-2005>
165.663970947266

> <r_mmod_Electrostatic_Energy-OPLS-2005>
-720.746459960938

> <r_mmod_Solvation_Energy-OPLS-2005>
-240.48469543457

> <b_mmod_Minimization_Converged-OPLS-2005>
0

> <r_mmod_RMS_Derivative-OPLS-2005>
1.50052630901337

$$$$
88
                    3D
 Structure written by MMmdl.
156164  0  0  1  0            999 V2000
  -30.6434  -14.6975   20.4004 C   0  0  0  0  0  0
  -30.4331  -12.4171   19.4514 C   0  0  0  0  0  0
  -29.5147  -12.5006   18.2140 C   0  0  0  0  0  0
  -28.0353  -12.3435   18.6169 C   0  0  0  0  0  0
  -27.6478  -13.2328   19.8347 C   0  0  2  0  0  0
  -28.6980  -13.1580   20.9672 C   0  0  0  0  0  0
  -25.2585  -13.8223   20.5678 C   0  0  0  0  0  0
  -24.1873  -13.0448   20.9181 C   0  0  0  0  0  0
  -24.6436  -11.6921   20.8717 C   0  0  0  0  0  0
  -23.9100  -10.4283   21.0360 C   0  0  0  0  0  0
  -24.3651   -9.4207   21.9145 C   0  0  0  0  0  0
  -23.6303   -8.2274   22.0731 C   0  0  0  0  0  0
  -22.4306   -8.0294   21.3524 C   0  0  0  0  0  0
  -21.9941   -9.0258   20.4641 C   0  0  0  0  0  0
  -22.7254  -10.2137   20.2999 C   0  0  0  0  0  0
  -21.6868   -6.0746   22.5285 C   0  0  0  0  0  0
  -21.4028   -6.5635   23.8219 C   0  0  0  0  0  0
  -21.3653   -5.6782   24.9192 C   0  0  0  0  0  0
  -21.6027   -4.3031   24.7236 C   0  0  0  0  0  0
  -21.8826   -3.8141   23.4347 C   0  0  0  0  0  0
  -21.9217   -4.6973   22.3426 C   0  0  0  0  0  0
  -22.7882  -13.5239   21.1829 C   0  0  0  0  0  0
  -22.1655   -4.2163   21.0996 F   0  0  0  0  0  0
  -21.5630   -3.4506   25.7737 F   0  0  0  0  0  0
  -30.0055  -13.4788   20.3861 N   0  0  0  0  0  0
  -26.3005  -12.9403   20.3213 N   0  0  0  0  0  0
  -25.9365  -11.6551   20.5691 N   0  0  0  0  0  0
  -22.0515  -12.8244   22.0387 N   0  0  0  0  0  0
  -25.4311  -15.1942   20.4147 N   0  0  0  0  0  0
  -31.8390  -14.7643   20.1033 O   0  0  0  0  0  0
  -21.6650   -6.8892   21.4239 O   0  0  0  0  0  0
  -22.3559  -14.5515   20.6617 O   0  0  0  0  0  0
  -24.6303  -31.8580   23.1966 C   0  0  0  0  0  0
  -25.9127  -32.4808   23.8330 C   0  0  1  0  0  0
  -27.2330  -27.2802   20.1228 C   0  0  0  0  0  0
  -25.5930  -33.8597   24.2268 N   0  0  0  0  0  0
  -23.4275  -30.4816   21.5413 C   0  0  2  0  0  0
  -24.8763  -28.9298   20.1163 C   0  0  0  0  0  0
  -22.7509  -29.4639   22.4899 C   0  0  0  0  0  0
  -18.0284  -28.1397   22.8464 C   0  0  0  0  0  0
  -24.1480  -36.7287   23.2632 C   0  0  0  0  0  0
  -25.9725  -30.7822   21.3732 C   0  0  0  0  0  0
  -26.0493  -29.4049   20.7162 C   0  0  0  0  0  0
  -27.2298  -28.5933   20.7069 C   0  0  0  0  0  0
  -26.0271  -26.8700   19.5038 C   0  0  0  0  0  0
  -24.8684  -27.6686   19.5041 C   0  0  0  0  0  0
  -23.6462  -29.8136   20.1606 C   0  0  0  0  0  0
  -25.4106  -36.3087   24.0325 C   0  0  1  0  0  0
  -20.5900  -28.3731   23.1264 C   0  0  2  0  0  0
  -20.6801  -26.9455   22.5406 C   0  0  0  0  0  0
  -19.5756  -26.6387   21.5229 C   0  0  0  0  0  0
  -18.1935  -26.7940   22.1627 C   0  0  0  0  0  0
  -19.1536  -28.8865   23.2882 C   0  0  0  0  0  0
  -18.9474  -30.1457   23.8909 C   0  0  0  0  0  0
  -17.6475  -30.6616   24.0555 C   0  0  0  0  0  0
  -25.9049  -34.9462   23.5103 C   0  0  0  0  0  0
  -16.5365  -29.9111   23.6334 C   0  0  0  0  0  0
  -16.7267  -28.6532   23.0354 C   0  0  0  0  0  0
  -26.4469  -31.6608   25.0721 C   0  0  0  0  0  0
  -25.3670  -31.3759   26.1431 C   0  0  0  0  0  0
  -27.0292  -30.3022   24.6172 C   0  0  0  0  0  0
  -27.6066  -32.4289   25.7498 C   0  0  0  0  0  0
  -27.5583  -37.1799   24.8451 C   0  0  0  0  0  0
  -21.4214  -29.3075   22.3645 N   0  0  0  0  0  0
  -26.4279  -37.3802   23.9418 N   0  0  0  0  0  0
  -24.6968  -31.0548   22.0949 N   0  0  0  0  0  0
  -23.4220  -28.8177   23.3009 O   0  0  0  0  0  0
  -28.3417  -26.3982   20.1705 O   0  0  0  0  0  0
  -26.5614  -34.8944   22.4671 O   0  0  0  0  0  0
  -23.5464  -32.1360   23.7284 O   0  0  0  0  0  0
  -30.8230  -18.5834   18.1261 C   0  0  0  0  0  0
  -30.6946  -17.3256   18.7469 C   0  0  0  0  0  0
  -30.3328  -19.7433   18.7552 C   0  0  0  0  0  0
  -29.7210  -19.6233   20.0243 C   0  0  0  0  0  0
  -30.0817  -17.1995   20.0158 C   0  0  0  0  0  0
  -29.2770  -20.9099   20.7793 C   0  0  0  0  0  0
  -28.6590  -22.2542   20.0747 C   0  0  0  0  0  0
  -31.3671  -24.7434   21.2317 C   0  0  0  0  0  0
  -30.0349  -24.0276   21.5239 C   0  0  0  0  0  0
  -28.0962  -24.9271   19.9872 C   0  0  0  0  0  0
  -29.2002  -23.7657   20.2381 C   0  0  2  0  0  0
  -29.6108  -18.3566   20.6189 N   0  0  0  0  0  0
  -29.8862  -15.8401   20.5604 N   0  0  0  0  0  0
  -29.2851  -20.8964   22.0194 O   0  0  0  0  0  0
  -27.6469  -22.0978   19.3772 O   0  0  0  0  0  0
  -30.4967  -20.9477   18.1510 F   0  0  0  0  0  0
  -31.4765  -12.5294   19.1452 H   0  0  0  0  0  0
  -30.3580  -11.4368   19.9226 H   0  0  0  0  0  0
  -29.7904  -11.7395   17.4817 H   0  0  0  0  0  0
  -29.6624  -13.4628   17.7212 H   0  0  0  0  0  0
  -27.8739  -11.2910   18.8497 H   0  0  0  0  0  0
  -27.3854  -12.5692   17.7689 H   0  0  0  0  0  0
  -27.6364  -14.2573   19.4606 H   0  0  0  0  0  0
  -28.7263  -12.1576   21.4017 H   0  0  0  0  0  0
  -28.4503  -13.8485   21.7757 H   0  0  0  0  0  0
  -25.2788   -9.5691   22.4719 H   0  0  0  0  0  0
  -24.0000   -7.4674   22.7435 H   0  0  0  0  0  0
  -21.0866   -8.8739   19.8971 H   0  0  0  0  0  0
  -22.3656  -10.9657   19.6097 H   0  0  0  0  0  0
  -21.1968   -7.6138   23.9715 H   0  0  0  0  0  0
  -21.1476   -6.0525   25.9098 H   0  0  0  0  0  0
  -22.0608   -2.7598   23.2860 H   0  0  0  0  0  0
  -22.4077  -11.9925   22.4866 H   0  0  0  0  0  0
  -21.1081  -13.1220   22.2455 H   0  0  0  0  0  0
  -24.6680  -15.8525   20.5244 H   0  0  0  0  0  0
  -26.2816  -15.6351   20.0868 H   0  0  0  0  0  0
  -26.7214  -32.5465   23.1101 H   0  0  0  0  0  0
  -25.0074  -33.9724   25.0406 H   0  0  0  0  0  0
  -22.7248  -31.3051   21.3929 H   0  0  0  0  0  0
  -23.3781  -35.9591   23.3263 H   0  0  0  0  0  0
  -24.3567  -36.8924   22.2052 H   0  0  0  0  0  0
  -23.7193  -37.6467   23.6656 H   0  0  0  0  0  0
  -26.0943  -31.5449   20.6018 H   0  0  0  0  0  0
  -26.8571  -30.8416   21.9945 H   0  0  0  0  0  0
  -28.1310  -28.9554   21.1839 H   0  0  0  0  0  0
  -25.9344  -25.9069   19.0264 H   0  0  0  0  0  0
  -23.9664  -27.2867   19.0469 H   0  0  0  0  0  0
  -23.7756  -30.5905   19.4059 H   0  0  0  0  0  0
  -22.7651  -29.2472   19.8502 H   0  0  0  0  0  0
  -25.1297  -36.1942   25.0827 H   0  0  0  0  0  0
  -20.9967  -28.3326   24.1394 H   0  0  0  0  0  0
  -20.5727  -26.2358   23.3623 H   0  0  0  0  0  0
  -21.6678  -26.7506   22.1183 H   0  0  0  0  0  0
  -19.6963  -25.6285   21.1286 H   0  0  0  0  0  0
  -19.6722  -27.3185   20.6750 H   0  0  0  0  0  0
  -17.4222  -26.6659   21.4021 H   0  0  0  0  0  0
  -18.0349  -26.0098   22.9029 H   0  0  0  0  0  0
  -19.7952  -30.7248   24.2333 H   0  0  0  0  0  0
  -17.5041  -31.6305   24.5126 H   0  0  0  0  0  0
  -15.5368  -30.3036   23.7646 H   0  0  0  0  0  0
  -15.8661  -28.0848   22.7096 H   0  0  0  0  0  0
  -24.5877  -30.7088   25.7736 H   0  0  0  0  0  0
  -24.8826  -32.2935   26.4799 H   0  0  0  0  0  0
  -25.7966  -30.8964   27.0247 H   0  0  0  0  0  0
  -26.2873  -29.6805   24.1156 H   0  0  0  0  0  0
  -27.3935  -29.7254   25.4688 H   0  0  0  0  0  0
  -27.8773  -30.4294   23.9438 H   0  0  0  0  0  0
  -27.2740  -33.3607   26.2080 H   0  0  0  0  0  0
  -28.3903  -32.6794   25.0334 H   0  0  0  0  0  0
  -28.0706  -31.8379   26.5390 H   0  0  0  0  0  0
  -28.2579  -38.0118   24.7564 H   0  0  0  0  0  0
  -28.1092  -36.2661   24.6201 H   0  0  0  0  0  0
  -27.2296  -37.1366   25.8845 H   0  0  0  0  0  0
  -20.9400  -29.8777   21.6827 H   0  0  0  0  0  0
  -26.0157  -38.2869   24.1485 H   0  0  0  0  0  0
  -31.3016  -18.6620   17.1584 H   0  0  0  0  0  0
  -31.0628  -16.4641   18.2128 H   0  0  0  0  0  0
  -31.9614  -24.8686   22.1383 H   0  0  0  0  0  0
  -31.2049  -25.7324   20.8035 H   0  0  0  0  0  0
  -31.9773  -24.1750   20.5253 H   0  0  0  0  0  0
  -29.4494  -24.6076   22.2381 H   0  0  0  0  0  0
  -30.2936  -23.1120   22.0464 H   0  0  0  0  0  0
  -27.2260  -24.6681   20.5921 H   0  0  0  0  0  0
  -27.7877  -24.8063   18.9455 H   0  0  0  0  0  0
  -29.8990  -23.8594   19.4073 H   0  0  0  0  0  0
  -28.9845  -15.6816   20.9859 H   0  0  0  0  0  0
  1 25  1  0  0  0
  1 30  2  0  0  0
  1 83  1  0  0  0
  2  3  1  0  0  0
  2 25  1  0  0  0
  2 87  1  0  0  0
  2 88  1  0  0  0
  3  4  1  0  0  0
  3 89  1  0  0  0
  3 90  1  0  0  0
  4  5  1  0  0  0
  4 91  1  0  0  0
  4 92  1  0  0  0
  5  6  1  0  0  0
  5 26  1  0  0  0
  5 93  1  0  0  0
  6 25  1  0  0  0
  6 94  1  0  0  0
  6 95  1  0  0  0
  7  8  2  0  0  0
  7 26  1  0  0  0
  7 29  1  0  0  0
  8  9  1  0  0  0
  8 22  1  0  0  0
  9 10  1  0  0  0
  9 27  2  0  0  0
 10 11  2  0  0  0
 10 15  1  0  0  0
 11 12  1  0  0  0
 11 96  1  0  0  0
 12 13  2  0  0  0
 12 97  1  0  0  0
 13 14  1  0  0  0
 13 31  1  0  0  0
 14 15  2  0  0  0
 14 98  1  0  0  0
 15 99  1  0  0  0
 16 17  2  0  0  0
 16 21  1  0  0  0
 16 31  1  0  0  0
 17 18  1  0  0  0
 17100  1  0  0  0
 18 19  2  0  0  0
 18101  1  0  0  0
 19 20  1  0  0  0
 19 24  1  0  0  0
 20 21  2  0  0  0
 20102  1  0  0  0
 21 23  1  0  0  0
 22 28  1  0  0  0
 22 32  2  0  0  0
 26 27  1  0  0  0
 28103  1  0  0  0
 28104  1  0  0  0
 29105  1  0  0  0
 29106  1  0  0  0
 33 34  1  0  0  0
 33 66  1  0  0  0
 33 70  2  0  0  0
 34 36  1  0  0  0
 34 59  1  0  0  0
 34107  1  0  0  0
 35 44  2  0  0  0
 35 45  1  0  0  0
 35 68  1  0  0  0
 36 56  1  0  0  0
 36108  1  0  0  0
 37 39  1  0  0  0
 37 47  1  0  0  0
 37 66  1  0  0  0
 37109  1  0  0  0
 38 43  2  0  0  0
 38 46  1  0  0  0
 38 47  1  0  0  0
 39 64  1  0  0  0
 39 67  2  0  0  0
 40 52  1  0  0  0
 40 53  2  0  0  0
 40 58  1  0  0  0
 41110  1  0  0  0
 41111  1  0  0  0
 41112  1  0  0  0
 41 48  1  0  0  0
 42 43  1  0  0  0
 42 66  1  0  0  0
 42113  1  0  0  0
 42114  1  0  0  0
 43 44  1  0  0  0
 44115  1  0  0  0
 45 46  2  0  0  0
 45116  1  0  0  0
 46117  1  0  0  0
 47118  1  0  0  0
 47119  1  0  0  0
 48 56  1  0  0  0
 48 65  1  0  0  0
 48120  1  0  0  0
 49 50  1  0  0  0
 49 53  1  0  0  0
 49 64  1  0  0  0
 49121  1  0  0  0
 50 51  1  0  0  0
 50122  1  0  0  0
 50123  1  0  0  0
 51 52  1  0  0  0
 51124  1  0  0  0
 51125  1  0  0  0
 52126  1  0  0  0
 52127  1  0  0  0
 53 54  1  0  0  0
 54 55  2  0  0  0
 54128  1  0  0  0
 55 57  1  0  0  0
 55129  1  0  0  0
 56 69  2  0  0  0
 57 58  2  0  0  0
 57130  1  0  0  0
 58131  1  0  0  0
 59 60  1  0  0  0
 59 61  1  0  0  0
 59 62  1  0  0  0
 60132  1  0  0  0
 60133  1  0  0  0
 60134  1  0  0  0
 61135  1  0  0  0
 61136  1  0  0  0
 61137  1  0  0  0
 62138  1  0  0  0
 62139  1  0  0  0
 62140  1  0  0  0
 63 65  1  0  0  0
 63141  1  0  0  0
 63142  1  0  0  0
 63143  1  0  0  0
 64144  1  0  0  0
 65145  1  0  0  0
 68 80  1  0  0  0
 71 72  2  0  0  0
 71 73  1  0  0  0
 71146  1  0  0  0
 72 75  1  0  0  0
 72147  1  0  0  0
 73 74  2  0  0  0
 73 86  1  0  0  0
 74 76  1  0  0  0
 74 82  1  0  0  0
 75 82  2  0  0  0
 75 83  1  0  0  0
 76 77  1  0  0  0
 76 84  2  0  0  0
 77 81  1  0  0  0
 77 85  2  0  0  0
 78 79  1  0  0  0
 78148  1  0  0  0
 78149  1  0  0  0
 78150  1  0  0  0
 79151  1  0  0  0
 79152  1  0  0  0
 79 81  1  0  0  0
 80 81  1  0  0  0
 80153  1  0  0  0
 80154  1  0  0  0
 81155  1  0  0  0
 83156  1  0  0  0
M  ISO  4   1 100  68 101  80 101  83 100
M  END
> <chiral flag>
0

> <version>
0

> <s_m_source_file>
/data/baiqing/PycharmProjects/Reinvent-master-3.2/result/LINK_invent/BTK/process_docking_weight1_custom_product_contain_oxygen_bond_distance_aromatic_linkinvent_7_9_3/rearranged_h_0174.sdf

> <i_m_source_file_index>
89

> <r_mmod_Potential_Energy-OPLS-2005>
201.767166137695

> <r_mmod_Stretch_Energy-OPLS-2005>
127.467964172363

> <r_mmod_Bend_Energy-OPLS-2005>
160.560989379883

> <r_mmod_Torsional_Energy-OPLS-2005>
258.970764160156

> <r_mmod_Improper_Torsional_Energy-OPLS-2005>
6.18006372451782

> <r_mmod_Van_der_Waal_Energy-OPLS-2005>
145.611297607422

> <r_mmod_Electrostatic_Energy-OPLS-2005>
-342.817108154297

> <r_mmod_Solvation_Energy-OPLS-2005>
-225.636703491211

> <b_mmod_Minimization_Converged-OPLS-2005>
0

> <r_mmod_RMS_Derivative-OPLS-2005>
5.81827545166016

$$$$
89
                    3D
 Structure written by MMmdl.
155163  0  0  1  0            999 V2000
  -30.6025  -14.6884   20.4397 C   0  0  0  0  0  0
  -30.4360  -12.4084   19.4580 C   0  0  0  0  0  0
  -29.5122  -12.5120   18.2235 C   0  0  0  0  0  0
  -28.0347  -12.3499   18.6322 C   0  0  0  0  0  0
  -27.6511  -13.2242   19.8558 C   0  0  2  0  0  0
  -28.6986  -13.1074   20.9848 C   0  0  0  0  0  0
  -25.2581  -13.8186   20.5700 C   0  0  0  0  0  0
  -24.1860  -13.0439   20.9219 C   0  0  0  0  0  0
  -24.6427  -11.6898   20.8748 C   0  0  0  0  0  0
  -23.9088  -10.4279   21.0410 C   0  0  0  0  0  0
  -24.3627   -9.4189   21.9194 C   0  0  0  0  0  0
  -23.6287   -8.2235   22.0757 C   0  0  0  0  0  0
  -22.4275   -8.0281   21.3539 C   0  0  0  0  0  0
  -21.9908   -9.0262   20.4656 C   0  0  0  0  0  0
  -22.7256  -10.2134   20.3066 C   0  0  0  0  0  0
  -21.6837   -6.0741   22.5271 C   0  0  0  0  0  0
  -21.4015   -6.5650   23.8215 C   0  0  0  0  0  0
  -21.3653   -5.6796   24.9175 C   0  0  0  0  0  0
  -21.6034   -4.3059   24.7228 C   0  0  0  0  0  0
  -21.8821   -3.8147   23.4352 C   0  0  0  0  0  0
  -21.9190   -4.6959   22.3403 C   0  0  0  0  0  0
  -22.7877  -13.5226   21.1856 C   0  0  0  0  0  0
  -22.1667   -4.2148   21.0978 F   0  0  0  0  0  0
  -21.5599   -3.4545   25.7737 F   0  0  0  0  0  0
  -30.0111  -13.4497   20.4160 N   0  0  0  0  0  0
  -26.2988  -12.9369   20.3289 N   0  0  0  0  0  0
  -25.9355  -11.6520   20.5747 N   0  0  0  0  0  0
  -22.0509  -12.8239   22.0416 N   0  0  0  0  0  0
  -25.4307  -15.1912   20.4142 N   0  0  0  0  0  0
  -31.7722  -14.8471   20.0821 O   0  0  0  0  0  0
  -21.6628   -6.8881   21.4240 O   0  0  0  0  0  0
  -22.3568  -14.5526   20.6683 O   0  0  0  0  0  0
  -24.6285  -31.8552   23.1979 C   0  0  0  0  0  0
  -25.9122  -32.4736   23.8321 C   0  0  1  0  0  0
  -27.2220  -27.2853   20.1243 C   0  0  0  0  0  0
  -25.5937  -33.8547   24.2242 N   0  0  0  0  0  0
  -23.4238  -30.4777   21.5410 C   0  0  2  0  0  0
  -24.8716  -28.9237   20.1135 C   0  0  0  0  0  0
  -22.7474  -29.4602   22.4909 C   0  0  0  0  0  0
  -18.0299  -28.1370   22.8470 C   0  0  0  0  0  0
  -24.1470  -36.7257   23.2609 C   0  0  0  0  0  0
  -25.9681  -30.7739   21.3767 C   0  0  0  0  0  0
  -26.0421  -29.3967   20.7228 C   0  0  0  0  0  0
  -27.2211  -28.5885   20.7202 C   0  0  0  0  0  0
  -26.0275  -26.8672   19.4987 C   0  0  0  0  0  0
  -24.8671  -27.6642   19.4955 C   0  0  0  0  0  0
  -23.6422  -29.8107   20.1574 C   0  0  0  0  0  0
  -25.4068  -36.3039   24.0325 C   0  0  1  0  0  0
  -20.5899  -28.3673   23.1260 C   0  0  2  0  0  0
  -20.6788  -26.9393   22.5407 C   0  0  0  0  0  0
  -19.5768  -26.6366   21.5207 C   0  0  0  0  0  0
  -18.1949  -26.7906   22.1624 C   0  0  0  0  0  0
  -19.1546  -28.8847   23.2863 C   0  0  0  0  0  0
  -18.9487  -30.1443   23.8885 C   0  0  0  0  0  0
  -17.6482  -30.6562   24.0580 C   0  0  0  0  0  0
  -25.9061  -34.9426   23.5087 C   0  0  0  0  0  0
  -16.5375  -29.9072   23.6328 C   0  0  0  0  0  0
  -16.7285  -28.6503   23.0330 C   0  0  0  0  0  0
  -26.4489  -31.6569   25.0717 C   0  0  0  0  0  0
  -25.3712  -31.3763   26.1449 C   0  0  0  0  0  0
  -27.0356  -30.2989   24.6218 C   0  0  0  0  0  0
  -27.6026  -32.4324   25.7501 C   0  0  0  0  0  0
  -27.5618  -37.1664   24.8360 C   0  0  0  0  0  0
  -21.4194  -29.3010   22.3632 N   0  0  0  0  0  0
  -26.4177  -37.3804   23.9543 N   0  0  0  0  0  0
  -24.6918  -31.0534   22.0948 N   0  0  0  0  0  0
  -23.4189  -28.8146   23.2998 O   0  0  0  0  0  0
  -28.3271  -26.4134   20.1064 O   0  0  0  0  0  0
  -26.5651  -34.8911   22.4665 O   0  0  0  0  0  0
  -23.5447  -32.1374   23.7301 O   0  0  0  0  0  0
  -29.2604  -18.0843   21.4276 C   0  0  0  0  0  0
  -30.1726  -17.8766   19.2317 C   0  0  0  0  0  0
  -29.8086  -17.2102   20.4483 C   0  0  0  0  0  0
  -30.0071  -19.3021   19.1202 C   0  0  0  0  0  0
  -29.4602  -20.0927   20.1723 C   0  0  0  0  0  0
  -28.1482  -25.0498   20.4609 C   0  0  0  0  0  0
  -28.8855  -23.9569   20.0402 C   0  0  0  0  0  0
  -28.6296  -22.5523   20.5322 C   0  0  0  0  0  0
  -32.0654  -17.3953   17.5519 C   0  0  0  0  0  0
  -30.6149  -17.1185   17.9802 C   0  0  0  0  0  0
  -29.0942  -19.4393   21.3112 N   0  0  0  0  0  0
  -29.7704  -15.7513   20.7129 N   0  0  0  0  0  0
  -29.3658  -21.5475   19.9423 N   0  0  0  0  0  0
  -27.7968  -22.3049   21.4076 O   0  0  0  0  0  0
  -29.8801  -24.1538   19.1607 O   0  0  0  0  0  0
  -30.3343  -19.9242   17.9587 F   0  0  0  0  0  0
  -31.4795  -12.5228   19.1586 H   0  0  0  0  0  0
  -30.3608  -11.4202   19.9168 H   0  0  0  0  0  0
  -29.7803  -11.7544   17.4870 H   0  0  0  0  0  0
  -29.6572  -13.4779   17.7342 H   0  0  0  0  0  0
  -27.8775  -11.2973   18.8707 H   0  0  0  0  0  0
  -27.3820  -12.5738   17.7879 H   0  0  0  0  0  0
  -27.6582  -14.2573   19.5060 H   0  0  0  0  0  0
  -28.7152  -12.0967   21.3925 H   0  0  0  0  0  0
  -28.4441  -13.7621   21.8200 H   0  0  0  0  0  0
  -25.2774   -9.5627   22.4787 H   0  0  0  0  0  0
  -23.9968   -7.4615   22.7478 H   0  0  0  0  0  0
  -21.0818   -8.8801   19.8978 H   0  0  0  0  0  0
  -22.3724  -10.9679   19.6174 H   0  0  0  0  0  0
  -21.2038   -7.6163   23.9729 H   0  0  0  0  0  0
  -21.1457   -6.0525   25.9074 H   0  0  0  0  0  0
  -22.0605   -2.7599   23.2871 H   0  0  0  0  0  0
  -22.4099  -11.9892   22.4815 H   0  0  0  0  0  0
  -21.1122  -13.1269   22.2589 H   0  0  0  0  0  0
  -24.6680  -15.8496   20.5348 H   0  0  0  0  0  0
  -26.2699  -15.6188   20.0435 H   0  0  0  0  0  0
  -26.7185  -32.5405   23.1069 H   0  0  0  0  0  0
  -25.0081  -33.9668   25.0384 H   0  0  0  0  0  0
  -22.7194  -31.2990   21.3948 H   0  0  0  0  0  0
  -23.3800  -35.9503   23.3024 H   0  0  0  0  0  0
  -24.3640  -36.9133   22.2078 H   0  0  0  0  0  0
  -23.7079  -37.6315   23.6797 H   0  0  0  0  0  0
  -26.1065  -31.5354   20.6077 H   0  0  0  0  0  0
  -26.8446  -30.8205   22.0108 H   0  0  0  0  0  0
  -28.1195  -28.9414   21.2075 H   0  0  0  0  0  0
  -25.9831  -25.8998   19.0205 H   0  0  0  0  0  0
  -23.9682  -27.2966   19.0184 H   0  0  0  0  0  0
  -23.7641  -30.5855   19.3992 H   0  0  0  0  0  0
  -22.7597  -29.2451   19.8527 H   0  0  0  0  0  0
  -25.1188  -36.1815   25.0791 H   0  0  0  0  0  0
  -21.0008  -28.3272   24.1372 H   0  0  0  0  0  0
  -20.5677  -26.2283   23.3606 H   0  0  0  0  0  0
  -21.6661  -26.7400   22.1221 H   0  0  0  0  0  0
  -19.6938  -25.6284   21.1222 H   0  0  0  0  0  0
  -19.6699  -27.3183   20.6743 H   0  0  0  0  0  0
  -17.4205  -26.6616   21.4047 H   0  0  0  0  0  0
  -18.0375  -26.0059   22.9033 H   0  0  0  0  0  0
  -19.7963  -30.7270   24.2237 H   0  0  0  0  0  0
  -17.5034  -31.6221   24.5219 H   0  0  0  0  0  0
  -15.5379  -30.2981   23.7650 H   0  0  0  0  0  0
  -15.8683  -28.0833   22.7024 H   0  0  0  0  0  0
  -24.5854  -30.7139   25.7786 H   0  0  0  0  0  0
  -24.8965  -32.2982   26.4834 H   0  0  0  0  0  0
  -25.8029  -30.8957   27.0243 H   0  0  0  0  0  0
  -26.2977  -29.6715   24.1216 H   0  0  0  0  0  0
  -27.4007  -29.7248   25.4740 H   0  0  0  0  0  0
  -27.8842  -30.4236   23.9489 H   0  0  0  0  0  0
  -27.2578  -33.3565   26.2140 H   0  0  0  0  0  0
  -28.3817  -32.6987   25.0346 H   0  0  0  0  0  0
  -28.0731  -31.8441   26.5386 H   0  0  0  0  0  0
  -28.2253  -38.0314   24.8019 H   0  0  0  0  0  0
  -28.1497  -36.2963   24.5410 H   0  0  0  0  0  0
  -27.2494  -37.0315   25.8727 H   0  0  0  0  0  0
  -20.9382  -29.8694   21.6807 H   0  0  0  0  0  0
  -26.0021  -38.2760   24.1955 H   0  0  0  0  0  0
  -28.8954  -17.6701   22.3556 H   0  0  0  0  0  0
  -27.3279  -24.9330   21.1592 H   0  0  0  0  0  0
  -32.3096  -16.8348   16.6489 H   0  0  0  0  0  0
  -32.7754  -17.1027   18.3252 H   0  0  0  0  0  0
  -32.2241  -18.4509   17.3270 H   0  0  0  0  0  0
  -29.9488  -17.4125   17.1679 H   0  0  0  0  0  0
  -30.4626  -16.0487   18.0868 H   0  0  0  0  0  0
  -28.9330  -15.4407   21.1843 H   0  0  0  0  0  0
  -29.9335  -21.8721   19.1740 H   0  0  0  0  0  0
  -29.9075  -25.0851   18.9809 H   0  0  0  0  0  0
  1 25  1  0  0  0
  1 30  2  0  0  0
  1 82  1  0  0  0
  2  3  1  0  0  0
  2 25  1  0  0  0
  2 87  1  0  0  0
  2 88  1  0  0  0
  3  4  1  0  0  0
  3 89  1  0  0  0
  3 90  1  0  0  0
  4  5  1  0  0  0
  4 91  1  0  0  0
  4 92  1  0  0  0
  5  6  1  0  0  0
  5 26  1  0  0  0
  5 93  1  0  0  0
  6 25  1  0  0  0
  6 94  1  0  0  0
  6 95  1  0  0  0
  7  8  2  0  0  0
  7 26  1  0  0  0
  7 29  1  0  0  0
  8  9  1  0  0  0
  8 22  1  0  0  0
  9 10  1  0  0  0
  9 27  2  0  0  0
 10 11  2  0  0  0
 10 15  1  0  0  0
 11 12  1  0  0  0
 11 96  1  0  0  0
 12 13  2  0  0  0
 12 97  1  0  0  0
 13 14  1  0  0  0
 13 31  1  0  0  0
 14 15  2  0  0  0
 14 98  1  0  0  0
 15 99  1  0  0  0
 16 17  2  0  0  0
 16 21  1  0  0  0
 16 31  1  0  0  0
 17 18  1  0  0  0
 17100  1  0  0  0
 18 19  2  0  0  0
 18101  1  0  0  0
 19 20  1  0  0  0
 19 24  1  0  0  0
 20 21  2  0  0  0
 20102  1  0  0  0
 21 23  1  0  0  0
 22 28  1  0  0  0
 22 32  2  0  0  0
 26 27  1  0  0  0
 28103  1  0  0  0
 28104  1  0  0  0
 29105  1  0  0  0
 29106  1  0  0  0
 33 34  1  0  0  0
 33 66  1  0  0  0
 33 70  2  0  0  0
 34 36  1  0  0  0
 34 59  1  0  0  0
 34107  1  0  0  0
 35 44  2  0  0  0
 35 45  1  0  0  0
 35 68  1  0  0  0
 36 56  1  0  0  0
 36108  1  0  0  0
 37 39  1  0  0  0
 37 47  1  0  0  0
 37 66  1  0  0  0
 37109  1  0  0  0
 38 43  2  0  0  0
 38 46  1  0  0  0
 38 47  1  0  0  0
 39 64  1  0  0  0
 39 67  2  0  0  0
 40 52  1  0  0  0
 40 53  2  0  0  0
 40 58  1  0  0  0
 41110  1  0  0  0
 41111  1  0  0  0
 41112  1  0  0  0
 41 48  1  0  0  0
 42 43  1  0  0  0
 42 66  1  0  0  0
 42113  1  0  0  0
 42114  1  0  0  0
 43 44  1  0  0  0
 44115  1  0  0  0
 45 46  2  0  0  0
 45116  1  0  0  0
 46117  1  0  0  0
 47118  1  0  0  0
 47119  1  0  0  0
 48 56  1  0  0  0
 48 65  1  0  0  0
 48120  1  0  0  0
 49 50  1  0  0  0
 49 53  1  0  0  0
 49 64  1  0  0  0
 49121  1  0  0  0
 50 51  1  0  0  0
 50122  1  0  0  0
 50123  1  0  0  0
 51 52  1  0  0  0
 51124  1  0  0  0
 51125  1  0  0  0
 52126  1  0  0  0
 52127  1  0  0  0
 53 54  1  0  0  0
 54 55  2  0  0  0
 54128  1  0  0  0
 55 57  1  0  0  0
 55129  1  0  0  0
 56 69  2  0  0  0
 57 58  2  0  0  0
 57130  1  0  0  0
 58131  1  0  0  0
 59 60  1  0  0  0
 59 61  1  0  0  0
 59 62  1  0  0  0
 60132  1  0  0  0
 60133  1  0  0  0
 60134  1  0  0  0
 61135  1  0  0  0
 61136  1  0  0  0
 61137  1  0  0  0
 62138  1  0  0  0
 62139  1  0  0  0
 62140  1  0  0  0
 63 65  1  0  0  0
 63141  1  0  0  0
 63142  1  0  0  0
 63143  1  0  0  0
 64144  1  0  0  0
 65145  1  0  0  0
 68 76  1  0  0  0
 71 73  2  0  0  0
 71 81  1  0  0  0
 71146  1  0  0  0
 72 73  1  0  0  0
 72 74  2  0  0  0
 72 80  1  0  0  0
 73 82  1  0  0  0
 74 75  1  0  0  0
 74 86  1  0  0  0
 75 81  2  0  0  0
 75 83  1  0  0  0
 76 77  2  0  0  0
 76147  1  0  0  0
 77 78  1  0  0  0
 77 85  1  0  0  0
 78 83  1  0  0  0
 78 84  2  0  0  0
 79 80  1  0  0  0
 79148  1  0  0  0
 79149  1  0  0  0
 79150  1  0  0  0
 80151  1  0  0  0
 80152  1  0  0  0
 82153  1  0  0  0
 83154  1  0  0  0
 85155  1  0  0  0
M  ISO  4   1 100  68 101  76 101  82 100
M  END
> <chiral flag>
0

> <version>
0

> <s_m_source_file>
/data/baiqing/PycharmProjects/Reinvent-master-3.2/result/LINK_invent/BTK/process_docking_weight1_custom_product_contain_oxygen_bond_distance_aromatic_linkinvent_7_9_3/rearranged_h_0174.sdf

> <i_m_source_file_index>
90

> <r_mmod_Potential_Energy-OPLS-2005>
-112.39453125

> <r_mmod_Stretch_Energy-OPLS-2005>
94.2079315185547

> <r_mmod_Bend_Energy-OPLS-2005>
152.513763427734

> <r_mmod_Torsional_Energy-OPLS-2005>
224.321533203125

> <r_mmod_Improper_Torsional_Energy-OPLS-2005>
5.43832302093506

> <r_mmod_Van_der_Waal_Energy-OPLS-2005>
140.796875

> <r_mmod_Electrostatic_Energy-OPLS-2005>
-561.075378417969

> <r_mmod_Solvation_Energy-OPLS-2005>
-234.367568969727

> <b_mmod_Minimization_Converged-OPLS-2005>
0

> <r_mmod_RMS_Derivative-OPLS-2005>
3.931391954422

$$$$
90
                    3D
 Structure written by MMmdl.
162170  0  0  1  0            999 V2000
  -30.6890  -14.4700   20.5892 C   0  0  0  0  0  0
  -30.4358  -12.3145   19.4114 C   0  0  0  0  0  0
  -29.4953  -12.5126   18.2033 C   0  0  0  0  0  0
  -28.0181  -12.3698   18.6218 C   0  0  0  0  0  0
  -27.6670  -13.2025   19.8834 C   0  0  2  0  0  0
  -28.7102  -12.9567   20.9960 C   0  0  0  0  0  0
  -25.2619  -13.8150   20.5738 C   0  0  0  0  0  0
  -24.1863  -13.0438   20.9222 C   0  0  0  0  0  0
  -24.6403  -11.6901   20.8744 C   0  0  0  0  0  0
  -23.9059  -10.4288   21.0423 C   0  0  0  0  0  0
  -24.3609   -9.4198   21.9198 C   0  0  0  0  0  0
  -23.6270   -8.2238   22.0775 C   0  0  0  0  0  0
  -22.4249   -8.0298   21.3567 C   0  0  0  0  0  0
  -21.9893   -9.0280   20.4683 C   0  0  0  0  0  0
  -22.7229  -10.2150   20.3082 C   0  0  0  0  0  0
  -21.6844   -6.0745   22.5286 C   0  0  0  0  0  0
  -21.4022   -6.5634   23.8225 C   0  0  0  0  0  0
  -21.3660   -5.6777   24.9179 C   0  0  0  0  0  0
  -21.6043   -4.3044   24.7217 C   0  0  0  0  0  0
  -21.8820   -3.8148   23.4340 C   0  0  0  0  0  0
  -21.9192   -4.6975   22.3407 C   0  0  0  0  0  0
  -22.7895  -13.5248   21.1889 C   0  0  0  0  0  0
  -22.1660   -4.2172   21.0986 F   0  0  0  0  0  0
  -21.5609   -3.4521   25.7722 F   0  0  0  0  0  0
  -30.0420  -13.2805   20.4473 N   0  0  0  0  0  0
  -26.3060  -12.9316   20.3421 N   0  0  0  0  0  0
  -25.9337  -11.6479   20.5787 N   0  0  0  0  0  0
  -22.0541  -12.8262   22.0474 N   0  0  0  0  0  0
  -25.4350  -15.1867   20.4155 N   0  0  0  0  0  0
  -31.8141  -14.6696   20.1178 O   0  0  0  0  0  0
  -21.6617   -6.8898   21.4254 O   0  0  0  0  0  0
  -22.3596  -14.5561   20.6743 O   0  0  0  0  0  0
  -24.6124  -31.8690   23.2112 C   0  0  0  0  0  0
  -25.9027  -32.4819   23.8404 C   0  0  1  0  0  0
  -27.2372  -27.4369   20.0999 C   0  0  0  0  0  0
  -25.5889  -33.8625   24.2327 N   0  0  0  0  0  0
  -23.4000  -30.4909   21.5525 C   0  0  2  0  0  0
  -24.8445  -28.9562   20.1194 C   0  0  0  0  0  0
  -22.7402  -29.4657   22.5017 C   0  0  0  0  0  0
  -18.0270  -28.1372   22.8499 C   0  0  0  0  0  0
  -24.1490  -36.7319   23.2641 C   0  0  0  0  0  0
  -25.9294  -30.8344   21.3664 C   0  0  0  0  0  0
  -26.0039  -29.4716   20.7084 C   0  0  0  0  0  0
  -27.2007  -28.7217   20.6886 C   0  0  0  0  0  0
  -26.0507  -26.9273   19.5188 C   0  0  0  0  0  0
  -24.8635  -27.6842   19.5223 C   0  0  0  0  0  0
  -23.6060  -29.8216   20.1676 C   0  0  0  0  0  0
  -25.4114  -36.3116   24.0338 C   0  0  1  0  0  0
  -20.5859  -28.3660   23.1335 C   0  0  2  0  0  0
  -20.6761  -26.9398   22.5420 C   0  0  0  0  0  0
  -19.5738  -26.6378   21.5217 C   0  0  0  0  0  0
  -18.1921  -26.7916   22.1628 C   0  0  0  0  0  0
  -19.1522  -28.8837   23.2909 C   0  0  0  0  0  0
  -18.9446  -30.1445   23.8908 C   0  0  0  0  0  0
  -17.6447  -30.6582   24.0568 C   0  0  0  0  0  0
  -25.9038  -34.9476   23.5133 C   0  0  0  0  0  0
  -16.5340  -29.9082   23.6328 C   0  0  0  0  0  0
  -16.7259  -28.6501   23.0353 C   0  0  0  0  0  0
  -26.4462  -31.6608   25.0742 C   0  0  0  0  0  0
  -25.3737  -31.3708   26.1495 C   0  0  0  0  0  0
  -27.0289  -30.3042   24.6138 C   0  0  0  0  0  0
  -27.6028  -32.4351   25.7497 C   0  0  0  0  0  0
  -27.5583  -37.1813   24.8467 C   0  0  0  0  0  0
  -21.4134  -29.3028   22.3754 N   0  0  0  0  0  0
  -26.4306  -37.3795   23.9393 N   0  0  0  0  0  0
  -24.6646  -31.0803   22.1002 N   0  0  0  0  0  0
  -23.4190  -28.8209   23.3055 O   0  0  0  0  0  0
  -28.4376  -26.7511   20.1097 O   0  0  0  0  0  0
  -26.5613  -34.8925   22.4696 O   0  0  0  0  0  0
  -23.5324  -32.1442   23.7514 O   0  0  0  0  0  0
  -28.0120  -16.8639   22.6691 C   0  0  0  0  0  0
  -28.8557  -18.9066   21.6303 C   0  0  0  0  0  0
  -26.7765  -18.9433   22.9061 C   0  0  0  0  0  0
  -28.9934  -17.5157   21.8852 C   0  0  0  0  0  0
  -26.8876  -17.5570   23.1500 C   0  0  0  0  0  0
  -27.7451  -19.6281   22.1434 C   0  0  0  0  0  0
  -30.1694  -16.7403   21.3405 C   0  0  0  0  0  0
  -28.1577  -24.5516   21.1726 C   0  0  0  0  0  0
  -24.5994  -17.0074   23.9635 C   0  0  0  0  0  0
  -28.1070  -21.9632   21.2125 C   0  0  0  0  0  0
  -23.8172  -15.9286   24.6994 C   0  0  0  0  0  0
  -27.3123  -23.2744   21.0557 C   0  0  0  0  0  0
  -28.4603  -25.3323   19.8809 C   0  0  0  0  0  0
  -25.9246  -16.8083   23.8787 N   0  0  0  0  0  0
  -27.4749  -21.0123   21.9269 N   0  0  0  0  0  0
  -29.9319  -15.4259   21.1589 N   0  0  0  0  0  0
  -31.2168  -17.3284   21.0502 O   0  0  0  0  0  0
  -28.5422  -24.9646   22.2740 O   0  0  0  0  0  0
  -24.0034  -17.9797   23.4950 O   0  0  0  0  0  0
  -29.2139  -21.8154   20.6862 O   0  0  0  0  0  0
  -31.4744  -12.4376   19.1009 H   0  0  0  0  0  0
  -30.3585  -11.2969   19.7981 H   0  0  0  0  0  0
  -29.7304  -11.7910   17.4190 H   0  0  0  0  0  0
  -29.6596  -13.5003   17.7684 H   0  0  0  0  0  0
  -27.8316  -11.3124   18.8160 H   0  0  0  0  0  0
  -27.3623  -12.6473   17.7962 H   0  0  0  0  0  0
  -27.7168  -14.2553   19.5997 H   0  0  0  0  0  0
  -28.6932  -11.9110   21.3086 H   0  0  0  0  0  0
  -28.4696  -13.5221   21.8977 H   0  0  0  0  0  0
  -25.2755   -9.5667   22.4782 H   0  0  0  0  0  0
  -23.9989   -7.4614   22.7478 H   0  0  0  0  0  0
  -21.0837   -8.8801   19.8974 H   0  0  0  0  0  0
  -22.3693  -10.9696   19.6210 H   0  0  0  0  0  0
  -21.2022   -7.6139   23.9767 H   0  0  0  0  0  0
  -21.1473   -6.0480   25.9092 H   0  0  0  0  0  0
  -22.0602   -2.7615   23.2810 H   0  0  0  0  0  0
  -22.4082  -11.9861   22.4800 H   0  0  0  0  0  0
  -21.1181  -13.1324   22.2707 H   0  0  0  0  0  0
  -26.2749  -15.6235   20.0596 H   0  0  0  0  0  0
  -24.6721  -15.8429   20.5384 H   0  0  0  0  0  0
  -26.7103  -32.5523   23.1169 H   0  0  0  0  0  0
  -25.0003  -33.9797   25.0450 H   0  0  0  0  0  0
  -22.6872  -31.3068   21.4147 H   0  0  0  0  0  0
  -23.3746  -35.9658   23.3325 H   0  0  0  0  0  0
  -24.3576  -36.8913   22.2048 H   0  0  0  0  0  0
  -23.7251  -37.6532   23.6647 H   0  0  0  0  0  0
  -26.0591  -31.6073   20.6078 H   0  0  0  0  0  0
  -26.8102  -30.8707   21.9961 H   0  0  0  0  0  0
  -28.0994  -29.1253   21.1342 H   0  0  0  0  0  0
  -26.0119  -25.9545   19.0536 H   0  0  0  0  0  0
  -23.9676  -27.2801   19.0713 H   0  0  0  0  0  0
  -23.7111  -30.5950   19.4055 H   0  0  0  0  0  0
  -22.7300  -29.2384   19.8761 H   0  0  0  0  0  0
  -25.1290  -36.1986   25.0836 H   0  0  0  0  0  0
  -20.9949  -28.3209   24.1456 H   0  0  0  0  0  0
  -20.5672  -26.2259   23.3606 H   0  0  0  0  0  0
  -21.6634  -26.7442   22.1204 H   0  0  0  0  0  0
  -19.6899  -25.6294   21.1241 H   0  0  0  0  0  0
  -19.6674  -27.3199   20.6763 H   0  0  0  0  0  0
  -17.4184  -26.6677   21.4033 H   0  0  0  0  0  0
  -18.0317  -26.0054   22.9023 H   0  0  0  0  0  0
  -19.7927  -30.7266   24.2273 H   0  0  0  0  0  0
  -17.5005  -31.6263   24.5167 H   0  0  0  0  0  0
  -15.5346  -30.2986   23.7650 H   0  0  0  0  0  0
  -15.8661  -28.0825   22.7058 H   0  0  0  0  0  0
  -24.5893  -30.7078   25.7828 H   0  0  0  0  0  0
  -24.8958  -32.2861   26.4992 H   0  0  0  0  0  0
  -25.8101  -30.8831   27.0219 H   0  0  0  0  0  0
  -26.2826  -29.6804   24.1200 H   0  0  0  0  0  0
  -27.4038  -29.7286   25.4609 H   0  0  0  0  0  0
  -27.8682  -30.4338   23.9303 H   0  0  0  0  0  0
  -27.2613  -33.3618   26.2119 H   0  0  0  0  0  0
  -28.3796  -32.6969   25.0306 H   0  0  0  0  0  0
  -28.0743  -31.8466   26.5372 H   0  0  0  0  0  0
  -28.2616  -38.0096   24.7490 H   0  0  0  0  0  0
  -28.1063  -36.2619   24.6327 H   0  0  0  0  0  0
  -27.2293  -37.1511   25.8872 H   0  0  0  0  0  0
  -20.9309  -29.8743   21.6965 H   0  0  0  0  0  0
  -26.0197  -38.2879   24.1373 H   0  0  0  0  0  0
  -28.0989  -15.8107   22.8926 H   0  0  0  0  0  0
  -29.6052  -19.4005   21.0277 H   0  0  0  0  0  0
  -25.9364  -19.4959   23.3025 H   0  0  0  0  0  0
  -24.0742  -14.9406   24.3143 H   0  0  0  0  0  0
  -22.7445  -16.0730   24.5735 H   0  0  0  0  0  0
  -24.0435  -15.9548   25.7654 H   0  0  0  0  0  0
  -26.8121  -23.2528   20.0884 H   0  0  0  0  0  0
  -26.5242  -23.3312   21.8093 H   0  0  0  0  0  0
  -27.8139  -25.0220   19.0630 H   0  0  0  0  0  0
  -29.4717  -25.0660   19.5731 H   0  0  0  0  0  0
  -26.2498  -15.9359   24.2718 H   0  0  0  0  0  0
  -26.6004  -21.3251   22.3252 H   0  0  0  0  0  0
  -29.0204  -15.1223   21.4502 H   0  0  0  0  0  0
  1 25  1  0  0  0
  1 30  2  0  0  0
  1 86  1  0  0  0
  2  3  1  0  0  0
  2 25  1  0  0  0
  2 91  1  0  0  0
  2 92  1  0  0  0
  3  4  1  0  0  0
  3 93  1  0  0  0
  3 94  1  0  0  0
  4  5  1  0  0  0
  4 95  1  0  0  0
  4 96  1  0  0  0
  5  6  1  0  0  0
  5 26  1  0  0  0
  5 97  1  0  0  0
  6 25  1  0  0  0
  6 98  1  0  0  0
  6 99  1  0  0  0
  7  8  2  0  0  0
  7 26  1  0  0  0
  7 29  1  0  0  0
  8  9  1  0  0  0
  8 22  1  0  0  0
  9 10  1  0  0  0
  9 27  2  0  0  0
 10 11  2  0  0  0
 10 15  1  0  0  0
 11 12  1  0  0  0
 11100  1  0  0  0
 12 13  2  0  0  0
 12101  1  0  0  0
 13 14  1  0  0  0
 13 31  1  0  0  0
 14 15  2  0  0  0
 14102  1  0  0  0
 15103  1  0  0  0
 16 17  2  0  0  0
 16 21  1  0  0  0
 16 31  1  0  0  0
 17 18  1  0  0  0
 17104  1  0  0  0
 18 19  2  0  0  0
 18105  1  0  0  0
 19 20  1  0  0  0
 19 24  1  0  0  0
 20 21  2  0  0  0
 20106  1  0  0  0
 21 23  1  0  0  0
 22 28  1  0  0  0
 22 32  2  0  0  0
 26 27  1  0  0  0
 28107  1  0  0  0
 28108  1  0  0  0
 29109  1  0  0  0
 29110  1  0  0  0
 33 34  1  0  0  0
 33 66  1  0  0  0
 33 70  2  0  0  0
 34 36  1  0  0  0
 34 59  1  0  0  0
 34111  1  0  0  0
 35 44  2  0  0  0
 35 45  1  0  0  0
 35 68  1  0  0  0
 36 56  1  0  0  0
 36112  1  0  0  0
 37 39  1  0  0  0
 37 47  1  0  0  0
 37 66  1  0  0  0
 37113  1  0  0  0
 38 43  2  0  0  0
 38 46  1  0  0  0
 38 47  1  0  0  0
 39 64  1  0  0  0
 39 67  2  0  0  0
 40 52  1  0  0  0
 40 53  2  0  0  0
 40 58  1  0  0  0
 41114  1  0  0  0
 41115  1  0  0  0
 41116  1  0  0  0
 41 48  1  0  0  0
 42 43  1  0  0  0
 42 66  1  0  0  0
 42117  1  0  0  0
 42118  1  0  0  0
 43 44  1  0  0  0
 44119  1  0  0  0
 45 46  2  0  0  0
 45120  1  0  0  0
 46121  1  0  0  0
 47122  1  0  0  0
 47123  1  0  0  0
 48 56  1  0  0  0
 48 65  1  0  0  0
 48124  1  0  0  0
 49 50  1  0  0  0
 49 53  1  0  0  0
 49 64  1  0  0  0
 49125  1  0  0  0
 50 51  1  0  0  0
 50126  1  0  0  0
 50127  1  0  0  0
 51 52  1  0  0  0
 51128  1  0  0  0
 51129  1  0  0  0
 52130  1  0  0  0
 52131  1  0  0  0
 53 54  1  0  0  0
 54 55  2  0  0  0
 54132  1  0  0  0
 55 57  1  0  0  0
 55133  1  0  0  0
 56 69  2  0  0  0
 57 58  2  0  0  0
 57134  1  0  0  0
 58135  1  0  0  0
 59 60  1  0  0  0
 59 61  1  0  0  0
 59 62  1  0  0  0
 60136  1  0  0  0
 60137  1  0  0  0
 60138  1  0  0  0
 61139  1  0  0  0
 61140  1  0  0  0
 61141  1  0  0  0
 62142  1  0  0  0
 62143  1  0  0  0
 62144  1  0  0  0
 63 65  1  0  0  0
 63145  1  0  0  0
 63146  1  0  0  0
 63147  1  0  0  0
 64148  1  0  0  0
 65149  1  0  0  0
 68 83  1  0  0  0
 71 74  2  0  0  0
 71 75  1  0  0  0
 71150  1  0  0  0
 72 74  1  0  0  0
 72 76  2  0  0  0
 72151  1  0  0  0
 73 75  2  0  0  0
 73 76  1  0  0  0
 73152  1  0  0  0
 74 77  1  0  0  0
 75 84  1  0  0  0
 76 85  1  0  0  0
 77 86  1  0  0  0
 77 87  2  0  0  0
 78 82  1  0  0  0
 78 83  1  0  0  0
 78 88  2  0  0  0
 79 81  1  0  0  0
 79 84  1  0  0  0
 79 89  2  0  0  0
 80 82  1  0  0  0
 80 85  1  0  0  0
 80 90  2  0  0  0
 81153  1  0  0  0
 81154  1  0  0  0
 81155  1  0  0  0
 82156  1  0  0  0
 82157  1  0  0  0
 83158  1  0  0  0
 83159  1  0  0  0
 84160  1  0  0  0
 85161  1  0  0  0
 86162  1  0  0  0
M  ISO  4   1 100  68 101  83 101  86 100
M  END
> <chiral flag>
0

> <version>
0

> <s_m_source_file>
/data/baiqing/PycharmProjects/Reinvent-master-3.2/result/LINK_invent/BTK/process_docking_weight1_custom_product_contain_oxygen_bond_distance_aromatic_linkinvent_7_9_3/rearranged_h_0174.sdf

> <i_m_source_file_index>
91

> <r_mmod_Potential_Energy-OPLS-2005>
-266.214019775391

> <r_mmod_Stretch_Energy-OPLS-2005>
38.3761215209961

> <r_mmod_Bend_Energy-OPLS-2005>
129.451904296875

> <r_mmod_Torsional_Energy-OPLS-2005>
232.026840209961

> <r_mmod_Improper_Torsional_Energy-OPLS-2005>
4.19415426254272

> <r_mmod_Van_der_Waal_Energy-OPLS-2005>
153.841506958008

> <r_mmod_Electrostatic_Energy-OPLS-2005>
-536.572265625

> <r_mmod_Solvation_Energy-OPLS-2005>
-299.713073730469

> <b_mmod_Minimization_Converged-OPLS-2005>
0

> <r_mmod_RMS_Derivative-OPLS-2005>
2.34506464004517

$$$$
91
                    3D
 Structure written by MMmdl.
163171  0  0  1  0            999 V2000
  -30.7124  -14.4189   20.6309 C   0  0  0  0  0  0
  -30.4260  -12.3004   19.3974 C   0  0  0  0  0  0
  -29.4886  -12.5209   18.1921 C   0  0  0  0  0  0
  -28.0094  -12.3795   18.6070 C   0  0  0  0  0  0
  -27.6638  -13.1995   19.8790 C   0  0  2  0  0  0
  -28.7042  -12.9346   20.9890 C   0  0  0  0  0  0
  -25.2600  -13.8151   20.5682 C   0  0  0  0  0  0
  -24.1839  -13.0437   20.9151 C   0  0  0  0  0  0
  -24.6382  -11.6899   20.8718 C   0  0  0  0  0  0
  -23.9052  -10.4291   21.0399 C   0  0  0  0  0  0
  -24.3610   -9.4208   21.9180 C   0  0  0  0  0  0
  -23.6293   -8.2238   22.0751 C   0  0  0  0  0  0
  -22.4274   -8.0276   21.3545 C   0  0  0  0  0  0
  -21.9908   -9.0243   20.4640 C   0  0  0  0  0  0
  -22.7231  -10.2126   20.3044 C   0  0  0  0  0  0
  -21.6851   -6.0734   22.5285 C   0  0  0  0  0  0
  -21.3998   -6.5637   23.8218 C   0  0  0  0  0  0
  -21.3655   -5.6792   24.9185 C   0  0  0  0  0  0
  -21.6047   -4.3055   24.7230 C   0  0  0  0  0  0
  -21.8821   -3.8148   23.4351 C   0  0  0  0  0  0
  -21.9188   -4.6963   22.3407 C   0  0  0  0  0  0
  -22.7868  -13.5239   21.1832 C   0  0  0  0  0  0
  -22.1664   -4.2149   21.0986 F   0  0  0  0  0  0
  -21.5630   -3.4535   25.7739 F   0  0  0  0  0  0
  -30.0402  -13.2519   20.4476 N   0  0  0  0  0  0
  -26.3028  -12.9305   20.3379 N   0  0  0  0  0  0
  -25.9305  -11.6469   20.5760 N   0  0  0  0  0  0
  -22.0503  -12.8225   22.0386 N   0  0  0  0  0  0
  -25.4354  -15.1874   20.4154 N   0  0  0  0  0  0
  -31.8056  -14.6604   20.1089 O   0  0  0  0  0  0
  -21.6641   -6.8873   21.4246 O   0  0  0  0  0  0
  -22.3552  -14.5555   20.6704 O   0  0  0  0  0  0
  -24.6089  -31.8702   23.2104 C   0  0  0  0  0  0
  -25.8994  -32.4833   23.8400 C   0  0  1  0  0  0
  -27.2582  -27.4729   20.1139 C   0  0  0  0  0  0
  -25.5873  -33.8627   24.2341 N   0  0  0  0  0  0
  -23.3954  -30.4909   21.5479 C   0  0  2  0  0  0
  -24.8476  -28.9572   20.1170 C   0  0  0  0  0  0
  -22.7380  -29.4671   22.4998 C   0  0  0  0  0  0
  -18.0267  -28.1385   22.8503 C   0  0  0  0  0  0
  -24.1470  -36.7303   23.2645 C   0  0  0  0  0  0
  -25.9145  -30.8566   21.3488 C   0  0  0  0  0  0
  -25.9995  -29.4896   20.7061 C   0  0  0  0  0  0
  -27.2057  -28.7634   20.6958 C   0  0  0  0  0  0
  -26.0926  -26.9556   19.5115 C   0  0  0  0  0  0
  -24.8880  -27.6874   19.5129 C   0  0  0  0  0  0
  -23.6030  -29.8140   20.1648 C   0  0  0  0  0  0
  -25.4092  -36.3117   24.0349 C   0  0  1  0  0  0
  -20.5854  -28.3657   23.1339 C   0  0  2  0  0  0
  -20.6753  -26.9400   22.5425 C   0  0  0  0  0  0
  -19.5738  -26.6392   21.5221 C   0  0  0  0  0  0
  -18.1914  -26.7934   22.1625 C   0  0  0  0  0  0
  -19.1516  -28.8836   23.2921 C   0  0  0  0  0  0
  -18.9448  -30.1445   23.8924 C   0  0  0  0  0  0
  -17.6455  -30.6594   24.0579 C   0  0  0  0  0  0
  -25.9021  -34.9483   23.5146 C   0  0  0  0  0  0
  -16.5342  -29.9103   23.6338 C   0  0  0  0  0  0
  -16.7260  -28.6523   23.0348 C   0  0  0  0  0  0
  -26.4455  -31.6592   25.0700 C   0  0  0  0  0  0
  -25.3744  -31.3668   26.1463 C   0  0  0  0  0  0
  -27.0287  -30.3059   24.6005 C   0  0  0  0  0  0
  -27.6034  -32.4302   25.7471 C   0  0  0  0  0  0
  -27.5570  -37.1803   24.8473 C   0  0  0  0  0  0
  -21.4115  -29.3025   22.3736 N   0  0  0  0  0  0
  -26.4279  -37.3801   23.9428 N   0  0  0  0  0  0
  -24.6581  -31.0855   22.0962 N   0  0  0  0  0  0
  -23.4177  -28.8238   23.3039 O   0  0  0  0  0  0
  -28.3887  -26.6826   20.0850 O   0  0  0  0  0  0
  -26.5584  -34.8938   22.4708 O   0  0  0  0  0  0
  -23.5293  -32.1417   23.7538 O   0  0  0  0  0  0
  -31.8139  -18.5744   22.0368 C   0  0  0  0  0  0
  -31.6139  -17.1943   21.8236 C   0  0  0  0  0  0
  -30.7353  -19.4867   21.9394 C   0  0  0  0  0  0
  -30.3267  -16.7064   21.5096 C   0  0  0  0  0  0
  -29.4505  -18.9969   21.6091 C   0  0  0  0  0  0
  -29.2497  -17.6132   21.4075 C   0  0  0  0  0  0
  -30.9714  -20.9130   22.2050 C   0  0  0  0  0  0
  -31.9472  -23.5780   20.4578 C   0  0  0  0  0  0
  -29.7647  -25.6454   21.8388 C   0  0  0  0  0  0
  -32.9943  -24.6234   20.8120 C   0  0  0  0  0  0
  -29.6036  -24.2692   21.1716 C   0  0  0  0  0  0
  -29.3971  -26.9235   21.0720 C   0  0  0  0  0  0
  -30.8097  -23.3296   21.4617 C   0  0  1  0  0  0
  -30.0462  -15.3230   21.3624 N   0  0  0  0  0  0
  -30.4443  -21.8887   21.4376 N   0  0  0  0  0  0
  -31.7547  -21.2600   23.2323 N   0  3  0  0  0  0
  -32.0337  -22.9604   19.3943 O   0  0  0  0  0  0
  -30.1935  -25.7271   22.9931 O   0  0  0  0  0  0
  -28.4003  -19.8497   21.4954 F   0  0  0  0  0  0
  -28.0116  -17.1435   21.1087 F   0  0  0  0  0  0
  -31.4686  -12.4139   19.0946 H   0  0  0  0  0  0
  -30.3351  -11.2791   19.7708 H   0  0  0  0  0  0
  -29.7244  -11.8126   17.3969 H   0  0  0  0  0  0
  -29.6549  -13.5150   17.7728 H   0  0  0  0  0  0
  -27.8116  -11.3216   18.7829 H   0  0  0  0  0  0
  -27.3589  -12.6729   17.7825 H   0  0  0  0  0  0
  -27.7208  -14.2543   19.6088 H   0  0  0  0  0  0
  -28.6751  -11.8836   21.2808 H   0  0  0  0  0  0
  -28.4567  -13.4841   21.8979 H   0  0  0  0  0  0
  -25.2756   -9.5685   22.4749 H   0  0  0  0  0  0
  -24.0003   -7.4624   22.7469 H   0  0  0  0  0  0
  -21.0839   -8.8757   19.8942 H   0  0  0  0  0  0
  -22.3698  -10.9657   19.6141 H   0  0  0  0  0  0
  -21.1981   -7.6139   23.9717 H   0  0  0  0  0  0
  -21.1474   -6.0523   25.9089 H   0  0  0  0  0  0
  -22.0600   -2.7610   23.2848 H   0  0  0  0  0  0
  -22.4101  -11.9866   22.4744 H   0  0  0  0  0  0
  -21.1123  -13.1260   22.2598 H   0  0  0  0  0  0
  -24.6766  -15.8476   20.5436 H   0  0  0  0  0  0
  -26.3107  -15.6383   20.1766 H   0  0  0  0  0  0
  -26.7070  -32.5576   23.1184 H   0  0  0  0  0  0
  -25.0031  -33.9787   25.0493 H   0  0  0  0  0  0
  -22.6839  -31.3065   21.4061 H   0  0  0  0  0  0
  -23.3742  -35.9626   23.3314 H   0  0  0  0  0  0
  -24.3573  -36.8910   22.2061 H   0  0  0  0  0  0
  -23.7202  -37.6507   23.6640 H   0  0  0  0  0  0
  -26.0073  -31.6203   20.5749 H   0  0  0  0  0  0
  -26.8092  -30.9232   21.9557 H   0  0  0  0  0  0
  -28.0820  -29.2249   21.1261 H   0  0  0  0  0  0
  -26.1172  -25.9783   19.0491 H   0  0  0  0  0  0
  -24.0035  -27.2709   19.0513 H   0  0  0  0  0  0
  -23.7028  -30.5841   19.3994 H   0  0  0  0  0  0
  -22.7318  -29.2232   19.8748 H   0  0  0  0  0  0
  -25.1275  -36.1977   25.0843 H   0  0  0  0  0  0
  -20.9960  -28.3206   24.1452 H   0  0  0  0  0  0
  -20.5662  -26.2268   23.3610 H   0  0  0  0  0  0
  -21.6621  -26.7450   22.1210 H   0  0  0  0  0  0
  -19.6904  -25.6312   21.1224 H   0  0  0  0  0  0
  -19.6681  -27.3221   20.6769 H   0  0  0  0  0  0
  -17.4198  -26.6709   21.4010 H   0  0  0  0  0  0
  -18.0303  -26.0063   22.9011 H   0  0  0  0  0  0
  -19.7928  -30.7254   24.2292 H   0  0  0  0  0  0
  -17.5021  -31.6276   24.5181 H   0  0  0  0  0  0
  -15.5346  -30.3018   23.7653 H   0  0  0  0  0  0
  -15.8661  -28.0863   22.7028 H   0  0  0  0  0  0
  -24.5913  -30.7019   25.7808 H   0  0  0  0  0  0
  -24.8930  -32.2805   26.4952 H   0  0  0  0  0  0
  -25.8124  -30.8816   27.0195 H   0  0  0  0  0  0
  -26.2807  -29.6810   24.1106 H   0  0  0  0  0  0
  -27.4159  -29.7288   25.4414 H   0  0  0  0  0  0
  -27.8591  -30.4427   23.9073 H   0  0  0  0  0  0
  -27.2658  -33.3594   26.2077 H   0  0  0  0  0  0
  -28.3838  -32.6874   25.0295 H   0  0  0  0  0  0
  -28.0706  -31.8399   26.5366 H   0  0  0  0  0  0
  -28.2593  -38.0098   24.7531 H   0  0  0  0  0  0
  -28.1061  -36.2631   24.6277 H   0  0  0  0  0  0
  -27.2302  -37.1431   25.8882 H   0  0  0  0  0  0
  -20.9268  -29.8730   21.6948 H   0  0  0  0  0  0
  -26.0166  -38.2880   24.1444 H   0  0  0  0  0  0
  -32.8071  -18.9272   22.2807 H   0  0  0  0  0  0
  -32.4509  -16.5161   21.9220 H   0  0  0  0  0  0
  -32.5728  -25.4041   21.4428 H   0  0  0  0  0  0
  -33.3872  -25.0876   19.9071 H   0  0  0  0  0  0
  -33.8195  -24.1575   21.3499 H   0  0  0  0  0  0
  -29.4832  -24.4150   20.0976 H   0  0  0  0  0  0
  -28.6754  -23.8225   21.5281 H   0  0  0  0  0  0
  -30.2905  -27.3126   20.5828 H   0  0  0  0  0  0
  -29.1044  -27.6475   21.8290 H   0  0  0  0  0  0
  -31.1854  -23.5576   22.4588 H   0  0  0  0  0  0
  -29.1165  -15.0391   21.6307 H   0  0  0  0  0  0
  -29.9127  -21.5711   20.6365 H   0  0  0  0  0  0
  -32.1141  -20.5444   23.8446 H   0  0  0  0  0  0
  -31.8539  -22.2207   23.5135 H   0  0  0  0  0  0
  1 25  1  0  0  0
  1 30  2  0  0  0
  1 84  1  0  0  0
  2  3  1  0  0  0
  2 25  1  0  0  0
  2 91  1  0  0  0
  2 92  1  0  0  0
  3  4  1  0  0  0
  3 93  1  0  0  0
  3 94  1  0  0  0
  4  5  1  0  0  0
  4 95  1  0  0  0
  4 96  1  0  0  0
  5  6  1  0  0  0
  5 26  1  0  0  0
  5 97  1  0  0  0
  6 25  1  0  0  0
  6 98  1  0  0  0
  6 99  1  0  0  0
  7  8  2  0  0  0
  7 26  1  0  0  0
  7 29  1  0  0  0
  8  9  1  0  0  0
  8 22  1  0  0  0
  9 10  1  0  0  0
  9 27  2  0  0  0
 10 11  2  0  0  0
 10 15  1  0  0  0
 11 12  1  0  0  0
 11100  1  0  0  0
 12 13  2  0  0  0
 12101  1  0  0  0
 13 14  1  0  0  0
 13 31  1  0  0  0
 14 15  2  0  0  0
 14102  1  0  0  0
 15103  1  0  0  0
 16 17  2  0  0  0
 16 21  1  0  0  0
 16 31  1  0  0  0
 17 18  1  0  0  0
 17104  1  0  0  0
 18 19  2  0  0  0
 18105  1  0  0  0
 19 20  1  0  0  0
 19 24  1  0  0  0
 20 21  2  0  0  0
 20106  1  0  0  0
 21 23  1  0  0  0
 22 28  1  0  0  0
 22 32  2  0  0  0
 26 27  1  0  0  0
 28107  1  0  0  0
 28108  1  0  0  0
 29109  1  0  0  0
 29110  1  0  0  0
 33 34  1  0  0  0
 33 66  1  0  0  0
 33 70  2  0  0  0
 34 36  1  0  0  0
 34 59  1  0  0  0
 34111  1  0  0  0
 35 44  2  0  0  0
 35 45  1  0  0  0
 35 68  1  0  0  0
 36 56  1  0  0  0
 36112  1  0  0  0
 37 39  1  0  0  0
 37 47  1  0  0  0
 37 66  1  0  0  0
 37113  1  0  0  0
 38 43  2  0  0  0
 38 46  1  0  0  0
 38 47  1  0  0  0
 39 64  1  0  0  0
 39 67  2  0  0  0
 40 52  1  0  0  0
 40 53  2  0  0  0
 40 58  1  0  0  0
 41114  1  0  0  0
 41115  1  0  0  0
 41116  1  0  0  0
 41 48  1  0  0  0
 42 43  1  0  0  0
 42 66  1  0  0  0
 42117  1  0  0  0
 42118  1  0  0  0
 43 44  1  0  0  0
 44119  1  0  0  0
 45 46  2  0  0  0
 45120  1  0  0  0
 46121  1  0  0  0
 47122  1  0  0  0
 47123  1  0  0  0
 48 56  1  0  0  0
 48 65  1  0  0  0
 48124  1  0  0  0
 49 50  1  0  0  0
 49 53  1  0  0  0
 49 64  1  0  0  0
 49125  1  0  0  0
 50 51  1  0  0  0
 50126  1  0  0  0
 50127  1  0  0  0
 51 52  1  0  0  0
 51128  1  0  0  0
 51129  1  0  0  0
 52130  1  0  0  0
 52131  1  0  0  0
 53 54  1  0  0  0
 54 55  2  0  0  0
 54132  1  0  0  0
 55 57  1  0  0  0
 55133  1  0  0  0
 56 69  2  0  0  0
 57 58  2  0  0  0
 57134  1  0  0  0
 58135  1  0  0  0
 59 60  1  0  0  0
 59 61  1  0  0  0
 59 62  1  0  0  0
 60136  1  0  0  0
 60137  1  0  0  0
 60138  1  0  0  0
 61139  1  0  0  0
 61140  1  0  0  0
 61141  1  0  0  0
 62142  1  0  0  0
 62143  1  0  0  0
 62144  1  0  0  0
 63 65  1  0  0  0
 63145  1  0  0  0
 63146  1  0  0  0
 63147  1  0  0  0
 64148  1  0  0  0
 65149  1  0  0  0
 68 82  1  0  0  0
 71 72  2  0  0  0
 71 73  1  0  0  0
 71150  1  0  0  0
 72 74  1  0  0  0
 72151  1  0  0  0
 73 75  2  0  0  0
 73 77  1  0  0  0
 74 76  2  0  0  0
 74 84  1  0  0  0
 75 76  1  0  0  0
 75 89  1  0  0  0
 76 90  1  0  0  0
 77 85  1  0  0  0
 77 86  2  0  0  0
 78 80  1  0  0  0
 78 83  1  0  0  0
 78 87  2  0  0  0
 79 81  1  0  0  0
 79 82  1  0  0  0
 79 88  2  0  0  0
 80152  1  0  0  0
 80153  1  0  0  0
 80154  1  0  0  0
 81155  1  0  0  0
 81156  1  0  0  0
 81 83  1  0  0  0
 82157  1  0  0  0
 82158  1  0  0  0
 83 85  1  0  0  0
 83159  1  0  0  0
 84160  1  0  0  0
 85161  1  0  0  0
 86162  1  0  0  0
 86163  1  0  0  0
M  CHG  1  86   1
M  ISO  4   1 100  68 101  82 101  84 100
M  END
> <chiral flag>
0

> <version>
0

> <s_m_source_file>
/data/baiqing/PycharmProjects/Reinvent-master-3.2/result/LINK_invent/BTK/process_docking_weight1_custom_product_contain_oxygen_bond_distance_aromatic_linkinvent_7_9_3/rearranged_h_0174.sdf

> <i_m_source_file_index>
92

> <r_mmod_Potential_Energy-OPLS-2005>
-397.884918212891

> <r_mmod_Stretch_Energy-OPLS-2005>
35.452995300293

> <r_mmod_Bend_Energy-OPLS-2005>
98.7217788696289

> <r_mmod_Torsional_Energy-OPLS-2005>
223.984146118164

> <r_mmod_Improper_Torsional_Energy-OPLS-2005>
3.95838451385498

> <r_mmod_Van_der_Waal_Energy-OPLS-2005>
164.496643066406

> <r_mmod_Electrostatic_Energy-OPLS-2005>
-488.451232910156

> <r_mmod_Solvation_Energy-OPLS-2005>
-443.729858398438

> <b_mmod_Minimization_Converged-OPLS-2005>
0

> <r_mmod_RMS_Derivative-OPLS-2005>
1.45784497261047

$$$$
92
                    3D
 Structure written by MMmdl.
156164  0  0  1  0            999 V2000
  -30.6802  -14.5243   20.5209 C   0  0  0  0  0  0
  -30.4204  -12.3230   19.4368 C   0  0  0  0  0  0
  -29.4979  -12.4984   18.2122 C   0  0  0  0  0  0
  -28.0182  -12.3573   18.6217 C   0  0  0  0  0  0
  -27.6558  -13.2123   19.8663 C   0  0  2  0  0  0
  -28.6964  -13.0303   20.9939 C   0  0  0  0  0  0
  -25.2567  -13.8175   20.5677 C   0  0  0  0  0  0
  -24.1831  -13.0447   20.9194 C   0  0  0  0  0  0
  -24.6393  -11.6919   20.8749 C   0  0  0  0  0  0
  -23.9075  -10.4293   21.0411 C   0  0  0  0  0  0
  -24.3630   -9.4208   21.9185 C   0  0  0  0  0  0
  -23.6304   -8.2243   22.0752 C   0  0  0  0  0  0
  -22.4284   -8.0281   21.3545 C   0  0  0  0  0  0
  -21.9919   -9.0257   20.4649 C   0  0  0  0  0  0
  -22.7247  -10.2134   20.3058 C   0  0  0  0  0  0
  -21.6851   -6.0744   22.5288 C   0  0  0  0  0  0
  -21.4007   -6.5653   23.8225 C   0  0  0  0  0  0
  -21.3655   -5.6797   24.9182 C   0  0  0  0  0  0
  -21.6042   -4.3058   24.7228 C   0  0  0  0  0  0
  -21.8818   -3.8154   23.4352 C   0  0  0  0  0  0
  -21.9190   -4.6972   22.3411 C   0  0  0  0  0  0
  -22.7855  -13.5240   21.1856 C   0  0  0  0  0  0
  -22.1661   -4.2164   21.0989 F   0  0  0  0  0  0
  -21.5625   -3.4539   25.7736 F   0  0  0  0  0  0
  -30.0248  -13.3311   20.4369 N   0  0  0  0  0  0
  -26.2997  -12.9357   20.3323 N   0  0  0  0  0  0
  -25.9318  -11.6516   20.5766 N   0  0  0  0  0  0
  -22.0493  -12.8230   22.0410 N   0  0  0  0  0  0
  -25.4303  -15.1892   20.4075 N   0  0  0  0  0  0
  -31.8401  -14.6521   20.1153 O   0  0  0  0  0  0
  -21.6641   -6.8883   21.4243 O   0  0  0  0  0  0
  -22.3544  -14.5552   20.6713 O   0  0  0  0  0  0
  -24.6165  -31.8654   23.2074 C   0  0  0  0  0  0
  -25.9043  -32.4806   23.8381 C   0  0  1  0  0  0
  -27.2317  -27.4136   20.1070 C   0  0  0  0  0  0
  -25.5905  -33.8611   24.2322 N   0  0  0  0  0  0
  -23.4066  -30.4877   21.5472 C   0  0  2  0  0  0
  -24.8551  -28.9490   20.1146 C   0  0  0  0  0  0
  -22.7427  -29.4645   22.4972 C   0  0  0  0  0  0
  -18.0267  -28.1374   22.8483 C   0  0  0  0  0  0
  -24.1491  -36.7310   23.2644 C   0  0  0  0  0  0
  -25.9377  -30.8261   21.3618 C   0  0  0  0  0  0
  -26.0166  -29.4579   20.7108 C   0  0  0  0  0  0
  -27.2122  -28.6986   20.7007 C   0  0  0  0  0  0
  -26.0569  -26.9223   19.5023 C   0  0  0  0  0  0
  -24.8712  -27.6813   19.5054 C   0  0  0  0  0  0
  -23.6167  -29.8172   20.1632 C   0  0  0  0  0  0
  -25.4111  -36.3105   24.0349 C   0  0  1  0  0  0
  -20.5861  -28.3662   23.1316 C   0  0  2  0  0  0
  -20.6755  -26.9393   22.5428 C   0  0  0  0  0  0
  -19.5745  -26.6374   21.5211 C   0  0  0  0  0  0
  -18.1917  -26.7924   22.1608 C   0  0  0  0  0  0
  -19.1516  -28.8833   23.2894 C   0  0  0  0  0  0
  -18.9447  -30.1441   23.8900 C   0  0  0  0  0  0
  -17.6449  -30.6580   24.0562 C   0  0  0  0  0  0
  -25.9037  -34.9469   23.5128 C   0  0  0  0  0  0
  -16.5338  -29.9082   23.6332 C   0  0  0  0  0  0
  -16.7257  -28.6502   23.0344 C   0  0  0  0  0  0
  -26.4468  -31.6595   25.0716 C   0  0  0  0  0  0
  -25.3741  -31.3724   26.1478 C   0  0  0  0  0  0
  -27.0287  -30.3029   24.6099 C   0  0  0  0  0  0
  -27.6058  -32.4313   25.7463 C   0  0  0  0  0  0
  -27.5589  -37.1803   24.8459 C   0  0  0  0  0  0
  -21.4150  -29.3031   22.3723 N   0  0  0  0  0  0
  -26.4287  -37.3794   23.9419 N   0  0  0  0  0  0
  -24.6719  -31.0745   22.0972 N   0  0  0  0  0  0
  -23.4200  -28.8182   23.3006 O   0  0  0  0  0  0
  -28.3633  -26.6244   20.1147 O   0  0  0  0  0  0
  -26.5583  -34.8924   22.4679 O   0  0  0  0  0  0
  -23.5351  -32.1398   23.7465 O   0  0  0  0  0  0
  -30.2174  -19.4919   20.7440 C   0  0  0  0  0  0
  -31.1913  -18.8869   19.9718 C   0  0  0  0  0  0
  -30.1634  -16.9873   20.7455 C   0  0  0  0  0  0
  -30.0289  -20.9062   21.1946 C   0  0  0  0  0  0
  -27.0787  -22.6612   21.9387 C   0  0  0  0  0  0
  -28.5457  -24.1199   20.4221 C   0  0  0  0  0  0
  -26.6830  -23.3656   23.2322 C   0  0  0  0  0  0
  -28.2918  -25.5220   21.0502 C   0  0  0  0  0  0
  -28.4969  -22.8907   21.3900 C   0  0  2  0  0  0
  -31.1306  -17.4885   19.9653 N   0  0  0  0  0  0
  -32.2077  -19.5036   19.2365 N   0  0  0  0  0  0
  -29.9344  -15.5790   20.9356 N   0  0  0  0  0  0
  -28.9561  -21.6097   20.7861 N   0  0  0  0  0  0
  -30.8667  -21.4063   21.9474 O   0  0  0  0  0  0
  -26.2605  -21.9141   21.3915 O   0  0  0  0  0  0
  -28.7907  -24.0150   19.2135 O   0  0  0  0  0  0
  -29.1803  -18.2695   21.4780 S   0  0  0  0  0  0
  -31.4669  -12.4147   19.1389 H   0  0  0  0  0  0
  -30.3185  -11.3198   19.8538 H   0  0  0  0  0  0
  -29.7457  -11.7637   17.4451 H   0  0  0  0  0  0
  -29.6642  -13.4779   17.7609 H   0  0  0  0  0  0
  -27.8301  -11.3032   18.8296 H   0  0  0  0  0  0
  -27.3696  -12.6191   17.7853 H   0  0  0  0  0  0
  -27.6881  -14.2541   19.5466 H   0  0  0  0  0  0
  -28.6770  -12.0064   21.3701 H   0  0  0  0  0  0
  -28.4561  -13.6617   21.8508 H   0  0  0  0  0  0
  -25.2778   -9.5684   22.4762 H   0  0  0  0  0  0
  -24.0016   -7.4625   22.7468 H   0  0  0  0  0  0
  -21.0851   -8.8773   19.8958 H   0  0  0  0  0  0
  -22.3710  -10.9673   19.6171 H   0  0  0  0  0  0
  -21.2002   -7.6164   23.9730 H   0  0  0  0  0  0
  -21.1473   -6.0529   25.9085 H   0  0  0  0  0  0
  -22.0600   -2.7618   23.2839 H   0  0  0  0  0  0
  -22.4094  -11.9882   22.4789 H   0  0  0  0  0  0
  -21.1114  -13.1256   22.2619 H   0  0  0  0  0  0
  -24.6629  -15.8442   20.5093 H   0  0  0  0  0  0
  -26.2763  -15.6241   20.0622 H   0  0  0  0  0  0
  -26.7119  -32.5508   23.1154 H   0  0  0  0  0  0
  -25.0087  -33.9771   25.0486 H   0  0  0  0  0  0
  -22.6968  -31.3049   21.4056 H   0  0  0  0  0  0
  -23.3755  -35.9640   23.3299 H   0  0  0  0  0  0
  -24.3602  -36.8919   22.2062 H   0  0  0  0  0  0
  -23.7233  -37.6515   23.6647 H   0  0  0  0  0  0
  -26.0524  -31.5917   20.5927 H   0  0  0  0  0  0
  -26.8257  -30.8810   21.9802 H   0  0  0  0  0  0
  -28.1088  -29.0863   21.1638 H   0  0  0  0  0  0
  -26.0609  -25.9482   19.0332 H   0  0  0  0  0  0
  -23.9794  -27.2851   19.0401 H   0  0  0  0  0  0
  -23.7256  -30.5911   19.4027 H   0  0  0  0  0  0
  -22.7420  -29.2353   19.8670 H   0  0  0  0  0  0
  -25.1293  -36.1966   25.0840 H   0  0  0  0  0  0
  -20.9950  -28.3206   24.1438 H   0  0  0  0  0  0
  -20.5643  -26.2261   23.3606 H   0  0  0  0  0  0
  -21.6624  -26.7415   22.1224 H   0  0  0  0  0  0
  -19.6905  -25.6287   21.1235 H   0  0  0  0  0  0
  -19.6711  -27.3190   20.6750 H   0  0  0  0  0  0
  -17.4201  -26.6684   21.3992 H   0  0  0  0  0  0
  -18.0301  -26.0062   22.8996 H   0  0  0  0  0  0
  -19.7928  -30.7251   24.2271 H   0  0  0  0  0  0
  -17.5009  -31.6266   24.5155 H   0  0  0  0  0  0
  -15.5343  -30.2988   23.7664 H   0  0  0  0  0  0
  -15.8652  -28.0833   22.7047 H   0  0  0  0  0  0
  -24.5908  -30.7066   25.7841 H   0  0  0  0  0  0
  -24.8928  -32.2878   26.4931 H   0  0  0  0  0  0
  -25.8098  -30.8908   27.0240 H   0  0  0  0  0  0
  -26.2820  -29.6794   24.1163 H   0  0  0  0  0  0
  -27.4060  -29.7275   25.4564 H   0  0  0  0  0  0
  -27.8660  -30.4354   23.9244 H   0  0  0  0  0  0
  -27.2692  -33.3616   26.2055 H   0  0  0  0  0  0
  -28.3849  -32.6865   25.0267 H   0  0  0  0  0  0
  -28.0741  -31.8419   26.5357 H   0  0  0  0  0  0
  -28.2596  -38.0111   24.7518 H   0  0  0  0  0  0
  -28.1087  -36.2642   24.6253 H   0  0  0  0  0  0
  -27.2312  -37.1412   25.8860 H   0  0  0  0  0  0
  -20.9296  -29.8768   21.6967 H   0  0  0  0  0  0
  -26.0177  -38.2869   24.1425 H   0  0  0  0  0  0
  -27.4904  -23.9938   23.6070 H   0  0  0  0  0  0
  -26.4428  -22.6270   23.9971 H   0  0  0  0  0  0
  -25.8058  -23.9904   23.0682 H   0  0  0  0  0  0
  -29.0402  -25.6871   21.8259 H   0  0  0  0  0  0
  -27.3245  -25.5085   21.5543 H   0  0  0  0  0  0
  -29.1337  -23.1389   22.2400 H   0  0  0  0  0  0
  -32.4234  -20.4856   19.3712 H   0  0  0  0  0  0
  -32.9728  -18.9497   18.8657 H   0  0  0  0  0  0
  -29.0423  -15.3394   21.3385 H   0  0  0  0  0  0
  -28.3017  -21.1648   20.1573 H   0  0  0  0  0  0
  1 25  1  0  0  0
  1 30  2  0  0  0
  1 82  1  0  0  0
  2  3  1  0  0  0
  2 25  1  0  0  0
  2 88  1  0  0  0
  2 89  1  0  0  0
  3  4  1  0  0  0
  3 90  1  0  0  0
  3 91  1  0  0  0
  4  5  1  0  0  0
  4 92  1  0  0  0
  4 93  1  0  0  0
  5  6  1  0  0  0
  5 26  1  0  0  0
  5 94  1  0  0  0
  6 25  1  0  0  0
  6 95  1  0  0  0
  6 96  1  0  0  0
  7  8  2  0  0  0
  7 26  1  0  0  0
  7 29  1  0  0  0
  8  9  1  0  0  0
  8 22  1  0  0  0
  9 10  1  0  0  0
  9 27  2  0  0  0
 10 11  2  0  0  0
 10 15  1  0  0  0
 11 12  1  0  0  0
 11 97  1  0  0  0
 12 13  2  0  0  0
 12 98  1  0  0  0
 13 14  1  0  0  0
 13 31  1  0  0  0
 14 15  2  0  0  0
 14 99  1  0  0  0
 15100  1  0  0  0
 16 17  2  0  0  0
 16 21  1  0  0  0
 16 31  1  0  0  0
 17 18  1  0  0  0
 17101  1  0  0  0
 18 19  2  0  0  0
 18102  1  0  0  0
 19 20  1  0  0  0
 19 24  1  0  0  0
 20 21  2  0  0  0
 20103  1  0  0  0
 21 23  1  0  0  0
 22 28  1  0  0  0
 22 32  2  0  0  0
 26 27  1  0  0  0
 28104  1  0  0  0
 28105  1  0  0  0
 29106  1  0  0  0
 29107  1  0  0  0
 33 34  1  0  0  0
 33 66  1  0  0  0
 33 70  2  0  0  0
 34 36  1  0  0  0
 34 59  1  0  0  0
 34108  1  0  0  0
 35 44  2  0  0  0
 35 45  1  0  0  0
 35 68  1  0  0  0
 36 56  1  0  0  0
 36109  1  0  0  0
 37 39  1  0  0  0
 37 47  1  0  0  0
 37 66  1  0  0  0
 37110  1  0  0  0
 38 43  2  0  0  0
 38 46  1  0  0  0
 38 47  1  0  0  0
 39 64  1  0  0  0
 39 67  2  0  0  0
 40 52  1  0  0  0
 40 53  2  0  0  0
 40 58  1  0  0  0
 41111  1  0  0  0
 41112  1  0  0  0
 41113  1  0  0  0
 41 48  1  0  0  0
 42 43  1  0  0  0
 42 66  1  0  0  0
 42114  1  0  0  0
 42115  1  0  0  0
 43 44  1  0  0  0
 44116  1  0  0  0
 45 46  2  0  0  0
 45117  1  0  0  0
 46118  1  0  0  0
 47119  1  0  0  0
 47120  1  0  0  0
 48 56  1  0  0  0
 48 65  1  0  0  0
 48121  1  0  0  0
 49 50  1  0  0  0
 49 53  1  0  0  0
 49 64  1  0  0  0
 49122  1  0  0  0
 50 51  1  0  0  0
 50123  1  0  0  0
 50124  1  0  0  0
 51 52  1  0  0  0
 51125  1  0  0  0
 51126  1  0  0  0
 52127  1  0  0  0
 52128  1  0  0  0
 53 54  1  0  0  0
 54 55  2  0  0  0
 54129  1  0  0  0
 55 57  1  0  0  0
 55130  1  0  0  0
 56 69  2  0  0  0
 57 58  2  0  0  0
 57131  1  0  0  0
 58132  1  0  0  0
 59 60  1  0  0  0
 59 61  1  0  0  0
 59 62  1  0  0  0
 60133  1  0  0  0
 60134  1  0  0  0
 60135  1  0  0  0
 61136  1  0  0  0
 61137  1  0  0  0
 61138  1  0  0  0
 62139  1  0  0  0
 62140  1  0  0  0
 62141  1  0  0  0
 63 65  1  0  0  0
 63142  1  0  0  0
 63143  1  0  0  0
 63144  1  0  0  0
 64145  1  0  0  0
 65146  1  0  0  0
 68 78  1  0  0  0
 71 72  2  0  0  0
 71 74  1  0  0  0
 71 87  1  0  0  0
 72 80  1  0  0  0
 72 81  1  0  0  0
 73 80  2  0  0  0
 73 82  1  0  0  0
 73 87  1  0  0  0
 74 83  1  0  0  0
 74 84  2  0  0  0
 75 77  1  0  0  0
 75 79  1  0  0  0
 75 85  2  0  0  0
 76 78  1  0  0  0
 76 79  1  0  0  0
 76 86  2  0  0  0
 77147  1  0  0  0
 77148  1  0  0  0
 77149  1  0  0  0
 78150  1  0  0  0
 78151  1  0  0  0
 79 83  1  0  0  0
 79152  1  0  0  0
 81153  1  0  0  0
 81154  1  0  0  0
 82155  1  0  0  0
 83156  1  0  0  0
M  ISO  4   1 100  68 101  78 101  82 100
M  END
> <chiral flag>
0

> <version>
0

> <s_m_source_file>
/data/baiqing/PycharmProjects/Reinvent-master-3.2/result/LINK_invent/BTK/process_docking_weight1_custom_product_contain_oxygen_bond_distance_aromatic_linkinvent_7_9_3/rearranged_h_0174.sdf

> <i_m_source_file_index>
93

> <r_mmod_Potential_Energy-OPLS-2005>
-275.718536376953

> <r_mmod_Stretch_Energy-OPLS-2005>
44.4220924377441

> <r_mmod_Bend_Energy-OPLS-2005>
108.960342407227

> <r_mmod_Torsional_Energy-OPLS-2005>
242.106185913086

> <r_mmod_Improper_Torsional_Energy-OPLS-2005>
6.32902050018311

> <r_mmod_Van_der_Waal_Energy-OPLS-2005>
121.785690307617

> <r_mmod_Electrostatic_Energy-OPLS-2005>
-532.630187988281

> <r_mmod_Solvation_Energy-OPLS-2005>
-286.632415771484

> <b_mmod_Minimization_Converged-OPLS-2005>
0

> <r_mmod_RMS_Derivative-OPLS-2005>
1.52313029766083

$$$$
93
                    3D
 Structure written by MMmdl.
156164  0  0  1  0            999 V2000
  -30.6968  -14.4481   20.6567 C   0  0  0  0  0  0
  -30.4372  -12.3228   19.4091 C   0  0  0  0  0  0
  -29.4974  -12.5334   18.2036 C   0  0  0  0  0  0
  -28.0203  -12.3815   18.6157 C   0  0  0  0  0  0
  -27.6708  -13.2016   19.8849 C   0  0  2  0  0  0
  -28.7083  -12.9374   20.9991 C   0  0  0  0  0  0
  -25.2629  -13.8154   20.5674 C   0  0  0  0  0  0
  -24.1866  -13.0439   20.9159 C   0  0  0  0  0  0
  -24.6407  -11.6904   20.8718 C   0  0  0  0  0  0
  -23.9061  -10.4295   21.0391 C   0  0  0  0  0  0
  -24.3611   -9.4210   21.9170 C   0  0  0  0  0  0
  -23.6289   -8.2245   22.0743 C   0  0  0  0  0  0
  -22.4269   -8.0284   21.3538 C   0  0  0  0  0  0
  -21.9905   -9.0254   20.4639 C   0  0  0  0  0  0
  -22.7232  -10.2136   20.3046 C   0  0  0  0  0  0
  -21.6854   -6.0736   22.5275 C   0  0  0  0  0  0
  -21.4014   -6.5638   23.8209 C   0  0  0  0  0  0
  -21.3658   -5.6790   24.9171 C   0  0  0  0  0  0
  -21.6044   -4.3051   24.7221 C   0  0  0  0  0  0
  -21.8819   -3.8146   23.4340 C   0  0  0  0  0  0
  -21.9190   -4.6964   22.3399 C   0  0  0  0  0  0
  -22.7890  -13.5245   21.1835 C   0  0  0  0  0  0
  -22.1658   -4.2151   21.0977 F   0  0  0  0  0  0
  -21.5628   -3.4535   25.7732 F   0  0  0  0  0  0
  -30.0514  -13.2618   20.4747 N   0  0  0  0  0  0
  -26.3070  -12.9314   20.3389 N   0  0  0  0  0  0
  -25.9334  -11.6473   20.5753 N   0  0  0  0  0  0
  -22.0529  -12.8240   22.0395 N   0  0  0  0  0  0
  -25.4379  -15.1870   20.4094 N   0  0  0  0  0  0
  -31.7117  -14.7714   20.0309 O   0  0  0  0  0  0
  -21.6638   -6.8879   21.4236 O   0  0  0  0  0  0
  -22.3570  -14.5551   20.6687 O   0  0  0  0  0  0
  -24.6162  -31.8669   23.2092 C   0  0  0  0  0  0
  -25.9048  -32.4824   23.8393 C   0  0  1  0  0  0
  -27.2348  -27.4271   20.0982 C   0  0  0  0  0  0
  -25.5896  -33.8622   24.2321 N   0  0  0  0  0  0
  -23.4063  -30.4900   21.5497 C   0  0  2  0  0  0
  -24.8557  -28.9570   20.1121 C   0  0  0  0  0  0
  -22.7429  -29.4650   22.4980 C   0  0  0  0  0  0
  -18.0290  -28.1365   22.8499 C   0  0  0  0  0  0
  -24.1486  -36.7314   23.2638 C   0  0  0  0  0  0
  -25.9369  -30.8302   21.3649 C   0  0  0  0  0  0
  -26.0171  -29.4656   20.7090 C   0  0  0  0  0  0
  -27.2136  -28.7085   20.6980 C   0  0  0  0  0  0
  -26.0600  -26.9365   19.4921 C   0  0  0  0  0  0
  -24.8728  -27.6924   19.4984 C   0  0  0  0  0  0
  -23.6170  -29.8236   20.1646 C   0  0  0  0  0  0
  -25.4109  -36.3113   24.0338 C   0  0  1  0  0  0
  -20.5880  -28.3668   23.1325 C   0  0  2  0  0  0
  -20.6782  -26.9396   22.5442 C   0  0  0  0  0  0
  -19.5771  -26.6366   21.5226 C   0  0  0  0  0  0
  -18.1947  -26.7910   22.1634 C   0  0  0  0  0  0
  -19.1535  -28.8832   23.2907 C   0  0  0  0  0  0
  -18.9457  -30.1441   23.8906 C   0  0  0  0  0  0
  -17.6458  -30.6579   24.0550 C   0  0  0  0  0  0
  -25.9036  -34.9479   23.5128 C   0  0  0  0  0  0
  -16.5353  -29.9074   23.6315 C   0  0  0  0  0  0
  -16.7276  -28.6485   23.0348 C   0  0  0  0  0  0
  -26.4469  -31.6605   25.0724 C   0  0  0  0  0  0
  -25.3733  -31.3712   26.1471 C   0  0  0  0  0  0
  -27.0305  -30.3050   24.6109 C   0  0  0  0  0  0
  -27.6048  -32.4322   25.7482 C   0  0  0  0  0  0
  -27.5584  -37.1812   24.8469 C   0  0  0  0  0  0
  -21.4154  -29.3030   22.3721 N   0  0  0  0  0  0
  -26.4299  -37.3797   23.9408 N   0  0  0  0  0  0
  -24.6715  -31.0761   22.0998 N   0  0  0  0  0  0
  -23.4194  -28.8194   23.3031 O   0  0  0  0  0  0
  -28.3592  -26.6274   20.1278 O   0  0  0  0  0  0
  -26.5597  -34.8930   22.4688 O   0  0  0  0  0  0
  -23.5349  -32.1418   23.7480 O   0  0  0  0  0  0
  -29.7245  -17.1412   23.0189 C   0  0  0  0  0  0
  -29.8905  -17.5071   20.6298 C   0  0  0  0  0  0
  -29.1278  -19.3484   22.0966 C   0  0  0  0  0  0
  -29.9837  -16.6228   21.7356 C   0  0  0  0  0  0
  -29.3151  -18.4770   23.2026 C   0  0  0  0  0  0
  -29.4606  -18.8522   20.8078 C   0  0  0  0  0  0
  -28.4471  -20.6915   22.3185 C   0  0  0  0  0  0
  -28.3542  -23.0473   21.7234 C   0  0  0  0  0  0
  -27.8046  -23.7324   19.3561 C   0  0  0  0  0  0
  -28.2659  -25.5576   21.0971 C   0  0  0  0  0  0
  -28.6170  -24.1054   20.6096 C   0  0  1  0  0  0
  -30.1896  -15.2064   21.6458 N   0  0  0  0  0  0
  -28.7790  -21.7642   21.5507 N   0  0  0  0  0  0
  -27.5949  -20.7474   23.2159 O   0  0  0  0  0  0
  -27.7586  -23.4270   22.7390 O   0  0  0  0  0  0
  -29.0707  -18.8900   24.4721 F   0  0  0  0  0  0
  -29.3278  -19.6504   19.7187 F   0  0  0  0  0  0
  -31.4778  -12.4527   19.1053 H   0  0  0  0  0  0
  -30.3620  -11.2982   19.7759 H   0  0  0  0  0  0
  -29.7393  -11.8223   17.4128 H   0  0  0  0  0  0
  -29.6581  -13.5268   17.7813 H   0  0  0  0  0  0
  -27.8306  -11.3230   18.7964 H   0  0  0  0  0  0
  -27.3701  -12.6696   17.7892 H   0  0  0  0  0  0
  -27.7296  -14.2568   19.6163 H   0  0  0  0  0  0
  -28.6832  -11.8876   21.2942 H   0  0  0  0  0  0
  -28.4393  -13.4872   21.9009 H   0  0  0  0  0  0
  -25.2754   -9.5688   22.4748 H   0  0  0  0  0  0
  -23.9995   -7.4637   22.7463 H   0  0  0  0  0  0
  -21.0833   -8.8772   19.8951 H   0  0  0  0  0  0
  -22.3679  -10.9672   19.6159 H   0  0  0  0  0  0
  -21.2007   -7.6148   23.9713 H   0  0  0  0  0  0
  -21.1481   -6.0522   25.9076 H   0  0  0  0  0  0
  -22.0601   -2.7609   23.2838 H   0  0  0  0  0  0
  -22.4137  -11.9893   22.4777 H   0  0  0  0  0  0
  -21.1151  -13.1270   22.2614 H   0  0  0  0  0  0
  -24.6779  -15.8484   20.5250 H   0  0  0  0  0  0
  -26.3001  -15.6218   20.1053 H   0  0  0  0  0  0
  -26.7121  -32.5540   23.1157 H   0  0  0  0  0  0
  -25.0059  -33.9790   25.0474 H   0  0  0  0  0  0
  -22.6949  -31.3070   21.4104 H   0  0  0  0  0  0
  -23.3748  -35.9650   23.3321 H   0  0  0  0  0  0
  -24.3578  -36.8908   22.2049 H   0  0  0  0  0  0
  -23.7240  -37.6526   23.6637 H   0  0  0  0  0  0
  -26.0520  -31.5987   20.5992 H   0  0  0  0  0  0
  -26.8236  -30.8817   21.9851 H   0  0  0  0  0  0
  -28.1089  -29.0928   21.1669 H   0  0  0  0  0  0
  -26.0572  -25.9619   19.0266 H   0  0  0  0  0  0
  -23.9807  -27.2944   19.0345 H   0  0  0  0  0  0
  -23.7255  -30.6008   19.4076 H   0  0  0  0  0  0
  -22.7409  -29.2453   19.8671 H   0  0  0  0  0  0
  -25.1282  -36.1980   25.0832 H   0  0  0  0  0  0
  -20.9972  -28.3247   24.1446 H   0  0  0  0  0  0
  -20.5685  -26.2277   23.3640 H   0  0  0  0  0  0
  -21.6664  -26.7436   22.1256 H   0  0  0  0  0  0
  -19.6934  -25.6266   21.1278 H   0  0  0  0  0  0
  -19.6715  -27.3157   20.6741 H   0  0  0  0  0  0
  -17.4212  -26.6655   21.4043 H   0  0  0  0  0  0
  -18.0351  -26.0052   22.9033 H   0  0  0  0  0  0
  -19.7933  -30.7261   24.2266 H   0  0  0  0  0  0
  -17.5017  -31.6271   24.5132 H   0  0  0  0  0  0
  -15.5354  -30.2982   23.7624 H   0  0  0  0  0  0
  -15.8678  -28.0800   22.7059 H   0  0  0  0  0  0
  -24.5897  -30.7070   25.7805 H   0  0  0  0  0  0
  -24.8934  -32.2870   26.4936 H   0  0  0  0  0  0
  -25.8085  -30.8865   27.0220 H   0  0  0  0  0  0
  -26.2858  -29.6810   24.1155 H   0  0  0  0  0  0
  -27.4063  -29.7285   25.4572 H   0  0  0  0  0  0
  -27.8696  -30.4372   23.9275 H   0  0  0  0  0  0
  -27.2671  -33.3606   26.2100 H   0  0  0  0  0  0
  -28.3837  -32.6909   25.0297 H   0  0  0  0  0  0
  -28.0740  -31.8421   26.5363 H   0  0  0  0  0  0
  -28.2612  -38.0096   24.7502 H   0  0  0  0  0  0
  -28.1064  -36.2627   24.6310 H   0  0  0  0  0  0
  -27.2303  -37.1486   25.8874 H   0  0  0  0  0  0
  -20.9313  -29.8747   21.6938 H   0  0  0  0  0  0
  -26.0191  -38.2882   24.1394 H   0  0  0  0  0  0
  -29.7984  -16.5008   23.8866 H   0  0  0  0  0  0
  -30.0822  -17.1513   19.6275 H   0  0  0  0  0  0
  -28.0727  -22.7451   18.9790 H   0  0  0  0  0  0
  -27.9835  -24.4422   18.5488 H   0  0  0  0  0  0
  -26.7343  -23.7271   19.5654 H   0  0  0  0  0  0
  -28.9384  -25.8222   21.9141 H   0  0  0  0  0  0
  -27.2687  -25.5514   21.5444 H   0  0  0  0  0  0
  -29.6785  -24.0744   20.3611 H   0  0  0  0  0  0
  -29.6361  -14.6668   22.2952 H   0  0  0  0  0  0
  -29.3596  -21.5662   20.7489 H   0  0  0  0  0  0
  1 25  1  0  0  0
  1 30  2  0  0  0
  1 82  1  0  0  0
  2  3  1  0  0  0
  2 25  1  0  0  0
  2 88  1  0  0  0
  2 89  1  0  0  0
  3  4  1  0  0  0
  3 90  1  0  0  0
  3 91  1  0  0  0
  4  5  1  0  0  0
  4 92  1  0  0  0
  4 93  1  0  0  0
  5  6  1  0  0  0
  5 26  1  0  0  0
  5 94  1  0  0  0
  6 25  1  0  0  0
  6 95  1  0  0  0
  6 96  1  0  0  0
  7  8  2  0  0  0
  7 26  1  0  0  0
  7 29  1  0  0  0
  8  9  1  0  0  0
  8 22  1  0  0  0
  9 10  1  0  0  0
  9 27  2  0  0  0
 10 11  2  0  0  0
 10 15  1  0  0  0
 11 12  1  0  0  0
 11 97  1  0  0  0
 12 13  2  0  0  0
 12 98  1  0  0  0
 13 14  1  0  0  0
 13 31  1  0  0  0
 14 15  2  0  0  0
 14 99  1  0  0  0
 15100  1  0  0  0
 16 17  2  0  0  0
 16 21  1  0  0  0
 16 31  1  0  0  0
 17 18  1  0  0  0
 17101  1  0  0  0
 18 19  2  0  0  0
 18102  1  0  0  0
 19 20  1  0  0  0
 19 24  1  0  0  0
 20 21  2  0  0  0
 20103  1  0  0  0
 21 23  1  0  0  0
 22 28  1  0  0  0
 22 32  2  0  0  0
 26 27  1  0  0  0
 28104  1  0  0  0
 28105  1  0  0  0
 29106  1  0  0  0
 29107  1  0  0  0
 33 34  1  0  0  0
 33 66  1  0  0  0
 33 70  2  0  0  0
 34 36  1  0  0  0
 34 59  1  0  0  0
 34108  1  0  0  0
 35 44  2  0  0  0
 35 45  1  0  0  0
 35 68  1  0  0  0
 36 56  1  0  0  0
 36109  1  0  0  0
 37 39  1  0  0  0
 37 47  1  0  0  0
 37 66  1  0  0  0
 37110  1  0  0  0
 38 43  2  0  0  0
 38 46  1  0  0  0
 38 47  1  0  0  0
 39 64  1  0  0  0
 39 67  2  0  0  0
 40 52  1  0  0  0
 40 53  2  0  0  0
 40 58  1  0  0  0
 41111  1  0  0  0
 41112  1  0  0  0
 41113  1  0  0  0
 41 48  1  0  0  0
 42 43  1  0  0  0
 42 66  1  0  0  0
 42114  1  0  0  0
 42115  1  0  0  0
 43 44  1  0  0  0
 44116  1  0  0  0
 45 46  2  0  0  0
 45117  1  0  0  0
 46118  1  0  0  0
 47119  1  0  0  0
 47120  1  0  0  0
 48 56  1  0  0  0
 48 65  1  0  0  0
 48121  1  0  0  0
 49 50  1  0  0  0
 49 53  1  0  0  0
 49 64  1  0  0  0
 49122  1  0  0  0
 50 51  1  0  0  0
 50123  1  0  0  0
 50124  1  0  0  0
 51 52  1  0  0  0
 51125  1  0  0  0
 51126  1  0  0  0
 52127  1  0  0  0
 52128  1  0  0  0
 53 54  1  0  0  0
 54 55  2  0  0  0
 54129  1  0  0  0
 55 57  1  0  0  0
 55130  1  0  0  0
 56 69  2  0  0  0
 57 58  2  0  0  0
 57131  1  0  0  0
 58132  1  0  0  0
 59 60  1  0  0  0
 59 61  1  0  0  0
 59 62  1  0  0  0
 60133  1  0  0  0
 60134  1  0  0  0
 60135  1  0  0  0
 61136  1  0  0  0
 61137  1  0  0  0
 61138  1  0  0  0
 62139  1  0  0  0
 62140  1  0  0  0
 62141  1  0  0  0
 63 65  1  0  0  0
 63142  1  0  0  0
 63143  1  0  0  0
 63144  1  0  0  0
 64145  1  0  0  0
 65146  1  0  0  0
 68 80  1  0  0  0
 71 74  2  0  0  0
 71 75  1  0  0  0
 71147  1  0  0  0
 72 74  1  0  0  0
 72 76  2  0  0  0
 72148  1  0  0  0
 73 75  2  0  0  0
 73 76  1  0  0  0
 73 77  1  0  0  0
 74 82  1  0  0  0
 75 86  1  0  0  0
 76 87  1  0  0  0
 77 83  1  0  0  0
 77 84  2  0  0  0
 78 81  1  0  0  0
 78 83  1  0  0  0
 78 85  2  0  0  0
 79149  1  0  0  0
 79150  1  0  0  0
 79151  1  0  0  0
 79 81  1  0  0  0
 80 81  1  0  0  0
 80152  1  0  0  0
 80153  1  0  0  0
 81154  1  0  0  0
 82155  1  0  0  0
 83156  1  0  0  0
M  ISO  4   1 100  68 101  80 101  82 100
M  END
> <chiral flag>
0

> <version>
0

> <s_m_source_file>
/data/baiqing/PycharmProjects/Reinvent-master-3.2/result/LINK_invent/BTK/process_docking_weight1_custom_product_contain_oxygen_bond_distance_aromatic_linkinvent_7_9_3/rearranged_h_0174.sdf

> <i_m_source_file_index>
94

> <r_mmod_Potential_Energy-OPLS-2005>
-57.8256034851074

> <r_mmod_Stretch_Energy-OPLS-2005>
46.5143127441406

> <r_mmod_Bend_Energy-OPLS-2005>
109.402656555176

> <r_mmod_Torsional_Energy-OPLS-2005>
278.1728515625

> <r_mmod_Improper_Torsional_Energy-OPLS-2005>
4.58146524429321

> <r_mmod_Van_der_Waal_Energy-OPLS-2005>
164.878479003906

> <r_mmod_Electrostatic_Energy-OPLS-2005>
-416.109588623047

> <r_mmod_Solvation_Energy-OPLS-2005>
-259.268524169922

> <b_mmod_Minimization_Converged-OPLS-2005>
0

> <r_mmod_RMS_Derivative-OPLS-2005>
0.959009230136871

$$$$
94
                    3D
 Structure written by MMmdl.
155163  0  0  1  0            999 V2000
  -30.6978  -14.4985   20.5581 C   0  0  0  0  0  0
  -30.4214  -12.3204   19.4254 C   0  0  0  0  0  0
  -29.4939  -12.4975   18.2065 C   0  0  0  0  0  0
  -28.0136  -12.3651   18.6185 C   0  0  0  0  0  0
  -27.6583  -13.2121   19.8699 C   0  0  2  0  0  0
  -28.7029  -13.0183   20.9919 C   0  0  0  0  0  0
  -25.2568  -13.8165   20.5662 C   0  0  0  0  0  0
  -24.1832  -13.0442   20.9194 C   0  0  0  0  0  0
  -24.6402  -11.6914   20.8781 C   0  0  0  0  0  0
  -23.9070  -10.4304   21.0439 C   0  0  0  0  0  0
  -24.3616   -9.4206   21.9207 C   0  0  0  0  0  0
  -23.6288   -8.2245   22.0763 C   0  0  0  0  0  0
  -22.4274   -8.0285   21.3543 C   0  0  0  0  0  0
  -21.9915   -9.0267   20.4653 C   0  0  0  0  0  0
  -22.7255  -10.2149   20.3074 C   0  0  0  0  0  0
  -21.6855   -6.0744   22.5286 C   0  0  0  0  0  0
  -21.4022   -6.5646   23.8221 C   0  0  0  0  0  0
  -21.3650   -5.6800   24.9176 C   0  0  0  0  0  0
  -21.6036   -4.3058   24.7234 C   0  0  0  0  0  0
  -21.8816   -3.8155   23.4352 C   0  0  0  0  0  0
  -21.9192   -4.6975   22.3406 C   0  0  0  0  0  0
  -22.7861  -13.5243   21.1848 C   0  0  0  0  0  0
  -22.1660   -4.2153   21.0988 F   0  0  0  0  0  0
  -21.5616   -3.4544   25.7745 F   0  0  0  0  0  0
  -30.0268  -13.3209   20.4274 N   0  0  0  0  0  0
  -26.3014  -12.9349   20.3371 N   0  0  0  0  0  0
  -25.9329  -11.6503   20.5812 N   0  0  0  0  0  0
  -22.0492  -12.8248   22.0401 N   0  0  0  0  0  0
  -25.4278  -15.1878   20.3988 N   0  0  0  0  0  0
  -31.8489  -14.6548   20.1407 O   0  0  0  0  0  0
  -21.6638   -6.8884   21.4241 O   0  0  0  0  0  0
  -22.3555  -14.5545   20.6675 O   0  0  0  0  0  0
  -24.6227  -31.8659   23.2115 C   0  0  0  0  0  0
  -25.9119  -32.4801   23.8403 C   0  0  1  0  0  0
  -27.2278  -27.3903   20.0795 C   0  0  0  0  0  0
  -25.5965  -33.8604   24.2327 N   0  0  0  0  0  0
  -23.4101  -30.4964   21.5516 C   0  0  2  0  0  0
  -24.8540  -28.9659   20.1122 C   0  0  0  0  0  0
  -22.7437  -29.4671   22.4950 C   0  0  0  0  0  0
  -18.0280  -28.1403   22.8486 C   0  0  0  0  0  0
  -24.1481  -36.7270   23.2632 C   0  0  0  0  0  0
  -25.9490  -30.8133   21.3799 C   0  0  0  0  0  0
  -26.0207  -29.4495   20.7162 C   0  0  0  0  0  0
  -27.2074  -28.6693   20.7001 C   0  0  0  0  0  0
  -26.0327  -26.9489   19.4579 C   0  0  0  0  0  0
  -24.8583  -27.7164   19.4808 C   0  0  0  0  0  0
  -23.6214  -29.8394   20.1643 C   0  0  0  0  0  0
  -25.4108  -36.3080   24.0328 C   0  0  1  0  0  0
  -20.5879  -28.3700   23.1287 C   0  0  2  0  0  0
  -20.6764  -26.9434   22.5399 C   0  0  0  0  0  0
  -19.5739  -26.6408   21.5204 C   0  0  0  0  0  0
  -18.1925  -26.7949   22.1625 C   0  0  0  0  0  0
  -19.1531  -28.8864   23.2889 C   0  0  0  0  0  0
  -18.9458  -30.1464   23.8919 C   0  0  0  0  0  0
  -17.6458  -30.6604   24.0573 C   0  0  0  0  0  0
  -25.9046  -34.9457   23.5107 C   0  0  0  0  0  0
  -16.5348  -29.9113   23.6330 C   0  0  0  0  0  0
  -16.7267  -28.6529   23.0351 C   0  0  0  0  0  0
  -26.4521  -31.6601   25.0753 C   0  0  0  0  0  0
  -25.3770  -31.3758   26.1492 C   0  0  0  0  0  0
  -27.0348  -30.3012   24.6211 C   0  0  0  0  0  0
  -27.6087  -32.4332   25.7528 C   0  0  0  0  0  0
  -27.5570  -37.1802   24.8475 C   0  0  0  0  0  0
  -21.4166  -29.3060   22.3674 N   0  0  0  0  0  0
  -26.4282  -37.3772   23.9417 N   0  0  0  0  0  0
  -24.6775  -31.0731   22.1046 N   0  0  0  0  0  0
  -23.4184  -28.8203   23.2995 O   0  0  0  0  0  0
  -28.3846  -26.6086   20.1101 O   0  0  0  0  0  0
  -26.5580  -34.8916   22.4657 O   0  0  0  0  0  0
  -23.5411  -32.1441   23.7471 O   0  0  0  0  0  0
  -31.5247  -17.1148   22.0509 C   0  0  0  0  0  0
  -31.8927  -18.4288   22.3888 C   0  0  0  0  0  0
  -29.6623  -18.0028   20.7570 C   0  0  0  0  0  0
  -30.0387  -19.3429   21.0657 C   0  0  0  0  0  0
  -30.3970  -16.8835   21.2370 C   0  0  0  0  0  0
  -31.1574  -19.5340   21.9169 C   0  0  0  0  0  0
  -29.6552  -21.9738   20.5117 C   0  0  0  0  0  0
  -29.3207  -24.2660   20.2582 C   0  0  0  0  0  0
  -28.5822  -25.2820   18.0618 C   0  0  0  0  0  0
  -29.1722  -20.5033   20.5066 C   0  0  0  0  0  0
  -28.3282  -25.2511   19.5813 C   0  0  2  0  0  0
  -28.8610  -22.9428   20.2278 N   0  0  0  0  0  0
  -29.9548  -15.5467   20.9791 N   0  0  0  0  0  0
  -30.3873  -24.6844   20.7147 O   0  0  0  0  0  0
  -31.5406  -20.7657   22.3217 F   0  0  0  0  0  0
  -31.4655  -12.4190   19.1255 H   0  0  0  0  0  0
  -30.3253  -11.3175   19.8437 H   0  0  0  0  0  0
  -29.7360  -11.7603   17.4398 H   0  0  0  0  0  0
  -29.6632  -13.4753   17.7538 H   0  0  0  0  0  0
  -27.8182  -11.3121   18.8203 H   0  0  0  0  0  0
  -27.3656  -12.6416   17.7858 H   0  0  0  0  0  0
  -27.6939  -14.2567   19.5587 H   0  0  0  0  0  0
  -28.6864  -11.9916   21.3595 H   0  0  0  0  0  0
  -28.4697  -13.6424   21.8559 H   0  0  0  0  0  0
  -25.2745   -9.5689   22.4803 H   0  0  0  0  0  0
  -23.9991   -7.4638   22.7483 H   0  0  0  0  0  0
  -21.0847   -8.8802   19.8961 H   0  0  0  0  0  0
  -22.3709  -10.9699   19.6196 H   0  0  0  0  0  0
  -21.2026   -7.6161   23.9724 H   0  0  0  0  0  0
  -21.1467   -6.0534   25.9081 H   0  0  0  0  0  0
  -22.0603   -2.7620   23.2858 H   0  0  0  0  0  0
  -22.4075  -11.9893   22.4783 H   0  0  0  0  0  0
  -21.1128  -13.1313   22.2621 H   0  0  0  0  0  0
  -24.6480  -15.8337   20.4601 H   0  0  0  0  0  0
  -26.2660  -15.6191   20.0292 H   0  0  0  0  0  0
  -26.7196  -32.5489   23.1160 H   0  0  0  0  0  0
  -25.0186  -33.9755   25.0522 H   0  0  0  0  0  0
  -22.7012  -31.3161   21.4156 H   0  0  0  0  0  0
  -23.3743  -35.9605   23.3319 H   0  0  0  0  0  0
  -24.3563  -36.8855   22.2039 H   0  0  0  0  0  0
  -23.7234  -37.6485   23.6625 H   0  0  0  0  0  0
  -26.0840  -31.5847   20.6210 H   0  0  0  0  0  0
  -26.8280  -30.8490   22.0125 H   0  0  0  0  0  0
  -28.1048  -29.0408   21.1753 H   0  0  0  0  0  0
  -25.9588  -26.0107   18.9314 H   0  0  0  0  0  0
  -23.9652  -27.3416   18.9992 H   0  0  0  0  0  0
  -23.7403  -30.6199   19.4117 H   0  0  0  0  0  0
  -22.7426  -29.2681   19.8600 H   0  0  0  0  0  0
  -25.1284  -36.1927   25.0815 H   0  0  0  0  0  0
  -20.9976  -28.3296   24.1403 H   0  0  0  0  0  0
  -20.5666  -26.2328   23.3598 H   0  0  0  0  0  0
  -21.6642  -26.7473   22.1193 H   0  0  0  0  0  0
  -19.6906  -25.6320   21.1229 H   0  0  0  0  0  0
  -19.6681  -27.3222   20.6735 H   0  0  0  0  0  0
  -17.4186  -26.6689   21.4032 H   0  0  0  0  0  0
  -18.0345  -26.0093   22.9025 H   0  0  0  0  0  0
  -19.7931  -30.7270   24.2312 H   0  0  0  0  0  0
  -17.5017  -31.6293   24.5175 H   0  0  0  0  0  0
  -15.5354  -30.3031   23.7638 H   0  0  0  0  0  0
  -15.8662  -28.0858   22.7064 H   0  0  0  0  0  0
  -24.5948  -30.7087   25.7857 H   0  0  0  0  0  0
  -24.8959  -32.2927   26.4893 H   0  0  0  0  0  0
  -25.8111  -30.8980   27.0281 H   0  0  0  0  0  0
  -26.2941  -29.6804   24.1151 H   0  0  0  0  0  0
  -27.3928  -29.7234   25.4747 H   0  0  0  0  0  0
  -27.8865  -30.4274   23.9524 H   0  0  0  0  0  0
  -27.2702  -33.3638   26.2101 H   0  0  0  0  0  0
  -28.3917  -32.6877   25.0371 H   0  0  0  0  0  0
  -28.0734  -31.8452   26.5459 H   0  0  0  0  0  0
  -28.2604  -38.0081   24.7494 H   0  0  0  0  0  0
  -28.1041  -36.2609   24.6327 H   0  0  0  0  0  0
  -27.2279  -37.1489   25.8876 H   0  0  0  0  0  0
  -20.9331  -29.8780   21.6888 H   0  0  0  0  0  0
  -26.0155  -38.2838   24.1437 H   0  0  0  0  0  0
  -32.0962  -16.2881   22.4508 H   0  0  0  0  0  0
  -32.7412  -18.5931   23.0351 H   0  0  0  0  0  0
  -28.7870  -17.8333   20.1454 H   0  0  0  0  0  0
  -30.7131  -22.1284   20.7350 H   0  0  0  0  0  0
  -28.5547  -24.2786   17.6365 H   0  0  0  0  0  0
  -29.5608  -25.7085   17.8345 H   0  0  0  0  0  0
  -27.8367  -25.8787   17.5376 H   0  0  0  0  0  0
  -28.2174  -20.4708   21.0322 H   0  0  0  0  0  0
  -28.9372  -20.2541   19.4713 H   0  0  0  0  0  0
  -27.3579  -24.8022   19.7909 H   0  0  0  0  0  0
  -28.9716  -15.3613   21.1052 H   0  0  0  0  0  0
  1 25  1  0  0  0
  1 30  2  0  0  0
  1 83  1  0  0  0
  2  3  1  0  0  0
  2 25  1  0  0  0
  2 86  1  0  0  0
  2 87  1  0  0  0
  3  4  1  0  0  0
  3 88  1  0  0  0
  3 89  1  0  0  0
  4  5  1  0  0  0
  4 90  1  0  0  0
  4 91  1  0  0  0
  5  6  1  0  0  0
  5 26  1  0  0  0
  5 92  1  0  0  0
  6 25  1  0  0  0
  6 93  1  0  0  0
  6 94  1  0  0  0
  7  8  2  0  0  0
  7 26  1  0  0  0
  7 29  1  0  0  0
  8  9  1  0  0  0
  8 22  1  0  0  0
  9 10  1  0  0  0
  9 27  2  0  0  0
 10 11  2  0  0  0
 10 15  1  0  0  0
 11 12  1  0  0  0
 11 95  1  0  0  0
 12 13  2  0  0  0
 12 96  1  0  0  0
 13 14  1  0  0  0
 13 31  1  0  0  0
 14 15  2  0  0  0
 14 97  1  0  0  0
 15 98  1  0  0  0
 16 17  2  0  0  0
 16 21  1  0  0  0
 16 31  1  0  0  0
 17 18  1  0  0  0
 17 99  1  0  0  0
 18 19  2  0  0  0
 18100  1  0  0  0
 19 20  1  0  0  0
 19 24  1  0  0  0
 20 21  2  0  0  0
 20101  1  0  0  0
 21 23  1  0  0  0
 22 28  1  0  0  0
 22 32  2  0  0  0
 26 27  1  0  0  0
 28102  1  0  0  0
 28103  1  0  0  0
 29104  1  0  0  0
 29105  1  0  0  0
 33 34  1  0  0  0
 33 66  1  0  0  0
 33 70  2  0  0  0
 34 36  1  0  0  0
 34 59  1  0  0  0
 34106  1  0  0  0
 35 44  2  0  0  0
 35 45  1  0  0  0
 35 68  1  0  0  0
 36 56  1  0  0  0
 36107  1  0  0  0
 37 39  1  0  0  0
 37 47  1  0  0  0
 37 66  1  0  0  0
 37108  1  0  0  0
 38 43  2  0  0  0
 38 46  1  0  0  0
 38 47  1  0  0  0
 39 64  1  0  0  0
 39 67  2  0  0  0
 40 52  1  0  0  0
 40 53  2  0  0  0
 40 58  1  0  0  0
 41109  1  0  0  0
 41110  1  0  0  0
 41111  1  0  0  0
 41 48  1  0  0  0
 42 43  1  0  0  0
 42 66  1  0  0  0
 42112  1  0  0  0
 42113  1  0  0  0
 43 44  1  0  0  0
 44114  1  0  0  0
 45 46  2  0  0  0
 45115  1  0  0  0
 46116  1  0  0  0
 47117  1  0  0  0
 47118  1  0  0  0
 48 56  1  0  0  0
 48 65  1  0  0  0
 48119  1  0  0  0
 49 50  1  0  0  0
 49 53  1  0  0  0
 49 64  1  0  0  0
 49120  1  0  0  0
 50 51  1  0  0  0
 50121  1  0  0  0
 50122  1  0  0  0
 51 52  1  0  0  0
 51123  1  0  0  0
 51124  1  0  0  0
 52125  1  0  0  0
 52126  1  0  0  0
 53 54  1  0  0  0
 54 55  2  0  0  0
 54127  1  0  0  0
 55 57  1  0  0  0
 55128  1  0  0  0
 56 69  2  0  0  0
 57 58  2  0  0  0
 57129  1  0  0  0
 58130  1  0  0  0
 59 60  1  0  0  0
 59 61  1  0  0  0
 59 62  1  0  0  0
 60131  1  0  0  0
 60132  1  0  0  0
 60133  1  0  0  0
 61134  1  0  0  0
 61135  1  0  0  0
 61136  1  0  0  0
 62137  1  0  0  0
 62138  1  0  0  0
 62139  1  0  0  0
 63 65  1  0  0  0
 63140  1  0  0  0
 63141  1  0  0  0
 63142  1  0  0  0
 64143  1  0  0  0
 65144  1  0  0  0
 68 81  1  0  0  0
 71 72  2  0  0  0
 71 75  1  0  0  0
 71145  1  0  0  0
 72 76  1  0  0  0
 72146  1  0  0  0
 73 74  1  0  0  0
 73 75  2  0  0  0
 73147  1  0  0  0
 74 76  2  0  0  0
 74 80  1  0  0  0
 75 83  1  0  0  0
 76 85  1  0  0  0
 77 80  1  0  0  0
 77 82  2  0  0  0
 77148  1  0  0  0
 78 81  1  0  0  0
 78 82  1  0  0  0
 78 84  2  0  0  0
 79149  1  0  0  0
 79150  1  0  0  0
 79151  1  0  0  0
 79 81  1  0  0  0
 80152  1  0  0  0
 80153  1  0  0  0
 81154  1  0  0  0
 83155  1  0  0  0
M  ISO  4   1 100  68 101  81 101  83 100
M  END
> <chiral flag>
0

> <version>
0

> <s_m_source_file>
/data/baiqing/PycharmProjects/Reinvent-master-3.2/result/LINK_invent/BTK/process_docking_weight1_custom_product_contain_oxygen_bond_distance_aromatic_linkinvent_7_9_3/rearranged_h_0174.sdf

> <i_m_source_file_index>
95

> <r_mmod_Potential_Energy-OPLS-2005>
-33.0131454467773

> <r_mmod_Stretch_Energy-OPLS-2005>
49.194652557373

> <r_mmod_Bend_Energy-OPLS-2005>
117.426918029785

> <r_mmod_Torsional_Energy-OPLS-2005>
215.90217590332

> <r_mmod_Improper_Torsional_Energy-OPLS-2005>
5.22262287139893

> <r_mmod_Van_der_Waal_Energy-OPLS-2005>
170.005233764648

> <r_mmod_Electrostatic_Energy-OPLS-2005>
-399.81591796875

> <r_mmod_Solvation_Energy-OPLS-2005>
-211.476898193359

> <b_mmod_Minimization_Converged-OPLS-2005>
0

> <r_mmod_RMS_Derivative-OPLS-2005>
2.23842859268188

$$$$
95
                    3D
 Structure written by MMmdl.
162170  0  0  1  0            999 V2000
  -30.7150  -14.4445   20.5772 C   0  0  0  0  0  0
  -30.4188  -12.2897   19.4223 C   0  0  0  0  0  0
  -29.4934  -12.5031   18.2073 C   0  0  0  0  0  0
  -28.0138  -12.3713   18.6180 C   0  0  0  0  0  0
  -27.6641  -13.2063   19.8792 C   0  0  2  0  0  0
  -28.7041  -12.9776   20.9995 C   0  0  0  0  0  0
  -25.2595  -13.8162   20.5679 C   0  0  0  0  0  0
  -24.1838  -13.0440   20.9158 C   0  0  0  0  0  0
  -24.6392  -11.6905   20.8726 C   0  0  0  0  0  0
  -23.9057  -10.4293   21.0399 C   0  0  0  0  0  0
  -24.3612   -9.4211   21.9180 C   0  0  0  0  0  0
  -23.6289   -8.2247   22.0754 C   0  0  0  0  0  0
  -22.4271   -8.0283   21.3542 C   0  0  0  0  0  0
  -21.9906   -9.0254   20.4644 C   0  0  0  0  0  0
  -22.7231  -10.2133   20.3049 C   0  0  0  0  0  0
  -21.6856   -6.0733   22.5278 C   0  0  0  0  0  0
  -21.4016   -6.5639   23.8211 C   0  0  0  0  0  0
  -21.3658   -5.6791   24.9174 C   0  0  0  0  0  0
  -21.6046   -4.3055   24.7224 C   0  0  0  0  0  0
  -21.8819   -3.8147   23.4345 C   0  0  0  0  0  0
  -21.9193   -4.6962   22.3401 C   0  0  0  0  0  0
  -22.7863  -13.5238   21.1829 C   0  0  0  0  0  0
  -22.1662   -4.2149   21.0979 F   0  0  0  0  0  0
  -21.5628   -3.4539   25.7737 F   0  0  0  0  0  0
  -30.0396  -13.2708   20.4506 N   0  0  0  0  0  0
  -26.3038  -12.9333   20.3388 N   0  0  0  0  0  0
  -25.9322  -11.6490   20.5774 N   0  0  0  0  0  0
  -22.0505  -12.8229   22.0389 N   0  0  0  0  0  0
  -25.4319  -15.1878   20.4103 N   0  0  0  0  0  0
  -31.8346  -14.6200   20.0861 O   0  0  0  0  0  0
  -21.6640   -6.8877   21.4239 O   0  0  0  0  0  0
  -22.3545  -14.5546   20.6689 O   0  0  0  0  0  0
  -24.6120  -31.8695   23.2108 C   0  0  0  0  0  0
  -25.9029  -32.4829   23.8396 C   0  0  1  0  0  0
  -27.2418  -27.4554   20.1113 C   0  0  0  0  0  0
  -25.5904  -33.8626   24.2335 N   0  0  0  0  0  0
  -23.3995  -30.4901   21.5512 C   0  0  2  0  0  0
  -24.8479  -28.9548   20.1178 C   0  0  0  0  0  0
  -22.7398  -29.4662   22.5020 C   0  0  0  0  0  0
  -18.0266  -28.1370   22.8491 C   0  0  0  0  0  0
  -24.1488  -36.7317   23.2638 C   0  0  0  0  0  0
  -25.9223  -30.8448   21.3568 C   0  0  0  0  0  0
  -26.0035  -29.4779   20.7113 C   0  0  0  0  0  0
  -27.2046  -28.7385   20.7011 C   0  0  0  0  0  0
  -26.0780  -26.9477   19.4989 C   0  0  0  0  0  0
  -24.8785  -27.6870   19.5072 C   0  0  0  0  0  0
  -23.6064  -29.8166   20.1672 C   0  0  0  0  0  0
  -25.4105  -36.3113   24.0340 C   0  0  1  0  0  0
  -20.5853  -28.3648   23.1329 C   0  0  2  0  0  0
  -20.6756  -26.9391   22.5414 C   0  0  0  0  0  0
  -19.5733  -26.6384   21.5209 C   0  0  0  0  0  0
  -18.1907  -26.7918   22.1615 C   0  0  0  0  0  0
  -19.1516  -28.8827   23.2901 C   0  0  0  0  0  0
  -18.9448  -30.1437   23.8906 C   0  0  0  0  0  0
  -17.6453  -30.6581   24.0564 C   0  0  0  0  0  0
  -25.9034  -34.9482   23.5130 C   0  0  0  0  0  0
  -16.5341  -29.9081   23.6337 C   0  0  0  0  0  0
  -16.7256  -28.6498   23.0353 C   0  0  0  0  0  0
  -26.4471  -31.6601   25.0713 C   0  0  0  0  0  0
  -25.3748  -31.3698   26.1474 C   0  0  0  0  0  0
  -27.0302  -30.3053   24.6049 C   0  0  0  0  0  0
  -27.6052  -32.4317   25.7472 C   0  0  0  0  0  0
  -27.5583  -37.1800   24.8456 C   0  0  0  0  0  0
  -21.4129  -29.3025   22.3749 N   0  0  0  0  0  0
  -26.4289  -37.3800   23.9416 N   0  0  0  0  0  0
  -24.6630  -31.0816   22.0995 N   0  0  0  0  0  0
  -23.4177  -28.8214   23.3065 O   0  0  0  0  0  0
  -28.4034  -26.7168   20.0634 O   0  0  0  0  0  0
  -26.5587  -34.8935   22.4685 O   0  0  0  0  0  0
  -23.5324  -32.1433   23.7529 O   0  0  0  0  0  0
  -31.1381  -17.4819   20.2819 C   0  0  0  0  0  0
  -30.2781  -16.8405   21.1353 C   0  0  0  0  0  0
  -29.5533  -17.7261   21.9896 C   0  0  0  0  0  0
  -29.8737  -19.0588   21.7900 C   0  0  0  0  0  0
  -29.1514  -22.5509   21.3761 C   0  0  0  0  0  0
  -28.6064  -20.1346   23.7735 C   0  0  0  0  0  0
  -28.9555  -26.8125   22.4807 C   0  0  0  0  0  0
  -28.1451  -23.4670   20.6616 C   0  0  0  0  0  0
  -27.8147  -24.7431   21.4753 C   0  0  0  0  0  0
  -29.4537  -20.3293   22.5055 C   0  0  2  0  0  0
  -28.7616  -25.9454   21.2245 C   0  0  1  0  0  0
  -28.6502  -17.1820   22.9136 N   0  0  0  0  0  0
  -30.0413  -15.4342   21.1890 N   0  0  0  0  0  0
  -28.7697  -21.2863   21.6250 N   0  0  0  0  0  0
  -30.2417  -23.0010   21.7315 O   0  0  0  0  0  0
  -31.0810  -19.2029   20.5266 S   0  0  0  0  0  0
  -31.4643  -12.3776   19.1216 H   0  0  0  0  0  0
  -30.3098  -11.2776   19.8150 H   0  0  0  0  0  0
  -29.7282  -11.7815   17.4239 H   0  0  0  0  0  0
  -29.6691  -13.4902   17.7768 H   0  0  0  0  0  0
  -27.8159  -11.3156   18.8065 H   0  0  0  0  0  0
  -27.3662  -12.6568   17.7879 H   0  0  0  0  0  0
  -27.7123  -14.2560   19.5888 H   0  0  0  0  0  0
  -28.6718  -11.9419   21.3407 H   0  0  0  0  0  0
  -28.4658  -13.5767   21.8790 H   0  0  0  0  0  0
  -25.2758   -9.5692   22.4754 H   0  0  0  0  0  0
  -24.0001   -7.4640   22.7477 H   0  0  0  0  0  0
  -21.0840   -8.8768   19.8951 H   0  0  0  0  0  0
  -22.3690  -10.9670   19.6159 H   0  0  0  0  0  0
  -21.2008   -7.6149   23.9714 H   0  0  0  0  0  0
  -21.1481   -6.0523   25.9076 H   0  0  0  0  0  0
  -22.0599   -2.7609   23.2845 H   0  0  0  0  0  0
  -22.4122  -11.9884   22.4765 H   0  0  0  0  0  0
  -21.1127  -13.1260   22.2601 H   0  0  0  0  0  0
  -24.6760  -15.8498   20.5464 H   0  0  0  0  0  0
  -26.3049  -15.6321   20.1536 H   0  0  0  0  0  0
  -26.7106  -32.5569   23.1173 H   0  0  0  0  0  0
  -25.0089  -33.9790   25.0504 H   0  0  0  0  0  0
  -22.6871  -31.3054   21.4108 H   0  0  0  0  0  0
  -23.3750  -35.9653   23.3298 H   0  0  0  0  0  0
  -24.3579  -36.8929   22.2053 H   0  0  0  0  0  0
  -23.7241  -37.6521   23.6651 H   0  0  0  0  0  0
  -26.0216  -31.6075   20.5834 H   0  0  0  0  0  0
  -26.8156  -30.9080   21.9669 H   0  0  0  0  0  0
  -28.0996  -29.1494   21.1458 H   0  0  0  0  0  0
  -26.1032  -25.9781   19.0223 H   0  0  0  0  0  0
  -23.9923  -27.2792   19.0406 H   0  0  0  0  0  0
  -23.7079  -30.5884   19.4029 H   0  0  0  0  0  0
  -22.7330  -29.2294   19.8782 H   0  0  0  0  0  0
  -25.1274  -36.1972   25.0831 H   0  0  0  0  0  0
  -20.9936  -28.3211   24.1455 H   0  0  0  0  0  0
  -20.5667  -26.2258   23.3595 H   0  0  0  0  0  0
  -21.6625  -26.7447   22.1193 H   0  0  0  0  0  0
  -19.6896  -25.6301   21.1223 H   0  0  0  0  0  0
  -19.6674  -27.3215   20.6750 H   0  0  0  0  0  0
  -17.4181  -26.6688   21.4007 H   0  0  0  0  0  0
  -18.0287  -26.0054   22.9003 H   0  0  0  0  0  0
  -19.7931  -30.7242   24.2284 H   0  0  0  0  0  0
  -17.5015  -31.6269   24.5151 H   0  0  0  0  0  0
  -15.5339  -30.2982   23.7668 H   0  0  0  0  0  0
  -15.8654  -28.0823   22.7064 H   0  0  0  0  0  0
  -24.5918  -30.7044   25.7817 H   0  0  0  0  0  0
  -24.8943  -32.2853   26.4940 H   0  0  0  0  0  0
  -25.8114  -30.8863   27.0221 H   0  0  0  0  0  0
  -26.2832  -29.6807   24.1138 H   0  0  0  0  0  0
  -27.4134  -29.7286   25.4476 H   0  0  0  0  0  0
  -27.8634  -30.4384   23.9144 H   0  0  0  0  0  0
  -27.2673  -33.3604   26.2083 H   0  0  0  0  0  0
  -28.3846  -32.6893   25.0288 H   0  0  0  0  0  0
  -28.0739  -31.8420   26.5361 H   0  0  0  0  0  0
  -28.2580  -38.0119   24.7546 H   0  0  0  0  0  0
  -28.1099  -36.2654   24.6225 H   0  0  0  0  0  0
  -27.2311  -37.1383   25.8860 H   0  0  0  0  0  0
  -20.9294  -29.8752   21.6972 H   0  0  0  0  0  0
  -26.0178  -38.2871   24.1449 H   0  0  0  0  0  0
  -31.7981  -17.0703   19.5283 H   0  0  0  0  0  0
  -29.1236  -19.5073   24.5004 H   0  0  0  0  0  0
  -27.6424  -19.6784   23.5484 H   0  0  0  0  0  0
  -28.4089  -21.0899   24.2613 H   0  0  0  0  0  0
  -29.3839  -26.2238   23.2925 H   0  0  0  0  0  0
  -28.0153  -27.2276   22.8447 H   0  0  0  0  0  0
  -29.6417  -27.6365   22.2848 H   0  0  0  0  0  0
  -27.2233  -22.9098   20.4916 H   0  0  0  0  0  0
  -28.5257  -23.7280   19.6733 H   0  0  0  0  0  0
  -27.8483  -24.4831   22.5352 H   0  0  0  0  0  0
  -26.7776  -25.0295   21.3069 H   0  0  0  0  0  0
  -30.3811  -20.7860   22.8561 H   0  0  0  0  0  0
  -29.7499  -25.5444   20.9968 H   0  0  0  0  0  0
  -28.8972  -16.2768   23.2943 H   0  0  0  0  0  0
  -28.3283  -17.8096   23.6401 H   0  0  0  0  0  0
  -29.1767  -15.1711   21.6358 H   0  0  0  0  0  0
  -27.8677  -21.0004   21.2694 H   0  0  0  0  0  0
  1 25  1  0  0  0
  1 30  2  0  0  0
  1 83  1  0  0  0
  2  3  1  0  0  0
  2 25  1  0  0  0
  2 87  1  0  0  0
  2 88  1  0  0  0
  3  4  1  0  0  0
  3 89  1  0  0  0
  3 90  1  0  0  0
  4  5  1  0  0  0
  4 91  1  0  0  0
  4 92  1  0  0  0
  5  6  1  0  0  0
  5 26  1  0  0  0
  5 93  1  0  0  0
  6 25  1  0  0  0
  6 94  1  0  0  0
  6 95  1  0  0  0
  7  8  2  0  0  0
  7 26  1  0  0  0
  7 29  1  0  0  0
  8  9  1  0  0  0
  8 22  1  0  0  0
  9 10  1  0  0  0
  9 27  2  0  0  0
 10 11  2  0  0  0
 10 15  1  0  0  0
 11 12  1  0  0  0
 11 96  1  0  0  0
 12 13  2  0  0  0
 12 97  1  0  0  0
 13 14  1  0  0  0
 13 31  1  0  0  0
 14 15  2  0  0  0
 14 98  1  0  0  0
 15 99  1  0  0  0
 16 17  2  0  0  0
 16 21  1  0  0  0
 16 31  1  0  0  0
 17 18  1  0  0  0
 17100  1  0  0  0
 18 19  2  0  0  0
 18101  1  0  0  0
 19 20  1  0  0  0
 19 24  1  0  0  0
 20 21  2  0  0  0
 20102  1  0  0  0
 21 23  1  0  0  0
 22 28  1  0  0  0
 22 32  2  0  0  0
 26 27  1  0  0  0
 28103  1  0  0  0
 28104  1  0  0  0
 29105  1  0  0  0
 29106  1  0  0  0
 33 34  1  0  0  0
 33 66  1  0  0  0
 33 70  2  0  0  0
 34 36  1  0  0  0
 34 59  1  0  0  0
 34107  1  0  0  0
 35 44  2  0  0  0
 35 45  1  0  0  0
 35 68  1  0  0  0
 36 56  1  0  0  0
 36108  1  0  0  0
 37 39  1  0  0  0
 37 47  1  0  0  0
 37 66  1  0  0  0
 37109  1  0  0  0
 38 43  2  0  0  0
 38 46  1  0  0  0
 38 47  1  0  0  0
 39 64  1  0  0  0
 39 67  2  0  0  0
 40 52  1  0  0  0
 40 53  2  0  0  0
 40 58  1  0  0  0
 41110  1  0  0  0
 41111  1  0  0  0
 41112  1  0  0  0
 41 48  1  0  0  0
 42 43  1  0  0  0
 42 66  1  0  0  0
 42113  1  0  0  0
 42114  1  0  0  0
 43 44  1  0  0  0
 44115  1  0  0  0
 45 46  2  0  0  0
 45116  1  0  0  0
 46117  1  0  0  0
 47118  1  0  0  0
 47119  1  0  0  0
 48 56  1  0  0  0
 48 65  1  0  0  0
 48120  1  0  0  0
 49 50  1  0  0  0
 49 53  1  0  0  0
 49 64  1  0  0  0
 49121  1  0  0  0
 50 51  1  0  0  0
 50122  1  0  0  0
 50123  1  0  0  0
 51 52  1  0  0  0
 51124  1  0  0  0
 51125  1  0  0  0
 52126  1  0  0  0
 52127  1  0  0  0
 53 54  1  0  0  0
 54 55  2  0  0  0
 54128  1  0  0  0
 55 57  1  0  0  0
 55129  1  0  0  0
 56 69  2  0  0  0
 57 58  2  0  0  0
 57130  1  0  0  0
 58131  1  0  0  0
 59 60  1  0  0  0
 59 61  1  0  0  0
 59 62  1  0  0  0
 60132  1  0  0  0
 60133  1  0  0  0
 60134  1  0  0  0
 61135  1  0  0  0
 61136  1  0  0  0
 61137  1  0  0  0
 62138  1  0  0  0
 62139  1  0  0  0
 62140  1  0  0  0
 63 65  1  0  0  0
 63141  1  0  0  0
 63142  1  0  0  0
 63143  1  0  0  0
 64144  1  0  0  0
 65145  1  0  0  0
 68 81  1  0  0  0
 71 72  2  0  0  0
 71 86  1  0  0  0
 71146  1  0  0  0
 72 73  1  0  0  0
 72 83  1  0  0  0
 73 74  2  0  0  0
 73 82  1  0  0  0
 74 80  1  0  0  0
 74 86  1  0  0  0
 75 78  1  0  0  0
 75 84  1  0  0  0
 75 85  2  0  0  0
 76147  1  0  0  0
 76148  1  0  0  0
 76149  1  0  0  0
 76 80  1  0  0  0
 77150  1  0  0  0
 77151  1  0  0  0
 77152  1  0  0  0
 77 81  1  0  0  0
 78 79  1  0  0  0
 78153  1  0  0  0
 78154  1  0  0  0
 79 81  1  0  0  0
 79155  1  0  0  0
 79156  1  0  0  0
 80 84  1  0  0  0
 80157  1  0  0  0
 81158  1  0  0  0
 82159  1  0  0  0
 82160  1  0  0  0
 83161  1  0  0  0
 84162  1  0  0  0
M  ISO  4   1 100  68 101  81 101  83 100
M  END
> <chiral flag>
0

> <version>
0

> <s_m_source_file>
/data/baiqing/PycharmProjects/Reinvent-master-3.2/result/LINK_invent/BTK/process_docking_weight1_custom_product_contain_oxygen_bond_distance_aromatic_linkinvent_7_9_3/rearranged_h_0174.sdf

> <i_m_source_file_index>
96

> <r_mmod_Potential_Energy-OPLS-2005>
-260.553009033203

> <r_mmod_Stretch_Energy-OPLS-2005>
35.0576400756836

> <r_mmod_Bend_Energy-OPLS-2005>
110.186149597168

> <r_mmod_Torsional_Energy-OPLS-2005>
234.954727172852

> <r_mmod_Improper_Torsional_Energy-OPLS-2005>
7.754469871521

> <r_mmod_Van_der_Waal_Energy-OPLS-2005>
135.887496948242

> <r_mmod_Electrostatic_Energy-OPLS-2005>
-563.356628417969

> <r_mmod_Solvation_Energy-OPLS-2005>
-230.397171020508

> <b_mmod_Minimization_Converged-OPLS-2005>
0

> <r_mmod_RMS_Derivative-OPLS-2005>
0.89770895242691

$$$$
96
                    3D
 Structure written by MMmdl.
159167  0  0  1  0            999 V2000
  -30.5879  -14.6470   20.5808 C   0  0  0  0  0  0
  -30.4342  -12.3974   19.4750 C   0  0  0  0  0  0
  -29.5110  -12.5429   18.2435 C   0  0  0  0  0  0
  -28.0305  -12.3658   18.6407 C   0  0  0  0  0  0
  -27.6525  -13.2147   19.8844 C   0  0  2  0  0  0
  -28.6902  -13.0284   21.0150 C   0  0  0  0  0  0
  -25.2530  -13.8171   20.5711 C   0  0  0  0  0  0
  -24.1792  -13.0395   20.9115 C   0  0  0  0  0  0
  -24.6349  -11.6880   20.8671 C   0  0  0  0  0  0
  -23.9027  -10.4244   21.0374 C   0  0  0  0  0  0
  -24.3549   -9.4175   21.9162 C   0  0  0  0  0  0
  -23.6230   -8.2211   22.0750 C   0  0  0  0  0  0
  -22.4229   -8.0228   21.3532 C   0  0  0  0  0  0
  -21.9848   -9.0194   20.4623 C   0  0  0  0  0  0
  -22.7165  -10.2094   20.3012 C   0  0  0  0  0  0
  -21.6841   -6.0682   22.5251 C   0  0  0  0  0  0
  -21.4033   -6.5603   23.8183 C   0  0  0  0  0  0
  -21.3683   -5.6755   24.9147 C   0  0  0  0  0  0
  -21.6037   -4.3033   24.7207 C   0  0  0  0  0  0
  -21.8823   -3.8101   23.4342 C   0  0  0  0  0  0
  -21.9193   -4.6904   22.3376 C   0  0  0  0  0  0
  -22.7831  -13.5197   21.1813 C   0  0  0  0  0  0
  -22.1664   -4.2075   21.0967 F   0  0  0  0  0  0
  -21.5617   -3.4525   25.7753 F   0  0  0  0  0  0
  -30.0089  -13.4033   20.4741 N   0  0  0  0  0  0
  -26.2950  -12.9341   20.3414 N   0  0  0  0  0  0
  -25.9287  -11.6499   20.5759 N   0  0  0  0  0  0
  -22.0490  -12.8169   22.0378 N   0  0  0  0  0  0
  -25.4254  -15.1863   20.4196 N   0  0  0  0  0  0
  -31.7300  -14.8480   20.1462 O   0  0  0  0  0  0
  -21.6628   -6.8806   21.4219 O   0  0  0  0  0  0
  -22.3539  -14.5504   20.6680 O   0  0  0  0  0  0
  -24.6366  -31.8630   23.1951 C   0  0  0  0  0  0
  -25.9250  -32.4724   23.8257 C   0  0  1  0  0  0
  -27.1937  -27.2839   20.0926 C   0  0  0  0  0  0
  -25.6054  -33.8537   24.2204 N   0  0  0  0  0  0
  -23.4243  -30.4900   21.5510 C   0  0  2  0  0  0
  -24.8497  -28.9181   20.1489 C   0  0  0  0  0  0
  -22.7537  -29.4690   22.5023 C   0  0  0  0  0  0
  -18.0273  -28.1431   22.8354 C   0  0  0  0  0  0
  -24.1538  -36.7239   23.2633 C   0  0  0  0  0  0
  -25.9742  -30.7778   21.3685 C   0  0  0  0  0  0
  -26.0366  -29.4064   20.7013 C   0  0  0  0  0  0
  -27.2250  -28.6034   20.6467 C   0  0  0  0  0  0
  -25.9767  -26.8575   19.5356 C   0  0  0  0  0  0
  -24.8108  -27.6421   19.5841 C   0  0  0  0  0  0
  -23.6324  -29.8157   20.1794 C   0  0  0  0  0  0
  -25.4141  -36.3040   24.0363 C   0  0  1  0  0  0
  -20.5893  -28.3747   23.1290 C   0  0  2  0  0  0
  -20.6834  -26.9487   22.5431 C   0  0  0  0  0  0
  -19.5823  -26.6404   21.5221 C   0  0  0  0  0  0
  -18.1943  -26.7940   22.1554 C   0  0  0  0  0  0
  -19.1537  -28.8882   23.2762 C   0  0  0  0  0  0
  -18.9474  -30.1451   23.8863 C   0  0  0  0  0  0
  -17.6517  -30.6601   24.0565 C   0  0  0  0  0  0
  -25.9144  -34.9443   23.5072 C   0  0  0  0  0  0
  -16.5388  -29.9134   23.6373 C   0  0  0  0  0  0
  -16.7295  -28.6583   23.0293 C   0  0  0  0  0  0
  -26.4559  -31.6561   25.0685 C   0  0  0  0  0  0
  -25.3674  -31.3703   26.1314 C   0  0  0  0  0  0
  -27.0402  -30.3009   24.6127 C   0  0  0  0  0  0
  -27.6118  -32.4297   25.7412 C   0  0  0  0  0  0
  -27.5605  -37.1731   24.8437 C   0  0  0  0  0  0
  -21.4267  -29.3088   22.3744 N   0  0  0  0  0  0
  -26.4278  -37.3790   23.9453 N   0  0  0  0  0  0
  -24.6977  -31.0583   22.0934 N   0  0  0  0  0  0
  -23.4255  -28.8270   23.3126 O   0  0  0  0  0  0
  -28.2765  -26.3943   20.0760 O   0  0  0  0  0  0
  -26.5671  -34.8914   22.4599 O   0  0  0  0  0  0
  -23.5522  -32.1462   23.7309 O   0  0  0  0  0  0
  -29.0858  -19.6169   20.9248 C   0  0  0  0  0  0
  -30.4354  -19.3334   20.7827 C   0  0  0  0  0  0
  -29.7349  -17.1086   20.9752 C   0  0  0  0  0  0
  -28.2542  -20.9001   20.9250 C   0  0  0  0  0  0
  -26.6948  -23.1898   19.5243 C   0  0  0  0  0  0
  -28.9214  -23.7867   18.5786 C   0  0  0  0  0  0
  -32.7790  -20.0232   20.1734 C   0  0  0  0  0  0
  -28.8297  -22.4058   20.8316 C   0  0  0  0  0  0
  -28.0917  -25.0453   20.6957 C   0  0  0  0  0  0
  -28.1445  -23.6082   19.9265 C   0  0  0  0  0  0
  -30.7713  -17.9428   20.7686 N   0  0  0  0  0  0
  -31.4359  -20.3124   20.6512 N   0  0  0  0  0  0
  -29.7743  -15.6357   21.0805 N   0  0  0  0  0  0
  -27.0368  -20.7829   21.0981 O   0  0  0  0  0  0
  -28.2368  -18.0658   21.1811 S   0  0  0  0  0  0
  -31.4771  -12.5187   19.1850 H   0  0  0  0  0  0
  -30.3594  -11.3892   19.8837 H   0  0  0  0  0  0
  -29.7827  -11.8286   17.4659 H   0  0  0  0  0  0
  -29.6452  -13.5362   17.8107 H   0  0  0  0  0  0
  -27.8623  -11.3098   18.8526 H   0  0  0  0  0  0
  -27.3768  -12.6166   17.8045 H   0  0  0  0  0  0
  -27.6806  -14.2556   19.5674 H   0  0  0  0  0  0
  -28.6969  -11.9856   21.3378 H   0  0  0  0  0  0
  -28.4211  -13.5991   21.9047 H   0  0  0  0  0  0
  -25.2688   -9.5697   22.4747 H   0  0  0  0  0  0
  -23.9928   -7.4655   22.7505 H   0  0  0  0  0  0
  -21.0758   -8.8663   19.8957 H   0  0  0  0  0  0
  -22.3553  -10.9607   19.6103 H   0  0  0  0  0  0
  -21.2041   -7.6112   23.9653 H   0  0  0  0  0  0
  -21.1526   -6.0514   25.9048 H   0  0  0  0  0  0
  -22.0591   -2.7554   23.2867 H   0  0  0  0  0  0
  -22.4147  -11.9783   22.4659 H   0  0  0  0  0  0
  -21.1130  -13.1290   22.2701 H   0  0  0  0  0  0
  -24.6523  -15.8333   20.5042 H   0  0  0  0  0  0
  -26.2734  -15.6290   20.0967 H   0  0  0  0  0  0
  -26.7325  -32.5376   23.0988 H   0  0  0  0  0  0
  -25.0236  -33.9661   25.0376 H   0  0  0  0  0  0
  -22.7120  -31.3059   21.3958 H   0  0  0  0  0  0
  -23.3889  -35.9495   23.3233 H   0  0  0  0  0  0
  -24.3593  -36.8911   22.2046 H   0  0  0  0  0  0
  -23.7241  -37.6386   23.6695 H   0  0  0  0  0  0
  -26.1284  -31.5427   20.6068 H   0  0  0  0  0  0
  -26.8545  -30.7977   21.9994 H   0  0  0  0  0  0
  -28.1566  -28.9710   21.0437 H   0  0  0  0  0  0
  -25.9034  -25.8917   19.0692 H   0  0  0  0  0  0
  -23.8793  -27.2413   19.2205 H   0  0  0  0  0  0
  -23.7882  -30.5859   19.4256 H   0  0  0  0  0  0
  -22.7471  -29.2726   19.8491 H   0  0  0  0  0  0
  -25.1314  -36.1835   25.0877 H   0  0  0  0  0  0
  -20.9819  -28.3321   24.1496 H   0  0  0  0  0  0
  -20.5854  -26.2334   23.3640 H   0  0  0  0  0  0
  -21.6678  -26.7627   22.1141 H   0  0  0  0  0  0
  -19.7091  -25.6312   21.1288 H   0  0  0  0  0  0
  -19.6810  -27.3155   20.6714 H   0  0  0  0  0  0
  -17.4269  -26.6682   21.3931 H   0  0  0  0  0  0
  -18.0292  -26.0051   22.8923 H   0  0  0  0  0  0
  -19.7961  -30.7172   24.2310 H   0  0  0  0  0  0
  -17.5081  -31.6291   24.5116 H   0  0  0  0  0  0
  -15.5400  -30.3019   23.7712 H   0  0  0  0  0  0
  -15.8663  -28.0923   22.7089 H   0  0  0  0  0  0
  -24.6051  -30.6856   25.7602 H   0  0  0  0  0  0
  -24.8582  -32.2795   26.4527 H   0  0  0  0  0  0
  -25.7865  -30.9069   27.0254 H   0  0  0  0  0  0
  -26.2957  -29.6712   24.1206 H   0  0  0  0  0  0
  -27.4228  -29.7335   25.4619 H   0  0  0  0  0  0
  -27.8782  -30.4384   23.9267 H   0  0  0  0  0  0
  -27.2878  -33.3736   26.1819 H   0  0  0  0  0  0
  -28.3944  -32.6636   25.0189 H   0  0  0  0  0  0
  -28.0739  -31.8501   26.5398 H   0  0  0  0  0  0
  -28.2509  -38.0128   24.7658 H   0  0  0  0  0  0
  -28.1231  -36.2692   24.6076 H   0  0  0  0  0  0
  -27.2331  -37.1096   25.8818 H   0  0  0  0  0  0
  -20.9601  -29.8661   21.6733 H   0  0  0  0  0  0
  -26.0183  -38.2884   24.1497 H   0  0  0  0  0  0
  -26.6929  -22.2384   18.9848 H   0  0  0  0  0  0
  -26.2035  -23.8650   18.8232 H   0  0  0  0  0  0
  -26.0336  -23.0968   20.3877 H   0  0  0  0  0  0
  -29.4292  -22.8662   18.2782 H   0  0  0  0  0  0
  -29.6860  -24.5728   18.6155 H   0  0  0  0  0  0
  -28.2494  -24.0521   17.7517 H   0  0  0  0  0  0
  -33.2102  -20.9199   19.7266 H   0  0  0  0  0  0
  -32.7655  -19.2471   19.4092 H   0  0  0  0  0  0
  -33.4253  -19.7027   20.9911 H   0  0  0  0  0  0
  -29.9014  -22.3716   20.6146 H   0  0  0  0  0  0
  -28.8013  -22.7281   21.8780 H   0  0  0  0  0  0
  -28.8604  -25.0120   21.4680 H   0  0  0  0  0  0
  -27.1716  -25.0802   21.2735 H   0  0  0  0  0  0
  -31.2148  -21.2745   20.8891 H   0  0  0  0  0  0
  -28.9306  -15.2332   21.4547 H   0  0  0  0  0  0
  1 25  1  0  0  0
  1 30  2  0  0  0
  1 83  1  0  0  0
  2  3  1  0  0  0
  2 25  1  0  0  0
  2 86  1  0  0  0
  2 87  1  0  0  0
  3  4  1  0  0  0
  3 88  1  0  0  0
  3 89  1  0  0  0
  4  5  1  0  0  0
  4 90  1  0  0  0
  4 91  1  0  0  0
  5  6  1  0  0  0
  5 26  1  0  0  0
  5 92  1  0  0  0
  6 25  1  0  0  0
  6 93  1  0  0  0
  6 94  1  0  0  0
  7  8  2  0  0  0
  7 26  1  0  0  0
  7 29  1  0  0  0
  8  9  1  0  0  0
  8 22  1  0  0  0
  9 10  1  0  0  0
  9 27  2  0  0  0
 10 11  2  0  0  0
 10 15  1  0  0  0
 11 12  1  0  0  0
 11 95  1  0  0  0
 12 13  2  0  0  0
 12 96  1  0  0  0
 13 14  1  0  0  0
 13 31  1  0  0  0
 14 15  2  0  0  0
 14 97  1  0  0  0
 15 98  1  0  0  0
 16 17  2  0  0  0
 16 21  1  0  0  0
 16 31  1  0  0  0
 17 18  1  0  0  0
 17 99  1  0  0  0
 18 19  2  0  0  0
 18100  1  0  0  0
 19 20  1  0  0  0
 19 24  1  0  0  0
 20 21  2  0  0  0
 20101  1  0  0  0
 21 23  1  0  0  0
 22 28  1  0  0  0
 22 32  2  0  0  0
 26 27  1  0  0  0
 28102  1  0  0  0
 28103  1  0  0  0
 29104  1  0  0  0
 29105  1  0  0  0
 33 34  1  0  0  0
 33 66  1  0  0  0
 33 70  2  0  0  0
 34 36  1  0  0  0
 34 59  1  0  0  0
 34106  1  0  0  0
 35 44  2  0  0  0
 35 45  1  0  0  0
 35 68  1  0  0  0
 36 56  1  0  0  0
 36107  1  0  0  0
 37 39  1  0  0  0
 37 47  1  0  0  0
 37 66  1  0  0  0
 37108  1  0  0  0
 38 43  2  0  0  0
 38 46  1  0  0  0
 38 47  1  0  0  0
 39 64  1  0  0  0
 39 67  2  0  0  0
 40 52  1  0  0  0
 40 53  2  0  0  0
 40 58  1  0  0  0
 41109  1  0  0  0
 41110  1  0  0  0
 41111  1  0  0  0
 41 48  1  0  0  0
 42 43  1  0  0  0
 42 66  1  0  0  0
 42112  1  0  0  0
 42113  1  0  0  0
 43 44  1  0  0  0
 44114  1  0  0  0
 45 46  2  0  0  0
 45115  1  0  0  0
 46116  1  0  0  0
 47117  1  0  0  0
 47118  1  0  0  0
 48 56  1  0  0  0
 48 65  1  0  0  0
 48119  1  0  0  0
 49 50  1  0  0  0
 49 53  1  0  0  0
 49 64  1  0  0  0
 49120  1  0  0  0
 50 51  1  0  0  0
 50121  1  0  0  0
 50122  1  0  0  0
 51 52  1  0  0  0
 51123  1  0  0  0
 51124  1  0  0  0
 52125  1  0  0  0
 52126  1  0  0  0
 53 54  1  0  0  0
 54 55  2  0  0  0
 54127  1  0  0  0
 55 57  1  0  0  0
 55128  1  0  0  0
 56 69  2  0  0  0
 57 58  2  0  0  0
 57129  1  0  0  0
 58130  1  0  0  0
 59 60  1  0  0  0
 59 61  1  0  0  0
 59 62  1  0  0  0
 60131  1  0  0  0
 60132  1  0  0  0
 60133  1  0  0  0
 61134  1  0  0  0
 61135  1  0  0  0
 61136  1  0  0  0
 62137  1  0  0  0
 62138  1  0  0  0
 62139  1  0  0  0
 63 65  1  0  0  0
 63140  1  0  0  0
 63141  1  0  0  0
 63142  1  0  0  0
 64143  1  0  0  0
 65144  1  0  0  0
 68 79  1  0  0  0
 71 72  2  0  0  0
 71 74  1  0  0  0
 71 85  1  0  0  0
 72 81  1  0  0  0
 72 82  1  0  0  0
 73 81  2  0  0  0
 73 83  1  0  0  0
 73 85  1  0  0  0
 74 78  1  0  0  0
 74 84  2  0  0  0
 75145  1  0  0  0
 75146  1  0  0  0
 75147  1  0  0  0
 75 80  1  0  0  0
 76 80  1  0  0  0
 76148  1  0  0  0
 76149  1  0  0  0
 76150  1  0  0  0
 77 82  1  0  0  0
 77151  1  0  0  0
 77152  1  0  0  0
 77153  1  0  0  0
 78 80  1  0  0  0
 78154  1  0  0  0
 78155  1  0  0  0
 79 80  1  0  0  0
 79156  1  0  0  0
 79157  1  0  0  0
 82158  1  0  0  0
 83159  1  0  0  0
M  ISO  4   1 100  68 101  79 101  83 100
M  END
> <chiral flag>
0

> <version>
0

> <s_m_source_file>
/data/baiqing/PycharmProjects/Reinvent-master-3.2/result/LINK_invent/BTK/process_docking_weight1_custom_product_contain_oxygen_bond_distance_aromatic_linkinvent_7_9_3/rearranged_h_0174.sdf

> <i_m_source_file_index>
97

> <r_mmod_Potential_Energy-OPLS-2005>
132.407287597656

> <r_mmod_Stretch_Energy-OPLS-2005>
119.083717346191

> <r_mmod_Bend_Energy-OPLS-2005>
193.522338867188

> <r_mmod_Torsional_Energy-OPLS-2005>
252.217727661133

> <r_mmod_Improper_Torsional_Energy-OPLS-2005>
4.07566070556641

> <r_mmod_Van_der_Waal_Energy-OPLS-2005>
126.336776733398

> <r_mmod_Electrostatic_Energy-OPLS-2005>
-382.613830566406

> <r_mmod_Solvation_Energy-OPLS-2005>
-241.031555175781

> <b_mmod_Minimization_Converged-OPLS-2005>
0

> <r_mmod_RMS_Derivative-OPLS-2005>
11.3391389846802

$$$$
