0
                    3D
 Structure written by MMmdl.
151160  0  0  1  0            999 V2000
  -30.6018  -14.8011   20.4402 C   0  0  0  0  0  0
  -30.4335  -12.4881   19.4894 C   0  0  0  0  0  0
  -29.5166  -12.5161   18.2461 C   0  0  0  0  0  0
  -28.0441  -12.3310   18.6574 C   0  0  0  0  0  0
  -27.6410  -13.2392   19.8495 C   0  0  2  0  0  0
  -28.6833  -13.2021   20.9893 C   0  0  0  0  0  0
  -25.2503  -13.8211   20.5688 C   0  0  0  0  0  0
  -24.1801  -13.0450   20.9202 C   0  0  0  0  0  0
  -24.6404  -11.6930   20.8749 C   0  0  0  0  0  0
  -23.9088  -10.4298   21.0412 C   0  0  0  0  0  0
  -24.3632   -9.4208   21.9188 C   0  0  0  0  0  0
  -23.6295   -8.2252   22.0760 C   0  0  0  0  0  0
  -22.4276   -8.0288   21.3552 C   0  0  0  0  0  0
  -21.9916   -9.0266   20.4657 C   0  0  0  0  0  0
  -22.7255  -10.2138   20.3064 C   0  0  0  0  0  0
  -21.6854   -6.0735   22.5276 C   0  0  0  0  0  0
  -21.4018   -6.5640   23.8206 C   0  0  0  0  0  0
  -21.3658   -5.6790   24.9168 C   0  0  0  0  0  0
  -21.6042   -4.3054   24.7217 C   0  0  0  0  0  0
  -21.8823   -3.8147   23.4339 C   0  0  0  0  0  0
  -21.9197   -4.6967   22.3394 C   0  0  0  0  0  0
  -22.7822  -13.5234   21.1855 C   0  0  0  0  0  0
  -22.1668   -4.2155   21.0974 F   0  0  0  0  0  0
  -21.5626   -3.4538   25.7732 F   0  0  0  0  0  0
  -29.9831  -13.5644   20.4093 N   0  0  0  0  0  0
  -26.2935  -12.9432   20.3265 N   0  0  0  0  0  0
  -25.9334  -11.6570   20.5737 N   0  0  0  0  0  0
  -22.0462  -12.8231   22.0411 N   0  0  0  0  0  0
  -25.4195  -15.1932   20.4099 N   0  0  0  0  0  0
  -31.7888  -14.8721   20.1052 O   0  0  0  0  0  0
  -21.6642   -6.8883   21.4240 O   0  0  0  0  0  0
  -22.3517  -14.5551   20.6711 O   0  0  0  0  0  0
  -24.6357  -31.8520   23.1981 C   0  0  0  0  0  0
  -25.9173  -32.4728   23.8333 C   0  0  1  0  0  0
  -27.2083  -27.2078   20.1361 C   0  0  0  0  0  0
  -25.5956  -33.8536   24.2250 N   0  0  0  0  0  0
  -23.4347  -30.4768   21.5417 C   0  0  2  0  0  0
  -24.8823  -28.9237   20.1081 C   0  0  0  0  0  0
  -22.7526  -29.4585   22.4885 C   0  0  0  0  0  0
  -18.0299  -28.1390   22.8472 C   0  0  0  0  0  0
  -24.1496  -36.7272   23.2636 C   0  0  0  0  0  0
  -25.9869  -30.7434   21.3946 C   0  0  0  0  0  0
  -26.0540  -29.3624   20.7370 C   0  0  0  0  0  0
  -27.2153  -28.5136   20.7510 C   0  0  0  0  0  0
  -26.0243  -26.8800   19.4325 C   0  0  0  0  0  0
  -24.8754  -27.6913   19.4444 C   0  0  0  0  0  0
  -23.6567  -29.8176   20.1563 C   0  0  0  0  0  0
  -25.4120  -36.3051   24.0322 C   0  0  1  0  0  0
  -20.5903  -28.3711   23.1246 C   0  0  2  0  0  0
  -20.6786  -26.9422   22.5397 C   0  0  0  0  0  0
  -19.5763  -26.6383   21.5202 C   0  0  0  0  0  0
  -18.1946  -26.7927   22.1621 C   0  0  0  0  0  0
  -19.1553  -28.8868   23.2853 C   0  0  0  0  0  0
  -18.9471  -30.1463   23.8880 C   0  0  0  0  0  0
  -17.6469  -30.6587   24.0555 C   0  0  0  0  0  0
  -25.9064  -34.9420   23.5088 C   0  0  0  0  0  0
  -16.5359  -29.9080   23.6330 C   0  0  0  0  0  0
  -16.7284  -28.6501   23.0347 C   0  0  0  0  0  0
  -26.4523  -31.6562   25.0738 C   0  0  0  0  0  0
  -25.3728  -31.3739   26.1446 C   0  0  0  0  0  0
  -27.0370  -30.2956   24.6285 C   0  0  0  0  0  0
  -27.6072  -32.4310   25.7509 C   0  0  0  0  0  0
  -27.5579  -37.1794   24.8464 C   0  0  0  0  0  0
  -21.4228  -29.3050   22.3629 N   0  0  0  0  0  0
  -26.4293  -37.3752   23.9402 N   0  0  0  0  0  0
  -24.7045  -31.0439   22.0993 N   0  0  0  0  0  0
  -23.4202  -28.8111   23.2991 O   0  0  0  0  0  0
  -28.2696  -26.2529   20.2110 O   0  0  0  0  0  0
  -26.5634  -34.8899   22.4655 O   0  0  0  0  0  0
  -23.5498  -32.1377   23.7241 O   0  0  0  0  0  0
  -29.3896  -18.6198   20.8550 C   0  0  0  0  0  0
  -31.0049  -17.7794   19.3908 C   0  0  0  0  0  0
  -30.0823  -17.4041   20.3354 C   0  0  0  0  0  0
  -29.8188  -19.8747   20.3424 C   0  0  0  0  0  0
  -28.8087  -23.7084   20.3974 C   0  0  0  0  0  0
  -28.0103  -24.8291   20.1545 C   0  0  0  0  0  0
  -30.2357  -23.6851   20.8818 C   0  0  0  0  0  0
  -28.4431  -22.1736   20.2473 C   0  0  0  0  0  0
  -30.7273  -22.2140   20.7319 C   0  0  0  0  0  0
  -29.5791  -21.2897   20.6935 N   0  0  0  0  0  0
  -29.8468  -15.9575   20.6868 N   0  0  0  0  0  0
  -31.0571  -19.5193   19.1437 S   0  0  0  0  0  0
  -31.4750  -12.6075   19.1865 H   0  0  0  0  0  0
  -30.3807  -11.5173   19.9843 H   0  0  0  0  0  0
  -29.8086  -11.7360   17.5416 H   0  0  0  0  0  0
  -29.6362  -13.4642   17.7198 H   0  0  0  0  0  0
  -27.9081  -11.2834   18.9281 H   0  0  0  0  0  0
  -27.3892  -12.5115   17.8047 H   0  0  0  0  0  0
  -27.6279  -14.2558   19.4552 H   0  0  0  0  0  0
  -28.7284  -12.2122   21.4458 H   0  0  0  0  0  0
  -28.4066  -13.8947   21.7856 H   0  0  0  0  0  0
  -25.2772   -9.5679   22.4766 H   0  0  0  0  0  0
  -23.9998   -7.4646   22.7483 H   0  0  0  0  0  0
  -21.0848   -8.8798   19.8963 H   0  0  0  0  0  0
  -22.3716  -10.9685   19.6181 H   0  0  0  0  0  0
  -21.2014   -7.6145   23.9711 H   0  0  0  0  0  0
  -21.1475   -6.0520   25.9070 H   0  0  0  0  0  0
  -22.0603   -2.7610   23.2837 H   0  0  0  0  0  0
  -22.4069  -11.9895   22.4809 H   0  0  0  0  0  0
  -21.1086  -13.1284   22.2616 H   0  0  0  0  0  0
  -24.6528  -15.8474   20.5219 H   0  0  0  0  0  0
  -26.2572  -15.6282   20.0453 H   0  0  0  0  0  0
  -26.7229  -32.5363   23.1058 H   0  0  0  0  0  0
  -25.0091  -33.9671   25.0386 H   0  0  0  0  0  0
  -22.7336  -31.3012   21.3969 H   0  0  0  0  0  0
  -23.3754  -35.9608   23.3292 H   0  0  0  0  0  0
  -24.3586  -36.8902   22.2051 H   0  0  0  0  0  0
  -23.7261  -37.6474   23.6668 H   0  0  0  0  0  0
  -26.1414  -31.5003   20.6243 H   0  0  0  0  0  0
  -26.8588  -30.7872   22.0351 H   0  0  0  0  0  0
  -28.1036  -28.8364   21.2760 H   0  0  0  0  0  0
  -25.9431  -25.9694   18.8610 H   0  0  0  0  0  0
  -23.9879  -27.3612   18.9221 H   0  0  0  0  0  0
  -23.7883  -30.5973   19.4053 H   0  0  0  0  0  0
  -22.7731  -29.2577   19.8448 H   0  0  0  0  0  0
  -25.1302  -36.1892   25.0814 H   0  0  0  0  0  0
  -20.9996  -28.3295   24.1365 H   0  0  0  0  0  0
  -20.5685  -26.2317   23.3605 H   0  0  0  0  0  0
  -21.6654  -26.7442   22.1194 H   0  0  0  0  0  0
  -19.6925  -25.6290   21.1243 H   0  0  0  0  0  0
  -19.6695  -27.3179   20.6717 H   0  0  0  0  0  0
  -17.4205  -26.6650   21.4035 H   0  0  0  0  0  0
  -18.0364  -26.0080   22.9034 H   0  0  0  0  0  0
  -19.7947  -30.7283   24.2243 H   0  0  0  0  0  0
  -17.5023  -31.6268   24.5159 H   0  0  0  0  0  0
  -15.5359  -30.2975   23.7668 H   0  0  0  0  0  0
  -15.8684  -28.0816   22.7070 H   0  0  0  0  0  0
  -24.5882  -30.7119   25.7763 H   0  0  0  0  0  0
  -24.8954  -32.2923   26.4871 H   0  0  0  0  0  0
  -25.8021  -30.8895   27.0226 H   0  0  0  0  0  0
  -26.2971  -29.6689   24.1293 H   0  0  0  0  0  0
  -27.3984  -29.7240   25.4845 H   0  0  0  0  0  0
  -27.8886  -30.4181   23.9588 H   0  0  0  0  0  0
  -27.2675  -33.3613   26.2071 H   0  0  0  0  0  0
  -28.3887  -32.6866   25.0338 H   0  0  0  0  0  0
  -28.0735  -31.8448   26.5437 H   0  0  0  0  0  0
  -28.2592  -38.0093   24.7502 H   0  0  0  0  0  0
  -28.1084  -36.2626   24.6302 H   0  0  0  0  0  0
  -27.2299  -37.1451   25.8867 H   0  0  0  0  0  0
  -20.9419  -29.8775   21.6831 H   0  0  0  0  0  0
  -26.0168  -38.2827   24.1385 H   0  0  0  0  0  0
  -28.6366  -18.5318   21.6248 H   0  0  0  0  0  0
  -31.6699  -17.1518   18.8101 H   0  0  0  0  0  0
  -26.9996  -24.6098   19.8623 H   0  0  0  0  0  0
  -30.2427  -23.9731   21.9342 H   0  0  0  0  0  0
  -30.8620  -24.3945   20.3397 H   0  0  0  0  0  0
  -28.2067  -21.9674   19.2022 H   0  0  0  0  0  0
  -27.5469  -21.9552   20.8302 H   0  0  0  0  0  0
  -31.4168  -21.9493   21.5352 H   0  0  0  0  0  0
  -31.2871  -22.1420   19.7989 H   0  0  0  0  0  0
  -28.9389  -15.7622   21.0816 H   0  0  0  0  0  0
  1 25  1  0  0  0
  1 30  2  0  0  0
  1 81  1  0  0  0
  2  3  1  0  0  0
  2 25  1  0  0  0
  2 83  1  0  0  0
  2 84  1  0  0  0
  3  4  1  0  0  0
  3 85  1  0  0  0
  3 86  1  0  0  0
  4  5  1  0  0  0
  4 87  1  0  0  0
  4 88  1  0  0  0
  5  6  1  0  0  0
  5 26  1  0  0  0
  5 89  1  0  0  0
  6 25  1  0  0  0
  6 90  1  0  0  0
  6 91  1  0  0  0
  7  8  2  0  0  0
  7 26  1  0  0  0
  7 29  1  0  0  0
  8  9  1  0  0  0
  8 22  1  0  0  0
  9 10  1  0  0  0
  9 27  2  0  0  0
 10 11  2  0  0  0
 10 15  1  0  0  0
 11 12  1  0  0  0
 11 92  1  0  0  0
 12 13  2  0  0  0
 12 93  1  0  0  0
 13 14  1  0  0  0
 13 31  1  0  0  0
 14 15  2  0  0  0
 14 94  1  0  0  0
 15 95  1  0  0  0
 16 17  2  0  0  0
 16 21  1  0  0  0
 16 31  1  0  0  0
 17 18  1  0  0  0
 17 96  1  0  0  0
 18 19  2  0  0  0
 18 97  1  0  0  0
 19 20  1  0  0  0
 19 24  1  0  0  0
 20 21  2  0  0  0
 20 98  1  0  0  0
 21 23  1  0  0  0
 22 28  1  0  0  0
 22 32  2  0  0  0
 26 27  1  0  0  0
 28 99  1  0  0  0
 28100  1  0  0  0
 29101  1  0  0  0
 29102  1  0  0  0
 33 34  1  0  0  0
 33 66  1  0  0  0
 33 70  2  0  0  0
 34 36  1  0  0  0
 34 59  1  0  0  0
 34103  1  0  0  0
 35 44  2  0  0  0
 35 45  1  0  0  0
 35 68  1  0  0  0
 36 56  1  0  0  0
 36104  1  0  0  0
 37 39  1  0  0  0
 37 47  1  0  0  0
 37 66  1  0  0  0
 37105  1  0  0  0
 38 43  2  0  0  0
 38 46  1  0  0  0
 38 47  1  0  0  0
 39 64  1  0  0  0
 39 67  2  0  0  0
 40 52  1  0  0  0
 40 53  2  0  0  0
 40 58  1  0  0  0
 41106  1  0  0  0
 41107  1  0  0  0
 41108  1  0  0  0
 41 48  1  0  0  0
 42 43  1  0  0  0
 42 66  1  0  0  0
 42109  1  0  0  0
 42110  1  0  0  0
 43 44  1  0  0  0
 44111  1  0  0  0
 45 46  2  0  0  0
 45112  1  0  0  0
 46113  1  0  0  0
 47114  1  0  0  0
 47115  1  0  0  0
 48 56  1  0  0  0
 48 65  1  0  0  0
 48116  1  0  0  0
 49 50  1  0  0  0
 49 53  1  0  0  0
 49 64  1  0  0  0
 49117  1  0  0  0
 50 51  1  0  0  0
 50118  1  0  0  0
 50119  1  0  0  0
 51 52  1  0  0  0
 51120  1  0  0  0
 51121  1  0  0  0
 52122  1  0  0  0
 52123  1  0  0  0
 53 54  1  0  0  0
 54 55  2  0  0  0
 54124  1  0  0  0
 55 57  1  0  0  0
 55125  1  0  0  0
 56 69  2  0  0  0
 57 58  2  0  0  0
 57126  1  0  0  0
 58127  1  0  0  0
 59 60  1  0  0  0
 59 61  1  0  0  0
 59 62  1  0  0  0
 60128  1  0  0  0
 60129  1  0  0  0
 60130  1  0  0  0
 61131  1  0  0  0
 61132  1  0  0  0
 61133  1  0  0  0
 62134  1  0  0  0
 62135  1  0  0  0
 62136  1  0  0  0
 63 65  1  0  0  0
 63137  1  0  0  0
 63138  1  0  0  0
 63139  1  0  0  0
 64140  1  0  0  0
 65141  1  0  0  0
 68 76  1  0  0  0
 71 73  1  0  0  0
 71 74  2  0  0  0
 71142  1  0  0  0
 72 73  2  0  0  0
 72 82  1  0  0  0
 72143  1  0  0  0
 73 81  1  0  0  0
 74 80  1  0  0  0
 74 82  1  0  0  0
 75 76  2  0  0  0
 75 77  1  0  0  0
 75 78  1  0  0  0
 76144  1  0  0  0
 77 79  1  0  0  0
 77145  1  0  0  0
 77146  1  0  0  0
 78 80  1  0  0  0
 78147  1  0  0  0
 78148  1  0  0  0
 79 80  1  0  0  0
 79149  1  0  0  0
 79150  1  0  0  0
 81151  1  0  0  0
M  ISO  4   1 100  68 101  76 101  81 100
M  END
> <chiral flag>
0

> <version>
0

> <s_m_source_file>
/data/baiqing/PycharmProjects/Reinvent-master-3.2/result/LINK_invent/BTK/process_docking_weight1_custom_product_contain_oxygen_bond_distance_aromatic_linkinvent_7_9_3/rearranged_h_0107.sdf

> <i_m_source_file_index>
1

> <r_mmod_Potential_Energy-OPLS-2005>
298.131317138672

> <r_mmod_Stretch_Energy-OPLS-2005>
140.947219848633

> <r_mmod_Bend_Energy-OPLS-2005>
203.779022216797

> <r_mmod_Torsional_Energy-OPLS-2005>
259.825317382812

> <r_mmod_Improper_Torsional_Energy-OPLS-2005>
7.88485336303711

> <r_mmod_Van_der_Waal_Energy-OPLS-2005>
124.259254455566

> <r_mmod_Electrostatic_Energy-OPLS-2005>
-325.909027099609

> <r_mmod_Solvation_Energy-OPLS-2005>
-231.584213256836

> <b_mmod_Minimization_Converged-OPLS-2005>
0

> <r_mmod_RMS_Derivative-OPLS-2005>
1.10461580753326

$$$$
1
                    3D
 Structure written by MMmdl.
163171  0  0  1  0            999 V2000
  -30.6920  -14.4548   20.5566 C   0  0  0  0  0  0
  -30.4164  -12.2957   19.4100 C   0  0  0  0  0  0
  -29.4856  -12.5110   18.1962 C   0  0  0  0  0  0
  -28.0081  -12.3832   18.6121 C   0  0  0  0  0  0
  -27.6631  -13.2088   19.8802 C   0  0  2  0  0  0
  -28.7044  -12.9754   20.9984 C   0  0  0  0  0  0
  -25.2611  -13.8164   20.5722 C   0  0  0  0  0  0
  -24.1844  -13.0448   20.9194 C   0  0  0  0  0  0
  -24.6392  -11.6913   20.8718 C   0  0  0  0  0  0
  -23.9073  -10.4294   21.0390 C   0  0  0  0  0  0
  -24.3621   -9.4216   21.9174 C   0  0  0  0  0  0
  -23.6293   -8.2255   22.0745 C   0  0  0  0  0  0
  -22.4280   -8.0278   21.3532 C   0  0  0  0  0  0
  -21.9914   -9.0269   20.4649 C   0  0  0  0  0  0
  -22.7247  -10.2141   20.3052 C   0  0  0  0  0  0
  -21.6859   -6.0725   22.5276 C   0  0  0  0  0  0
  -21.4022   -6.5631   23.8210 C   0  0  0  0  0  0
  -21.3653   -5.6788   24.9173 C   0  0  0  0  0  0
  -21.6049   -4.3048   24.7222 C   0  0  0  0  0  0
  -21.8822   -3.8136   23.4339 C   0  0  0  0  0  0
  -21.9199   -4.6949   22.3396 C   0  0  0  0  0  0
  -22.7870  -13.5254   21.1840 C   0  0  0  0  0  0
  -22.1673   -4.2137   21.0973 F   0  0  0  0  0  0
  -21.5627   -3.4536   25.7735 F   0  0  0  0  0  0
  -30.0375  -13.2693   20.4466 N   0  0  0  0  0  0
  -26.3040  -12.9344   20.3378 N   0  0  0  0  0  0
  -25.9319  -11.6489   20.5730 N   0  0  0  0  0  0
  -22.0508  -12.8232   22.0401 N   0  0  0  0  0  0
  -25.4334  -15.1883   20.4136 N   0  0  0  0  0  0
  -31.8202  -14.6482   20.0974 O   0  0  0  0  0  0
  -21.6632   -6.8867   21.4234 O   0  0  0  0  0  0
  -22.3550  -14.5570   20.6696 O   0  0  0  0  0  0
  -24.6130  -31.8681   23.2078 C   0  0  0  0  0  0
  -25.9036  -32.4825   23.8381 C   0  0  1  0  0  0
  -27.2356  -27.4397   20.0799 C   0  0  0  0  0  0
  -25.5905  -33.8619   24.2335 N   0  0  0  0  0  0
  -23.3992  -30.4922   21.5502 C   0  0  2  0  0  0
  -24.8427  -28.9530   20.1177 C   0  0  0  0  0  0
  -22.7391  -29.4681   22.5000 C   0  0  0  0  0  0
  -18.0283  -28.1350   22.8482 C   0  0  0  0  0  0
  -24.1489  -36.7320   23.2638 C   0  0  0  0  0  0
  -25.9262  -30.8350   21.3557 C   0  0  0  0  0  0
  -26.0010  -29.4661   20.7100 C   0  0  0  0  0  0
  -27.1958  -28.7123   20.6958 C   0  0  0  0  0  0
  -26.0519  -26.9299   19.4971 C   0  0  0  0  0  0
  -24.8621  -27.6832   19.5142 C   0  0  0  0  0  0
  -23.6032  -29.8194   20.1663 C   0  0  0  0  0  0
  -25.4105  -36.3112   24.0339 C   0  0  1  0  0  0
  -20.5861  -28.3691   23.1332 C   0  0  2  0  0  0
  -20.6777  -26.9415   22.5450 C   0  0  0  0  0  0
  -19.5797  -26.6401   21.5203 C   0  0  0  0  0  0
  -18.1967  -26.7901   22.1612 C   0  0  0  0  0  0
  -19.1513  -28.8829   23.2903 C   0  0  0  0  0  0
  -18.9435  -30.1432   23.8922 C   0  0  0  0  0  0
  -17.6433  -30.6578   24.0528 C   0  0  0  0  0  0
  -25.9038  -34.9479   23.5130 C   0  0  0  0  0  0
  -16.5339  -29.9068   23.6277 C   0  0  0  0  0  0
  -16.7273  -28.6462   23.0341 C   0  0  0  0  0  0
  -26.4464  -31.6588   25.0695 C   0  0  0  0  0  0
  -25.3706  -31.3716   26.1430 C   0  0  0  0  0  0
  -27.0283  -30.3033   24.6042 C   0  0  0  0  0  0
  -27.6061  -32.4291   25.7457 C   0  0  0  0  0  0
  -27.5582  -37.1810   24.8467 C   0  0  0  0  0  0
  -21.4118  -29.3074   22.3744 N   0  0  0  0  0  0
  -26.4296  -37.3790   23.9404 N   0  0  0  0  0  0
  -24.6659  -31.0779   22.0985 N   0  0  0  0  0  0
  -23.4170  -28.8222   23.3047 O   0  0  0  0  0  0
  -28.4419  -26.7707   20.0864 O   0  0  0  0  0  0
  -26.5610  -34.8931   22.4695 O   0  0  0  0  0  0
  -23.5330  -32.1454   23.7479 O   0  0  0  0  0  0
  -28.7655  -17.6315   22.6171 C   0  0  0  0  0  0
  -27.7278  -19.8411   22.6782 C   0  0  0  0  0  0
  -29.3021  -17.9067   21.3436 C   0  0  0  0  0  0
  -27.9754  -18.5886   23.2762 C   0  0  0  0  0  0
  -28.2548  -20.1462   21.3981 C   0  0  0  0  0  0
  -29.0286  -19.1578   20.7277 C   0  0  0  0  0  0
  -28.6048  -19.6596   18.4598 C   0  0  0  0  0  0
  -30.2092  -16.8824   20.6613 C   0  0  0  0  0  0
  -28.6635  -24.3208   20.2751 C   0  0  0  0  0  0
  -27.2963  -23.6607   20.5280 C   0  0  0  0  0  0
  -28.6370  -25.5575   19.3535 C   0  0  0  0  0  0
  -27.3829  -22.4223   21.4459 C   0  0  0  0  0  0
  -27.4571  -18.2861   24.5331 N   0  0  0  0  0  0
  -29.9428  -15.4785   20.9934 N   0  0  0  0  0  0
  -29.5595  -19.3952   19.4831 O   0  0  0  0  0  0
  -28.0798  -21.3720   20.7724 O   0  0  0  0  0  0
  -31.4573  -12.4002   19.1037 H   0  0  0  0  0  0
  -30.3175  -11.2749   19.7825 H   0  0  0  0  0  0
  -29.7090  -11.7853   17.4132 H   0  0  0  0  0  0
  -29.6598  -13.4943   17.7583 H   0  0  0  0  0  0
  -27.8084  -11.3266   18.7904 H   0  0  0  0  0  0
  -27.3610  -12.6826   17.7857 H   0  0  0  0  0  0
  -27.7093  -14.2584   19.5939 H   0  0  0  0  0  0
  -28.6643  -11.9394   21.3368 H   0  0  0  0  0  0
  -28.4778  -13.5801   21.8783 H   0  0  0  0  0  0
  -25.2763   -9.5683   22.4761 H   0  0  0  0  0  0
  -23.9989   -7.4645   22.7482 H   0  0  0  0  0  0
  -21.0837   -8.8810   19.8970 H   0  0  0  0  0  0
  -22.3716  -10.9687   19.6163 H   0  0  0  0  0  0
  -21.2025   -7.6141   23.9708 H   0  0  0  0  0  0
  -21.1468   -6.0512   25.9071 H   0  0  0  0  0  0
  -22.0603   -2.7597   23.2847 H   0  0  0  0  0  0
  -22.4070  -11.9839   22.4718 H   0  0  0  0  0  0
  -21.1133  -13.1259   22.2587 H   0  0  0  0  0  0
  -24.6782  -15.8502   20.5478 H   0  0  0  0  0  0
  -26.2869  -15.6266   20.0914 H   0  0  0  0  0  0
  -26.7110  -32.5551   23.1154 H   0  0  0  0  0  0
  -25.0034  -33.9784   25.0469 H   0  0  0  0  0  0
  -22.6902  -31.3109   21.4095 H   0  0  0  0  0  0
  -23.3733  -35.9671   23.3312 H   0  0  0  0  0  0
  -24.3594  -36.8914   22.2052 H   0  0  0  0  0  0
  -23.7252  -37.6535   23.6638 H   0  0  0  0  0  0
  -26.0248  -31.5947   20.5787 H   0  0  0  0  0  0
  -26.8206  -30.9031   21.9626 H   0  0  0  0  0  0
  -28.0947  -29.1102   21.1475 H   0  0  0  0  0  0
  -26.0155  -25.9552   19.0346 H   0  0  0  0  0  0
  -23.9674  -27.2789   19.0643 H   0  0  0  0  0  0
  -23.7057  -30.5909   19.4015 H   0  0  0  0  0  0
  -22.7269  -29.2339   19.8802 H   0  0  0  0  0  0
  -25.1270  -36.1993   25.0831 H   0  0  0  0  0  0
  -20.9949  -28.3279   24.1457 H   0  0  0  0  0  0
  -20.5637  -26.2303   23.3644 H   0  0  0  0  0  0
  -21.6671  -26.7456   22.1291 H   0  0  0  0  0  0
  -19.6995  -25.6344   21.1185 H   0  0  0  0  0  0
  -19.6755  -27.3246   20.6750 H   0  0  0  0  0  0
  -17.4226  -26.6612   21.4030 H   0  0  0  0  0  0
  -18.0431  -26.0034   22.9016 H   0  0  0  0  0  0
  -19.7900  -30.7232   24.2317 H   0  0  0  0  0  0
  -17.4985  -31.6271   24.5080 H   0  0  0  0  0  0
  -15.5331  -30.2986   23.7538 H   0  0  0  0  0  0
  -15.8677  -28.0756   22.7093 H   0  0  0  0  0  0
  -24.5889  -30.7062   25.7746 H   0  0  0  0  0  0
  -24.8876  -32.2887   26.4824 H   0  0  0  0  0  0
  -25.8019  -30.8910   27.0216 H   0  0  0  0  0  0
  -26.2826  -29.6821   24.1066 H   0  0  0  0  0  0
  -27.4050  -29.7241   25.4479 H   0  0  0  0  0  0
  -27.8658  -30.4368   23.9187 H   0  0  0  0  0  0
  -27.2704  -33.3589   26.2067 H   0  0  0  0  0  0
  -28.3853  -32.6846   25.0261 H   0  0  0  0  0  0
  -28.0745  -31.8379   26.5341 H   0  0  0  0  0  0
  -28.2601  -38.0105   24.7487 H   0  0  0  0  0  0
  -28.1075  -36.2629   24.6309 H   0  0  0  0  0  0
  -27.2308  -37.1483   25.8876 H   0  0  0  0  0  0
  -20.9263  -29.8859   21.7014 H   0  0  0  0  0  0
  -26.0191  -38.2877   24.1374 H   0  0  0  0  0  0
  -28.9769  -16.6867   23.1013 H   0  0  0  0  0  0
  -27.1341  -20.5660   23.2188 H   0  0  0  0  0  0
  -29.0472  -19.4376   17.4884 H   0  0  0  0  0  0
  -28.3008  -20.7062   18.4458 H   0  0  0  0  0  0
  -27.7130  -19.0390   18.5618 H   0  0  0  0  0  0
  -31.2415  -17.1351   20.9083 H   0  0  0  0  0  0
  -30.1085  -16.9787   19.5778 H   0  0  0  0  0  0
  -29.3152  -23.5742   19.8218 H   0  0  0  0  0  0
  -29.1330  -24.5871   21.2235 H   0  0  0  0  0  0
  -26.8412  -23.3776   19.5771 H   0  0  0  0  0  0
  -26.6251  -24.3948   20.9775 H   0  0  0  0  0  0
  -27.9798  -25.4236   18.4959 H   0  0  0  0  0  0
  -29.6318  -25.6552   18.9134 H   0  0  0  0  0  0
  -26.3716  -22.1017   21.7018 H   0  0  0  0  0  0
  -27.8952  -22.6792   22.3753 H   0  0  0  0  0  0
  -27.3950  -17.3105   24.8121 H   0  0  0  0  0  0
  -26.7077  -18.8528   24.9145 H   0  0  0  0  0  0
  -29.0256  -15.2516   21.3409 H   0  0  0  0  0  0
  1 25  1  0  0  0
  1 30  2  0  0  0
  1 84  1  0  0  0
  2  3  1  0  0  0
  2 25  1  0  0  0
  2 87  1  0  0  0
  2 88  1  0  0  0
  3  4  1  0  0  0
  3 89  1  0  0  0
  3 90  1  0  0  0
  4  5  1  0  0  0
  4 91  1  0  0  0
  4 92  1  0  0  0
  5  6  1  0  0  0
  5 26  1  0  0  0
  5 93  1  0  0  0
  6 25  1  0  0  0
  6 94  1  0  0  0
  6 95  1  0  0  0
  7  8  2  0  0  0
  7 26  1  0  0  0
  7 29  1  0  0  0
  8  9  1  0  0  0
  8 22  1  0  0  0
  9 10  1  0  0  0
  9 27  2  0  0  0
 10 11  2  0  0  0
 10 15  1  0  0  0
 11 12  1  0  0  0
 11 96  1  0  0  0
 12 13  2  0  0  0
 12 97  1  0  0  0
 13 14  1  0  0  0
 13 31  1  0  0  0
 14 15  2  0  0  0
 14 98  1  0  0  0
 15 99  1  0  0  0
 16 17  2  0  0  0
 16 21  1  0  0  0
 16 31  1  0  0  0
 17 18  1  0  0  0
 17100  1  0  0  0
 18 19  2  0  0  0
 18101  1  0  0  0
 19 20  1  0  0  0
 19 24  1  0  0  0
 20 21  2  0  0  0
 20102  1  0  0  0
 21 23  1  0  0  0
 22 28  1  0  0  0
 22 32  2  0  0  0
 26 27  1  0  0  0
 28103  1  0  0  0
 28104  1  0  0  0
 29105  1  0  0  0
 29106  1  0  0  0
 33 34  1  0  0  0
 33 66  1  0  0  0
 33 70  2  0  0  0
 34 36  1  0  0  0
 34 59  1  0  0  0
 34107  1  0  0  0
 35 44  2  0  0  0
 35 45  1  0  0  0
 35 68  1  0  0  0
 36 56  1  0  0  0
 36108  1  0  0  0
 37 39  1  0  0  0
 37 47  1  0  0  0
 37 66  1  0  0  0
 37109  1  0  0  0
 38 43  2  0  0  0
 38 46  1  0  0  0
 38 47  1  0  0  0
 39 64  1  0  0  0
 39 67  2  0  0  0
 40 52  1  0  0  0
 40 53  2  0  0  0
 40 58  1  0  0  0
 41110  1  0  0  0
 41111  1  0  0  0
 41112  1  0  0  0
 41 48  1  0  0  0
 42 43  1  0  0  0
 42 66  1  0  0  0
 42113  1  0  0  0
 42114  1  0  0  0
 43 44  1  0  0  0
 44115  1  0  0  0
 45 46  2  0  0  0
 45116  1  0  0  0
 46117  1  0  0  0
 47118  1  0  0  0
 47119  1  0  0  0
 48 56  1  0  0  0
 48 65  1  0  0  0
 48120  1  0  0  0
 49 50  1  0  0  0
 49 53  1  0  0  0
 49 64  1  0  0  0
 49121  1  0  0  0
 50 51  1  0  0  0
 50122  1  0  0  0
 50123  1  0  0  0
 51 52  1  0  0  0
 51124  1  0  0  0
 51125  1  0  0  0
 52126  1  0  0  0
 52127  1  0  0  0
 53 54  1  0  0  0
 54 55  2  0  0  0
 54128  1  0  0  0
 55 57  1  0  0  0
 55129  1  0  0  0
 56 69  2  0  0  0
 57 58  2  0  0  0
 57130  1  0  0  0
 58131  1  0  0  0
 59 60  1  0  0  0
 59 61  1  0  0  0
 59 62  1  0  0  0
 60132  1  0  0  0
 60133  1  0  0  0
 60134  1  0  0  0
 61135  1  0  0  0
 61136  1  0  0  0
 61137  1  0  0  0
 62138  1  0  0  0
 62139  1  0  0  0
 62140  1  0  0  0
 63 65  1  0  0  0
 63141  1  0  0  0
 63142  1  0  0  0
 63143  1  0  0  0
 64144  1  0  0  0
 65145  1  0  0  0
 68 81  1  0  0  0
 71 73  2  0  0  0
 71 74  1  0  0  0
 71146  1  0  0  0
 72 74  2  0  0  0
 72 75  1  0  0  0
 72147  1  0  0  0
 73 76  1  0  0  0
 73 78  1  0  0  0
 74 83  1  0  0  0
 75 76  2  0  0  0
 75 86  1  0  0  0
 76 85  1  0  0  0
 77 85  1  0  0  0
 77148  1  0  0  0
 77149  1  0  0  0
 77150  1  0  0  0
 78 84  1  0  0  0
 78151  1  0  0  0
 78152  1  0  0  0
 79 80  1  0  0  0
 79 81  1  0  0  0
 79153  1  0  0  0
 79154  1  0  0  0
 80 82  1  0  0  0
 80155  1  0  0  0
 80156  1  0  0  0
 81157  1  0  0  0
 81158  1  0  0  0
 82 86  1  0  0  0
 82159  1  0  0  0
 82160  1  0  0  0
 83161  1  0  0  0
 83162  1  0  0  0
 84163  1  0  0  0
M  ISO  4   1 100  68 101  81 101  84 100
M  END
> <chiral flag>
0

> <version>
0

> <s_m_source_file>
/data/baiqing/PycharmProjects/Reinvent-master-3.2/result/LINK_invent/BTK/process_docking_weight1_custom_product_contain_oxygen_bond_distance_aromatic_linkinvent_7_9_3/rearranged_h_0107.sdf

> <i_m_source_file_index>
2

> <r_mmod_Potential_Energy-OPLS-2005>
-106.200775146484

> <r_mmod_Stretch_Energy-OPLS-2005>
36.8453712463379

> <r_mmod_Bend_Energy-OPLS-2005>
113.16845703125

> <r_mmod_Torsional_Energy-OPLS-2005>
228.500457763672

> <r_mmod_Improper_Torsional_Energy-OPLS-2005>
8.84611129760742

> <r_mmod_Van_der_Waal_Energy-OPLS-2005>
155.914672851562

> <r_mmod_Electrostatic_Energy-OPLS-2005>
-437.928741455078

> <r_mmod_Solvation_Energy-OPLS-2005>
-223.115295410156

> <b_mmod_Minimization_Converged-OPLS-2005>
0

> <r_mmod_RMS_Derivative-OPLS-2005>
3.89364862442017

$$$$
2
                    3D
 Structure written by MMmdl.
163172  0  0  1  0            999 V2000
  -30.4416  -15.0605   20.5210 C   0  0  0  0  0  0
  -30.4678  -12.7141   19.5010 C   0  0  0  0  0  0
  -29.5367  -12.6339   18.2645 C   0  0  0  0  0  0
  -28.0625  -12.3957   18.6524 C   0  0  0  0  0  0
  -27.6440  -13.2487   19.8751 C   0  0  2  0  0  0
  -28.6856  -13.1695   21.0017 C   0  0  0  0  0  0
  -25.2507  -13.8168   20.5692 C   0  0  0  0  0  0
  -24.1832  -13.0426   20.9139 C   0  0  0  0  0  0
  -24.6443  -11.6895   20.8706 C   0  0  0  0  0  0
  -23.9157  -10.4298   21.0416 C   0  0  0  0  0  0
  -24.3712   -9.4215   21.9191 C   0  0  0  0  0  0
  -23.6337   -8.2291   22.0757 C   0  0  0  0  0  0
  -22.4308   -8.0341   21.3578 C   0  0  0  0  0  0
  -21.9972   -9.0325   20.4689 C   0  0  0  0  0  0
  -22.7314  -10.2172   20.3087 C   0  0  0  0  0  0
  -21.6860   -6.0778   22.5289 C   0  0  0  0  0  0
  -21.4013   -6.5664   23.8219 C   0  0  0  0  0  0
  -21.3637   -5.6788   24.9178 C   0  0  0  0  0  0
  -21.6041   -4.3062   24.7206 C   0  0  0  0  0  0
  -21.8823   -3.8163   23.4329 C   0  0  0  0  0  0
  -21.9195   -4.7010   22.3384 C   0  0  0  0  0  0
  -22.7876  -13.5252   21.1801 C   0  0  0  0  0  0
  -22.1696   -4.2193   21.0974 F   0  0  0  0  0  0
  -21.5613   -3.4538   25.7723 F   0  0  0  0  0  0
  -29.9271  -13.7461   20.4419 N   0  0  0  0  0  0
  -26.2980  -12.9402   20.3342 N   0  0  0  0  0  0
  -25.9380  -11.6549   20.5741 N   0  0  0  0  0  0
  -22.0556  -12.8243   22.0375 N   0  0  0  0  0  0
  -25.4135  -15.1898   20.4177 N   0  0  0  0  0  0
  -31.6035  -15.1731   20.0928 O   0  0  0  0  0  0
  -21.6651   -6.8949   21.4268 O   0  0  0  0  0  0
  -22.3621  -14.5617   20.6688 O   0  0  0  0  0  0
  -24.6268  -31.8566   23.1934 C   0  0  0  0  0  0
  -25.9092  -32.4773   23.8312 C   0  0  1  0  0  0
  -27.2229  -27.1928   20.1794 C   0  0  0  0  0  0
  -25.5896  -33.8565   24.2232 N   0  0  0  0  0  0
  -23.4229  -30.4724   21.5386 C   0  0  2  0  0  0
  -24.8852  -28.9121   20.1036 C   0  0  0  0  0  0
  -22.7434  -29.4539   22.4863 C   0  0  0  0  0  0
  -18.0222  -28.1396   22.8493 C   0  0  0  0  0  0
  -24.1478  -36.7240   23.2627 C   0  0  0  0  0  0
  -25.9715  -30.7535   21.3819 C   0  0  0  0  0  0
  -26.0522  -29.3700   20.7254 C   0  0  0  0  0  0
  -27.2186  -28.5272   20.7492 C   0  0  0  0  0  0
  -26.0373  -26.8209   19.5100 C   0  0  0  0  0  0
  -24.8882  -27.6478   19.4855 C   0  0  0  0  0  0
  -23.6485  -29.8053   20.1535 C   0  0  0  0  0  0
  -25.4103  -36.3051   24.0324 C   0  0  1  0  0  0
  -20.5834  -28.3579   23.1143 C   0  0  2  0  0  0
  -20.6621  -26.9273   22.5357 C   0  0  0  0  0  0
  -19.5511  -26.6199   21.5246 C   0  0  0  0  0  0
  -18.1720  -26.7934   22.1646 C   0  0  0  0  0  0
  -19.1530  -28.8831   23.2788 C   0  0  0  0  0  0
  -18.9506  -30.1465   23.8758 C   0  0  0  0  0  0
  -17.6526  -30.6630   24.0493 C   0  0  0  0  0  0
  -25.9050  -34.9430   23.5069 C   0  0  0  0  0  0
  -16.5361  -29.9144   23.6375 C   0  0  0  0  0  0
  -16.7232  -28.6547   23.0406 C   0  0  0  0  0  0
  -26.4444  -31.6623   25.0706 C   0  0  0  0  0  0
  -25.3645  -31.3848   26.1424 C   0  0  0  0  0  0
  -27.0284  -30.3019   24.6221 C   0  0  0  0  0  0
  -27.5970  -32.4399   25.7487 C   0  0  0  0  0  0
  -27.5559  -37.1758   24.8466 C   0  0  0  0  0  0
  -21.4168  -29.2830   22.3451 N   0  0  0  0  0  0
  -26.4274  -37.3754   23.9426 N   0  0  0  0  0  0
  -24.6906  -31.0482   22.0918 N   0  0  0  0  0  0
  -23.4100  -28.8241   23.3129 O   0  0  0  0  0  0
  -28.3002  -26.2602   20.3357 O   0  0  0  0  0  0
  -26.5647  -34.8919   22.4668 O   0  0  0  0  0  0
  -23.5426  -32.1401   23.7245 O   0  0  0  0  0  0
  -28.0938  -19.9175   21.1656 C   0  0  0  0  0  0
  -28.3198  -18.4699   21.2048 C   0  0  0  0  0  0
  -30.0946  -20.1250   19.9881 C   0  0  0  0  0  0
  -30.2843  -18.6693   19.9541 C   0  0  0  0  0  0
  -29.0224  -20.8537   20.6139 C   0  0  0  0  0  0
  -29.4593  -17.7309   20.6787 C   0  0  0  0  0  0
  -27.2897  -23.6458   21.7447 C   0  0  0  0  0  0
  -28.0935  -23.4597   20.6861 C   0  0  0  0  0  0
  -27.8509  -23.4665   23.1453 C   0  0  0  0  0  0
  -29.3853  -23.2955   23.1433 C   0  0  0  0  0  0
  -29.9963  -22.5570   21.9140 C   0  0  0  0  0  0
  -31.4003  -18.1561   19.0745 C   0  0  0  0  0  0
  -29.0392  -15.9195   22.2902 C   0  0  0  0  0  0
  -28.4071  -24.8105   19.8143 C   0  0  0  0  0  0
  -29.0607  -22.3437   20.7898 N   0  0  0  0  0  0
  -29.6602  -16.1986   20.9932 N   0  0  0  0  0  0
  -31.4737  -12.9663   19.1582 H   0  0  0  0  0  0
  -30.5743  -11.7540   20.0053 H   0  0  0  0  0  0
  -29.8933  -11.8585   17.5853 H   0  0  0  0  0  0
  -29.5976  -13.5846   17.7252 H   0  0  0  0  0  0
  -27.9426  -11.3383   18.8694 H   0  0  0  0  0  0
  -27.4192  -12.6234   17.8030 H   0  0  0  0  0  0
  -27.6290  -14.2840   19.5340 H   0  0  0  0  0  0
  -28.8317  -12.1372   21.3244 H   0  0  0  0  0  0
  -28.3277  -13.6339   21.9108 H   0  0  0  0  0  0
  -25.2906   -9.5640   22.4732 H   0  0  0  0  0  0
  -24.0036   -7.4671   22.7447 H   0  0  0  0  0  0
  -21.0894   -8.8883   19.9005 H   0  0  0  0  0  0
  -22.3830  -10.9735   19.6193 H   0  0  0  0  0  0
  -21.2039   -7.6170   23.9735 H   0  0  0  0  0  0
  -21.1436   -6.0529   25.9071 H   0  0  0  0  0  0
  -22.0617   -2.7636   23.2796 H   0  0  0  0  0  0
  -22.4216  -11.9960   22.4805 H   0  0  0  0  0  0
  -21.1222  -13.1286   22.2663 H   0  0  0  0  0  0
  -24.6381  -15.8295   20.5529 H   0  0  0  0  0  0
  -26.2570  -15.6405   20.0890 H   0  0  0  0  0  0
  -26.7097  -32.5396   23.0989 H   0  0  0  0  0  0
  -25.0108  -33.9738   25.0421 H   0  0  0  0  0  0
  -22.7108  -31.2895   21.4026 H   0  0  0  0  0  0
  -23.3766  -35.9552   23.3321 H   0  0  0  0  0  0
  -24.3551  -36.8832   22.2021 H   0  0  0  0  0  0
  -23.7201  -37.6420   23.6688 H   0  0  0  0  0  0
  -26.1078  -31.5122   20.6128 H   0  0  0  0  0  0
  -26.8445  -30.8098   22.0185 H   0  0  0  0  0  0
  -28.0990  -28.8788   21.2699 H   0  0  0  0  0  0
  -25.9554  -25.8438   19.0571 H   0  0  0  0  0  0
  -23.9889  -27.2844   19.0094 H   0  0  0  0  0  0
  -23.7553  -30.5876   19.3997 H   0  0  0  0  0  0
  -22.7666  -29.2353   19.8559 H   0  0  0  0  0  0
  -25.1281  -36.1855   25.0817 H   0  0  0  0  0  0
  -20.9937  -28.3185   24.1250 H   0  0  0  0  0  0
  -20.5497  -26.2233   23.3622 H   0  0  0  0  0  0
  -21.6433  -26.7226   22.1069 H   0  0  0  0  0  0
  -19.6530  -25.6024   21.1485 H   0  0  0  0  0  0
  -19.6427  -27.2787   20.6610 H   0  0  0  0  0  0
  -17.3957  -26.6764   21.4054 H   0  0  0  0  0  0
  -18.0019  -26.0098   22.9067 H   0  0  0  0  0  0
  -19.8022  -30.7304   24.1976 H   0  0  0  0  0  0
  -17.5131  -31.6355   24.5032 H   0  0  0  0  0  0
  -15.5357  -30.3056   23.7784 H   0  0  0  0  0  0
  -15.8579  -28.0889   22.7187 H   0  0  0  0  0  0
  -24.5761  -30.7268   25.7750 H   0  0  0  0  0  0
  -24.8900  -32.3067   26.4794 H   0  0  0  0  0  0
  -25.7884  -30.9003   27.0221 H   0  0  0  0  0  0
  -26.2897  -29.6767   24.1162 H   0  0  0  0  0  0
  -27.3852  -29.7279   25.4776 H   0  0  0  0  0  0
  -27.8840  -30.4283   23.9587 H   0  0  0  0  0  0
  -27.2552  -33.3711   26.2045 H   0  0  0  0  0  0
  -28.3799  -32.6928   25.0332 H   0  0  0  0  0  0
  -28.0647  -31.8533   26.5396 H   0  0  0  0  0  0
  -28.2579  -38.0034   24.7491 H   0  0  0  0  0  0
  -28.1047  -36.2555   24.6344 H   0  0  0  0  0  0
  -27.2310  -37.1487   25.8880 H   0  0  0  0  0  0
  -20.9430  -29.8166   21.6279 H   0  0  0  0  0  0
  -26.0120  -38.2833   24.1428 H   0  0  0  0  0  0
  -27.1946  -20.3171   21.6195 H   0  0  0  0  0  0
  -27.5428  -17.8984   21.6920 H   0  0  0  0  0  0
  -30.8313  -20.7420   19.4972 H   0  0  0  0  0  0
  -26.5901  -22.8203   21.7909 H   0  0  0  0  0  0
  -27.3690  -22.6057   23.6095 H   0  0  0  0  0  0
  -27.5702  -24.3310   23.7532 H   0  0  0  0  0  0
  -29.6865  -22.8091   24.0731 H   0  0  0  0  0  0
  -29.8425  -24.2859   23.1822 H   0  0  0  0  0  0
  -30.4676  -21.6373   22.2710 H   0  0  0  0  0  0
  -30.8093  -23.1775   21.5420 H   0  0  0  0  0  0
  -31.0022  -17.4391   18.3511 H   0  0  0  0  0  0
  -32.1749  -17.6819   19.6754 H   0  0  0  0  0  0
  -31.8594  -18.9668   18.5066 H   0  0  0  0  0  0
  -29.0357  -16.7837   22.9469 H   0  0  0  0  0  0
  -27.9897  -15.6737   22.1199 H   0  0  0  0  0  0
  -29.5632  -15.1413   22.8564 H   0  0  0  0  0  0
  -27.8324  -24.7378   18.8941 H   0  0  0  0  0  0
  -29.4411  -24.7139   19.4789 H   0  0  0  0  0  0
  1 25  1  0  0  0
  1 30  2  0  0  0
  1 86  1  0  0  0
  2  3  1  0  0  0
  2 25  1  0  0  0
  2 87  1  0  0  0
  2 88  1  0  0  0
  3  4  1  0  0  0
  3 89  1  0  0  0
  3 90  1  0  0  0
  4  5  1  0  0  0
  4 91  1  0  0  0
  4 92  1  0  0  0
  5  6  1  0  0  0
  5 26  1  0  0  0
  5 93  1  0  0  0
  6 25  1  0  0  0
  6 94  1  0  0  0
  6 95  1  0  0  0
  7  8  2  0  0  0
  7 26  1  0  0  0
  7 29  1  0  0  0
  8  9  1  0  0  0
  8 22  1  0  0  0
  9 10  1  0  0  0
  9 27  2  0  0  0
 10 11  2  0  0  0
 10 15  1  0  0  0
 11 12  1  0  0  0
 11 96  1  0  0  0
 12 13  2  0  0  0
 12 97  1  0  0  0
 13 14  1  0  0  0
 13 31  1  0  0  0
 14 15  2  0  0  0
 14 98  1  0  0  0
 15 99  1  0  0  0
 16 17  2  0  0  0
 16 21  1  0  0  0
 16 31  1  0  0  0
 17 18  1  0  0  0
 17100  1  0  0  0
 18 19  2  0  0  0
 18101  1  0  0  0
 19 20  1  0  0  0
 19 24  1  0  0  0
 20 21  2  0  0  0
 20102  1  0  0  0
 21 23  1  0  0  0
 22 28  1  0  0  0
 22 32  2  0  0  0
 26 27  1  0  0  0
 28103  1  0  0  0
 28104  1  0  0  0
 29105  1  0  0  0
 29106  1  0  0  0
 33 34  1  0  0  0
 33 66  1  0  0  0
 33 70  2  0  0  0
 34 36  1  0  0  0
 34 59  1  0  0  0
 34107  1  0  0  0
 35 44  2  0  0  0
 35 45  1  0  0  0
 35 68  1  0  0  0
 36 56  1  0  0  0
 36108  1  0  0  0
 37 39  1  0  0  0
 37 47  1  0  0  0
 37 66  1  0  0  0
 37109  1  0  0  0
 38 43  2  0  0  0
 38 46  1  0  0  0
 38 47  1  0  0  0
 39 64  1  0  0  0
 39 67  2  0  0  0
 40 52  1  0  0  0
 40 53  2  0  0  0
 40 58  1  0  0  0
 41110  1  0  0  0
 41111  1  0  0  0
 41112  1  0  0  0
 41 48  1  0  0  0
 42 43  1  0  0  0
 42 66  1  0  0  0
 42113  1  0  0  0
 42114  1  0  0  0
 43 44  1  0  0  0
 44115  1  0  0  0
 45 46  2  0  0  0
 45116  1  0  0  0
 46117  1  0  0  0
 47118  1  0  0  0
 47119  1  0  0  0
 48 56  1  0  0  0
 48 65  1  0  0  0
 48120  1  0  0  0
 49 50  1  0  0  0
 49 53  1  0  0  0
 49 64  1  0  0  0
 49121  1  0  0  0
 50 51  1  0  0  0
 50122  1  0  0  0
 50123  1  0  0  0
 51 52  1  0  0  0
 51124  1  0  0  0
 51125  1  0  0  0
 52126  1  0  0  0
 52127  1  0  0  0
 53 54  1  0  0  0
 54 55  2  0  0  0
 54128  1  0  0  0
 55 57  1  0  0  0
 55129  1  0  0  0
 56 69  2  0  0  0
 57 58  2  0  0  0
 57130  1  0  0  0
 58131  1  0  0  0
 59 60  1  0  0  0
 59 61  1  0  0  0
 59 62  1  0  0  0
 60132  1  0  0  0
 60133  1  0  0  0
 60134  1  0  0  0
 61135  1  0  0  0
 61136  1  0  0  0
 61137  1  0  0  0
 62138  1  0  0  0
 62139  1  0  0  0
 62140  1  0  0  0
 63 65  1  0  0  0
 63141  1  0  0  0
 63142  1  0  0  0
 63143  1  0  0  0
 64144  1  0  0  0
 65145  1  0  0  0
 68 84  1  0  0  0
 71 72  2  0  0  0
 71 75  1  0  0  0
 71146  1  0  0  0
 72 76  1  0  0  0
 72147  1  0  0  0
 73 74  1  0  0  0
 73 75  2  0  0  0
 73148  1  0  0  0
 74 76  2  0  0  0
 74 82  1  0  0  0
 75 85  1  0  0  0
 76 86  1  0  0  0
 77 78  2  0  0  0
 77 79  1  0  0  0
 77149  1  0  0  0
 78 84  1  0  0  0
 78 85  1  0  0  0
 79 80  1  0  0  0
 79150  1  0  0  0
 79151  1  0  0  0
 80 81  1  0  0  0
 80152  1  0  0  0
 80153  1  0  0  0
 81 85  1  0  0  0
 81154  1  0  0  0
 81155  1  0  0  0
 82156  1  0  0  0
 82157  1  0  0  0
 82158  1  0  0  0
 83 86  1  0  0  0
 83159  1  0  0  0
 83160  1  0  0  0
 83161  1  0  0  0
 84162  1  0  0  0
 84163  1  0  0  0
M  ISO  4   1 100  68 101  84 101  86 100
M  END
> <chiral flag>
0

> <version>
0

> <s_m_source_file>
/data/baiqing/PycharmProjects/Reinvent-master-3.2/result/LINK_invent/BTK/process_docking_weight1_custom_product_contain_oxygen_bond_distance_aromatic_linkinvent_7_9_3/rearranged_h_0107.sdf

> <i_m_source_file_index>
3

> <r_mmod_Potential_Energy-OPLS-2005>
1041.41625976562

> <r_mmod_Stretch_Energy-OPLS-2005>
264.071502685547

> <r_mmod_Bend_Energy-OPLS-2005>
363.496673583984

> <r_mmod_Torsional_Energy-OPLS-2005>
511.6650390625

> <r_mmod_Improper_Torsional_Energy-OPLS-2005>
15.6761178970337

> <r_mmod_Van_der_Waal_Energy-OPLS-2005>
169.086349487305

> <r_mmod_Electrostatic_Energy-OPLS-2005>
-310.307067871094

> <r_mmod_Solvation_Energy-OPLS-2005>
-188.288665771484

> <b_mmod_Minimization_Converged-OPLS-2005>
0

> <r_mmod_RMS_Derivative-OPLS-2005>
9.84856224060059

$$$$
3
                    3D
 Structure written by MMmdl.
157165  0  0  1  0            999 V2000
  -30.7175  -14.5304   20.4890 C   0  0  0  0  0  0
  -30.4092  -12.3064   19.4509 C   0  0  0  0  0  0
  -29.4864  -12.4273   18.2198 C   0  0  0  0  0  0
  -28.0176  -12.2236   18.6431 C   0  0  0  0  0  0
  -27.6234  -13.1409   19.8230 C   0  0  2  0  0  0
  -28.6748  -13.0885   20.9616 C   0  0  0  0  0  0
  -25.2552  -13.7953   20.5646 C   0  0  0  0  0  0
  -24.1766  -13.0329   20.9206 C   0  0  0  0  0  0
  -24.6254  -11.6765   20.8825 C   0  0  0  0  0  0
  -23.8930  -10.4200   21.0499 C   0  0  0  0  0  0
  -24.3513   -9.4110   21.9256 C   0  0  0  0  0  0
  -23.6206   -8.2148   22.0776 C   0  0  0  0  0  0
  -22.4204   -8.0207   21.3543 C   0  0  0  0  0  0
  -21.9826   -9.0189   20.4651 C   0  0  0  0  0  0
  -22.7139  -10.2060   20.3093 C   0  0  0  0  0  0
  -21.6801   -6.0695   22.5287 C   0  0  0  0  0  0
  -21.3969   -6.5614   23.8219 C   0  0  0  0  0  0
  -21.3651   -5.6772   24.9197 C   0  0  0  0  0  0
  -21.6052   -4.3043   24.7245 C   0  0  0  0  0  0
  -21.8817   -3.8111   23.4375 C   0  0  0  0  0  0
  -21.9170   -4.6927   22.3412 C   0  0  0  0  0  0
  -22.7803  -13.5198   21.1898 C   0  0  0  0  0  0
  -22.1641   -4.2103   21.0988 F   0  0  0  0  0  0
  -21.5645   -3.4543   25.7774 F   0  0  0  0  0  0
  -30.0107  -13.3608   20.3988 N   0  0  0  0  0  0
  -26.2817  -12.8944   20.3185 N   0  0  0  0  0  0
  -25.9128  -11.6203   20.5789 N   0  0  0  0  0  0
  -22.0421  -12.8236   22.0458 N   0  0  0  0  0  0
  -25.4446  -15.1652   20.4031 N   0  0  0  0  0  0
  -31.9075  -14.6132   20.1813 O   0  0  0  0  0  0
  -21.6568   -6.8823   21.4235 O   0  0  0  0  0  0
  -22.3536  -14.5538   20.6745 O   0  0  0  0  0  0
  -24.6189  -31.8636   23.2064 C   0  0  0  0  0  0
  -25.9075  -32.4781   23.8335 C   0  0  1  0  0  0
  -27.2163  -27.3999   20.0903 C   0  0  0  0  0  0
  -25.5937  -33.8575   24.2285 N   0  0  0  0  0  0
  -23.4035  -30.4938   21.5447 C   0  0  2  0  0  0
  -24.8424  -28.9585   20.1025 C   0  0  0  0  0  0
  -22.7400  -29.4693   22.4928 C   0  0  0  0  0  0
  -18.0285  -28.1361   22.8487 C   0  0  0  0  0  0
  -24.1466  -36.7285   23.2643 C   0  0  0  0  0  0
  -25.9359  -30.8145   21.3633 C   0  0  0  0  0  0
  -26.0002  -29.4461   20.7171 C   0  0  0  0  0  0
  -27.1838  -28.6693   20.7169 C   0  0  0  0  0  0
  -26.0442  -26.9518   19.4317 C   0  0  0  0  0  0
  -24.8617  -27.7146   19.4533 C   0  0  0  0  0  0
  -23.6065  -29.8298   20.1561 C   0  0  0  0  0  0
  -25.4083  -36.3063   24.0333 C   0  0  1  0  0  0
  -20.5875  -28.3668   23.1270 C   0  0  2  0  0  0
  -20.6749  -26.9389   22.5391 C   0  0  0  0  0  0
  -19.5739  -26.6375   21.5179 C   0  0  0  0  0  0
  -18.1921  -26.7913   22.1592 C   0  0  0  0  0  0
  -19.1534  -28.8825   23.2897 C   0  0  0  0  0  0
  -18.9469  -30.1423   23.8915 C   0  0  0  0  0  0
  -17.6473  -30.6573   24.0567 C   0  0  0  0  0  0
  -25.9025  -34.9454   23.5101 C   0  0  0  0  0  0
  -16.5363  -29.9069   23.6342 C   0  0  0  0  0  0
  -16.7276  -28.6484   23.0369 C   0  0  0  0  0  0
  -26.4494  -31.6576   25.0684 C   0  0  0  0  0  0
  -25.3792  -31.3696   26.1467 C   0  0  0  0  0  0
  -27.0318  -30.3008   24.6070 C   0  0  0  0  0  0
  -27.6068  -32.4307   25.7451 C   0  0  0  0  0  0
  -27.5556  -37.1778   24.8478 C   0  0  0  0  0  0
  -21.4133  -29.3058   22.3670 N   0  0  0  0  0  0
  -26.4252  -37.3772   23.9443 N   0  0  0  0  0  0
  -24.6711  -31.0729   22.0957 N   0  0  0  0  0  0
  -23.4160  -28.8205   23.2961 O   0  0  0  0  0  0
  -28.3955  -26.6714   20.1393 O   0  0  0  0  0  0
  -26.5583  -34.8926   22.4657 O   0  0  0  0  0  0
  -23.5385  -32.1399   23.7459 O   0  0  0  0  0  0
  -31.5534  -18.2714   23.1110 C   0  0  0  0  0  0
  -31.1374  -19.5065   22.5744 C   0  0  0  0  0  0
  -30.0229  -18.3089   20.7995 C   0  0  0  0  0  0
  -30.4143  -17.0386   21.3185 C   0  0  0  0  0  0
  -31.1870  -17.0361   22.5221 C   0  0  0  0  0  0
  -30.3439  -19.5320   21.4123 C   0  0  0  0  0  0
  -29.8980  -15.8384   20.5584 C   0  0  0  0  0  0
  -29.1124  -22.9093   20.5695 C   0  0  0  0  0  0
  -29.0429  -24.4072   20.9682 C   0  0  0  0  0  0
  -29.9522  -21.9492   21.4474 C   0  0  0  0  0  0
  -28.3999  -25.2574   19.8407 C   0  0  0  0  0  0
  -28.8556  -15.9831   19.8507 N   0  0  0  0  0  0
  -31.5929  -15.8776   23.1981 N   0  0  0  0  0  0
  -29.8457  -20.6722   20.8111 O   0  0  0  0  0  0
  -31.4569  -12.3731   19.1556 H   0  0  0  0  0  0
  -30.2907  -11.3261   19.9147 H   0  0  0  0  0  0
  -29.7605  -11.6753   17.4785 H   0  0  0  0  0  0
  -29.6166  -13.3981   17.7382 H   0  0  0  0  0  0
  -27.9046  -11.1807   18.9406 H   0  0  0  0  0  0
  -27.3466  -12.3684   17.7950 H   0  0  0  0  0  0
  -27.5603  -14.1095   19.3562 H   0  0  0  0  0  0
  -28.6657  -12.1074   21.4364 H   0  0  0  0  0  0
  -28.4166  -13.7994   21.7486 H   0  0  0  0  0  0
  -25.2654   -9.5573   22.4837 H   0  0  0  0  0  0
  -23.9911   -7.4515   22.7465 H   0  0  0  0  0  0
  -21.0774   -8.8701   19.8932 H   0  0  0  0  0  0
  -22.3639  -10.9619   19.6197 H   0  0  0  0  0  0
  -21.1931   -7.6122   23.9715 H   0  0  0  0  0  0
  -21.1488   -6.0508   25.9096 H   0  0  0  0  0  0
  -22.0603   -2.7572   23.2892 H   0  0  0  0  0  0
  -22.3957  -11.9850   22.4849 H   0  0  0  0  0  0
  -21.1063  -13.1312   22.2679 H   0  0  0  0  0  0
  -24.6906  -15.8388   20.4904 H   0  0  0  0  0  0
  -26.3305  -15.5904   20.1473 H   0  0  0  0  0  0
  -26.7161  -32.5442   23.1087 H   0  0  0  0  0  0
  -25.0134  -33.9726   25.0466 H   0  0  0  0  0  0
  -22.6989  -31.3169   21.4060 H   0  0  0  0  0  0
  -23.3719  -35.9631   23.3303 H   0  0  0  0  0  0
  -24.3574  -36.8879   22.2060 H   0  0  0  0  0  0
  -23.7222  -37.6494   23.6656 H   0  0  0  0  0  0
  -26.0518  -31.5686   20.5837 H   0  0  0  0  0  0
  -26.8285  -30.8686   21.9733 H   0  0  0  0  0  0
  -28.0713  -29.0328   21.2125 H   0  0  0  0  0  0
  -26.0048  -26.0324   18.8672 H   0  0  0  0  0  0
  -23.9783  -27.3547   18.9419 H   0  0  0  0  0  0
  -23.7084  -30.6053   19.3949 H   0  0  0  0  0  0
  -22.7283  -29.2510   19.8633 H   0  0  0  0  0  0
  -25.1249  -36.1907   25.0822 H   0  0  0  0  0  0
  -21.0005  -28.3236   24.1374 H   0  0  0  0  0  0
  -20.5584  -26.2290   23.3592 H   0  0  0  0  0  0
  -21.6626  -26.7376   22.1213 H   0  0  0  0  0  0
  -19.6889  -25.6295   21.1190 H   0  0  0  0  0  0
  -19.6664  -27.3206   20.6732 H   0  0  0  0  0  0
  -17.4177  -26.6688   21.4001 H   0  0  0  0  0  0
  -18.0322  -26.0030   22.8964 H   0  0  0  0  0  0
  -19.7958  -30.7228   24.2267 H   0  0  0  0  0  0
  -17.5047  -31.6251   24.5172 H   0  0  0  0  0  0
  -15.5369  -30.2988   23.7661 H   0  0  0  0  0  0
  -15.8665  -28.0802   22.7104 H   0  0  0  0  0  0
  -24.5995  -30.6963   25.7870 H   0  0  0  0  0  0
  -24.8957  -32.2861   26.4876 H   0  0  0  0  0  0
  -25.8202  -30.8945   27.0239 H   0  0  0  0  0  0
  -26.2816  -29.6738   24.1226 H   0  0  0  0  0  0
  -27.4193  -29.7275   25.4500 H   0  0  0  0  0  0
  -27.8614  -30.4296   23.9111 H   0  0  0  0  0  0
  -27.2663  -33.3606   26.2014 H   0  0  0  0  0  0
  -28.3889  -32.6857   25.0292 H   0  0  0  0  0  0
  -28.0719  -31.8435   26.5373 H   0  0  0  0  0  0
  -28.2587  -38.0067   24.7519 H   0  0  0  0  0  0
  -28.1016  -36.2594   24.6271 H   0  0  0  0  0  0
  -27.2290  -37.1400   25.8887 H   0  0  0  0  0  0
  -20.9261  -29.8795   21.6922 H   0  0  0  0  0  0
  -26.0111  -38.2829   24.1489 H   0  0  0  0  0  0
  -32.1528  -18.2926   24.0109 H   0  0  0  0  0  0
  -31.4306  -20.4217   23.0657 H   0  0  0  0  0  0
  -29.4238  -18.3728   19.9004 H   0  0  0  0  0  0
  -29.5050  -22.8423   19.5544 H   0  0  0  0  0  0
  -28.0946  -22.5222   20.5134 H   0  0  0  0  0  0
  -30.0400  -24.7884   21.1918 H   0  0  0  0  0  0
  -28.4576  -24.5134   21.8827 H   0  0  0  0  0  0
  -29.5725  -21.9139   22.4696 H   0  0  0  0  0  0
  -30.9979  -22.2623   21.4839 H   0  0  0  0  0  0
  -27.4206  -24.8240   19.6516 H   0  0  0  0  0  0
  -28.9684  -25.1178   18.9188 H   0  0  0  0  0  0
  -28.6979  -15.1401   19.3119 H   0  0  0  0  0  0
  -31.9470  -15.9646   24.1468 H   0  0  0  0  0  0
  -31.1187  -14.9938   23.0502 H   0  0  0  0  0  0
  1 25  1  0  0  0
  1 30  2  0  0  0
  1 77  1  0  0  0
  2  3  1  0  0  0
  2 25  1  0  0  0
  2 85  1  0  0  0
  2 86  1  0  0  0
  3  4  1  0  0  0
  3 87  1  0  0  0
  3 88  1  0  0  0
  4  5  1  0  0  0
  4 89  1  0  0  0
  4 90  1  0  0  0
  5  6  1  0  0  0
  5 26  1  0  0  0
  5 91  1  0  0  0
  6 25  1  0  0  0
  6 92  1  0  0  0
  6 93  1  0  0  0
  7  8  2  0  0  0
  7 26  1  0  0  0
  7 29  1  0  0  0
  8  9  1  0  0  0
  8 22  1  0  0  0
  9 10  1  0  0  0
  9 27  2  0  0  0
 10 11  2  0  0  0
 10 15  1  0  0  0
 11 12  1  0  0  0
 11 94  1  0  0  0
 12 13  2  0  0  0
 12 95  1  0  0  0
 13 14  1  0  0  0
 13 31  1  0  0  0
 14 15  2  0  0  0
 14 96  1  0  0  0
 15 97  1  0  0  0
 16 17  2  0  0  0
 16 21  1  0  0  0
 16 31  1  0  0  0
 17 18  1  0  0  0
 17 98  1  0  0  0
 18 19  2  0  0  0
 18 99  1  0  0  0
 19 20  1  0  0  0
 19 24  1  0  0  0
 20 21  2  0  0  0
 20100  1  0  0  0
 21 23  1  0  0  0
 22 28  1  0  0  0
 22 32  2  0  0  0
 26 27  1  0  0  0
 28101  1  0  0  0
 28102  1  0  0  0
 29103  1  0  0  0
 29104  1  0  0  0
 33 34  1  0  0  0
 33 66  1  0  0  0
 33 70  2  0  0  0
 34 36  1  0  0  0
 34 59  1  0  0  0
 34105  1  0  0  0
 35 44  2  0  0  0
 35 45  1  0  0  0
 35 68  1  0  0  0
 36 56  1  0  0  0
 36106  1  0  0  0
 37 39  1  0  0  0
 37 47  1  0  0  0
 37 66  1  0  0  0
 37107  1  0  0  0
 38 43  2  0  0  0
 38 46  1  0  0  0
 38 47  1  0  0  0
 39 64  1  0  0  0
 39 67  2  0  0  0
 40 52  1  0  0  0
 40 53  2  0  0  0
 40 58  1  0  0  0
 41108  1  0  0  0
 41109  1  0  0  0
 41110  1  0  0  0
 41 48  1  0  0  0
 42 43  1  0  0  0
 42 66  1  0  0  0
 42111  1  0  0  0
 42112  1  0  0  0
 43 44  1  0  0  0
 44113  1  0  0  0
 45 46  2  0  0  0
 45114  1  0  0  0
 46115  1  0  0  0
 47116  1  0  0  0
 47117  1  0  0  0
 48 56  1  0  0  0
 48 65  1  0  0  0
 48118  1  0  0  0
 49 50  1  0  0  0
 49 53  1  0  0  0
 49 64  1  0  0  0
 49119  1  0  0  0
 50 51  1  0  0  0
 50120  1  0  0  0
 50121  1  0  0  0
 51 52  1  0  0  0
 51122  1  0  0  0
 51123  1  0  0  0
 52124  1  0  0  0
 52125  1  0  0  0
 53 54  1  0  0  0
 54 55  2  0  0  0
 54126  1  0  0  0
 55 57  1  0  0  0
 55127  1  0  0  0
 56 69  2  0  0  0
 57 58  2  0  0  0
 57128  1  0  0  0
 58129  1  0  0  0
 59 60  1  0  0  0
 59 61  1  0  0  0
 59 62  1  0  0  0
 60130  1  0  0  0
 60131  1  0  0  0
 60132  1  0  0  0
 61133  1  0  0  0
 61134  1  0  0  0
 61135  1  0  0  0
 62136  1  0  0  0
 62137  1  0  0  0
 62138  1  0  0  0
 63 65  1  0  0  0
 63139  1  0  0  0
 63140  1  0  0  0
 63141  1  0  0  0
 64142  1  0  0  0
 65143  1  0  0  0
 68 81  1  0  0  0
 71 72  2  0  0  0
 71 75  1  0  0  0
 71144  1  0  0  0
 72 76  1  0  0  0
 72145  1  0  0  0
 73 74  1  0  0  0
 73 76  2  0  0  0
 73146  1  0  0  0
 74 75  2  0  0  0
 74 77  1  0  0  0
 75 83  1  0  0  0
 76 84  1  0  0  0
 77 82  2  0  0  0
 78 79  1  0  0  0
 78 80  1  0  0  0
 78147  1  0  0  0
 78148  1  0  0  0
 79 81  1  0  0  0
 79149  1  0  0  0
 79150  1  0  0  0
 80 84  1  0  0  0
 80151  1  0  0  0
 80152  1  0  0  0
 81153  1  0  0  0
 81154  1  0  0  0
 82155  1  0  0  0
 83156  1  0  0  0
 83157  1  0  0  0
M  ISO  4   1 100  68 101  77 100  81 101
M  END
> <chiral flag>
0

> <version>
0

> <s_m_source_file>
/data/baiqing/PycharmProjects/Reinvent-master-3.2/result/LINK_invent/BTK/process_docking_weight1_custom_product_contain_oxygen_bond_distance_aromatic_linkinvent_7_9_3/rearranged_h_0107.sdf

> <i_m_source_file_index>
4

> <r_mmod_Potential_Energy-OPLS-2005>
172.251586914062

> <r_mmod_Stretch_Energy-OPLS-2005>
47.1577339172363

> <r_mmod_Bend_Energy-OPLS-2005>
143.449172973633

> <r_mmod_Torsional_Energy-OPLS-2005>
208.498352050781

> <r_mmod_Improper_Torsional_Energy-OPLS-2005>
14.5609312057495

> <r_mmod_Van_der_Waal_Energy-OPLS-2005>
178.037200927734

> <r_mmod_Electrostatic_Energy-OPLS-2005>
-245.374160766602

> <r_mmod_Solvation_Energy-OPLS-2005>
-208.010864257812

> <b_mmod_Minimization_Converged-OPLS-2005>
0

> <r_mmod_RMS_Derivative-OPLS-2005>
4.22738695144653

$$$$
4
                    3D
 Structure written by MMmdl.
167176  0  0  1  0            999 V2000
  -30.7624  -14.4145   20.6436 C   0  0  0  0  0  0
  -30.4094  -12.3075   19.3972 C   0  0  0  0  0  0
  -29.4827  -12.5204   18.1876 C   0  0  0  0  0  0
  -28.0068  -12.3725   18.6046 C   0  0  0  0  0  0
  -27.6590  -13.1976   19.8715 C   0  0  2  0  0  0
  -28.7035  -12.9726   20.9897 C   0  0  0  0  0  0
  -25.2610  -13.8128   20.5660 C   0  0  0  0  0  0
  -24.1844  -13.0425   20.9159 C   0  0  0  0  0  0
  -24.6365  -11.6874   20.8717 C   0  0  0  0  0  0
  -23.9011  -10.4266   21.0370 C   0  0  0  0  0  0
  -24.3565   -9.4190   21.9156 C   0  0  0  0  0  0
  -23.6248   -8.2233   22.0738 C   0  0  0  0  0  0
  -22.4224   -8.0260   21.3545 C   0  0  0  0  0  0
  -21.9856   -9.0219   20.4645 C   0  0  0  0  0  0
  -22.7164  -10.2096   20.3035 C   0  0  0  0  0  0
  -21.6842   -6.0712   22.5263 C   0  0  0  0  0  0
  -21.4011   -6.5631   23.8201 C   0  0  0  0  0  0
  -21.3652   -5.6785   24.9167 C   0  0  0  0  0  0
  -21.6026   -4.3047   24.7213 C   0  0  0  0  0  0
  -21.8809   -3.8125   23.4333 C   0  0  0  0  0  0
  -21.9174   -4.6950   22.3388 C   0  0  0  0  0  0
  -22.7869  -13.5261   21.1808 C   0  0  0  0  0  0
  -22.1661   -4.2127   21.0964 F   0  0  0  0  0  0
  -21.5639   -3.4527   25.7725 F   0  0  0  0  0  0
  -30.0340  -13.2800   20.4347 N   0  0  0  0  0  0
  -26.3015  -12.9263   20.3346 N   0  0  0  0  0  0
  -25.9290  -11.6427   20.5769 N   0  0  0  0  0  0
  -22.0498  -12.8282   22.0370 N   0  0  0  0  0  0
  -25.4416  -15.1830   20.4063 N   0  0  0  0  0  0
  -31.8453  -14.6188   20.0819 O   0  0  0  0  0  0
  -21.6620   -6.8843   21.4220 O   0  0  0  0  0  0
  -22.3568  -14.5564   20.6619 O   0  0  0  0  0  0
  -24.6121  -31.8716   23.2152 C   0  0  0  0  0  0
  -25.9030  -32.4836   23.8435 C   0  0  1  0  0  0
  -27.2421  -27.4746   20.0900 C   0  0  0  0  0  0
  -25.5899  -33.8630   24.2371 N   0  0  0  0  0  0
  -23.4000  -30.4989   21.5529 C   0  0  2  0  0  0
  -24.8488  -28.9669   20.1185 C   0  0  0  0  0  0
  -22.7378  -29.4723   22.4992 C   0  0  0  0  0  0
  -18.0284  -28.1296   22.8569 C   0  0  0  0  0  0
  -24.1490  -36.7313   23.2644 C   0  0  0  0  0  0
  -25.9261  -30.8485   21.3654 C   0  0  0  0  0  0
  -26.0053  -29.4837   20.7168 C   0  0  0  0  0  0
  -27.2057  -28.7429   20.7080 C   0  0  0  0  0  0
  -26.0766  -26.9636   19.4842 C   0  0  0  0  0  0
  -24.8753  -27.6996   19.5063 C   0  0  0  0  0  0
  -23.6125  -29.8371   20.1648 C   0  0  0  0  0  0
  -25.4110  -36.3119   24.0354 C   0  0  1  0  0  0
  -20.5875  -28.3685   23.1268 C   0  0  2  0  0  0
  -20.6866  -26.9473   22.5241 C   0  0  0  0  0  0
  -19.5697  -26.6318   21.5229 C   0  0  0  0  0  0
  -18.1963  -26.7774   22.1861 C   0  0  0  0  0  0
  -19.1519  -28.8823   23.2875 C   0  0  0  0  0  0
  -18.9436  -30.1462   23.8802 C   0  0  0  0  0  0
  -17.6432  -30.6589   24.0453 C   0  0  0  0  0  0
  -25.9031  -34.9480   23.5162 C   0  0  0  0  0  0
  -16.5335  -29.9042   23.6260 C   0  0  0  0  0  0
  -16.7264  -28.6411   23.0397 C   0  0  0  0  0  0
  -26.4492  -31.6570   25.0718 C   0  0  0  0  0  0
  -25.3790  -31.3622   26.1477 C   0  0  0  0  0  0
  -27.0318  -30.3035   24.6020 C   0  0  0  0  0  0
  -27.6098  -32.4262   25.7450 C   0  0  0  0  0  0
  -27.5591  -37.1816   24.8475 C   0  0  0  0  0  0
  -21.4105  -29.3142   22.3760 N   0  0  0  0  0  0
  -26.4304  -37.3806   23.9409 N   0  0  0  0  0  0
  -24.6645  -31.0861   22.1036 N   0  0  0  0  0  0
  -23.4153  -28.8191   23.2972 O   0  0  0  0  0  0
  -28.3997  -26.7376   20.0333 O   0  0  0  0  0  0
  -26.5590  -34.8919   22.4721 O   0  0  0  0  0  0
  -23.5320  -32.1469   23.7550 O   0  0  0  0  0  0
  -27.0928  -18.8629   21.5495 C   0  0  0  0  0  0
  -29.3222  -19.5149   22.2535 C   0  0  0  0  0  0
  -26.7629  -20.2180   21.3440 C   0  0  0  0  0  0
  -28.9802  -20.8718   22.0696 C   0  0  0  0  0  0
  -28.3720  -18.4992   22.0186 C   0  0  0  0  0  0
  -27.6935  -21.2540   21.6188 C   0  0  0  0  0  0
  -27.9930  -24.9551   21.6659 C   0  0  0  0  0  0
  -28.2221  -23.6949   21.2063 C   0  0  0  0  0  0
  -26.8588  -25.2062   22.6000 C   0  0  0  0  0  0
  -29.3423  -16.2214   21.2421 C   0  0  0  0  0  0
  -25.9207  -24.0404   22.9104 C   0  0  0  0  0  0
  -25.9635  -22.9858   21.7993 C   0  0  0  0  0  0
  -29.3766  -23.3974   20.2570 C   0  0  0  0  0  0
  -31.0996  -15.4318   22.7842 C   0  0  0  0  0  0
  -28.6807  -17.0430   22.3741 C   0  0  0  0  0  0
  -28.8321  -26.1765   21.2761 C   0  0  0  0  0  0
  -27.3503  -22.6262   21.4716 N   0  0  0  0  0  0
  -30.2940  -15.2943   21.5593 N   0  0  0  0  0  0
  -26.6578  -26.2848   23.1646 O   0  0  0  0  0  0
  -28.9212  -16.3937   20.0904 O   0  0  0  0  0  0
  -31.4508  -12.4021   19.0864 H   0  0  0  0  0  0
  -30.3074  -11.2949   19.7888 H   0  0  0  0  0  0
  -29.7221  -11.8024   17.4009 H   0  0  0  0  0  0
  -29.6549  -13.5123   17.7628 H   0  0  0  0  0  0
  -27.8155  -11.3140   18.7877 H   0  0  0  0  0  0
  -27.3558  -12.6626   17.7775 H   0  0  0  0  0  0
  -27.6987  -14.2437   19.5772 H   0  0  0  0  0  0
  -28.6787  -11.9378   21.3333 H   0  0  0  0  0  0
  -28.4616  -13.5682   21.8699 H   0  0  0  0  0  0
  -25.2699   -9.5664   22.4754 H   0  0  0  0  0  0
  -23.9927   -7.4617   22.7465 H   0  0  0  0  0  0
  -21.0783   -8.8701   19.8971 H   0  0  0  0  0  0
  -22.3572  -10.9625   19.6165 H   0  0  0  0  0  0
  -21.2029   -7.6134   23.9685 H   0  0  0  0  0  0
  -21.1512   -6.0550   25.9079 H   0  0  0  0  0  0
  -22.0604   -2.7590   23.2843 H   0  0  0  0  0  0
  -22.4110  -11.9965   22.4780 H   0  0  0  0  0  0
  -21.1118  -13.1315   22.2575 H   0  0  0  0  0  0
  -24.6638  -15.8297   20.4723 H   0  0  0  0  0  0
  -26.2882  -15.6069   20.0452 H   0  0  0  0  0  0
  -26.7100  -32.5572   23.1203 H   0  0  0  0  0  0
  -25.0051  -33.9800   25.0513 H   0  0  0  0  0  0
  -22.6891  -31.3164   21.4164 H   0  0  0  0  0  0
  -23.3747  -35.9654   23.3331 H   0  0  0  0  0  0
  -24.3599  -36.8899   22.2058 H   0  0  0  0  0  0
  -23.7245  -37.6527   23.6636 H   0  0  0  0  0  0
  -26.0371  -31.6159   20.5984 H   0  0  0  0  0  0
  -26.8159  -30.9027   21.9803 H   0  0  0  0  0  0
  -28.1026  -29.1469   21.1569 H   0  0  0  0  0  0
  -26.1000  -25.9975   19.0008 H   0  0  0  0  0  0
  -23.9859  -27.2993   19.0386 H   0  0  0  0  0  0
  -23.7357  -30.6221   19.4166 H   0  0  0  0  0  0
  -22.7355  -29.2708   19.8521 H   0  0  0  0  0  0
  -25.1281  -36.2006   25.0855 H   0  0  0  0  0  0
  -20.9956  -28.3166   24.1388 H   0  0  0  0  0  0
  -20.6116  -26.2246   23.3381 H   0  0  0  0  0  0
  -21.6669  -26.7730   22.0787 H   0  0  0  0  0  0
  -19.6882  -25.6227   21.1288 H   0  0  0  0  0  0
  -19.6452  -27.3117   20.6734 H   0  0  0  0  0  0
  -17.4101  -26.6281   21.4444 H   0  0  0  0  0  0
  -18.0621  -26.0014   22.9407 H   0  0  0  0  0  0
  -19.7909  -30.7321   24.2094 H   0  0  0  0  0  0
  -17.4989  -31.6330   24.4917 H   0  0  0  0  0  0
  -15.5335  -30.2953   23.7527 H   0  0  0  0  0  0
  -15.8667  -28.0681   22.7194 H   0  0  0  0  0  0
  -24.5960  -30.6982   25.7798 H   0  0  0  0  0  0
  -24.8984  -32.2751   26.5003 H   0  0  0  0  0  0
  -25.8171  -30.8730   27.0182 H   0  0  0  0  0  0
  -26.2835  -29.6756   24.1167 H   0  0  0  0  0  0
  -27.4247  -29.7279   25.4405 H   0  0  0  0  0  0
  -27.8591  -30.4392   23.9050 H   0  0  0  0  0  0
  -27.2757  -33.3541   26.2097 H   0  0  0  0  0  0
  -28.3850  -32.6847   25.0225 H   0  0  0  0  0  0
  -28.0823  -31.8334   26.5291 H   0  0  0  0  0  0
  -28.2625  -38.0094   24.7502 H   0  0  0  0  0  0
  -28.1062  -36.2629   24.6314 H   0  0  0  0  0  0
  -27.2311  -37.1495   25.8879 H   0  0  0  0  0  0
  -20.9218  -29.9009   21.7137 H   0  0  0  0  0  0
  -26.0190  -38.2885   24.1412 H   0  0  0  0  0  0
  -26.3456  -18.1036   21.3682 H   0  0  0  0  0  0
  -30.3097  -19.2638   22.6134 H   0  0  0  0  0  0
  -25.7707  -20.4404   20.9794 H   0  0  0  0  0  0
  -29.7207  -21.6231   22.3024 H   0  0  0  0  0  0
  -24.9040  -24.4132   23.0451 H   0  0  0  0  0  0
  -26.2288  -23.5918   23.8547 H   0  0  0  0  0  0
  -25.4986  -23.3941   20.8992 H   0  0  0  0  0  0
  -25.3440  -22.1475   22.1099 H   0  0  0  0  0  0
  -29.3530  -24.0825   19.4095 H   0  0  0  0  0  0
  -29.3523  -22.3866   19.8476 H   0  0  0  0  0  0
  -30.3282  -23.5346   20.7750 H   0  0  0  0  0  0
  -31.4533  -16.4553   22.9178 H   0  0  0  0  0  0
  -31.9892  -14.7970   22.7824 H   0  0  0  0  0  0
  -30.5224  -15.1439   23.6620 H   0  0  0  0  0  0
  -29.2622  -17.0502   23.2934 H   0  0  0  0  0  0
  -27.7471  -16.5417   22.6288 H   0  0  0  0  0  0
  -29.8693  -25.8676   21.1463 H   0  0  0  0  0  0
  -28.8633  -26.9246   22.0681 H   0  0  0  0  0  0
  1 25  1  0  0  0
  1 30  2  0  0  0
  1 88  1  0  0  0
  2  3  1  0  0  0
  2 25  1  0  0  0
  2 91  1  0  0  0
  2 92  1  0  0  0
  3  4  1  0  0  0
  3 93  1  0  0  0
  3 94  1  0  0  0
  4  5  1  0  0  0
  4 95  1  0  0  0
  4 96  1  0  0  0
  5  6  1  0  0  0
  5 26  1  0  0  0
  5 97  1  0  0  0
  6 25  1  0  0  0
  6 98  1  0  0  0
  6 99  1  0  0  0
  7  8  2  0  0  0
  7 26  1  0  0  0
  7 29  1  0  0  0
  8  9  1  0  0  0
  8 22  1  0  0  0
  9 10  1  0  0  0
  9 27  2  0  0  0
 10 11  2  0  0  0
 10 15  1  0  0  0
 11 12  1  0  0  0
 11100  1  0  0  0
 12 13  2  0  0  0
 12101  1  0  0  0
 13 14  1  0  0  0
 13 31  1  0  0  0
 14 15  2  0  0  0
 14102  1  0  0  0
 15103  1  0  0  0
 16 17  2  0  0  0
 16 21  1  0  0  0
 16 31  1  0  0  0
 17 18  1  0  0  0
 17104  1  0  0  0
 18 19  2  0  0  0
 18105  1  0  0  0
 19 20  1  0  0  0
 19 24  1  0  0  0
 20 21  2  0  0  0
 20106  1  0  0  0
 21 23  1  0  0  0
 22 28  1  0  0  0
 22 32  2  0  0  0
 26 27  1  0  0  0
 28107  1  0  0  0
 28108  1  0  0  0
 29109  1  0  0  0
 29110  1  0  0  0
 33 34  1  0  0  0
 33 66  1  0  0  0
 33 70  2  0  0  0
 34 36  1  0  0  0
 34 59  1  0  0  0
 34111  1  0  0  0
 35 44  2  0  0  0
 35 45  1  0  0  0
 35 68  1  0  0  0
 36 56  1  0  0  0
 36112  1  0  0  0
 37 39  1  0  0  0
 37 47  1  0  0  0
 37 66  1  0  0  0
 37113  1  0  0  0
 38 43  2  0  0  0
 38 46  1  0  0  0
 38 47  1  0  0  0
 39 64  1  0  0  0
 39 67  2  0  0  0
 40 52  1  0  0  0
 40 53  2  0  0  0
 40 58  1  0  0  0
 41114  1  0  0  0
 41115  1  0  0  0
 41116  1  0  0  0
 41 48  1  0  0  0
 42 43  1  0  0  0
 42 66  1  0  0  0
 42117  1  0  0  0
 42118  1  0  0  0
 43 44  1  0  0  0
 44119  1  0  0  0
 45 46  2  0  0  0
 45120  1  0  0  0
 46121  1  0  0  0
 47122  1  0  0  0
 47123  1  0  0  0
 48 56  1  0  0  0
 48 65  1  0  0  0
 48124  1  0  0  0
 49 50  1  0  0  0
 49 53  1  0  0  0
 49 64  1  0  0  0
 49125  1  0  0  0
 50 51  1  0  0  0
 50126  1  0  0  0
 50127  1  0  0  0
 51 52  1  0  0  0
 51128  1  0  0  0
 51129  1  0  0  0
 52130  1  0  0  0
 52131  1  0  0  0
 53 54  1  0  0  0
 54 55  2  0  0  0
 54132  1  0  0  0
 55 57  1  0  0  0
 55133  1  0  0  0
 56 69  2  0  0  0
 57 58  2  0  0  0
 57134  1  0  0  0
 58135  1  0  0  0
 59 60  1  0  0  0
 59 61  1  0  0  0
 59 62  1  0  0  0
 60136  1  0  0  0
 60137  1  0  0  0
 60138  1  0  0  0
 61139  1  0  0  0
 61140  1  0  0  0
 61141  1  0  0  0
 62142  1  0  0  0
 62143  1  0  0  0
 62144  1  0  0  0
 63 65  1  0  0  0
 63145  1  0  0  0
 63146  1  0  0  0
 63147  1  0  0  0
 64148  1  0  0  0
 65149  1  0  0  0
 68 86  1  0  0  0
 71 73  2  0  0  0
 71 75  1  0  0  0
 71150  1  0  0  0
 72 74  1  0  0  0
 72 75  2  0  0  0
 72151  1  0  0  0
 73 76  1  0  0  0
 73152  1  0  0  0
 74 76  2  0  0  0
 74153  1  0  0  0
 75 85  1  0  0  0
 76 87  1  0  0  0
 77 78  2  0  0  0
 77 79  1  0  0  0
 77 86  1  0  0  0
 78 83  1  0  0  0
 78 87  1  0  0  0
 79 81  1  0  0  0
 79 89  2  0  0  0
 80 85  1  0  0  0
 80 88  1  0  0  0
 80 90  2  0  0  0
 81 82  1  0  0  0
 81154  1  0  0  0
 81155  1  0  0  0
 82 87  1  0  0  0
 82156  1  0  0  0
 82157  1  0  0  0
 83158  1  0  0  0
 83159  1  0  0  0
 83160  1  0  0  0
 84 88  1  0  0  0
 84161  1  0  0  0
 84162  1  0  0  0
 84163  1  0  0  0
 85164  1  0  0  0
 85165  1  0  0  0
 86166  1  0  0  0
 86167  1  0  0  0
M  ISO  4   1 100  68 101  86 101  88 100
M  END
> <chiral flag>
0

> <version>
0

> <s_m_source_file>
/data/baiqing/PycharmProjects/Reinvent-master-3.2/result/LINK_invent/BTK/process_docking_weight1_custom_product_contain_oxygen_bond_distance_aromatic_linkinvent_7_9_3/rearranged_h_0107.sdf

> <i_m_source_file_index>
5

> <r_mmod_Potential_Energy-OPLS-2005>
119.850708007812

> <r_mmod_Stretch_Energy-OPLS-2005>
43.48828125

> <r_mmod_Bend_Energy-OPLS-2005>
103.738822937012

> <r_mmod_Torsional_Energy-OPLS-2005>
300.228118896484

> <r_mmod_Improper_Torsional_Energy-OPLS-2005>
3.9426794052124

> <r_mmod_Van_der_Waal_Energy-OPLS-2005>
176.841705322266

> <r_mmod_Electrostatic_Energy-OPLS-2005>
-309.090301513672

> <r_mmod_Solvation_Energy-OPLS-2005>
-207.330032348633

> <b_mmod_Minimization_Converged-OPLS-2005>
0

> <r_mmod_RMS_Derivative-OPLS-2005>
3.51305675506592

$$$$
5
                    3D
 Structure written by MMmdl.
165174  0  0  1  0            999 V2000
  -30.7167  -14.5303   20.6164 C   0  0  0  0  0  0
  -30.4219  -12.3540   19.4543 C   0  0  0  0  0  0
  -29.5048  -12.5264   18.2255 C   0  0  0  0  0  0
  -28.0276  -12.3574   18.6274 C   0  0  0  0  0  0
  -27.6578  -13.2123   19.8681 C   0  0  2  0  0  0
  -28.6899  -13.0229   21.0008 C   0  0  0  0  0  0
  -25.2555  -13.8169   20.5619 C   0  0  0  0  0  0
  -24.1820  -13.0433   20.9133 C   0  0  0  0  0  0
  -24.6396  -11.6910   20.8714 C   0  0  0  0  0  0
  -23.9064  -10.4295   21.0404 C   0  0  0  0  0  0
  -24.3618   -9.4213   21.9182 C   0  0  0  0  0  0
  -23.6289   -8.2249   22.0755 C   0  0  0  0  0  0
  -22.4274   -8.0286   21.3545 C   0  0  0  0  0  0
  -21.9911   -9.0254   20.4643 C   0  0  0  0  0  0
  -22.7244  -10.2130   20.3050 C   0  0  0  0  0  0
  -21.6847   -6.0739   22.5280 C   0  0  0  0  0  0
  -21.4012   -6.5634   23.8211 C   0  0  0  0  0  0
  -21.3656   -5.6792   24.9178 C   0  0  0  0  0  0
  -21.6050   -4.3054   24.7225 C   0  0  0  0  0  0
  -21.8816   -3.8150   23.4344 C   0  0  0  0  0  0
  -21.9187   -4.6966   22.3400 C   0  0  0  0  0  0
  -22.7853  -13.5241   21.1825 C   0  0  0  0  0  0
  -22.1657   -4.2155   21.0980 F   0  0  0  0  0  0
  -21.5628   -3.4539   25.7738 F   0  0  0  0  0  0
  -30.0289  -13.3493   20.4716 N   0  0  0  0  0  0
  -26.2998  -12.9351   20.3308 N   0  0  0  0  0  0
  -25.9318  -11.6503   20.5739 N   0  0  0  0  0  0
  -22.0496  -12.8229   22.0388 N   0  0  0  0  0  0
  -25.4244  -15.1876   20.4024 N   0  0  0  0  0  0
  -31.7601  -14.7594   19.9953 O   0  0  0  0  0  0
  -21.6632   -6.8882   21.4246 O   0  0  0  0  0  0
  -22.3530  -14.5546   20.6690 O   0  0  0  0  0  0
  -24.6202  -31.8643   23.2090 C   0  0  0  0  0  0
  -25.9083  -32.4799   23.8396 C   0  0  1  0  0  0
  -27.2364  -27.3937   20.1079 C   0  0  0  0  0  0
  -25.5911  -33.8599   24.2305 N   0  0  0  0  0  0
  -23.4131  -30.4873   21.5481 C   0  0  2  0  0  0
  -24.8640  -28.9529   20.1110 C   0  0  0  0  0  0
  -22.7449  -29.4644   22.4960 C   0  0  0  0  0  0
  -18.0283  -28.1392   22.8515 C   0  0  0  0  0  0
  -24.1478  -36.7293   23.2645 C   0  0  0  0  0  0
  -25.9488  -30.8158   21.3735 C   0  0  0  0  0  0
  -26.0283  -29.4521   20.7108 C   0  0  0  0  0  0
  -27.2223  -28.6832   20.7017 C   0  0  0  0  0  0
  -26.0563  -26.9216   19.4980 C   0  0  0  0  0  0
  -24.8741  -27.6875   19.4980 C   0  0  0  0  0  0
  -23.6245  -29.8211   20.1635 C   0  0  0  0  0  0
  -25.4111  -36.3091   24.0330 C   0  0  1  0  0  0
  -20.5874  -28.3697   23.1300 C   0  0  2  0  0  0
  -20.6769  -26.9422   22.5420 C   0  0  0  0  0  0
  -19.5736  -26.6396   21.5237 C   0  0  0  0  0  0
  -18.1910  -26.7951   22.1634 C   0  0  0  0  0  0
  -19.1530  -28.8864   23.2903 C   0  0  0  0  0  0
  -18.9460  -30.1475   23.8901 C   0  0  0  0  0  0
  -17.6456  -30.6594   24.0586 C   0  0  0  0  0  0
  -25.9049  -34.9457   23.5113 C   0  0  0  0  0  0
  -16.5348  -29.9095   23.6355 C   0  0  0  0  0  0
  -16.7268  -28.6513   23.0375 C   0  0  0  0  0  0
  -26.4495  -31.6634   25.0763 C   0  0  0  0  0  0
  -25.3745  -31.3730   26.1501 C   0  0  0  0  0  0
  -27.0403  -30.3080   24.6232 C   0  0  0  0  0  0
  -27.6034  -32.4420   25.7515 C   0  0  0  0  0  0
  -27.5590  -37.1778   24.8459 C   0  0  0  0  0  0
  -21.4169  -29.3047   22.3695 N   0  0  0  0  0  0
  -26.4294  -37.3791   23.9420 N   0  0  0  0  0  0
  -24.6781  -31.0707   22.1005 N   0  0  0  0  0  0
  -23.4183  -28.8176   23.3019 O   0  0  0  0  0  0
  -28.3288  -26.5417   20.1625 O   0  0  0  0  0  0
  -26.5614  -34.8920   22.4674 O   0  0  0  0  0  0
  -23.5379  -32.1412   23.7454 O   0  0  0  0  0  0
  -30.8143  -17.8530   20.5950 C   0  0  0  0  0  0
  -30.5550  -19.2393   20.3964 C   0  0  0  0  0  0
  -28.3966  -18.9652   21.4221 C   0  0  0  0  0  0
  -29.8848  -16.9907   21.2401 C   0  0  0  0  0  0
  -29.3506  -19.8372   20.8421 C   0  0  0  0  0  0
  -28.6449  -17.5753   21.6312 C   0  0  0  0  0  0
  -28.3925  -24.1439   20.8354 C   0  0  0  0  0  0
  -28.1530  -25.4737   21.0337 C   0  0  0  0  0  0
  -30.2190  -15.5579   21.6596 C   0  0  0  0  0  0
  -27.8983  -23.1338   21.8735 C   0  0  0  0  0  0
  -28.9878  -23.4905   19.5816 C   0  0  0  0  0  0
  -28.7993  -21.8941   22.0484 C   0  0  0  0  0  0
  -29.7586  -22.1384   19.8215 C   0  0  0  0  0  0
  -26.0721  -16.2265   23.8852 C   0  0  0  0  0  0
  -26.6689  -17.3236   23.0000 C   0  0  0  0  0  0
  -30.1093  -15.2209   22.8802 N   0  0  0  0  0  0
  -29.0777  -21.2404   20.7695 N   0  0  0  0  0  0
  -27.7188  -16.7460   22.2354 O   0  0  0  0  0  0
  -31.4707  -12.4418   19.1656 H   0  0  0  0  0  0
  -30.3178  -11.3484   19.8656 H   0  0  0  0  0  0
  -29.7703  -11.8033   17.4530 H   0  0  0  0  0  0
  -29.6586  -13.5141   17.7885 H   0  0  0  0  0  0
  -27.8622  -11.3015   18.8448 H   0  0  0  0  0  0
  -27.3769  -12.6005   17.7871 H   0  0  0  0  0  0
  -27.6942  -14.2564   19.5557 H   0  0  0  0  0  0
  -28.6772  -11.9917   21.3566 H   0  0  0  0  0  0
  -28.3909  -13.6234   21.8576 H   0  0  0  0  0  0
  -25.2764   -9.5683   22.4757 H   0  0  0  0  0  0
  -23.9998   -7.4639   22.7478 H   0  0  0  0  0  0
  -21.0846   -8.8778   19.8945 H   0  0  0  0  0  0
  -22.3715  -10.9667   19.6148 H   0  0  0  0  0  0
  -21.2006   -7.6147   23.9722 H   0  0  0  0  0  0
  -21.1480   -6.0517   25.9076 H   0  0  0  0  0  0
  -22.0598   -2.7610   23.2846 H   0  0  0  0  0  0
  -22.4098  -11.9877   22.4760 H   0  0  0  0  0  0
  -21.1120  -13.1271   22.2604 H   0  0  0  0  0  0
  -24.6632  -15.8437   20.5302 H   0  0  0  0  0  0
  -26.3137  -15.6386   20.2312 H   0  0  0  0  0  0
  -26.7153  -32.5475   23.1151 H   0  0  0  0  0  0
  -25.0079  -33.9765   25.0460 H   0  0  0  0  0  0
  -22.7050  -31.3068   21.4063 H   0  0  0  0  0  0
  -23.3765  -35.9598   23.3281 H   0  0  0  0  0  0
  -24.3563  -36.8963   22.2066 H   0  0  0  0  0  0
  -23.7217  -37.6468   23.6708 H   0  0  0  0  0  0
  -26.0847  -31.5856   20.6135 H   0  0  0  0  0  0
  -26.8263  -30.8542   22.0077 H   0  0  0  0  0  0
  -28.1179  -29.0576   21.1779 H   0  0  0  0  0  0
  -26.0498  -25.9387   19.0480 H   0  0  0  0  0  0
  -23.9789  -27.2933   19.0356 H   0  0  0  0  0  0
  -23.7306  -30.5966   19.4042 H   0  0  0  0  0  0
  -22.7485  -29.2411   19.8700 H   0  0  0  0  0  0
  -25.1284  -36.1944   25.0824 H   0  0  0  0  0  0
  -20.9984  -28.3288   24.1419 H   0  0  0  0  0  0
  -20.5717  -26.2294   23.3610 H   0  0  0  0  0  0
  -21.6629  -26.7464   22.1184 H   0  0  0  0  0  0
  -19.6881  -25.6312   21.1255 H   0  0  0  0  0  0
  -19.6675  -27.3215   20.6775 H   0  0  0  0  0  0
  -17.4189  -26.6762   21.4009 H   0  0  0  0  0  0
  -18.0248  -26.0075   22.8999 H   0  0  0  0  0  0
  -19.7933  -30.7319   24.2241 H   0  0  0  0  0  0
  -17.5010  -31.6272   24.5201 H   0  0  0  0  0  0
  -15.5351  -30.2995   23.7691 H   0  0  0  0  0  0
  -15.8667  -28.0844   22.7081 H   0  0  0  0  0  0
  -24.5913  -30.7087   25.7833 H   0  0  0  0  0  0
  -24.8924  -32.2870   26.4976 H   0  0  0  0  0  0
  -25.8083  -30.8879   27.0256 H   0  0  0  0  0  0
  -26.3007  -29.6749   24.1320 H   0  0  0  0  0  0
  -27.4206  -29.7415   25.4749 H   0  0  0  0  0  0
  -27.8807  -30.4407   23.9416 H   0  0  0  0  0  0
  -27.2642  -33.3753   26.2032 H   0  0  0  0  0  0
  -28.3849  -32.6970   25.0340 H   0  0  0  0  0  0
  -28.0713  -31.8616   26.5478 H   0  0  0  0  0  0
  -28.2563  -38.0121   24.7602 H   0  0  0  0  0  0
  -28.1137  -36.2657   24.6181 H   0  0  0  0  0  0
  -27.2303  -37.1309   25.8858 H   0  0  0  0  0  0
  -20.9342  -29.8756   21.6900 H   0  0  0  0  0  0
  -26.0168  -38.2849   24.1486 H   0  0  0  0  0  0
  -31.7771  -17.4639   20.2961 H   0  0  0  0  0  0
  -31.3211  -19.8498   19.9412 H   0  0  0  0  0  0
  -27.4519  -19.3906   21.7241 H   0  0  0  0  0  0
  -27.6838  -25.8093   21.9493 H   0  0  0  0  0  0
  -26.9041  -22.8055   21.5668 H   0  0  0  0  0  0
  -27.7651  -23.6240   22.8383 H   0  0  0  0  0  0
  -29.6358  -24.2082   19.0769 H   0  0  0  0  0  0
  -28.1576  -23.3043   18.9002 H   0  0  0  0  0  0
  -28.3423  -21.2130   22.7663 H   0  0  0  0  0  0
  -29.7480  -22.2011   22.4920 H   0  0  0  0  0  0
  -30.7519  -22.3662   20.2143 H   0  0  0  0  0  0
  -29.9181  -21.6294   18.8700 H   0  0  0  0  0  0
  -25.2237  -16.6030   24.4569 H   0  0  0  0  0  0
  -26.8111  -15.8529   24.5947 H   0  0  0  0  0  0
  -25.7247  -15.3826   23.2896 H   0  0  0  0  0  0
  -27.0414  -18.1290   23.6360 H   0  0  0  0  0  0
  -25.9023  -17.7330   22.3405 H   0  0  0  0  0  0
  -29.7602  -15.9977   23.4287 H   0  0  0  0  0  0
  1 25  1  0  0  0
  1 30  2  0  0  0
  1 79  1  0  0  0
  2  3  1  0  0  0
  2 25  1  0  0  0
  2 89  1  0  0  0
  2 90  1  0  0  0
  3  4  1  0  0  0
  3 91  1  0  0  0
  3 92  1  0  0  0
  4  5  1  0  0  0
  4 93  1  0  0  0
  4 94  1  0  0  0
  5  6  1  0  0  0
  5 26  1  0  0  0
  5 95  1  0  0  0
  6 25  1  0  0  0
  6 96  1  0  0  0
  6 97  1  0  0  0
  7  8  2  0  0  0
  7 26  1  0  0  0
  7 29  1  0  0  0
  8  9  1  0  0  0
  8 22  1  0  0  0
  9 10  1  0  0  0
  9 27  2  0  0  0
 10 11  2  0  0  0
 10 15  1  0  0  0
 11 12  1  0  0  0
 11 98  1  0  0  0
 12 13  2  0  0  0
 12 99  1  0  0  0
 13 14  1  0  0  0
 13 31  1  0  0  0
 14 15  2  0  0  0
 14100  1  0  0  0
 15101  1  0  0  0
 16 17  2  0  0  0
 16 21  1  0  0  0
 16 31  1  0  0  0
 17 18  1  0  0  0
 17102  1  0  0  0
 18 19  2  0  0  0
 18103  1  0  0  0
 19 20  1  0  0  0
 19 24  1  0  0  0
 20 21  2  0  0  0
 20104  1  0  0  0
 21 23  1  0  0  0
 22 28  1  0  0  0
 22 32  2  0  0  0
 26 27  1  0  0  0
 28105  1  0  0  0
 28106  1  0  0  0
 29107  1  0  0  0
 29108  1  0  0  0
 33 34  1  0  0  0
 33 66  1  0  0  0
 33 70  2  0  0  0
 34 36  1  0  0  0
 34 59  1  0  0  0
 34109  1  0  0  0
 35 44  2  0  0  0
 35 45  1  0  0  0
 35 68  1  0  0  0
 36 56  1  0  0  0
 36110  1  0  0  0
 37 39  1  0  0  0
 37 47  1  0  0  0
 37 66  1  0  0  0
 37111  1  0  0  0
 38 43  2  0  0  0
 38 46  1  0  0  0
 38 47  1  0  0  0
 39 64  1  0  0  0
 39 67  2  0  0  0
 40 52  1  0  0  0
 40 53  2  0  0  0
 40 58  1  0  0  0
 41112  1  0  0  0
 41113  1  0  0  0
 41114  1  0  0  0
 41 48  1  0  0  0
 42 43  1  0  0  0
 42 66  1  0  0  0
 42115  1  0  0  0
 42116  1  0  0  0
 43 44  1  0  0  0
 44117  1  0  0  0
 45 46  2  0  0  0
 45118  1  0  0  0
 46119  1  0  0  0
 47120  1  0  0  0
 47121  1  0  0  0
 48 56  1  0  0  0
 48 65  1  0  0  0
 48122  1  0  0  0
 49 50  1  0  0  0
 49 53  1  0  0  0
 49 64  1  0  0  0
 49123  1  0  0  0
 50 51  1  0  0  0
 50124  1  0  0  0
 50125  1  0  0  0
 51 52  1  0  0  0
 51126  1  0  0  0
 51127  1  0  0  0
 52128  1  0  0  0
 52129  1  0  0  0
 53 54  1  0  0  0
 54 55  2  0  0  0
 54130  1  0  0  0
 55 57  1  0  0  0
 55131  1  0  0  0
 56 69  2  0  0  0
 57 58  2  0  0  0
 57132  1  0  0  0
 58133  1  0  0  0
 59 60  1  0  0  0
 59 61  1  0  0  0
 59 62  1  0  0  0
 60134  1  0  0  0
 60135  1  0  0  0
 60136  1  0  0  0
 61137  1  0  0  0
 61138  1  0  0  0
 61139  1  0  0  0
 62140  1  0  0  0
 62141  1  0  0  0
 62142  1  0  0  0
 63 65  1  0  0  0
 63143  1  0  0  0
 63144  1  0  0  0
 63145  1  0  0  0
 64146  1  0  0  0
 65147  1  0  0  0
 68 78  1  0  0  0
 71 72  2  0  0  0
 71 74  1  0  0  0
 71148  1  0  0  0
 72 75  1  0  0  0
 72149  1  0  0  0
 73 75  2  0  0  0
 73 76  1  0  0  0
 73150  1  0  0  0
 74 76  2  0  0  0
 74 79  1  0  0  0
 75 87  1  0  0  0
 76 88  1  0  0  0
 77 78  2  0  0  0
 77 80  1  0  0  0
 77 81  1  0  0  0
 78151  1  0  0  0
 79 86  2  0  0  0
 80 82  1  0  0  0
 80152  1  0  0  0
 80153  1  0  0  0
 81 83  1  0  0  0
 81154  1  0  0  0
 81155  1  0  0  0
 82 87  1  0  0  0
 82156  1  0  0  0
 82157  1  0  0  0
 83 87  1  0  0  0
 83158  1  0  0  0
 83159  1  0  0  0
 84 85  1  0  0  0
 84160  1  0  0  0
 84161  1  0  0  0
 84162  1  0  0  0
 85 88  1  0  0  0
 85163  1  0  0  0
 85164  1  0  0  0
 86165  1  0  0  0
M  ISO  4   1 100  68 101  78 101  79 100
M  END
> <chiral flag>
0

> <version>
0

> <s_m_source_file>
/data/baiqing/PycharmProjects/Reinvent-master-3.2/result/LINK_invent/BTK/process_docking_weight1_custom_product_contain_oxygen_bond_distance_aromatic_linkinvent_7_9_3/rearranged_h_0107.sdf

> <i_m_source_file_index>
6

> <r_mmod_Potential_Energy-OPLS-2005>
211.889495849609

> <r_mmod_Stretch_Energy-OPLS-2005>
61.2769012451172

> <r_mmod_Bend_Energy-OPLS-2005>
138.032104492188

> <r_mmod_Torsional_Energy-OPLS-2005>
260.66064453125

> <r_mmod_Improper_Torsional_Energy-OPLS-2005>
6.21151638031006

> <r_mmod_Van_der_Waal_Energy-OPLS-2005>
149.352233886719

> <r_mmod_Electrostatic_Energy-OPLS-2005>
-231.732528686523

> <r_mmod_Solvation_Energy-OPLS-2005>
-196.901351928711

> <b_mmod_Minimization_Converged-OPLS-2005>
0

> <r_mmod_RMS_Derivative-OPLS-2005>
2.06833505630493

$$$$
6
                    3D
 Structure written by MMmdl.
158166  0  0  1  0            999 V2000
  -30.6151  -14.7500   20.2367 C   0  0  0  0  0  0
  -30.4093  -12.4033   19.4377 C   0  0  0  0  0  0
  -29.4857  -12.4174   18.2014 C   0  0  0  0  0  0
  -28.0046  -12.3009   18.6196 C   0  0  0  0  0  0
  -27.6169  -13.2176   19.8135 C   0  0  2  0  0  0
  -28.6851  -13.2412   20.9250 C   0  0  0  0  0  0
  -25.2518  -13.8233   20.5772 C   0  0  0  0  0  0
  -24.1786  -13.0471   20.9271 C   0  0  0  0  0  0
  -24.6385  -11.6955   20.8771 C   0  0  0  0  0  0
  -23.9062  -10.4354   21.0444 C   0  0  0  0  0  0
  -24.3644   -9.4278   21.9211 C   0  0  0  0  0  0
  -23.6346   -8.2297   22.0791 C   0  0  0  0  0  0
  -22.4319   -8.0344   21.3594 C   0  0  0  0  0  0
  -21.9946   -9.0309   20.4675 C   0  0  0  0  0  0
  -22.7240  -10.2209   20.3087 C   0  0  0  0  0  0
  -21.6896   -6.0777   22.5288 C   0  0  0  0  0  0
  -21.4018   -6.5667   23.8219 C   0  0  0  0  0  0
  -21.3625   -5.6801   24.9177 C   0  0  0  0  0  0
  -21.6043   -4.3066   24.7203 C   0  0  0  0  0  0
  -21.8840   -3.8176   23.4320 C   0  0  0  0  0  0
  -21.9238   -4.7004   22.3397 C   0  0  0  0  0  0
  -22.7813  -13.5289   21.1877 C   0  0  0  0  0  0
  -22.1693   -4.2203   21.0964 F   0  0  0  0  0  0
  -21.5615   -3.4528   25.7712 F   0  0  0  0  0  0
  -29.9902  -13.5224   20.3024 N   0  0  0  0  0  0
  -26.2871  -12.9346   20.3241 N   0  0  0  0  0  0
  -25.9300  -11.6517   20.5751 N   0  0  0  0  0  0
  -22.0436  -12.8282   22.0439 N   0  0  0  0  0  0
  -25.4246  -15.1935   20.4307 N   0  0  0  0  0  0
  -31.8447  -14.8270   20.2761 O   0  0  0  0  0  0
  -21.6671   -6.8944   21.4282 O   0  0  0  0  0  0
  -22.3489  -14.5583   20.6726 O   0  0  0  0  0  0
  -24.6278  -31.8591   23.2035 C   0  0  0  0  0  0
  -25.9100  -32.4768   23.8389 C   0  0  1  0  0  0
  -27.2239  -27.3211   20.1478 C   0  0  0  0  0  0
  -25.5879  -33.8585   24.2246 N   0  0  0  0  0  0
  -23.4212  -30.4847   21.5453 C   0  0  2  0  0  0
  -24.8619  -28.9206   20.1314 C   0  0  0  0  0  0
  -22.7466  -29.4661   22.4960 C   0  0  0  0  0  0
  -18.0283  -28.1419   22.8496 C   0  0  0  0  0  0
  -24.1481  -36.7289   23.2650 C   0  0  0  0  0  0
  -25.9610  -30.7890   21.3772 C   0  0  0  0  0  0
  -26.0324  -29.4128   20.7281 C   0  0  0  0  0  0
  -27.2192  -28.6219   20.7277 C   0  0  0  0  0  0
  -26.0334  -26.8663   19.5481 C   0  0  0  0  0  0
  -24.8605  -27.6462   19.5405 C   0  0  0  0  0  0
  -23.6357  -29.8085   20.1655 C   0  0  0  0  0  0
  -25.4089  -36.3046   24.0341 C   0  0  1  0  0  0
  -20.5900  -28.3741   23.1277 C   0  0  2  0  0  0
  -20.6766  -26.9462   22.5402 C   0  0  0  0  0  0
  -19.5726  -26.6403   21.5225 C   0  0  0  0  0  0
  -18.1896  -26.7961   22.1644 C   0  0  0  0  0  0
  -19.1549  -28.8891   23.2884 C   0  0  0  0  0  0
  -18.9471  -30.1475   23.8915 C   0  0  0  0  0  0
  -17.6468  -30.6606   24.0572 C   0  0  0  0  0  0
  -25.9054  -34.9433   23.5088 C   0  0  0  0  0  0
  -16.5357  -29.9083   23.6393 C   0  0  0  0  0  0
  -16.7270  -28.6499   23.0402 C   0  0  0  0  0  0
  -26.4488  -31.6612   25.0785 C   0  0  0  0  0  0
  -25.3680  -31.3725   26.1481 C   0  0  0  0  0  0
  -27.0415  -30.3050   24.6282 C   0  0  0  0  0  0
  -27.6045  -32.4381   25.7499 C   0  0  0  0  0  0
  -27.5561  -37.1775   24.8459 C   0  0  0  0  0  0
  -21.4188  -29.3075   22.3653 N   0  0  0  0  0  0
  -26.4270  -37.3740   23.9409 N   0  0  0  0  0  0
  -24.6886  -31.0642   22.0973 N   0  0  0  0  0  0
  -23.4156  -28.8219   23.3088 O   0  0  0  0  0  0
  -28.3575  -26.5125   20.0602 O   0  0  0  0  0  0
  -26.5648  -34.8913   22.4674 O   0  0  0  0  0  0
  -23.5435  -32.1401   23.7370 O   0  0  0  0  0  0
  -29.8018  -19.8758   19.2991 C   0  0  0  0  0  0
  -29.2182  -19.1561   21.5110 C   0  0  0  0  0  0
  -29.8935  -17.4240   19.8501 C   0  0  0  0  0  0
  -30.0717  -18.5202   18.9058 C   0  0  0  0  0  0
  -29.3354  -20.2277   20.5896 C   0  0  0  0  0  0
  -29.4967  -17.8051   21.1598 C   0  0  0  0  0  0
  -29.8485  -15.9255   19.4589 C   0  0  0  0  0  0
  -28.9651  -22.7997   20.3746 C   0  0  0  0  0  0
  -30.9470  -19.5148   16.6134 C   0  0  0  0  0  0
  -30.4836  -18.2815   17.4339 C   0  0  0  0  0  0
  -28.0461  -23.9693   20.9042 C   0  0  0  0  0  0
  -28.5949  -25.4574   21.0533 C   0  0  0  0  0  0
  -29.1999  -15.6731   18.3987 N   0  0  0  0  0  0
  -28.8779  -21.5651   20.9736 N   0  0  0  0  0  0
  -29.7371  -23.0326   19.4424 O   0  0  0  0  0  0
  -29.2886  -16.8457   22.0967 F   0  0  0  0  0  0
  -31.4520  -12.4918   19.1310 H   0  0  0  0  0  0
  -30.3071  -11.4539   19.9715 H   0  0  0  0  0  0
  -29.7383  -11.5955   17.5304 H   0  0  0  0  0  0
  -29.6479  -13.3151   17.6133 H   0  0  0  0  0  0
  -27.8313  -11.2560   18.8816 H   0  0  0  0  0  0
  -27.3574  -12.5029   17.7633 H   0  0  0  0  0  0
  -27.5347  -14.2155   19.4048 H   0  0  0  0  0  0
  -28.7049  -12.3018   21.4771 H   0  0  0  0  0  0
  -28.4346  -14.0232   21.6441 H   0  0  0  0  0  0
  -25.2805   -9.5729   22.4743 H   0  0  0  0  0  0
  -24.0083   -7.4674   22.7461 H   0  0  0  0  0  0
  -21.0905   -8.8801   19.8942 H   0  0  0  0  0  0
  -22.3714  -10.9754   19.6168 H   0  0  0  0  0  0
  -21.2001   -7.6165   23.9721 H   0  0  0  0  0  0
  -21.1400   -6.0528   25.9073 H   0  0  0  0  0  0
  -22.0662   -2.7643   23.2793 H   0  0  0  0  0  0
  -22.4092  -11.9988   22.4854 H   0  0  0  0  0  0
  -21.1065  -13.1334   22.2646 H   0  0  0  0  0  0
  -24.6713  -15.8612   20.5580 H   0  0  0  0  0  0
  -26.3057  -15.6218   20.1759 H   0  0  0  0  0  0
  -26.7166  -32.5406   23.1161 H   0  0  0  0  0  0
  -24.9933  -33.9695   25.0311 H   0  0  0  0  0  0
  -22.7207  -31.3106   21.3952 H   0  0  0  0  0  0
  -23.3747  -35.9631   23.3293 H   0  0  0  0  0  0
  -24.3562  -36.8938   22.2068 H   0  0  0  0  0  0
  -23.7307  -37.6495   23.6742 H   0  0  0  0  0  0
  -26.1011  -31.5542   20.6133 H   0  0  0  0  0  0
  -26.8394  -30.8330   22.0100 H   0  0  0  0  0  0
  -28.1211  -28.9947   21.1941 H   0  0  0  0  0  0
  -26.0156  -25.8879   19.0901 H   0  0  0  0  0  0
  -23.9575  -27.2506   19.0965 H   0  0  0  0  0  0
  -23.7602  -30.5786   19.4031 H   0  0  0  0  0  0
  -22.7535  -29.2398   19.8706 H   0  0  0  0  0  0
  -25.1296  -36.1862   25.0861 H   0  0  0  0  0  0
  -21.0007  -28.3303   24.1407 H   0  0  0  0  0  0
  -20.5688  -26.2348   23.3624 H   0  0  0  0  0  0
  -21.6630  -26.7475   22.1203 H   0  0  0  0  0  0
  -19.6903  -25.6310   21.1258 H   0  0  0  0  0  0
  -19.6673  -27.3223   20.6765 H   0  0  0  0  0  0
  -17.4197  -26.6792   21.3986 H   0  0  0  0  0  0
  -18.0235  -26.0084   22.9026 H   0  0  0  0  0  0
  -19.7948  -30.7282   24.2274 H   0  0  0  0  0  0
  -17.5039  -31.6314   24.5120 H   0  0  0  0  0  0
  -15.5363  -30.2982   23.7711 H   0  0  0  0  0  0
  -15.8675  -28.0793   22.7153 H   0  0  0  0  0  0
  -24.5914  -30.7022   25.7796 H   0  0  0  0  0  0
  -24.8782  -32.2854   26.4880 H   0  0  0  0  0  0
  -25.7965  -30.8940   27.0291 H   0  0  0  0  0  0
  -26.3050  -29.6681   24.1382 H   0  0  0  0  0  0
  -27.4214  -29.7434   25.4829 H   0  0  0  0  0  0
  -27.8842  -30.4376   23.9493 H   0  0  0  0  0  0
  -27.2707  -33.3737   26.2002 H   0  0  0  0  0  0
  -28.3851  -32.6839   25.0281 H   0  0  0  0  0  0
  -28.0753  -31.8571   26.5445 H   0  0  0  0  0  0
  -28.2541  -38.0094   24.7511 H   0  0  0  0  0  0
  -28.1095  -36.2634   24.6280 H   0  0  0  0  0  0
  -27.2280  -37.1365   25.8855 H   0  0  0  0  0  0
  -20.9387  -29.8699   21.6769 H   0  0  0  0  0  0
  -26.0133  -38.2798   24.1458 H   0  0  0  0  0  0
  -29.8851  -20.6724   18.5738 H   0  0  0  0  0  0
  -28.8628  -19.3459   22.5125 H   0  0  0  0  0  0
  -31.3363  -19.2184   15.6342 H   0  0  0  0  0  0
  -31.7493  -20.0588   17.1079 H   0  0  0  0  0  0
  -30.1299  -20.2141   16.4084 H   0  0  0  0  0  0
  -29.6357  -17.8581   16.8991 H   0  0  0  0  0  0
  -31.2786  -17.5371   17.3978 H   0  0  0  0  0  0
  -27.7469  -23.6569   21.9057 H   0  0  0  0  0  0
  -27.1221  -23.9721   20.3276 H   0  0  0  0  0  0
  -29.6786  -25.3933   21.1461 H   0  0  0  0  0  0
  -28.2575  -25.8374   22.0188 H   0  0  0  0  0  0
  -28.7887  -16.5136   18.0110 H   0  0  0  0  0  0
  -28.3308  -21.5808   21.8218 H   0  0  0  0  0  0
  1 25  1  0  0  0
  1 30  2  0  0  0
  1 77  1  0  0  0
  2  3  1  0  0  0
  2 25  1  0  0  0
  2 87  1  0  0  0
  2 88  1  0  0  0
  3  4  1  0  0  0
  3 89  1  0  0  0
  3 90  1  0  0  0
  4  5  1  0  0  0
  4 91  1  0  0  0
  4 92  1  0  0  0
  5  6  1  0  0  0
  5 26  1  0  0  0
  5 93  1  0  0  0
  6 25  1  0  0  0
  6 94  1  0  0  0
  6 95  1  0  0  0
  7  8  2  0  0  0
  7 26  1  0  0  0
  7 29  1  0  0  0
  8  9  1  0  0  0
  8 22  1  0  0  0
  9 10  1  0  0  0
  9 27  2  0  0  0
 10 11  2  0  0  0
 10 15  1  0  0  0
 11 12  1  0  0  0
 11 96  1  0  0  0
 12 13  2  0  0  0
 12 97  1  0  0  0
 13 14  1  0  0  0
 13 31  1  0  0  0
 14 15  2  0  0  0
 14 98  1  0  0  0
 15 99  1  0  0  0
 16 17  2  0  0  0
 16 21  1  0  0  0
 16 31  1  0  0  0
 17 18  1  0  0  0
 17100  1  0  0  0
 18 19  2  0  0  0
 18101  1  0  0  0
 19 20  1  0  0  0
 19 24  1  0  0  0
 20 21  2  0  0  0
 20102  1  0  0  0
 21 23  1  0  0  0
 22 28  1  0  0  0
 22 32  2  0  0  0
 26 27  1  0  0  0
 28103  1  0  0  0
 28104  1  0  0  0
 29105  1  0  0  0
 29106  1  0  0  0
 33 34  1  0  0  0
 33 66  1  0  0  0
 33 70  2  0  0  0
 34 36  1  0  0  0
 34 59  1  0  0  0
 34107  1  0  0  0
 35 44  2  0  0  0
 35 45  1  0  0  0
 35 68  1  0  0  0
 36 56  1  0  0  0
 36108  1  0  0  0
 37 39  1  0  0  0
 37 47  1  0  0  0
 37 66  1  0  0  0
 37109  1  0  0  0
 38 43  2  0  0  0
 38 46  1  0  0  0
 38 47  1  0  0  0
 39 64  1  0  0  0
 39 67  2  0  0  0
 40 52  1  0  0  0
 40 53  2  0  0  0
 40 58  1  0  0  0
 41110  1  0  0  0
 41111  1  0  0  0
 41112  1  0  0  0
 41 48  1  0  0  0
 42 43  1  0  0  0
 42 66  1  0  0  0
 42113  1  0  0  0
 42114  1  0  0  0
 43 44  1  0  0  0
 44115  1  0  0  0
 45 46  2  0  0  0
 45116  1  0  0  0
 46117  1  0  0  0
 47118  1  0  0  0
 47119  1  0  0  0
 48 56  1  0  0  0
 48 65  1  0  0  0
 48120  1  0  0  0
 49 50  1  0  0  0
 49 53  1  0  0  0
 49 64  1  0  0  0
 49121  1  0  0  0
 50 51  1  0  0  0
 50122  1  0  0  0
 50123  1  0  0  0
 51 52  1  0  0  0
 51124  1  0  0  0
 51125  1  0  0  0
 52126  1  0  0  0
 52127  1  0  0  0
 53 54  1  0  0  0
 54 55  2  0  0  0
 54128  1  0  0  0
 55 57  1  0  0  0
 55129  1  0  0  0
 56 69  2  0  0  0
 57 58  2  0  0  0
 57130  1  0  0  0
 58131  1  0  0  0
 59 60  1  0  0  0
 59 61  1  0  0  0
 59 62  1  0  0  0
 60132  1  0  0  0
 60133  1  0  0  0
 60134  1  0  0  0
 61135  1  0  0  0
 61136  1  0  0  0
 61137  1  0  0  0
 62138  1  0  0  0
 62139  1  0  0  0
 62140  1  0  0  0
 63 65  1  0  0  0
 63141  1  0  0  0
 63142  1  0  0  0
 63143  1  0  0  0
 64144  1  0  0  0
 65145  1  0  0  0
 68 82  1  0  0  0
 71 74  2  0  0  0
 71 75  1  0  0  0
 71146  1  0  0  0
 72 75  2  0  0  0
 72 76  1  0  0  0
 72147  1  0  0  0
 73 74  1  0  0  0
 73 76  2  0  0  0
 73 77  1  0  0  0
 74 80  1  0  0  0
 75 84  1  0  0  0
 76 86  1  0  0  0
 77 83  2  0  0  0
 78 81  1  0  0  0
 78 84  1  0  0  0
 78 85  2  0  0  0
 79 80  1  0  0  0
 79148  1  0  0  0
 79149  1  0  0  0
 79150  1  0  0  0
 80151  1  0  0  0
 80152  1  0  0  0
 81 82  1  0  0  0
 81153  1  0  0  0
 81154  1  0  0  0
 82155  1  0  0  0
 82156  1  0  0  0
 83157  1  0  0  0
 84158  1  0  0  0
M  ISO  4   1 100  68 101  77 100  82 101
M  END
> <chiral flag>
0

> <version>
0

> <s_m_source_file>
/data/baiqing/PycharmProjects/Reinvent-master-3.2/result/LINK_invent/BTK/process_docking_weight1_custom_product_contain_oxygen_bond_distance_aromatic_linkinvent_7_9_3/rearranged_h_0107.sdf

> <i_m_source_file_index>
7

> <r_mmod_Potential_Energy-OPLS-2005>
348.60546875

> <r_mmod_Stretch_Energy-OPLS-2005>
98.3054428100586

> <r_mmod_Bend_Energy-OPLS-2005>
172.051040649414

> <r_mmod_Torsional_Energy-OPLS-2005>
290.4482421875

> <r_mmod_Improper_Torsional_Energy-OPLS-2005>
22.3094673156738

> <r_mmod_Van_der_Waal_Energy-OPLS-2005>
144.723388671875

> <r_mmod_Electrostatic_Energy-OPLS-2005>
-252.765991210938

> <r_mmod_Solvation_Energy-OPLS-2005>
-218.910751342773

> <b_mmod_Minimization_Converged-OPLS-2005>
0

> <r_mmod_RMS_Derivative-OPLS-2005>
7.36101245880127

$$$$
7
                    3D
 Structure written by MMmdl.
158166  0  0  1  0            999 V2000
  -30.6737  -14.4931   20.5559 C   0  0  0  0  0  0
  -30.4306  -12.3150   19.4237 C   0  0  0  0  0  0
  -29.4973  -12.5065   18.2082 C   0  0  0  0  0  0
  -28.0182  -12.3623   18.6210 C   0  0  0  0  0  0
  -27.6626  -13.2012   19.8777 C   0  0  2  0  0  0
  -28.7050  -12.9784   20.9977 C   0  0  0  0  0  0
  -25.2589  -13.8143   20.5668 C   0  0  0  0  0  0
  -24.1835  -13.0429   20.9164 C   0  0  0  0  0  0
  -24.6383  -11.6898   20.8731 C   0  0  0  0  0  0
  -23.9049  -10.4289   21.0405 C   0  0  0  0  0  0
  -24.3605   -9.4204   21.9182 C   0  0  0  0  0  0
  -23.6284   -8.2238   22.0753 C   0  0  0  0  0  0
  -22.4265   -8.0280   21.3545 C   0  0  0  0  0  0
  -21.9895   -9.0252   20.4647 C   0  0  0  0  0  0
  -22.7219  -10.2132   20.3056 C   0  0  0  0  0  0
  -21.6849   -6.0733   22.5283 C   0  0  0  0  0  0
  -21.4013   -6.5637   23.8216 C   0  0  0  0  0  0
  -21.3657   -5.6788   24.9179 C   0  0  0  0  0  0
  -21.6042   -4.3051   24.7225 C   0  0  0  0  0  0
  -21.8817   -3.8144   23.4346 C   0  0  0  0  0  0
  -21.9190   -4.6962   22.3404 C   0  0  0  0  0  0
  -22.7858  -13.5239   21.1832 C   0  0  0  0  0  0
  -22.1655   -4.2148   21.0980 F   0  0  0  0  0  0
  -21.5634   -3.4536   25.7737 F   0  0  0  0  0  0
  -30.0371  -13.2936   20.4497 N   0  0  0  0  0  0
  -26.3026  -12.9304   20.3374 N   0  0  0  0  0  0
  -25.9309  -11.6470   20.5769 N   0  0  0  0  0  0
  -22.0493  -12.8251   22.0401 N   0  0  0  0  0  0
  -25.4312  -15.1857   20.4072 N   0  0  0  0  0  0
  -31.8004  -14.6983   20.0930 O   0  0  0  0  0  0
  -21.6632   -6.8876   21.4245 O   0  0  0  0  0  0
  -22.3552  -14.5551   20.6688 O   0  0  0  0  0  0
  -24.6166  -31.8682   23.2110 C   0  0  0  0  0  0
  -25.9057  -32.4829   23.8401 C   0  0  1  0  0  0
  -27.2287  -27.4185   20.0883 C   0  0  0  0  0  0
  -25.5904  -33.8625   24.2328 N   0  0  0  0  0  0
  -23.4039  -30.4944   21.5522 C   0  0  2  0  0  0
  -24.8467  -28.9616   20.1134 C   0  0  0  0  0  0
  -22.7419  -29.4664   22.4984 C   0  0  0  0  0  0
  -18.0274  -28.1383   22.8492 C   0  0  0  0  0  0
  -24.1482  -36.7319   23.2637 C   0  0  0  0  0  0
  -25.9353  -30.8273   21.3675 C   0  0  0  0  0  0
  -26.0095  -29.4614   20.7123 C   0  0  0  0  0  0
  -27.2005  -28.6965   20.6988 C   0  0  0  0  0  0
  -26.0425  -26.9433   19.4775 C   0  0  0  0  0  0
  -24.8590  -27.7020   19.4954 C   0  0  0  0  0  0
  -23.6122  -29.8324   20.1647 C   0  0  0  0  0  0
  -25.4104  -36.3114   24.0336 C   0  0  1  0  0  0
  -20.5865  -28.3671   23.1316 C   0  0  2  0  0  0
  -20.6767  -26.9410   22.5415 C   0  0  0  0  0  0
  -19.5742  -26.6393   21.5214 C   0  0  0  0  0  0
  -18.1921  -26.7928   22.1626 C   0  0  0  0  0  0
  -19.1525  -28.8842   23.2899 C   0  0  0  0  0  0
  -18.9455  -30.1446   23.8916 C   0  0  0  0  0  0
  -17.6460  -30.6588   24.0571 C   0  0  0  0  0  0
  -25.9036  -34.9481   23.5130 C   0  0  0  0  0  0
  -16.5349  -29.9096   23.6326 C   0  0  0  0  0  0
  -16.7265  -28.6510   23.0349 C   0  0  0  0  0  0
  -26.4474  -31.6614   25.0737 C   0  0  0  0  0  0
  -25.3737  -31.3732   26.1488 C   0  0  0  0  0  0
  -27.0305  -30.3052   24.6127 C   0  0  0  0  0  0
  -27.6048  -32.4336   25.7498 C   0  0  0  0  0  0
  -27.5578  -37.1815   24.8465 C   0  0  0  0  0  0
  -21.4143  -29.3040   22.3722 N   0  0  0  0  0  0
  -26.4290  -37.3799   23.9411 N   0  0  0  0  0  0
  -24.6704  -31.0773   22.1018 N   0  0  0  0  0  0
  -23.4186  -28.8206   23.3030 O   0  0  0  0  0  0
  -28.3990  -26.6763   20.1137 O   0  0  0  0  0  0
  -26.5597  -34.8930   22.4691 O   0  0  0  0  0  0
  -23.5355  -32.1439   23.7498 O   0  0  0  0  0  0
  -29.9216  -18.9391   19.5389 C   0  0  0  0  0  0
  -30.1959  -17.7167   22.0476 C   0  0  0  0  0  0
  -29.9049  -17.5245   19.6387 C   0  0  0  0  0  0
  -30.0515  -16.8957   20.9066 C   0  0  0  0  0  0
  -30.2213  -19.1262   21.9356 C   0  0  0  0  0  0
  -30.0657  -19.7637   20.6836 C   0  0  0  0  0  0
  -29.5097  -24.4600   20.1961 C   0  0  0  0  0  0
  -29.7007  -16.7162   18.3665 C   0  0  0  0  0  0
  -29.9570  -23.2567   19.3450 C   0  0  0  0  0  0
  -28.3253  -25.3011   19.6815 C   0  0  0  0  0  0
  -29.3261  -21.8818   19.6925 C   0  0  0  0  0  0
  -30.3845  -19.9122   23.0764 N   0  0  0  0  0  0
  -29.9320  -15.4804   21.0980 N   0  0  0  0  0  0
  -30.0932  -24.7447   21.2473 O   0  0  0  0  0  0
  -30.1051  -21.1547   20.6576 O   0  0  0  0  0  0
  -31.4734  -12.4268   19.1211 H   0  0  0  0  0  0
  -30.3424  -11.3028   19.8209 H   0  0  0  0  0  0
  -29.7402  -11.7821   17.4291 H   0  0  0  0  0  0
  -29.6604  -13.4906   17.7667 H   0  0  0  0  0  0
  -27.8318  -11.3063   18.8180 H   0  0  0  0  0  0
  -27.3665  -12.6347   17.7897 H   0  0  0  0  0  0
  -27.7047  -14.2483   19.5827 H   0  0  0  0  0  0
  -28.6857  -11.9403   21.3312 H   0  0  0  0  0  0
  -28.4625  -13.5676   21.8832 H   0  0  0  0  0  0
  -25.2752   -9.5682   22.4752 H   0  0  0  0  0  0
  -23.9994   -7.4627   22.7469 H   0  0  0  0  0  0
  -21.0825   -8.8769   19.8953 H   0  0  0  0  0  0
  -22.3675  -10.9671   19.6166 H   0  0  0  0  0  0
  -21.2009   -7.6147   23.9718 H   0  0  0  0  0  0
  -21.1481   -6.0521   25.9079 H   0  0  0  0  0  0
  -22.0597   -2.7606   23.2845 H   0  0  0  0  0  0
  -22.4097  -11.9924   22.4819 H   0  0  0  0  0  0
  -21.1115  -13.1295   22.2607 H   0  0  0  0  0  0
  -24.6644  -15.8406   20.5145 H   0  0  0  0  0  0
  -26.2889  -15.6262   20.0993 H   0  0  0  0  0  0
  -26.7130  -32.5527   23.1164 H   0  0  0  0  0  0
  -25.0049  -33.9787   25.0469 H   0  0  0  0  0  0
  -22.6926  -31.3117   21.4162 H   0  0  0  0  0  0
  -23.3740  -35.9656   23.3314 H   0  0  0  0  0  0
  -24.3570  -36.8921   22.2048 H   0  0  0  0  0  0
  -23.7243  -37.6530   23.6645 H   0  0  0  0  0  0
  -26.0502  -31.5946   20.6002 H   0  0  0  0  0  0
  -26.8227  -30.8780   21.9872 H   0  0  0  0  0  0
  -28.0962  -29.0785   21.1683 H   0  0  0  0  0  0
  -25.9992  -25.9879   18.9760 H   0  0  0  0  0  0
  -23.9647  -27.3139   19.0265 H   0  0  0  0  0  0
  -23.7249  -30.6108   19.4087 H   0  0  0  0  0  0
  -22.7339  -29.2582   19.8655 H   0  0  0  0  0  0
  -25.1283  -36.1979   25.0829 H   0  0  0  0  0  0
  -20.9949  -28.3237   24.1440 H   0  0  0  0  0  0
  -20.5672  -26.2283   23.3602 H   0  0  0  0  0  0
  -21.6639  -26.7452   22.1211 H   0  0  0  0  0  0
  -19.6902  -25.6307   21.1239 H   0  0  0  0  0  0
  -19.6677  -27.3211   20.6751 H   0  0  0  0  0  0
  -17.4188  -26.6674   21.4033 H   0  0  0  0  0  0
  -18.0320  -26.0072   22.9023 H   0  0  0  0  0  0
  -19.7933  -30.7256   24.2296 H   0  0  0  0  0  0
  -17.5018  -31.6271   24.5169 H   0  0  0  0  0  0
  -15.5351  -30.3010   23.7637 H   0  0  0  0  0  0
  -15.8662  -28.0842   22.7054 H   0  0  0  0  0  0
  -24.5895  -30.7093   25.7832 H   0  0  0  0  0  0
  -24.8946  -32.2896   26.4946 H   0  0  0  0  0  0
  -25.8085  -30.8893   27.0243 H   0  0  0  0  0  0
  -26.2857  -29.6821   24.1162 H   0  0  0  0  0  0
  -27.4048  -29.7284   25.4595 H   0  0  0  0  0  0
  -27.8705  -30.4369   23.9301 H   0  0  0  0  0  0
  -27.2661  -33.3620   26.2112 H   0  0  0  0  0  0
  -28.3836  -32.6929   25.0315 H   0  0  0  0  0  0
  -28.0743  -31.8445   26.5387 H   0  0  0  0  0  0
  -28.2611  -38.0096   24.7503 H   0  0  0  0  0  0
  -28.1056  -36.2632   24.6300 H   0  0  0  0  0  0
  -27.2296  -37.1483   25.8867 H   0  0  0  0  0  0
  -20.9304  -29.8769   21.6954 H   0  0  0  0  0  0
  -26.0181  -38.2878   24.1409 H   0  0  0  0  0  0
  -29.8368  -19.3770   18.5567 H   0  0  0  0  0  0
  -30.2879  -17.2539   23.0202 H   0  0  0  0  0  0
  -29.3250  -17.3374   17.5527 H   0  0  0  0  0  0
  -28.9796  -15.9149   18.5201 H   0  0  0  0  0  0
  -30.6428  -16.2759   18.0395 H   0  0  0  0  0  0
  -31.0440  -23.1850   19.3658 H   0  0  0  0  0  0
  -29.7000  -23.4988   18.3136 H   0  0  0  0  0  0
  -27.4241  -24.8255   20.0683 H   0  0  0  0  0  0
  -28.2861  -25.2600   18.5928 H   0  0  0  0  0  0
  -29.2069  -21.3427   18.7561 H   0  0  0  0  0  0
  -28.3176  -22.0139   20.0872 H   0  0  0  0  0  0
  -30.0946  -19.5325   23.9713 H   0  0  0  0  0  0
  -30.1613  -20.8973   22.9706 H   0  0  0  0  0  0
  -29.0989  -15.1712   21.5762 H   0  0  0  0  0  0
  1 25  1  0  0  0
  1 30  2  0  0  0
  1 83  1  0  0  0
  2  3  1  0  0  0
  2 25  1  0  0  0
  2 86  1  0  0  0
  2 87  1  0  0  0
  3  4  1  0  0  0
  3 88  1  0  0  0
  3 89  1  0  0  0
  4  5  1  0  0  0
  4 90  1  0  0  0
  4 91  1  0  0  0
  5  6  1  0  0  0
  5 26  1  0  0  0
  5 92  1  0  0  0
  6 25  1  0  0  0
  6 93  1  0  0  0
  6 94  1  0  0  0
  7  8  2  0  0  0
  7 26  1  0  0  0
  7 29  1  0  0  0
  8  9  1  0  0  0
  8 22  1  0  0  0
  9 10  1  0  0  0
  9 27  2  0  0  0
 10 11  2  0  0  0
 10 15  1  0  0  0
 11 12  1  0  0  0
 11 95  1  0  0  0
 12 13  2  0  0  0
 12 96  1  0  0  0
 13 14  1  0  0  0
 13 31  1  0  0  0
 14 15  2  0  0  0
 14 97  1  0  0  0
 15 98  1  0  0  0
 16 17  2  0  0  0
 16 21  1  0  0  0
 16 31  1  0  0  0
 17 18  1  0  0  0
 17 99  1  0  0  0
 18 19  2  0  0  0
 18100  1  0  0  0
 19 20  1  0  0  0
 19 24  1  0  0  0
 20 21  2  0  0  0
 20101  1  0  0  0
 21 23  1  0  0  0
 22 28  1  0  0  0
 22 32  2  0  0  0
 26 27  1  0  0  0
 28102  1  0  0  0
 28103  1  0  0  0
 29104  1  0  0  0
 29105  1  0  0  0
 33 34  1  0  0  0
 33 66  1  0  0  0
 33 70  2  0  0  0
 34 36  1  0  0  0
 34 59  1  0  0  0
 34106  1  0  0  0
 35 44  2  0  0  0
 35 45  1  0  0  0
 35 68  1  0  0  0
 36 56  1  0  0  0
 36107  1  0  0  0
 37 39  1  0  0  0
 37 47  1  0  0  0
 37 66  1  0  0  0
 37108  1  0  0  0
 38 43  2  0  0  0
 38 46  1  0  0  0
 38 47  1  0  0  0
 39 64  1  0  0  0
 39 67  2  0  0  0
 40 52  1  0  0  0
 40 53  2  0  0  0
 40 58  1  0  0  0
 41109  1  0  0  0
 41110  1  0  0  0
 41111  1  0  0  0
 41 48  1  0  0  0
 42 43  1  0  0  0
 42 66  1  0  0  0
 42112  1  0  0  0
 42113  1  0  0  0
 43 44  1  0  0  0
 44114  1  0  0  0
 45 46  2  0  0  0
 45115  1  0  0  0
 46116  1  0  0  0
 47117  1  0  0  0
 47118  1  0  0  0
 48 56  1  0  0  0
 48 65  1  0  0  0
 48119  1  0  0  0
 49 50  1  0  0  0
 49 53  1  0  0  0
 49 64  1  0  0  0
 49120  1  0  0  0
 50 51  1  0  0  0
 50121  1  0  0  0
 50122  1  0  0  0
 51 52  1  0  0  0
 51123  1  0  0  0
 51124  1  0  0  0
 52125  1  0  0  0
 52126  1  0  0  0
 53 54  1  0  0  0
 54 55  2  0  0  0
 54127  1  0  0  0
 55 57  1  0  0  0
 55128  1  0  0  0
 56 69  2  0  0  0
 57 58  2  0  0  0
 57129  1  0  0  0
 58130  1  0  0  0
 59 60  1  0  0  0
 59 61  1  0  0  0
 59 62  1  0  0  0
 60131  1  0  0  0
 60132  1  0  0  0
 60133  1  0  0  0
 61134  1  0  0  0
 61135  1  0  0  0
 61136  1  0  0  0
 62137  1  0  0  0
 62138  1  0  0  0
 62139  1  0  0  0
 63 65  1  0  0  0
 63140  1  0  0  0
 63141  1  0  0  0
 63142  1  0  0  0
 64143  1  0  0  0
 65144  1  0  0  0
 68 80  1  0  0  0
 71 73  2  0  0  0
 71 76  1  0  0  0
 71145  1  0  0  0
 72 74  2  0  0  0
 72 75  1  0  0  0
 72146  1  0  0  0
 73 74  1  0  0  0
 73 78  1  0  0  0
 74 83  1  0  0  0
 75 76  2  0  0  0
 75 82  1  0  0  0
 76 85  1  0  0  0
 77 79  1  0  0  0
 77 80  1  0  0  0
 77 84  2  0  0  0
 78147  1  0  0  0
 78148  1  0  0  0
 78149  1  0  0  0
 79 81  1  0  0  0
 79150  1  0  0  0
 79151  1  0  0  0
 80152  1  0  0  0
 80153  1  0  0  0
 81 85  1  0  0  0
 81154  1  0  0  0
 81155  1  0  0  0
 82156  1  0  0  0
 82157  1  0  0  0
 83158  1  0  0  0
M  ISO  4   1 100  68 101  80 101  83 100
M  END
> <chiral flag>
0

> <version>
0

> <s_m_source_file>
/data/baiqing/PycharmProjects/Reinvent-master-3.2/result/LINK_invent/BTK/process_docking_weight1_custom_product_contain_oxygen_bond_distance_aromatic_linkinvent_7_9_3/rearranged_h_0107.sdf

> <i_m_source_file_index>
8

> <r_mmod_Potential_Energy-OPLS-2005>
-65.2278518676758

> <r_mmod_Stretch_Energy-OPLS-2005>
41.7228927612305

> <r_mmod_Bend_Energy-OPLS-2005>
110.036003112793

> <r_mmod_Torsional_Energy-OPLS-2005>
244.926193237305

> <r_mmod_Improper_Torsional_Energy-OPLS-2005>
7.26689052581787

> <r_mmod_Van_der_Waal_Energy-OPLS-2005>
154.169052124023

> <r_mmod_Electrostatic_Energy-OPLS-2005>
-383.454620361328

> <r_mmod_Solvation_Energy-OPLS-2005>
-255.122970581055

> <b_mmod_Minimization_Converged-OPLS-2005>
0

> <r_mmod_RMS_Derivative-OPLS-2005>
1.08809578418732

$$$$
8
                    3D
 Structure written by MMmdl.
168177  0  0  1  0            999 V2000
  -30.6827  -14.6218   20.5251 C   0  0  0  0  0  0
  -30.3979  -12.3908   19.4489 C   0  0  0  0  0  0
  -29.4876  -12.5176   18.2109 C   0  0  0  0  0  0
  -28.0111  -12.3580   18.6212 C   0  0  0  0  0  0
  -27.6369  -13.2320   19.8507 C   0  0  2  0  0  0
  -28.6766  -13.1010   20.9809 C   0  0  0  0  0  0
  -25.2428  -13.8172   20.5597 C   0  0  0  0  0  0
  -24.1749  -13.0417   20.9172 C   0  0  0  0  0  0
  -24.6360  -11.6910   20.8736 C   0  0  0  0  0  0
  -23.9076  -10.4275   21.0413 C   0  0  0  0  0  0
  -24.3627   -9.4190   21.9191 C   0  0  0  0  0  0
  -23.6286   -8.2240   22.0763 C   0  0  0  0  0  0
  -22.4275   -8.0284   21.3552 C   0  0  0  0  0  0
  -21.9929   -9.0260   20.4659 C   0  0  0  0  0  0
  -22.7263  -10.2113   20.3058 C   0  0  0  0  0  0
  -21.6857   -6.0726   22.5295 C   0  0  0  0  0  0
  -21.4003   -6.5633   23.8219 C   0  0  0  0  0  0
  -21.3648   -5.6793   24.9184 C   0  0  0  0  0  0
  -21.6043   -4.3055   24.7242 C   0  0  0  0  0  0
  -21.8813   -3.8140   23.4363 C   0  0  0  0  0  0
  -21.9184   -4.6953   22.3418 C   0  0  0  0  0  0
  -22.7769  -13.5209   21.1861 C   0  0  0  0  0  0
  -22.1653   -4.2145   21.0994 F   0  0  0  0  0  0
  -21.5635   -3.4530   25.7749 F   0  0  0  0  0  0
  -29.9916  -13.4355   20.4172 N   0  0  0  0  0  0
  -26.2883  -12.9409   20.3270 N   0  0  0  0  0  0
  -25.9277  -11.6543   20.5724 N   0  0  0  0  0  0
  -22.0440  -12.8197   22.0426 N   0  0  0  0  0  0
  -25.4023  -15.1865   20.3841 N   0  0  0  0  0  0
  -31.8152  -14.6932   20.0464 O   0  0  0  0  0  0
  -21.6632   -6.8883   21.4255 O   0  0  0  0  0  0
  -22.3459  -14.5531   20.6740 O   0  0  0  0  0  0
  -24.6281  -31.8594   23.1946 C   0  0  0  0  0  0
  -25.9134  -32.4789   23.8264 C   0  0  1  0  0  0
  -27.2088  -27.3187   20.0992 C   0  0  0  0  0  0
  -25.5962  -33.8569   24.2271 N   0  0  0  0  0  0
  -23.4152  -30.4866   21.5370 C   0  0  2  0  0  0
  -24.8599  -28.9459   20.0914 C   0  0  0  0  0  0
  -22.7467  -29.4651   22.4871 C   0  0  0  0  0  0
  -18.0293  -28.1436   22.8455 C   0  0  0  0  0  0
  -24.1469  -36.7304   23.2643 C   0  0  0  0  0  0
  -25.9525  -30.7933   21.3542 C   0  0  0  0  0  0
  -26.0271  -29.4176   20.7074 C   0  0  0  0  0  0
  -27.2067  -28.6173   20.7042 C   0  0  0  0  0  0
  -26.0283  -26.9016   19.4543 C   0  0  0  0  0  0
  -24.8713  -27.6998   19.4450 C   0  0  0  0  0  0
  -23.6244  -29.8199   20.1507 C   0  0  0  0  0  0
  -25.4106  -36.3090   24.0326 C   0  0  1  0  0  0
  -20.5896  -28.3727   23.1298 C   0  0  2  0  0  0
  -20.6802  -26.9466   22.5419 C   0  0  0  0  0  0
  -19.5782  -26.6434   21.5230 C   0  0  0  0  0  0
  -18.1944  -26.7974   22.1585 C   0  0  0  0  0  0
  -19.1541  -28.8887   23.2870 C   0  0  0  0  0  0
  -18.9472  -30.1476   23.8901 C   0  0  0  0  0  0
  -17.6473  -30.6621   24.0565 C   0  0  0  0  0  0
  -25.9045  -34.9474   23.5100 C   0  0  0  0  0  0
  -16.5365  -29.9106   23.6322 C   0  0  0  0  0  0
  -16.7279  -28.6533   23.0316 C   0  0  0  0  0  0
  -26.4515  -31.6531   25.0583 C   0  0  0  0  0  0
  -25.3719  -31.3617   26.1269 C   0  0  0  0  0  0
  -27.0338  -30.2981   24.5939 C   0  0  0  0  0  0
  -27.6109  -32.4211   25.7381 C   0  0  0  0  0  0
  -27.5561  -37.1817   24.8466 C   0  0  0  0  0  0
  -21.4155  -29.3107   22.3682 N   0  0  0  0  0  0
  -26.4263  -37.3806   23.9428 N   0  0  0  0  0  0
  -24.6850  -31.0613   22.0872 N   0  0  0  0  0  0
  -23.4202  -28.8159   23.2931 O   0  0  0  0  0  0
  -28.3055  -26.4445   20.0869 O   0  0  0  0  0  0
  -26.5623  -34.8952   22.4664 O   0  0  0  0  0  0
  -23.5444  -32.1396   23.7275 O   0  0  0  0  0  0
  -30.3144  -19.2444   19.5364 C   0  0  0  0  0  0
  -28.3461  -19.1360   20.8588 C   0  0  0  0  0  0
  -30.6629  -17.9013   19.8812 C   0  0  0  0  0  0
  -28.6305  -17.7626   21.1669 C   0  0  0  0  0  0
  -29.1768  -19.9320   20.0289 C   0  0  0  0  0  0
  -29.8128  -17.0797   20.7088 C   0  0  0  0  0  0
  -28.3878  -23.7483   19.8205 C   0  0  0  0  0  0
  -28.6668  -22.4968   20.3606 C   0  0  0  0  0  0
  -28.2758  -23.8428   18.3446 C   0  0  0  0  0  0
  -28.0973  -22.5501   17.5476 C   0  0  0  0  0  0
  -28.8234  -21.3307   18.1353 C   0  0  0  0  0  0
  -32.0258  -17.4535   19.3763 C   0  0  0  0  0  0
  -27.5922  -17.0596   22.0256 C   0  0  0  0  0  0
  -28.8353  -22.3276   21.8656 C   0  0  0  0  0  0
  -30.2503  -15.5656   22.6638 C   0  0  0  0  0  0
  -28.0979  -25.0786   20.6410 C   0  0  0  0  0  0
  -28.8636  -21.2855   19.6034 N   0  0  0  0  0  0
  -30.1209  -15.6962   21.1991 N   0  0  0  0  0  0
  -28.2918  -24.9036   17.7138 O   0  0  0  0  0  0
  -31.4462  -12.4602   19.1548 H   0  0  0  0  0  0
  -30.2850  -11.4006   19.8943 H   0  0  0  0  0  0
  -29.7485  -11.7617   17.4681 H   0  0  0  0  0  0
  -29.6346  -13.4855   17.7295 H   0  0  0  0  0  0
  -27.8435  -11.3052   18.8499 H   0  0  0  0  0  0
  -27.3545  -12.5855   17.7813 H   0  0  0  0  0  0
  -27.6559  -14.2689   19.5136 H   0  0  0  0  0  0
  -28.6738  -12.0830   21.3702 H   0  0  0  0  0  0
  -28.4074  -13.7372   21.8223 H   0  0  0  0  0  0
  -25.2762   -9.5652   22.4764 H   0  0  0  0  0  0
  -23.9983   -7.4631   22.7466 H   0  0  0  0  0  0
  -21.0876   -8.8787   19.8950 H   0  0  0  0  0  0
  -22.3757  -10.9653   19.6152 H   0  0  0  0  0  0
  -21.1989   -7.6135   23.9733 H   0  0  0  0  0  0
  -21.1476   -6.0509   25.9087 H   0  0  0  0  0  0
  -22.0598   -2.7608   23.2871 H   0  0  0  0  0  0
  -22.4045  -11.9832   22.4787 H   0  0  0  0  0  0
  -21.1043  -13.1187   22.2625 H   0  0  0  0  0  0
  -24.6306  -15.8350   20.4964 H   0  0  0  0  0  0
  -26.2474  -15.6296   20.0503 H   0  0  0  0  0  0
  -26.7157  -32.5427   23.0950 H   0  0  0  0  0  0
  -25.0102  -33.9701   25.0424 H   0  0  0  0  0  0
  -22.7120  -31.3097   21.3945 H   0  0  0  0  0  0
  -23.3743  -35.9639   23.3314 H   0  0  0  0  0  0
  -24.3547  -36.8947   22.2060 H   0  0  0  0  0  0
  -23.7235  -37.6511   23.6668 H   0  0  0  0  0  0
  -26.0652  -31.5437   20.5688 H   0  0  0  0  0  0
  -26.8435  -30.8608   21.9662 H   0  0  0  0  0  0
  -28.0997  -28.9758   21.1978 H   0  0  0  0  0  0
  -26.0050  -25.9459   18.9468 H   0  0  0  0  0  0
  -23.9900  -27.3458   18.9317 H   0  0  0  0  0  0
  -23.7187  -30.5956   19.3879 H   0  0  0  0  0  0
  -22.7442  -29.2420   19.8601 H   0  0  0  0  0  0
  -25.1292  -36.1918   25.0823 H   0  0  0  0  0  0
  -20.9994  -28.3334   24.1400 H   0  0  0  0  0  0
  -20.5798  -26.2329   23.3598 H   0  0  0  0  0  0
  -21.6651  -26.7598   22.1135 H   0  0  0  0  0  0
  -19.6991  -25.6372   21.1204 H   0  0  0  0  0  0
  -19.6725  -27.3265   20.6787 H   0  0  0  0  0  0
  -17.4235  -26.6742   21.3958 H   0  0  0  0  0  0
  -18.0309  -26.0158   22.9015 H   0  0  0  0  0  0
  -19.7967  -30.7278   24.2291 H   0  0  0  0  0  0
  -17.5041  -31.6283   24.5178 H   0  0  0  0  0  0
  -15.5367  -30.2994   23.7687 H   0  0  0  0  0  0
  -15.8668  -28.0846   22.7036 H   0  0  0  0  0  0
  -24.6043  -30.6791   25.7577 H   0  0  0  0  0  0
  -24.8707  -32.2724   26.4569 H   0  0  0  0  0  0
  -25.8039  -30.8904   27.0104 H   0  0  0  0  0  0
  -26.2854  -29.6745   24.1026 H   0  0  0  0  0  0
  -27.4181  -29.7193   25.4359 H   0  0  0  0  0  0
  -27.8626  -30.4318   23.8980 H   0  0  0  0  0  0
  -27.2819  -33.3629   26.1778 H   0  0  0  0  0  0
  -28.4017  -32.6595   25.0240 H   0  0  0  0  0  0
  -28.0603  -31.8373   26.5431 H   0  0  0  0  0  0
  -28.2577  -38.0123   24.7562 H   0  0  0  0  0  0
  -28.1048  -36.2683   24.6208 H   0  0  0  0  0  0
  -27.2265  -37.1335   25.8856 H   0  0  0  0  0  0
  -20.9327  -29.8755   21.6821 H   0  0  0  0  0  0
  -26.0136  -38.2865   24.1472 H   0  0  0  0  0  0
  -30.9835  -19.7964   18.8924 H   0  0  0  0  0  0
  -27.4450  -19.5799   21.2544 H   0  0  0  0  0  0
  -28.4582  -22.7129   16.5324 H   0  0  0  0  0  0
  -27.0306  -22.3473   17.4696 H   0  0  0  0  0  0
  -29.8377  -21.3138   17.7371 H   0  0  0  0  0  0
  -28.3280  -20.4374   17.7478 H   0  0  0  0  0  0
  -32.6096  -18.3016   19.0174 H   0  0  0  0  0  0
  -31.9419  -16.7639   18.5332 H   0  0  0  0  0  0
  -32.6114  -17.0059   20.1788 H   0  0  0  0  0  0
  -26.5869  -17.4213   21.8087 H   0  0  0  0  0  0
  -27.7866  -17.2474   23.0810 H   0  0  0  0  0  0
  -27.5757  -15.9841   21.8617 H   0  0  0  0  0  0
  -27.8630  -22.2868   22.3615 H   0  0  0  0  0  0
  -29.4062  -23.1572   22.2871 H   0  0  0  0  0  0
  -29.3872  -21.4306   22.1305 H   0  0  0  0  0  0
  -30.7928  -16.4196   23.0682 H   0  0  0  0  0  0
  -30.7973  -14.6723   22.9763 H   0  0  0  0  0  0
  -29.2890  -15.5049   23.1718 H   0  0  0  0  0  0
  -28.7384  -25.0506   21.5197 H   0  0  0  0  0  0
  -27.0850  -24.9880   21.0326 H   0  0  0  0  0  0
  1 25  1  0  0  0
  1 30  2  0  0  0
  1 88  1  0  0  0
  2  3  1  0  0  0
  2 25  1  0  0  0
  2 90  1  0  0  0
  2 91  1  0  0  0
  3  4  1  0  0  0
  3 92  1  0  0  0
  3 93  1  0  0  0
  4  5  1  0  0  0
  4 94  1  0  0  0
  4 95  1  0  0  0
  5  6  1  0  0  0
  5 26  1  0  0  0
  5 96  1  0  0  0
  6 25  1  0  0  0
  6 97  1  0  0  0
  6 98  1  0  0  0
  7  8  2  0  0  0
  7 26  1  0  0  0
  7 29  1  0  0  0
  8  9  1  0  0  0
  8 22  1  0  0  0
  9 10  1  0  0  0
  9 27  2  0  0  0
 10 11  2  0  0  0
 10 15  1  0  0  0
 11 12  1  0  0  0
 11 99  1  0  0  0
 12 13  2  0  0  0
 12100  1  0  0  0
 13 14  1  0  0  0
 13 31  1  0  0  0
 14 15  2  0  0  0
 14101  1  0  0  0
 15102  1  0  0  0
 16 17  2  0  0  0
 16 21  1  0  0  0
 16 31  1  0  0  0
 17 18  1  0  0  0
 17103  1  0  0  0
 18 19  2  0  0  0
 18104  1  0  0  0
 19 20  1  0  0  0
 19 24  1  0  0  0
 20 21  2  0  0  0
 20105  1  0  0  0
 21 23  1  0  0  0
 22 28  1  0  0  0
 22 32  2  0  0  0
 26 27  1  0  0  0
 28106  1  0  0  0
 28107  1  0  0  0
 29108  1  0  0  0
 29109  1  0  0  0
 33 34  1  0  0  0
 33 66  1  0  0  0
 33 70  2  0  0  0
 34 36  1  0  0  0
 34 59  1  0  0  0
 34110  1  0  0  0
 35 44  2  0  0  0
 35 45  1  0  0  0
 35 68  1  0  0  0
 36 56  1  0  0  0
 36111  1  0  0  0
 37 39  1  0  0  0
 37 47  1  0  0  0
 37 66  1  0  0  0
 37112  1  0  0  0
 38 43  2  0  0  0
 38 46  1  0  0  0
 38 47  1  0  0  0
 39 64  1  0  0  0
 39 67  2  0  0  0
 40 52  1  0  0  0
 40 53  2  0  0  0
 40 58  1  0  0  0
 41113  1  0  0  0
 41114  1  0  0  0
 41115  1  0  0  0
 41 48  1  0  0  0
 42 43  1  0  0  0
 42 66  1  0  0  0
 42116  1  0  0  0
 42117  1  0  0  0
 43 44  1  0  0  0
 44118  1  0  0  0
 45 46  2  0  0  0
 45119  1  0  0  0
 46120  1  0  0  0
 47121  1  0  0  0
 47122  1  0  0  0
 48 56  1  0  0  0
 48 65  1  0  0  0
 48123  1  0  0  0
 49 50  1  0  0  0
 49 53  1  0  0  0
 49 64  1  0  0  0
 49124  1  0  0  0
 50 51  1  0  0  0
 50125  1  0  0  0
 50126  1  0  0  0
 51 52  1  0  0  0
 51127  1  0  0  0
 51128  1  0  0  0
 52129  1  0  0  0
 52130  1  0  0  0
 53 54  1  0  0  0
 54 55  2  0  0  0
 54131  1  0  0  0
 55 57  1  0  0  0
 55132  1  0  0  0
 56 69  2  0  0  0
 57 58  2  0  0  0
 57133  1  0  0  0
 58134  1  0  0  0
 59 60  1  0  0  0
 59 61  1  0  0  0
 59 62  1  0  0  0
 60135  1  0  0  0
 60136  1  0  0  0
 60137  1  0  0  0
 61138  1  0  0  0
 61139  1  0  0  0
 61140  1  0  0  0
 62141  1  0  0  0
 62142  1  0  0  0
 62143  1  0  0  0
 63 65  1  0  0  0
 63144  1  0  0  0
 63145  1  0  0  0
 63146  1  0  0  0
 64147  1  0  0  0
 65148  1  0  0  0
 68 86  1  0  0  0
 71 73  2  0  0  0
 71 75  1  0  0  0
 71149  1  0  0  0
 72 74  1  0  0  0
 72 75  2  0  0  0
 72150  1  0  0  0
 73 76  1  0  0  0
 73 82  1  0  0  0
 74 76  2  0  0  0
 74 83  1  0  0  0
 75 87  1  0  0  0
 76 88  1  0  0  0
 77 78  2  0  0  0
 77 79  1  0  0  0
 77 86  1  0  0  0
 78 84  1  0  0  0
 78 87  1  0  0  0
 79 80  1  0  0  0
 79 89  2  0  0  0
 80 81  1  0  0  0
 80151  1  0  0  0
 80152  1  0  0  0
 81 87  1  0  0  0
 81153  1  0  0  0
 81154  1  0  0  0
 82155  1  0  0  0
 82156  1  0  0  0
 82157  1  0  0  0
 83158  1  0  0  0
 83159  1  0  0  0
 83160  1  0  0  0
 84161  1  0  0  0
 84162  1  0  0  0
 84163  1  0  0  0
 85 88  1  0  0  0
 85164  1  0  0  0
 85165  1  0  0  0
 85166  1  0  0  0
 86167  1  0  0  0
 86168  1  0  0  0
M  ISO  4   1 100  68 101  86 101  88 100
M  END
> <chiral flag>
0

> <version>
0

> <s_m_source_file>
/data/baiqing/PycharmProjects/Reinvent-master-3.2/result/LINK_invent/BTK/process_docking_weight1_custom_product_contain_oxygen_bond_distance_aromatic_linkinvent_7_9_3/rearranged_h_0107.sdf

> <i_m_source_file_index>
9

> <r_mmod_Potential_Energy-OPLS-2005>
321.355560302734

> <r_mmod_Stretch_Energy-OPLS-2005>
110.274337768555

> <r_mmod_Bend_Energy-OPLS-2005>
170.858581542969

> <r_mmod_Torsional_Energy-OPLS-2005>
323.271179199219

> <r_mmod_Improper_Torsional_Energy-OPLS-2005>
3.89151501655579

> <r_mmod_Van_der_Waal_Energy-OPLS-2005>
170.723480224609

> <r_mmod_Electrostatic_Energy-OPLS-2005>
-308.261352539062

> <r_mmod_Solvation_Energy-OPLS-2005>
-195.900924682617

> <b_mmod_Minimization_Converged-OPLS-2005>
0

> <r_mmod_RMS_Derivative-OPLS-2005>
6.50755882263184

$$$$
9
                    3D
 Structure written by MMmdl.
162170  0  0  1  0            999 V2000
  -30.7270  -14.4797   20.5337 C   0  0  0  0  0  0
  -30.4010  -12.3052   19.4248 C   0  0  0  0  0  0
  -29.4835  -12.4963   18.2032 C   0  0  0  0  0  0
  -28.0068  -12.3632   18.6175 C   0  0  0  0  0  0
  -27.6519  -13.2179   19.8662 C   0  0  2  0  0  0
  -28.6954  -13.0465   20.9926 C   0  0  0  0  0  0
  -25.2542  -13.8180   20.5692 C   0  0  0  0  0  0
  -24.1817  -13.0445   20.9198 C   0  0  0  0  0  0
  -24.6390  -11.6914   20.8741 C   0  0  0  0  0  0
  -23.9068  -10.4296   21.0401 C   0  0  0  0  0  0
  -24.3612   -9.4212   21.9188 C   0  0  0  0  0  0
  -23.6296   -8.2244   22.0762 C   0  0  0  0  0  0
  -22.4286   -8.0284   21.3552 C   0  0  0  0  0  0
  -21.9908   -9.0242   20.4652 C   0  0  0  0  0  0
  -22.7232  -10.2133   20.3063 C   0  0  0  0  0  0
  -21.6858   -6.0745   22.5277 C   0  0  0  0  0  0
  -21.4005   -6.5639   23.8216 C   0  0  0  0  0  0
  -21.3662   -5.6794   24.9174 C   0  0  0  0  0  0
  -21.6044   -4.3061   24.7230 C   0  0  0  0  0  0
  -21.8818   -3.8155   23.4348 C   0  0  0  0  0  0
  -21.9190   -4.6966   22.3404 C   0  0  0  0  0  0
  -22.7841  -13.5235   21.1858 C   0  0  0  0  0  0
  -22.1665   -4.2153   21.0980 F   0  0  0  0  0  0
  -21.5629   -3.4549   25.7739 F   0  0  0  0  0  0
  -30.0198  -13.3222   20.4199 N   0  0  0  0  0  0
  -26.2972  -12.9368   20.3343 N   0  0  0  0  0  0
  -25.9316  -11.6522   20.5761 N   0  0  0  0  0  0
  -22.0490  -12.8216   22.0405 N   0  0  0  0  0  0
  -25.4245  -15.1895   20.4099 N   0  0  0  0  0  0
  -31.8946  -14.5450   20.1388 O   0  0  0  0  0  0
  -21.6649   -6.8881   21.4244 O   0  0  0  0  0  0
  -22.3521  -14.5547   20.6724 O   0  0  0  0  0  0
  -24.6139  -31.8701   23.2078 C   0  0  0  0  0  0
  -25.9032  -32.4830   23.8394 C   0  0  1  0  0  0
  -27.2273  -27.4266   20.0967 C   0  0  0  0  0  0
  -25.5926  -33.8637   24.2322 N   0  0  0  0  0  0
  -23.3991  -30.4947   21.5470 C   0  0  2  0  0  0
  -24.8436  -28.9590   20.1130 C   0  0  0  0  0  0
  -22.7379  -29.4691   22.4954 C   0  0  0  0  0  0
  -18.0267  -28.1347   22.8491 C   0  0  0  0  0  0
  -24.1505  -36.7315   23.2633 C   0  0  0  0  0  0
  -25.9287  -30.8343   21.3602 C   0  0  0  0  0  0
  -26.0043  -29.4676   20.7077 C   0  0  0  0  0  0
  -27.1969  -28.7095   20.6928 C   0  0  0  0  0  0
  -26.0427  -26.9308   19.5037 C   0  0  0  0  0  0
  -24.8591  -27.6915   19.5083 C   0  0  0  0  0  0
  -23.6051  -29.8242   20.1610 C   0  0  0  0  0  0
  -25.4133  -36.3128   24.0326 C   0  0  1  0  0  0
  -20.5857  -28.3688   23.1276 C   0  0  2  0  0  0
  -20.6774  -26.9422   22.5388 C   0  0  0  0  0  0
  -19.5753  -26.6374   21.5184 C   0  0  0  0  0  0
  -18.1929  -26.7889   22.1594 C   0  0  0  0  0  0
  -19.1516  -28.8819   23.2898 C   0  0  0  0  0  0
  -18.9460  -30.1417   23.8933 C   0  0  0  0  0  0
  -17.6474  -30.6575   24.0549 C   0  0  0  0  0  0
  -25.9051  -34.9486   23.5110 C   0  0  0  0  0  0
  -16.5361  -29.9084   23.6319 C   0  0  0  0  0  0
  -16.7260  -28.6464   23.0380 C   0  0  0  0  0  0
  -26.4479  -31.6606   25.0703 C   0  0  0  0  0  0
  -25.3727  -31.3700   26.1429 C   0  0  0  0  0  0
  -27.0315  -30.3051   24.6067 C   0  0  0  0  0  0
  -27.6067  -32.4322   25.7462 C   0  0  0  0  0  0
  -27.5593  -37.1817   24.8455 C   0  0  0  0  0  0
  -21.4108  -29.3059   22.3685 N   0  0  0  0  0  0
  -26.4317  -37.3812   23.9394 N   0  0  0  0  0  0
  -24.6655  -31.0796   22.0976 N   0  0  0  0  0  0
  -23.4150  -28.8233   23.2990 O   0  0  0  0  0  0
  -28.4147  -26.7211   20.1169 O   0  0  0  0  0  0
  -26.5590  -34.8926   22.4648 O   0  0  0  0  0  0
  -23.5328  -32.1470   23.7445 O   0  0  0  0  0  0
  -28.9405  -18.4562   22.0998 C   0  0  0  0  0  0
  -28.8698  -20.0851   19.8181 C   0  0  0  0  0  0
  -29.5843  -18.0122   20.9241 C   0  0  0  0  0  0
  -28.3164  -19.7260   22.1528 C   0  0  0  0  0  0
  -29.4958  -18.8171   19.7543 C   0  0  0  0  0  0
  -28.3267  -20.5850   21.0260 C   0  0  0  0  0  0
  -30.5270  -16.8337   20.9872 C   0  0  0  0  0  0
  -27.6831  -20.1932   23.4516 C   0  0  0  0  0  0
  -29.2051  -17.3231   17.7213 C   0  0  0  0  0  0
  -30.0805  -18.3744   18.4170 C   0  0  0  0  0  0
  -27.9574  -24.3100   20.6653 C   0  0  0  0  0  0
  -28.4713  -25.3644   19.6485 C   0  0  0  0  0  0
  -28.2400  -22.8581   20.2027 C   0  0  0  0  0  0
  -30.0227  -15.5827   20.8879 N   0  0  0  0  0  0
  -31.7281  -17.1022   21.1064 O   0  0  0  0  0  0
  -27.8252  -21.8736   21.1613 O   0  0  0  0  0  0
  -31.4471  -12.3708   19.1212 H   0  0  0  0  0  0
  -30.2803  -11.3049   19.8451 H   0  0  0  0  0  0
  -29.7223  -11.7631   17.4326 H   0  0  0  0  0  0
  -29.6550  -13.4771   17.7575 H   0  0  0  0  0  0
  -27.8159  -11.3078   18.8218 H   0  0  0  0  0  0
  -27.3571  -12.6325   17.7836 H   0  0  0  0  0  0
  -27.6808  -14.2594   19.5441 H   0  0  0  0  0  0
  -28.6707  -12.0306   21.3877 H   0  0  0  0  0  0
  -28.4701  -13.7015   21.8354 H   0  0  0  0  0  0
  -25.2757   -9.5701   22.4755 H   0  0  0  0  0  0
  -24.0012   -7.4643   22.7471 H   0  0  0  0  0  0
  -21.0846   -8.8762   19.8941 H   0  0  0  0  0  0
  -22.3687  -10.9674   19.6168 H   0  0  0  0  0  0
  -21.1995   -7.6147   23.9714 H   0  0  0  0  0  0
  -21.1484   -6.0529   25.9073 H   0  0  0  0  0  0
  -22.0594   -2.7621   23.2851 H   0  0  0  0  0  0
  -22.4124  -11.9875   22.4769 H   0  0  0  0  0  0
  -21.1105  -13.1227   22.2630 H   0  0  0  0  0  0
  -24.6524  -15.8389   20.5167 H   0  0  0  0  0  0
  -26.2675  -15.6355   20.0728 H   0  0  0  0  0  0
  -26.7072  -32.5548   23.1139 H   0  0  0  0  0  0
  -25.0168  -33.9840   25.0525 H   0  0  0  0  0  0
  -22.6918  -31.3139   21.4048 H   0  0  0  0  0  0
  -23.3776  -35.9637   23.3305 H   0  0  0  0  0  0
  -24.3599  -36.8920   22.2048 H   0  0  0  0  0  0
  -23.7241  -37.6511   23.6637 H   0  0  0  0  0  0
  -26.0410  -31.6016   20.5930 H   0  0  0  0  0  0
  -26.8174  -30.8875   21.9784 H   0  0  0  0  0  0
  -28.0972  -29.1047   21.1438 H   0  0  0  0  0  0
  -26.0037  -25.9604   19.0345 H   0  0  0  0  0  0
  -23.9650  -27.2943   19.0498 H   0  0  0  0  0  0
  -23.7069  -30.5962   19.3980 H   0  0  0  0  0  0
  -22.7319  -29.2381   19.8687 H   0  0  0  0  0  0
  -25.1308  -36.2011   25.0820 H   0  0  0  0  0  0
  -20.9980  -28.3283   24.1381 H   0  0  0  0  0  0
  -20.5667  -26.2327   23.3600 H   0  0  0  0  0  0
  -21.6662  -26.7447   22.1217 H   0  0  0  0  0  0
  -19.6957  -25.6276   21.1248 H   0  0  0  0  0  0
  -19.6700  -27.3155   20.6689 H   0  0  0  0  0  0
  -17.4223  -26.6647   21.3976 H   0  0  0  0  0  0
  -18.0347  -25.9991   22.8956 H   0  0  0  0  0  0
  -19.7953  -30.7191   24.2352 H   0  0  0  0  0  0
  -17.5042  -31.6263   24.5137 H   0  0  0  0  0  0
  -15.5374  -30.3013   23.7581 H   0  0  0  0  0  0
  -15.8650  -28.0762   22.7140 H   0  0  0  0  0  0
  -24.5923  -30.7022   25.7736 H   0  0  0  0  0  0
  -24.8889  -32.2847   26.4863 H   0  0  0  0  0  0
  -25.8063  -30.8874   27.0192 H   0  0  0  0  0  0
  -26.2835  -29.6829   24.1133 H   0  0  0  0  0  0
  -27.4091  -29.7283   25.4528 H   0  0  0  0  0  0
  -27.8672  -30.4365   23.9182 H   0  0  0  0  0  0
  -27.2691  -33.3625   26.2041 H   0  0  0  0  0  0
  -28.3879  -32.6893   25.0282 H   0  0  0  0  0  0
  -28.0720  -31.8441   26.5385 H   0  0  0  0  0  0
  -28.2613  -38.0123   24.7543 H   0  0  0  0  0  0
  -28.1096  -36.2656   24.6253 H   0  0  0  0  0  0
  -27.2297  -37.1426   25.8854 H   0  0  0  0  0  0
  -20.9260  -29.8802   21.6928 H   0  0  0  0  0  0
  -26.0218  -38.2890   24.1387 H   0  0  0  0  0  0
  -28.9959  -17.8462   22.9920 H   0  0  0  0  0  0
  -28.8433  -20.6886   18.9213 H   0  0  0  0  0  0
  -27.6972  -19.4105   24.2099 H   0  0  0  0  0  0
  -26.6432  -20.4740   23.2874 H   0  0  0  0  0  0
  -28.2145  -21.0593   23.8455 H   0  0  0  0  0  0
  -29.6295  -17.0399   16.7571 H   0  0  0  0  0  0
  -28.1992  -17.7070   17.5418 H   0  0  0  0  0  0
  -29.1129  -16.4149   18.3153 H   0  0  0  0  0  0
  -31.0978  -18.0006   18.5424 H   0  0  0  0  0  0
  -30.1756  -19.2387   17.7578 H   0  0  0  0  0  0
  -26.8900  -24.4454   20.8413 H   0  0  0  0  0  0
  -28.4494  -24.4757   21.6242 H   0  0  0  0  0  0
  -27.9897  -25.2512   18.6771 H   0  0  0  0  0  0
  -29.5253  -25.1630   19.4537 H   0  0  0  0  0  0
  -29.3129  -22.7606   20.0285 H   0  0  0  0  0  0
  -27.7357  -22.6749   19.2538 H   0  0  0  0  0  0
  -29.0268  -15.4820   20.9770 H   0  0  0  0  0  0
  1 25  1  0  0  0
  1 30  2  0  0  0
  1 84  1  0  0  0
  2  3  1  0  0  0
  2 25  1  0  0  0
  2 87  1  0  0  0
  2 88  1  0  0  0
  3  4  1  0  0  0
  3 89  1  0  0  0
  3 90  1  0  0  0
  4  5  1  0  0  0
  4 91  1  0  0  0
  4 92  1  0  0  0
  5  6  1  0  0  0
  5 26  1  0  0  0
  5 93  1  0  0  0
  6 25  1  0  0  0
  6 94  1  0  0  0
  6 95  1  0  0  0
  7  8  2  0  0  0
  7 26  1  0  0  0
  7 29  1  0  0  0
  8  9  1  0  0  0
  8 22  1  0  0  0
  9 10  1  0  0  0
  9 27  2  0  0  0
 10 11  2  0  0  0
 10 15  1  0  0  0
 11 12  1  0  0  0
 11 96  1  0  0  0
 12 13  2  0  0  0
 12 97  1  0  0  0
 13 14  1  0  0  0
 13 31  1  0  0  0
 14 15  2  0  0  0
 14 98  1  0  0  0
 15 99  1  0  0  0
 16 17  2  0  0  0
 16 21  1  0  0  0
 16 31  1  0  0  0
 17 18  1  0  0  0
 17100  1  0  0  0
 18 19  2  0  0  0
 18101  1  0  0  0
 19 20  1  0  0  0
 19 24  1  0  0  0
 20 21  2  0  0  0
 20102  1  0  0  0
 21 23  1  0  0  0
 22 28  1  0  0  0
 22 32  2  0  0  0
 26 27  1  0  0  0
 28103  1  0  0  0
 28104  1  0  0  0
 29105  1  0  0  0
 29106  1  0  0  0
 33 34  1  0  0  0
 33 66  1  0  0  0
 33 70  2  0  0  0
 34 36  1  0  0  0
 34 59  1  0  0  0
 34107  1  0  0  0
 35 44  2  0  0  0
 35 45  1  0  0  0
 35 68  1  0  0  0
 36 56  1  0  0  0
 36108  1  0  0  0
 37 39  1  0  0  0
 37 47  1  0  0  0
 37 66  1  0  0  0
 37109  1  0  0  0
 38 43  2  0  0  0
 38 46  1  0  0  0
 38 47  1  0  0  0
 39 64  1  0  0  0
 39 67  2  0  0  0
 40 52  1  0  0  0
 40 53  2  0  0  0
 40 58  1  0  0  0
 41110  1  0  0  0
 41111  1  0  0  0
 41112  1  0  0  0
 41 48  1  0  0  0
 42 43  1  0  0  0
 42 66  1  0  0  0
 42113  1  0  0  0
 42114  1  0  0  0
 43 44  1  0  0  0
 44115  1  0  0  0
 45 46  2  0  0  0
 45116  1  0  0  0
 46117  1  0  0  0
 47118  1  0  0  0
 47119  1  0  0  0
 48 56  1  0  0  0
 48 65  1  0  0  0
 48120  1  0  0  0
 49 50  1  0  0  0
 49 53  1  0  0  0
 49 64  1  0  0  0
 49121  1  0  0  0
 50 51  1  0  0  0
 50122  1  0  0  0
 50123  1  0  0  0
 51 52  1  0  0  0
 51124  1  0  0  0
 51125  1  0  0  0
 52126  1  0  0  0
 52127  1  0  0  0
 53 54  1  0  0  0
 54 55  2  0  0  0
 54128  1  0  0  0
 55 57  1  0  0  0
 55129  1  0  0  0
 56 69  2  0  0  0
 57 58  2  0  0  0
 57130  1  0  0  0
 58131  1  0  0  0
 59 60  1  0  0  0
 59 61  1  0  0  0
 59 62  1  0  0  0
 60132  1  0  0  0
 60133  1  0  0  0
 60134  1  0  0  0
 61135  1  0  0  0
 61136  1  0  0  0
 61137  1  0  0  0
 62138  1  0  0  0
 62139  1  0  0  0
 62140  1  0  0  0
 63 65  1  0  0  0
 63141  1  0  0  0
 63142  1  0  0  0
 63143  1  0  0  0
 64144  1  0  0  0
 65145  1  0  0  0
 68 82  1  0  0  0
 71 73  2  0  0  0
 71 74  1  0  0  0
 71146  1  0  0  0
 72 75  2  0  0  0
 72 76  1  0  0  0
 72147  1  0  0  0
 73 75  1  0  0  0
 73 77  1  0  0  0
 74 76  2  0  0  0
 74 78  1  0  0  0
 75 80  1  0  0  0
 76 86  1  0  0  0
 77 84  1  0  0  0
 77 85  2  0  0  0
 78148  1  0  0  0
 78149  1  0  0  0
 78150  1  0  0  0
 79 80  1  0  0  0
 79151  1  0  0  0
 79152  1  0  0  0
 79153  1  0  0  0
 80154  1  0  0  0
 80155  1  0  0  0
 81 82  1  0  0  0
 81 83  1  0  0  0
 81156  1  0  0  0
 81157  1  0  0  0
 82158  1  0  0  0
 82159  1  0  0  0
 83 86  1  0  0  0
 83160  1  0  0  0
 83161  1  0  0  0
 84162  1  0  0  0
M  ISO  4   1 100  68 101  82 101  84 100
M  END
> <chiral flag>
0

> <version>
0

> <s_m_source_file>
/data/baiqing/PycharmProjects/Reinvent-master-3.2/result/LINK_invent/BTK/process_docking_weight1_custom_product_contain_oxygen_bond_distance_aromatic_linkinvent_7_9_3/rearranged_h_0107.sdf

> <i_m_source_file_index>
10

> <r_mmod_Potential_Energy-OPLS-2005>
-84.6763000488281

> <r_mmod_Stretch_Energy-OPLS-2005>
40.0000267028809

> <r_mmod_Bend_Energy-OPLS-2005>
108.421577453613

> <r_mmod_Torsional_Energy-OPLS-2005>
239.370590209961

> <r_mmod_Improper_Torsional_Energy-OPLS-2005>
6.18641710281372

> <r_mmod_Van_der_Waal_Energy-OPLS-2005>
159.810821533203

> <r_mmod_Electrostatic_Energy-OPLS-2005>
-435.225036621094

> <r_mmod_Solvation_Energy-OPLS-2005>
-221.687850952148

> <b_mmod_Minimization_Converged-OPLS-2005>
0

> <r_mmod_RMS_Derivative-OPLS-2005>
2.94994258880615

$$$$
10
                    3D
 Structure written by MMmdl.
169178  0  0  1  0            999 V2000
  -30.7082  -14.4183   20.5055 C   0  0  0  0  0  0
  -30.4222  -12.2533   19.4227 C   0  0  0  0  0  0
  -29.4944  -12.4683   18.2036 C   0  0  0  0  0  0
  -28.0163  -12.3259   18.6169 C   0  0  0  0  0  0
  -27.6634  -13.1872   19.8611 C   0  0  2  0  0  0
  -28.7059  -12.9678   20.9821 C   0  0  0  0  0  0
  -25.2632  -13.8087   20.5678 C   0  0  0  0  0  0
  -24.1870  -13.0334   20.9174 C   0  0  0  0  0  0
  -24.6410  -11.6822   20.8672 C   0  0  0  0  0  0
  -23.9082  -10.4207   21.0352 C   0  0  0  0  0  0
  -24.3630   -9.4108   21.9141 C   0  0  0  0  0  0
  -23.6294   -8.2149   22.0702 C   0  0  0  0  0  0
  -22.4265   -8.0203   21.3505 C   0  0  0  0  0  0
  -21.9899   -9.0145   20.4585 C   0  0  0  0  0  0
  -22.7225  -10.2040   20.3013 C   0  0  0  0  0  0
  -21.6799   -6.0658   22.5267 C   0  0  0  0  0  0
  -21.3943   -6.5603   23.8194 C   0  0  0  0  0  0
  -21.3718   -5.6788   24.9183 C   0  0  0  0  0  0
  -21.6085   -4.3025   24.7238 C   0  0  0  0  0  0
  -21.8795   -3.8091   23.4363 C   0  0  0  0  0  0
  -21.9180   -4.6901   22.3411 C   0  0  0  0  0  0
  -22.7892  -13.5098   21.1927 C   0  0  0  0  0  0
  -22.1631   -4.2082   21.0985 F   0  0  0  0  0  0
  -21.5728   -3.4527   25.7776 F   0  0  0  0  0  0
  -30.0450  -13.2368   20.4388 N   0  0  0  0  0  0
  -26.3036  -12.9234   20.3289 N   0  0  0  0  0  0
  -25.9343  -11.6411   20.5700 N   0  0  0  0  0  0
  -22.0624  -12.7927   22.0486 N   0  0  0  0  0  0
  -25.4354  -15.1773   20.4086 N   0  0  0  0  0  0
  -31.8972  -14.5295   20.2055 O   0  0  0  0  0  0
  -21.6624   -6.8763   21.4213 O   0  0  0  0  0  0
  -22.3524  -14.5423   20.6882 O   0  0  0  0  0  0
  -24.6059  -31.8749   23.2212 C   0  0  0  0  0  0
  -25.8990  -32.4866   23.8437 C   0  0  1  0  0  0
  -27.2371  -27.5179   20.0446 C   0  0  0  0  0  0
  -25.5886  -33.8654   24.2382 N   0  0  0  0  0  0
  -23.3865  -30.5007   21.5635 C   0  0  2  0  0  0
  -24.8284  -28.9697   20.1234 C   0  0  0  0  0  0
  -22.7332  -29.4680   22.5081 C   0  0  0  0  0  0
  -18.0246  -28.1373   22.8495 C   0  0  0  0  0  0
  -24.1456  -36.7343   23.2628 C   0  0  0  0  0  0
  -25.9051  -30.8636   21.3541 C   0  0  0  0  0  0
  -25.9845  -29.4968   20.7128 C   0  0  0  0  0  0
  -27.1910  -28.7725   20.6796 C   0  0  0  0  0  0
  -26.0668  -26.9912   19.4554 C   0  0  0  0  0  0
  -24.8554  -27.7054   19.5095 C   0  0  0  0  0  0
  -23.5871  -29.8301   20.1782 C   0  0  0  0  0  0
  -25.4063  -36.3140   24.0353 C   0  0  1  0  0  0
  -20.5818  -28.3624   23.1384 C   0  0  2  0  0  0
  -20.6724  -26.9378   22.5465 C   0  0  0  0  0  0
  -19.5727  -26.6398   21.5227 C   0  0  0  0  0  0
  -18.1892  -26.7937   22.1615 C   0  0  0  0  0  0
  -19.1489  -28.8816   23.2941 C   0  0  0  0  0  0
  -18.9432  -30.1431   23.8949 C   0  0  0  0  0  0
  -17.6424  -30.6584   24.0584 C   0  0  0  0  0  0
  -25.9009  -34.9509   23.5153 C   0  0  0  0  0  0
  -16.5319  -29.9095   23.6310 C   0  0  0  0  0  0
  -16.7239  -28.6511   23.0342 C   0  0  0  0  0  0
  -26.4461  -31.6620   25.0713 C   0  0  0  0  0  0
  -25.3822  -31.3727   26.1548 C   0  0  0  0  0  0
  -27.0198  -30.3054   24.6000 C   0  0  0  0  0  0
  -27.6084  -32.4290   25.7430 C   0  0  0  0  0  0
  -27.5591  -37.1768   24.8430 C   0  0  0  0  0  0
  -21.4072  -29.3015   22.3814 N   0  0  0  0  0  0
  -26.4253  -37.3832   23.9458 N   0  0  0  0  0  0
  -24.6529  -31.0895   22.1097 N   0  0  0  0  0  0
  -23.4152  -28.8238   23.3094 O   0  0  0  0  0  0
  -28.4414  -26.8817   19.9108 O   0  0  0  0  0  0
  -26.5577  -34.8952   22.4704 O   0  0  0  0  0  0
  -23.5290  -32.1461   23.7684 O   0  0  0  0  0  0
  -30.3246  -19.5634   20.4010 C   0  0  0  0  0  0
  -29.6751  -20.3915   18.2070 C   0  0  0  0  0  0
  -29.4598  -20.4948   21.0096 C   0  0  0  0  0  0
  -28.7791  -21.3074   18.7909 C   0  0  0  0  0  0
  -30.4116  -19.4881   18.9915 C   0  0  0  0  0  0
  -28.6787  -21.3592   20.2033 C   0  0  0  0  0  0
  -30.5147  -16.2433   18.0625 C   0  0  0  0  0  0
  -29.9352  -16.6204   19.4214 C   0  0  2  0  0  0
  -31.2364  -17.2501   18.9252 C   0  0  2  0  0  0
  -29.3772  -20.5591   22.5288 C   0  0  0  0  0  0
  -27.1685  -21.5498   16.7699 C   0  0  0  0  0  0
  -27.9819  -22.2456   17.8794 C   0  0  0  0  0  0
  -29.9209  -15.7253   20.6713 C   0  0  0  0  0  0
  -28.2654  -24.5494   20.3318 C   0  0  0  0  0  0
  -28.7180  -25.8986   20.8815 C   0  0  0  0  0  0
  -28.4799  -23.4053   21.3154 C   0  0  0  0  0  0
  -31.1549  -18.5397   18.3281 O   0  0  0  0  0  0
  -27.8285  -22.2462   20.8044 O   0  0  0  0  0  0
  -31.4697  -12.3203   19.1296 H   0  0  0  0  0  0
  -30.2974  -11.2459   19.8279 H   0  0  0  0  0  0
  -29.7355  -11.7450   17.4241 H   0  0  0  0  0  0
  -29.6609  -13.4482   17.7700 H   0  0  0  0  0  0
  -27.8470  -11.2685   18.8315 H   0  0  0  0  0  0
  -27.3530  -12.5804   17.7870 H   0  0  0  0  0  0
  -27.7048  -14.2275   19.5405 H   0  0  0  0  0  0
  -28.6575  -11.9311   21.3295 H   0  0  0  0  0  0
  -28.5047  -13.5774   21.8613 H   0  0  0  0  0  0
  -25.2783   -9.5592   22.4698 H   0  0  0  0  0  0
  -23.9998   -7.4512   22.7385 H   0  0  0  0  0  0
  -21.0838   -8.8672   19.8880 H   0  0  0  0  0  0
  -22.3660  -10.9599   19.6144 H   0  0  0  0  0  0
  -21.1877   -7.6109   23.9662 H   0  0  0  0  0  0
  -21.1613   -6.0536   25.9100 H   0  0  0  0  0  0
  -22.0551   -2.7542   23.2902 H   0  0  0  0  0  0
  -22.4295  -11.9499   22.4667 H   0  0  0  0  0  0
  -21.1264  -13.0849   22.2930 H   0  0  0  0  0  0
  -24.6769  -15.8394   20.5283 H   0  0  0  0  0  0
  -26.2992  -15.6045   20.0986 H   0  0  0  0  0  0
  -26.7057  -32.5604   23.1223 H   0  0  0  0  0  0
  -25.0003  -33.9804   25.0512 H   0  0  0  0  0  0
  -22.6707  -31.3166   21.4331 H   0  0  0  0  0  0
  -23.3726  -35.9660   23.3236 H   0  0  0  0  0  0
  -24.3600  -36.9009   22.2062 H   0  0  0  0  0  0
  -23.7188  -37.6525   23.6665 H   0  0  0  0  0  0
  -25.9821  -31.6234   20.5741 H   0  0  0  0  0  0
  -26.8090  -30.9395   21.9455 H   0  0  0  0  0  0
  -28.0967  -29.1917   21.0954 H   0  0  0  0  0  0
  -26.0931  -26.0597   18.9110 H   0  0  0  0  0  0
  -23.9648  -27.2977   19.0517 H   0  0  0  0  0  0
  -23.6905  -30.6057   19.4185 H   0  0  0  0  0  0
  -22.7064  -29.2518   19.8899 H   0  0  0  0  0  0
  -25.1215  -36.1990   25.0846 H   0  0  0  0  0  0
  -20.9916  -28.3203   24.1503 H   0  0  0  0  0  0
  -20.5563  -26.2255   23.3647 H   0  0  0  0  0  0
  -21.6610  -26.7395   22.1318 H   0  0  0  0  0  0
  -19.6876  -25.6322   21.1232 H   0  0  0  0  0  0
  -19.6689  -27.3227   20.6774 H   0  0  0  0  0  0
  -17.4181  -26.6715   21.4004 H   0  0  0  0  0  0
  -18.0261  -26.0071   22.8988 H   0  0  0  0  0  0
  -19.7914  -30.7240   24.2353 H   0  0  0  0  0  0
  -17.4993  -31.6269   24.5188 H   0  0  0  0  0  0
  -15.5334  -30.3016   23.7617 H   0  0  0  0  0  0
  -15.8646  -28.0863   22.7016 H   0  0  0  0  0  0
  -24.5978  -30.7052   25.7988 H   0  0  0  0  0  0
  -24.9045  -32.2886   26.5027 H   0  0  0  0  0  0
  -25.8285  -30.8940   27.0276 H   0  0  0  0  0  0
  -26.2654  -29.6869   24.1135 H   0  0  0  0  0  0
  -27.4057  -29.7229   25.4372 H   0  0  0  0  0  0
  -27.8460  -30.4334   23.9006 H   0  0  0  0  0  0
  -27.2735  -33.3528   26.2141 H   0  0  0  0  0  0
  -28.3817  -32.6951   25.0222 H   0  0  0  0  0  0
  -28.0857  -31.8354   26.5241 H   0  0  0  0  0  0
  -28.2534  -38.0137   24.7605 H   0  0  0  0  0  0
  -28.1152  -36.2693   24.6027 H   0  0  0  0  0  0
  -27.2382  -37.1189   25.8846 H   0  0  0  0  0  0
  -20.9219  -29.8761   21.7062 H   0  0  0  0  0  0
  -26.0134  -38.2866   24.1614 H   0  0  0  0  0  0
  -30.9099  -18.9011   21.0225 H   0  0  0  0  0  0
  -29.7837  -20.3562   17.1339 H   0  0  0  0  0  0
  -29.9763  -16.6031   17.1895 H   0  0  0  0  0  0
  -31.0198  -15.2871   17.9215 H   0  0  0  0  0  0
  -29.0483  -17.2504   19.3615 H   0  0  0  0  0  0
  -32.2180  -16.9727   19.3060 H   0  0  0  0  0  0
  -29.7776  -19.6630   23.0060 H   0  0  0  0  0  0
  -28.3483  -20.6743   22.8680 H   0  0  0  0  0  0
  -29.9508  -21.4095   22.8991 H   0  0  0  0  0  0
  -26.7957  -22.2864   16.0571 H   0  0  0  0  0  0
  -26.3003  -21.0367   17.1855 H   0  0  0  0  0  0
  -27.7523  -20.8231   16.2036 H   0  0  0  0  0  0
  -28.6876  -22.9418   17.4236 H   0  0  0  0  0  0
  -27.2827  -22.8509   18.4562 H   0  0  0  0  0  0
  -28.8826  -15.5539   20.9602 H   0  0  0  0  0  0
  -30.3555  -16.2905   21.4905 H   0  0  0  0  0  0
  -28.8117  -24.3515   19.4091 H   0  0  0  0  0  0
  -27.2095  -24.5832   20.0784 H   0  0  0  0  0  0
  -29.7966  -25.8883   21.0416 H   0  0  0  0  0  0
  -28.2437  -26.1332   21.8377 H   0  0  0  0  0  0
  -28.0386  -23.6472   22.2847 H   0  0  0  0  0  0
  -29.5515  -23.2607   21.4709 H   0  0  0  0  0  0
  1 25  1  0  0  0
  1 30  2  0  0  0
  1 83  1  0  0  0
  2  3  1  0  0  0
  2 25  1  0  0  0
  2 89  1  0  0  0
  2 90  1  0  0  0
  3  4  1  0  0  0
  3 91  1  0  0  0
  3 92  1  0  0  0
  4  5  1  0  0  0
  4 93  1  0  0  0
  4 94  1  0  0  0
  5  6  1  0  0  0
  5 26  1  0  0  0
  5 95  1  0  0  0
  6 25  1  0  0  0
  6 96  1  0  0  0
  6 97  1  0  0  0
  7  8  2  0  0  0
  7 26  1  0  0  0
  7 29  1  0  0  0
  8  9  1  0  0  0
  8 22  1  0  0  0
  9 10  1  0  0  0
  9 27  2  0  0  0
 10 11  2  0  0  0
 10 15  1  0  0  0
 11 12  1  0  0  0
 11 98  1  0  0  0
 12 13  2  0  0  0
 12 99  1  0  0  0
 13 14  1  0  0  0
 13 31  1  0  0  0
 14 15  2  0  0  0
 14100  1  0  0  0
 15101  1  0  0  0
 16 17  2  0  0  0
 16 21  1  0  0  0
 16 31  1  0  0  0
 17 18  1  0  0  0
 17102  1  0  0  0
 18 19  2  0  0  0
 18103  1  0  0  0
 19 20  1  0  0  0
 19 24  1  0  0  0
 20 21  2  0  0  0
 20104  1  0  0  0
 21 23  1  0  0  0
 22 28  1  0  0  0
 22 32  2  0  0  0
 26 27  1  0  0  0
 28105  1  0  0  0
 28106  1  0  0  0
 29107  1  0  0  0
 29108  1  0  0  0
 33 34  1  0  0  0
 33 66  1  0  0  0
 33 70  2  0  0  0
 34 36  1  0  0  0
 34 59  1  0  0  0
 34109  1  0  0  0
 35 44  2  0  0  0
 35 45  1  0  0  0
 35 68  1  0  0  0
 36 56  1  0  0  0
 36110  1  0  0  0
 37 39  1  0  0  0
 37 47  1  0  0  0
 37 66  1  0  0  0
 37111  1  0  0  0
 38 43  2  0  0  0
 38 46  1  0  0  0
 38 47  1  0  0  0
 39 64  1  0  0  0
 39 67  2  0  0  0
 40 52  1  0  0  0
 40 53  2  0  0  0
 40 58  1  0  0  0
 41112  1  0  0  0
 41113  1  0  0  0
 41114  1  0  0  0
 41 48  1  0  0  0
 42 43  1  0  0  0
 42 66  1  0  0  0
 42115  1  0  0  0
 42116  1  0  0  0
 43 44  1  0  0  0
 44117  1  0  0  0
 45 46  2  0  0  0
 45118  1  0  0  0
 46119  1  0  0  0
 47120  1  0  0  0
 47121  1  0  0  0
 48 56  1  0  0  0
 48 65  1  0  0  0
 48122  1  0  0  0
 49 50  1  0  0  0
 49 53  1  0  0  0
 49 64  1  0  0  0
 49123  1  0  0  0
 50 51  1  0  0  0
 50124  1  0  0  0
 50125  1  0  0  0
 51 52  1  0  0  0
 51126  1  0  0  0
 51127  1  0  0  0
 52128  1  0  0  0
 52129  1  0  0  0
 53 54  1  0  0  0
 54 55  2  0  0  0
 54130  1  0  0  0
 55 57  1  0  0  0
 55131  1  0  0  0
 56 69  2  0  0  0
 57 58  2  0  0  0
 57132  1  0  0  0
 58133  1  0  0  0
 59 60  1  0  0  0
 59 61  1  0  0  0
 59 62  1  0  0  0
 60134  1  0  0  0
 60135  1  0  0  0
 60136  1  0  0  0
 61137  1  0  0  0
 61138  1  0  0  0
 61139  1  0  0  0
 62140  1  0  0  0
 62141  1  0  0  0
 62142  1  0  0  0
 63 65  1  0  0  0
 63143  1  0  0  0
 63144  1  0  0  0
 63145  1  0  0  0
 64146  1  0  0  0
 65147  1  0  0  0
 68 85  1  0  0  0
 71 73  2  0  0  0
 71 75  1  0  0  0
 71148  1  0  0  0
 72 74  1  0  0  0
 72 75  2  0  0  0
 72149  1  0  0  0
 73 76  1  0  0  0
 73 80  1  0  0  0
 74 76  2  0  0  0
 74 82  1  0  0  0
 75 87  1  0  0  0
 76 88  1  0  0  0
 77 78  1  0  0  0
 77 79  1  0  0  0
 77150  1  0  0  0
 77151  1  0  0  0
 78 79  1  0  0  0
 78 83  1  0  0  0
 78152  1  0  0  0
 79 87  1  0  0  0
 79153  1  0  0  0
 80154  1  0  0  0
 80155  1  0  0  0
 80156  1  0  0  0
 81 82  1  0  0  0
 81157  1  0  0  0
 81158  1  0  0  0
 81159  1  0  0  0
 82160  1  0  0  0
 82161  1  0  0  0
 83162  1  0  0  0
 83163  1  0  0  0
 84 85  1  0  0  0
 84 86  1  0  0  0
 84164  1  0  0  0
 84165  1  0  0  0
 85166  1  0  0  0
 85167  1  0  0  0
 86 88  1  0  0  0
 86168  1  0  0  0
 86169  1  0  0  0
M  ISO  4   1 100  68 101  83 100  85 101
M  END
> <chiral flag>
0

> <version>
0

> <s_m_source_file>
/data/baiqing/PycharmProjects/Reinvent-master-3.2/result/LINK_invent/BTK/process_docking_weight1_custom_product_contain_oxygen_bond_distance_aromatic_linkinvent_7_9_3/rearranged_h_0107.sdf

> <i_m_source_file_index>
11

> <r_mmod_Potential_Energy-OPLS-2005>
18.0411167144775

> <r_mmod_Stretch_Energy-OPLS-2005>
32.8661766052246

> <r_mmod_Bend_Energy-OPLS-2005>
103.841682434082

> <r_mmod_Torsional_Energy-OPLS-2005>
274.295135498047

> <r_mmod_Improper_Torsional_Energy-OPLS-2005>
6.73016214370728

> <r_mmod_Van_der_Waal_Energy-OPLS-2005>
159.120254516602

> <r_mmod_Electrostatic_Energy-OPLS-2005>
-383.532806396484

> <r_mmod_Solvation_Energy-OPLS-2005>
-195.949584960938

> <b_mmod_Minimization_Converged-OPLS-2005>
0

> <r_mmod_RMS_Derivative-OPLS-2005>
7.20328664779663

$$$$
11
                    3D
 Structure written by MMmdl.
155163  0  0  1  0            999 V2000
  -30.6215  -14.7523   20.4671 C   0  0  0  0  0  0
  -30.4315  -12.4661   19.4657 C   0  0  0  0  0  0
  -29.5074  -12.5130   18.2304 C   0  0  0  0  0  0
  -28.0356  -12.3310   18.6487 C   0  0  0  0  0  0
  -27.6406  -13.2341   19.8473 C   0  0  2  0  0  0
  -28.6872  -13.1784   20.9801 C   0  0  0  0  0  0
  -25.2513  -13.8206   20.5711 C   0  0  0  0  0  0
  -24.1805  -13.0443   20.9216 C   0  0  0  0  0  0
  -24.6403  -11.6922   20.8749 C   0  0  0  0  0  0
  -23.9079  -10.4297   21.0405 C   0  0  0  0  0  0
  -24.3632   -9.4212   21.9181 C   0  0  0  0  0  0
  -23.6308   -8.2248   22.0751 C   0  0  0  0  0  0
  -22.4285   -8.0290   21.3544 C   0  0  0  0  0  0
  -21.9920   -9.0262   20.4646 C   0  0  0  0  0  0
  -22.7249  -10.2141   20.3059 C   0  0  0  0  0  0
  -21.6857   -6.0746   22.5282 C   0  0  0  0  0  0
  -21.4015   -6.5645   23.8218 C   0  0  0  0  0  0
  -21.3661   -5.6795   24.9176 C   0  0  0  0  0  0
  -21.6046   -4.3057   24.7225 C   0  0  0  0  0  0
  -21.8818   -3.8155   23.4343 C   0  0  0  0  0  0
  -21.9194   -4.6974   22.3403 C   0  0  0  0  0  0
  -22.7825  -13.5219   21.1878 C   0  0  0  0  0  0
  -22.1661   -4.2162   21.0979 F   0  0  0  0  0  0
  -21.5633   -3.4536   25.7736 F   0  0  0  0  0  0
  -29.9830  -13.5338   20.3898 N   0  0  0  0  0  0
  -26.2937  -12.9413   20.3279 N   0  0  0  0  0  0
  -25.9332  -11.6552   20.5754 N   0  0  0  0  0  0
  -22.0474  -12.8205   22.0432 N   0  0  0  0  0  0
  -25.4199  -15.1932   20.4140 N   0  0  0  0  0  0
  -31.8183  -14.8286   20.1777 O   0  0  0  0  0  0
  -21.6648   -6.8887   21.4242 O   0  0  0  0  0  0
  -22.3500  -14.5526   20.6726 O   0  0  0  0  0  0
  -24.6320  -31.8539   23.1962 C   0  0  0  0  0  0
  -25.9140  -32.4746   23.8321 C   0  0  1  0  0  0
  -27.2238  -27.2554   20.1403 C   0  0  0  0  0  0
  -25.5932  -33.8549   24.2249 N   0  0  0  0  0  0
  -23.4296  -30.4746   21.5401 C   0  0  2  0  0  0
  -24.8786  -28.9158   20.1136 C   0  0  0  0  0  0
  -22.7504  -29.4595   22.4913 C   0  0  0  0  0  0
  -18.0293  -28.1380   22.8482 C   0  0  0  0  0  0
  -24.1491  -36.7287   23.2640 C   0  0  0  0  0  0
  -25.9752  -30.7664   21.3754 C   0  0  0  0  0  0
  -26.0506  -29.3864   20.7211 C   0  0  0  0  0  0
  -27.2292  -28.5710   20.7176 C   0  0  0  0  0  0
  -26.0321  -26.8520   19.5030 C   0  0  0  0  0  0
  -24.8750  -27.6567   19.4919 C   0  0  0  0  0  0
  -23.6484  -29.8030   20.1584 C   0  0  0  0  0  0
  -25.4115  -36.3067   24.0327 C   0  0  1  0  0  0
  -20.5896  -28.3698   23.1261 C   0  0  2  0  0  0
  -20.6782  -26.9414   22.5406 C   0  0  0  0  0  0
  -19.5758  -26.6375   21.5208 C   0  0  0  0  0  0
  -18.1938  -26.7920   22.1619 C   0  0  0  0  0  0
  -19.1547  -28.8857   23.2865 C   0  0  0  0  0  0
  -18.9466  -30.1457   23.8882 C   0  0  0  0  0  0
  -17.6464  -30.6581   24.0556 C   0  0  0  0  0  0
  -25.9058  -34.9435   23.5093 C   0  0  0  0  0  0
  -16.5355  -29.9076   23.6330 C   0  0  0  0  0  0
  -16.7278  -28.6493   23.0351 C   0  0  0  0  0  0
  -26.4509  -31.6570   25.0714 C   0  0  0  0  0  0
  -25.3730  -31.3712   26.1435 C   0  0  0  0  0  0
  -27.0365  -30.2985   24.6208 C   0  0  0  0  0  0
  -27.6064  -32.4316   25.7482 C   0  0  0  0  0  0
  -27.5587  -37.1785   24.8455 C   0  0  0  0  0  0
  -21.4212  -29.3044   22.3653 N   0  0  0  0  0  0
  -26.4284  -37.3772   23.9421 N   0  0  0  0  0  0
  -24.6981  -31.0497   22.0937 N   0  0  0  0  0  0
  -23.4198  -28.8142   23.3024 O   0  0  0  0  0  0
  -28.3172  -26.3577   20.1522 O   0  0  0  0  0  0
  -26.5637  -34.8914   22.4666 O   0  0  0  0  0  0
  -23.5468  -32.1364   23.7253 O   0  0  0  0  0  0
  -28.9660  -20.3460   19.0108 C   0  0  0  0  0  0
  -29.3555  -19.0195   19.0052 C   0  0  0  0  0  0
  -29.7086  -18.6544   20.3418 C   0  0  0  0  0  0
  -29.4182  -18.1505   17.8041 C   0  0  0  0  0  0
  -29.1779  -18.8228   16.4583 C   0  0  0  0  0  0
  -30.3833  -17.3279   20.9207 C   0  0  0  0  0  0
  -28.8016  -23.6152   20.0440 C   0  0  0  0  0  0
  -28.6737  -22.2116   20.8639 C   0  0  0  0  0  0
  -28.1077  -24.9536   20.6655 C   0  0  0  0  0  0
  -29.5291  -19.7864   21.0960 N   0  0  0  0  0  0
  -29.0947  -20.8497   20.2950 N   0  0  0  0  0  0
  -29.8785  -15.9008   20.6986 N   0  0  0  0  0  0
  -29.6612  -16.9433   17.8372 O   0  0  0  0  0  0
  -31.4713  -12.5929   19.1593 H   0  0  0  0  0  0
  -30.3802  -11.4917   19.9529 H   0  0  0  0  0  0
  -29.7919  -11.7423   17.5129 H   0  0  0  0  0  0
  -29.6277  -13.4691   17.7180 H   0  0  0  0  0  0
  -27.8972  -11.2822   18.9144 H   0  0  0  0  0  0
  -27.3762  -12.5185   17.8004 H   0  0  0  0  0  0
  -27.6309  -14.2540   19.4620 H   0  0  0  0  0  0
  -28.7288  -12.1840   21.4265 H   0  0  0  0  0  0
  -28.4222  -13.8644   21.7860 H   0  0  0  0  0  0
  -25.2773   -9.5696   22.4752 H   0  0  0  0  0  0
  -24.0030   -7.4636   22.7456 H   0  0  0  0  0  0
  -21.0859   -8.8773   19.8946 H   0  0  0  0  0  0
  -22.3700  -10.9682   19.6178 H   0  0  0  0  0  0
  -21.2003   -7.6152   23.9723 H   0  0  0  0  0  0
  -21.1485   -6.0524   25.9081 H   0  0  0  0  0  0
  -22.0597   -2.7620   23.2836 H   0  0  0  0  0  0
  -22.4100  -11.9877   22.4832 H   0  0  0  0  0  0
  -21.1089  -13.1223   22.2636 H   0  0  0  0  0  0
  -24.6530  -15.8464   20.5318 H   0  0  0  0  0  0
  -26.2665  -15.6348   20.0791 H   0  0  0  0  0  0
  -26.7208  -32.5396   23.1065 H   0  0  0  0  0  0
  -25.0063  -33.9684   25.0384 H   0  0  0  0  0  0
  -22.7272  -31.2969   21.3907 H   0  0  0  0  0  0
  -23.3763  -35.9605   23.3262 H   0  0  0  0  0  0
  -24.3589  -36.8954   22.2062 H   0  0  0  0  0  0
  -23.7227  -37.6467   23.6693 H   0  0  0  0  0  0
  -26.1124  -31.5243   20.6031 H   0  0  0  0  0  0
  -26.8533  -30.8186   22.0073 H   0  0  0  0  0  0
  -28.1293  -28.9301   21.1964 H   0  0  0  0  0  0
  -25.9881  -25.8866   19.0185 H   0  0  0  0  0  0
  -23.9795  -27.2919   19.0080 H   0  0  0  0  0  0
  -23.7717  -30.5764   19.3992 H   0  0  0  0  0  0
  -22.7672  -29.2341   19.8557 H   0  0  0  0  0  0
  -25.1291  -36.1906   25.0817 H   0  0  0  0  0  0
  -20.9990  -28.3276   24.1379 H   0  0  0  0  0  0
  -20.5678  -26.2308   23.3614 H   0  0  0  0  0  0
  -21.6651  -26.7431   22.1201 H   0  0  0  0  0  0
  -19.6924  -25.6281   21.1249 H   0  0  0  0  0  0
  -19.6692  -27.3177   20.6730 H   0  0  0  0  0  0
  -17.4207  -26.6661   21.4023 H   0  0  0  0  0  0
  -18.0343  -26.0060   22.9017 H   0  0  0  0  0  0
  -19.7942  -30.7282   24.2239 H   0  0  0  0  0  0
  -17.5014  -31.6258   24.5163 H   0  0  0  0  0  0
  -15.5356  -30.2971   23.7657 H   0  0  0  0  0  0
  -15.8678  -28.0806   22.7072 H   0  0  0  0  0  0
  -24.5889  -30.7091   25.7746 H   0  0  0  0  0  0
  -24.8947  -32.2878   26.4891 H   0  0  0  0  0  0
  -25.8041  -30.8847   27.0193 H   0  0  0  0  0  0
  -26.2951  -29.6709   24.1249 H   0  0  0  0  0  0
  -27.4064  -29.7272   25.4732 H   0  0  0  0  0  0
  -27.8818  -30.4261   23.9442 H   0  0  0  0  0  0
  -27.2678  -33.3622   26.2047 H   0  0  0  0  0  0
  -28.3872  -32.6866   25.0304 H   0  0  0  0  0  0
  -28.0735  -31.8448   26.5402 H   0  0  0  0  0  0
  -28.2566  -38.0120   24.7557 H   0  0  0  0  0  0
  -28.1122  -36.2654   24.6205 H   0  0  0  0  0  0
  -27.2317  -37.1341   25.8858 H   0  0  0  0  0  0
  -20.9405  -29.8760   21.6848 H   0  0  0  0  0  0
  -26.0160  -38.2838   24.1447 H   0  0  0  0  0  0
  -28.6086  -20.9733   18.2061 H   0  0  0  0  0  0
  -29.8759  -19.6480   16.3190 H   0  0  0  0  0  0
  -28.1605  -19.2086   16.4017 H   0  0  0  0  0  0
  -29.3235  -18.1118   15.6455 H   0  0  0  0  0  0
  -30.4491  -17.4354   22.0035 H   0  0  0  0  0  0
  -31.4249  -17.3439   20.5971 H   0  0  0  0  0  0
  -28.3960  -23.4686   19.0432 H   0  0  0  0  0  0
  -29.8628  -23.8187   19.8989 H   0  0  0  0  0  0
  -27.6252  -22.1005   21.1422 H   0  0  0  0  0  0
  -29.2001  -22.3356   21.8109 H   0  0  0  0  0  0
  -28.4294  -25.0036   21.7061 H   0  0  0  0  0  0
  -27.0394  -24.7492   20.7359 H   0  0  0  0  0  0
  -28.8891  -15.7665   20.8347 H   0  0  0  0  0  0
  1 25  1  0  0  0
  1 30  2  0  0  0
  1 82  1  0  0  0
  2  3  1  0  0  0
  2 25  1  0  0  0
  2 84  1  0  0  0
  2 85  1  0  0  0
  3  4  1  0  0  0
  3 86  1  0  0  0
  3 87  1  0  0  0
  4  5  1  0  0  0
  4 88  1  0  0  0
  4 89  1  0  0  0
  5  6  1  0  0  0
  5 26  1  0  0  0
  5 90  1  0  0  0
  6 25  1  0  0  0
  6 91  1  0  0  0
  6 92  1  0  0  0
  7  8  2  0  0  0
  7 26  1  0  0  0
  7 29  1  0  0  0
  8  9  1  0  0  0
  8 22  1  0  0  0
  9 10  1  0  0  0
  9 27  2  0  0  0
 10 11  2  0  0  0
 10 15  1  0  0  0
 11 12  1  0  0  0
 11 93  1  0  0  0
 12 13  2  0  0  0
 12 94  1  0  0  0
 13 14  1  0  0  0
 13 31  1  0  0  0
 14 15  2  0  0  0
 14 95  1  0  0  0
 15 96  1  0  0  0
 16 17  2  0  0  0
 16 21  1  0  0  0
 16 31  1  0  0  0
 17 18  1  0  0  0
 17 97  1  0  0  0
 18 19  2  0  0  0
 18 98  1  0  0  0
 19 20  1  0  0  0
 19 24  1  0  0  0
 20 21  2  0  0  0
 20 99  1  0  0  0
 21 23  1  0  0  0
 22 28  1  0  0  0
 22 32  2  0  0  0
 26 27  1  0  0  0
 28100  1  0  0  0
 28101  1  0  0  0
 29102  1  0  0  0
 29103  1  0  0  0
 33 34  1  0  0  0
 33 66  1  0  0  0
 33 70  2  0  0  0
 34 36  1  0  0  0
 34 59  1  0  0  0
 34104  1  0  0  0
 35 44  2  0  0  0
 35 45  1  0  0  0
 35 68  1  0  0  0
 36 56  1  0  0  0
 36105  1  0  0  0
 37 39  1  0  0  0
 37 47  1  0  0  0
 37 66  1  0  0  0
 37106  1  0  0  0
 38 43  2  0  0  0
 38 46  1  0  0  0
 38 47  1  0  0  0
 39 64  1  0  0  0
 39 67  2  0  0  0
 40 52  1  0  0  0
 40 53  2  0  0  0
 40 58  1  0  0  0
 41107  1  0  0  0
 41108  1  0  0  0
 41109  1  0  0  0
 41 48  1  0  0  0
 42 43  1  0  0  0
 42 66  1  0  0  0
 42110  1  0  0  0
 42111  1  0  0  0
 43 44  1  0  0  0
 44112  1  0  0  0
 45 46  2  0  0  0
 45113  1  0  0  0
 46114  1  0  0  0
 47115  1  0  0  0
 47116  1  0  0  0
 48 56  1  0  0  0
 48 65  1  0  0  0
 48117  1  0  0  0
 49 50  1  0  0  0
 49 53  1  0  0  0
 49 64  1  0  0  0
 49118  1  0  0  0
 50 51  1  0  0  0
 50119  1  0  0  0
 50120  1  0  0  0
 51 52  1  0  0  0
 51121  1  0  0  0
 51122  1  0  0  0
 52123  1  0  0  0
 52124  1  0  0  0
 53 54  1  0  0  0
 54 55  2  0  0  0
 54125  1  0  0  0
 55 57  1  0  0  0
 55126  1  0  0  0
 56 69  2  0  0  0
 57 58  2  0  0  0
 57127  1  0  0  0
 58128  1  0  0  0
 59 60  1  0  0  0
 59 61  1  0  0  0
 59 62  1  0  0  0
 60129  1  0  0  0
 60130  1  0  0  0
 60131  1  0  0  0
 61132  1  0  0  0
 61133  1  0  0  0
 61134  1  0  0  0
 62135  1  0  0  0
 62136  1  0  0  0
 62137  1  0  0  0
 63 65  1  0  0  0
 63138  1  0  0  0
 63139  1  0  0  0
 63140  1  0  0  0
 64141  1  0  0  0
 65142  1  0  0  0
 68 79  1  0  0  0
 71 72  2  0  0  0
 71 81  1  0  0  0
 71143  1  0  0  0
 72 73  1  0  0  0
 72 74  1  0  0  0
 73 76  1  0  0  0
 73 80  2  0  0  0
 74 75  1  0  0  0
 74 83  2  0  0  0
 75144  1  0  0  0
 75145  1  0  0  0
 75146  1  0  0  0
 76 82  1  0  0  0
 76147  1  0  0  0
 76148  1  0  0  0
 77 78  1  0  0  0
 77 79  1  0  0  0
 77149  1  0  0  0
 77150  1  0  0  0
 78 81  1  0  0  0
 78151  1  0  0  0
 78152  1  0  0  0
 79153  1  0  0  0
 79154  1  0  0  0
 80 81  1  0  0  0
 82155  1  0  0  0
M  ISO  4   1 100  68 101  79 101  82 100
M  END
> <chiral flag>
0

> <version>
0

> <s_m_source_file>
/data/baiqing/PycharmProjects/Reinvent-master-3.2/result/LINK_invent/BTK/process_docking_weight1_custom_product_contain_oxygen_bond_distance_aromatic_linkinvent_7_9_3/rearranged_h_0107.sdf

> <i_m_source_file_index>
12

> <r_mmod_Potential_Energy-OPLS-2005>
22.9297199249268

> <r_mmod_Stretch_Energy-OPLS-2005>
127.747497558594

> <r_mmod_Bend_Energy-OPLS-2005>
185.088760375977

> <r_mmod_Torsional_Energy-OPLS-2005>
251.494125366211

> <r_mmod_Improper_Torsional_Energy-OPLS-2005>
4.85610198974609

> <r_mmod_Van_der_Waal_Energy-OPLS-2005>
109.876373291016

> <r_mmod_Electrostatic_Energy-OPLS-2005>
-508.245422363281

> <r_mmod_Solvation_Energy-OPLS-2005>
-236.296478271484

> <b_mmod_Minimization_Converged-OPLS-2005>
0

> <r_mmod_RMS_Derivative-OPLS-2005>
0.934885621070862

$$$$
12
                    3D
 Structure written by MMmdl.
163171  0  0  1  0            999 V2000
  -30.6308  -14.5816   20.4537 C   0  0  0  0  0  0
  -30.4399  -12.3201   19.4787 C   0  0  0  0  0  0
  -29.5152  -12.3899   18.2443 C   0  0  0  0  0  0
  -28.0240  -12.3249   18.6363 C   0  0  0  0  0  0
  -27.6570  -13.2049   19.8621 C   0  0  2  0  0  0
  -28.6963  -13.0510   20.9928 C   0  0  0  0  0  0
  -25.2568  -13.8174   20.5603 C   0  0  0  0  0  0
  -24.1822  -13.0447   20.9116 C   0  0  0  0  0  0
  -24.6374  -11.6908   20.8714 C   0  0  0  0  0  0
  -23.9045  -10.4291   21.0383 C   0  0  0  0  0  0
  -24.3601   -9.4214   21.9164 C   0  0  0  0  0  0
  -23.6290   -8.2241   22.0751 C   0  0  0  0  0  0
  -22.4266   -8.0271   21.3543 C   0  0  0  0  0  0
  -21.9892   -9.0243   20.4646 C   0  0  0  0  0  0
  -22.7219  -10.2124   20.3033 C   0  0  0  0  0  0
  -21.6871   -6.0722   22.5261 C   0  0  0  0  0  0
  -21.4020   -6.5623   23.8194 C   0  0  0  0  0  0
  -21.3656   -5.6772   24.9153 C   0  0  0  0  0  0
  -21.6040   -4.3037   24.7203 C   0  0  0  0  0  0
  -21.8825   -3.8134   23.4330 C   0  0  0  0  0  0
  -21.9206   -4.6951   22.3391 C   0  0  0  0  0  0
  -22.7844  -13.5243   21.1821 C   0  0  0  0  0  0
  -22.1670   -4.2135   21.0966 F   0  0  0  0  0  0
  -21.5635   -3.4524   25.7728 F   0  0  0  0  0  0
  -30.0188  -13.3626   20.4296 N   0  0  0  0  0  0
  -26.2999  -12.9331   20.3310 N   0  0  0  0  0  0
  -25.9302  -11.6499   20.5773 N   0  0  0  0  0  0
  -22.0504  -12.8228   22.0383 N   0  0  0  0  0  0
  -25.4315  -15.1883   20.3944 N   0  0  0  0  0  0
  -31.8089  -14.7311   20.1175 O   0  0  0  0  0  0
  -21.6640   -6.8865   21.4231 O   0  0  0  0  0  0
  -22.3524  -14.5559   20.6694 O   0  0  0  0  0  0
  -24.6166  -31.8646   23.2071 C   0  0  0  0  0  0
  -25.9052  -32.4804   23.8377 C   0  0  1  0  0  0
  -27.2400  -27.4112   20.1142 C   0  0  0  0  0  0
  -25.5894  -33.8599   24.2315 N   0  0  0  0  0  0
  -23.4044  -30.4873   21.5461 C   0  0  2  0  0  0
  -24.8517  -28.9464   20.1108 C   0  0  0  0  0  0
  -22.7421  -29.4637   22.4964 C   0  0  0  0  0  0
  -18.0272  -28.1380   22.8489 C   0  0  0  0  0  0
  -24.1474  -36.7307   23.2642 C   0  0  0  0  0  0
  -25.9319  -30.8280   21.3579 C   0  0  0  0  0  0
  -26.0088  -29.4578   20.7104 C   0  0  0  0  0  0
  -27.2000  -28.6970   20.7063 C   0  0  0  0  0  0
  -26.0621  -26.9130   19.5121 C   0  0  0  0  0  0
  -24.8755  -27.6761   19.5062 C   0  0  0  0  0  0
  -23.6145  -29.8160   20.1599 C   0  0  0  0  0  0
  -25.4088  -36.3096   24.0346 C   0  0  1  0  0  0
  -20.5863  -28.3660   23.1324 C   0  0  2  0  0  0
  -20.6747  -26.9395   22.5418 C   0  0  0  0  0  0
  -19.5726  -26.6385   21.5210 C   0  0  0  0  0  0
  -18.1909  -26.7928   22.1619 C   0  0  0  0  0  0
  -19.1522  -28.8835   23.2904 C   0  0  0  0  0  0
  -18.9447  -30.1443   23.8909 C   0  0  0  0  0  0
  -17.6448  -30.6585   24.0563 C   0  0  0  0  0  0
  -25.9017  -34.9468   23.5126 C   0  0  0  0  0  0
  -16.5341  -29.9081   23.6324 C   0  0  0  0  0  0
  -16.7265  -28.6503   23.0346 C   0  0  0  0  0  0
  -26.4475  -31.6586   25.0712 C   0  0  0  0  0  0
  -25.3755  -31.3698   26.1475 C   0  0  0  0  0  0
  -27.0302  -30.3031   24.6078 C   0  0  0  0  0  0
  -27.6034  -32.4312   25.7501 C   0  0  0  0  0  0
  -27.5573  -37.1798   24.8460 C   0  0  0  0  0  0
  -21.4143  -29.3031   22.3734 N   0  0  0  0  0  0
  -26.4266  -37.3788   23.9429 N   0  0  0  0  0  0
  -24.6690  -31.0750   22.0958 N   0  0  0  0  0  0
  -23.4196  -28.8183   23.3005 O   0  0  0  0  0  0
  -28.4353  -26.7144   20.1622 O   0  0  0  0  0  0
  -26.5572  -34.8928   22.4681 O   0  0  0  0  0  0
  -23.5357  -32.1392   23.7466 O   0  0  0  0  0  0
  -29.6785  -18.1207   20.8624 C   0  0  0  0  0  0
  -29.7957  -17.1584   18.6169 C   0  0  0  0  0  0
  -29.7308  -18.4728   18.0686 C   0  0  0  0  0  0
  -29.8124  -16.9604   20.0398 C   0  0  0  0  0  0
  -29.6573  -19.5933   18.9242 C   0  0  0  0  0  0
  -29.5813  -19.4392   20.3304 C   0  0  0  0  0  0
  -29.7944  -16.0111   17.6516 C   0  0  0  0  0  0
  -29.7528  -18.6842   16.5441 C   0  0  0  0  0  0
  -28.1842  -24.2295   20.6739 C   0  0  0  0  0  0
  -29.1511  -22.9983   20.6609 C   0  0  0  0  0  0
  -28.5705  -25.3653   19.6737 C   0  0  0  0  0  0
  -28.5314  -21.5948   20.9799 C   0  0  0  0  0  0
  -29.7118  -20.8665   18.3676 N   0  0  0  0  0  0
  -28.5926  -15.6351   17.2311 N   0  0  0  0  0  0
  -29.8124  -15.6475   20.6770 N   0  0  0  0  0  0
  -30.8365  -15.5145   17.2311 O   0  0  0  0  0  0
  -29.5013  -20.5330   21.1967 O   0  0  0  0  0  0
  -31.4837  -12.4291   19.1751 H   0  0  0  0  0  0
  -30.3679  -11.3393   19.9506 H   0  0  0  0  0  0
  -29.7485  -11.5651   17.5691 H   0  0  0  0  0  0
  -29.7192  -13.2860   17.6740 H   0  0  0  0  0  0
  -27.8022  -11.2805   18.8557 H   0  0  0  0  0  0
  -27.3973  -12.5898   17.7845 H   0  0  0  0  0  0
  -27.6810  -14.2391   19.5215 H   0  0  0  0  0  0
  -28.6856  -12.0321   21.3818 H   0  0  0  0  0  0
  -28.4532  -13.6961   21.8396 H   0  0  0  0  0  0
  -25.2743   -9.5707   22.4734 H   0  0  0  0  0  0
  -24.0012   -7.4630   22.7456 H   0  0  0  0  0  0
  -21.0831   -8.8760   19.8941 H   0  0  0  0  0  0
  -22.3681  -10.9656   19.6129 H   0  0  0  0  0  0
  -21.2010   -7.6128   23.9694 H   0  0  0  0  0  0
  -21.1481   -6.0500   25.9060 H   0  0  0  0  0  0
  -22.0623   -2.7593   23.2824 H   0  0  0  0  0  0
  -22.4101  -11.9858   22.4734 H   0  0  0  0  0  0
  -21.1144  -13.1285   22.2653 H   0  0  0  0  0  0
  -24.6540  -15.8395   20.4237 H   0  0  0  0  0  0
  -26.3012  -15.6262   20.1225 H   0  0  0  0  0  0
  -26.7130  -32.5517   23.1148 H   0  0  0  0  0  0
  -25.0079  -33.9734   25.0487 H   0  0  0  0  0  0
  -22.6925  -31.3036   21.4060 H   0  0  0  0  0  0
  -23.3737  -35.9633   23.3276 H   0  0  0  0  0  0
  -24.3582  -36.8943   22.2062 H   0  0  0  0  0  0
  -23.7223  -37.6503   23.6673 H   0  0  0  0  0  0
  -26.0379  -31.5920   20.5859 H   0  0  0  0  0  0
  -26.8222  -30.8883   21.9720 H   0  0  0  0  0  0
  -28.0938  -29.0896   21.1701 H   0  0  0  0  0  0
  -26.0386  -25.9361   19.0540 H   0  0  0  0  0  0
  -23.9843  -27.2766   19.0410 H   0  0  0  0  0  0
  -23.7243  -30.5898   19.3990 H   0  0  0  0  0  0
  -22.7374  -29.2370   19.8649 H   0  0  0  0  0  0
  -25.1264  -36.1943   25.0836 H   0  0  0  0  0  0
  -20.9961  -28.3220   24.1443 H   0  0  0  0  0  0
  -20.5640  -26.2267   23.3604 H   0  0  0  0  0  0
  -21.6620  -26.7417   22.1230 H   0  0  0  0  0  0
  -19.6873  -25.6297   21.1237 H   0  0  0  0  0  0
  -19.6681  -27.3196   20.6744 H   0  0  0  0  0  0
  -17.4189  -26.6707   21.4008 H   0  0  0  0  0  0
  -18.0285  -26.0073   22.9013 H   0  0  0  0  0  0
  -19.7922  -30.7248   24.2298 H   0  0  0  0  0  0
  -17.5005  -31.6265   24.5166 H   0  0  0  0  0  0
  -15.5338  -30.2978   23.7647 H   0  0  0  0  0  0
  -15.8673  -28.0825   22.7041 H   0  0  0  0  0  0
  -24.5906  -30.7059   25.7836 H   0  0  0  0  0  0
  -24.8978  -32.2859   26.4956 H   0  0  0  0  0  0
  -25.8123  -30.8856   27.0217 H   0  0  0  0  0  0
  -26.2832  -29.6804   24.1138 H   0  0  0  0  0  0
  -27.4085  -29.7254   25.4522 H   0  0  0  0  0  0
  -27.8663  -30.4353   23.9207 H   0  0  0  0  0  0
  -27.2626  -33.3598   26.2095 H   0  0  0  0  0  0
  -28.3852  -32.6892   25.0347 H   0  0  0  0  0  0
  -28.0696  -31.8434   26.5417 H   0  0  0  0  0  0
  -28.2565  -38.0121   24.7534 H   0  0  0  0  0  0
  -28.1088  -36.2653   24.6227 H   0  0  0  0  0  0
  -27.2306  -37.1387   25.8865 H   0  0  0  0  0  0
  -20.9303  -29.8776   21.6978 H   0  0  0  0  0  0
  -26.0149  -38.2860   24.1435 H   0  0  0  0  0  0
  -29.6375  -17.9998   21.9364 H   0  0  0  0  0  0
  -30.7295  -18.4134   16.1434 H   0  0  0  0  0  0
  -29.5413  -19.7031   16.2221 H   0  0  0  0  0  0
  -28.9982  -18.0757   16.0467 H   0  0  0  0  0  0
  -28.1668  -24.6315   21.6871 H   0  0  0  0  0  0
  -27.1618  -23.9128   20.4650 H   0  0  0  0  0  0
  -29.9586  -23.1963   21.3665 H   0  0  0  0  0  0
  -29.6330  -22.9739   19.6899 H   0  0  0  0  0  0
  -28.0857  -25.2277   18.7064 H   0  0  0  0  0  0
  -29.6353  -25.2717   19.4587 H   0  0  0  0  0  0
  -27.7965  -21.3157   20.2236 H   0  0  0  0  0  0
  -27.9637  -21.6785   21.9064 H   0  0  0  0  0  0
  -30.1537  -20.9566   17.4619 H   0  0  0  0  0  0
  -29.9927  -21.6001   19.0036 H   0  0  0  0  0  0
  -27.7712  -16.1260   17.5505 H   0  0  0  0  0  0
  -28.5008  -14.9054   16.5406 H   0  0  0  0  0  0
  -28.9563  -15.4102   21.1558 H   0  0  0  0  0  0
  1 25  1  0  0  0
  1 30  2  0  0  0
  1 85  1  0  0  0
  2  3  1  0  0  0
  2 25  1  0  0  0
  2 88  1  0  0  0
  2 89  1  0  0  0
  3  4  1  0  0  0
  3 90  1  0  0  0
  3 91  1  0  0  0
  4  5  1  0  0  0
  4 92  1  0  0  0
  4 93  1  0  0  0
  5  6  1  0  0  0
  5 26  1  0  0  0
  5 94  1  0  0  0
  6 25  1  0  0  0
  6 95  1  0  0  0
  6 96  1  0  0  0
  7  8  2  0  0  0
  7 26  1  0  0  0
  7 29  1  0  0  0
  8  9  1  0  0  0
  8 22  1  0  0  0
  9 10  1  0  0  0
  9 27  2  0  0  0
 10 11  2  0  0  0
 10 15  1  0  0  0
 11 12  1  0  0  0
 11 97  1  0  0  0
 12 13  2  0  0  0
 12 98  1  0  0  0
 13 14  1  0  0  0
 13 31  1  0  0  0
 14 15  2  0  0  0
 14 99  1  0  0  0
 15100  1  0  0  0
 16 17  2  0  0  0
 16 21  1  0  0  0
 16 31  1  0  0  0
 17 18  1  0  0  0
 17101  1  0  0  0
 18 19  2  0  0  0
 18102  1  0  0  0
 19 20  1  0  0  0
 19 24  1  0  0  0
 20 21  2  0  0  0
 20103  1  0  0  0
 21 23  1  0  0  0
 22 28  1  0  0  0
 22 32  2  0  0  0
 26 27  1  0  0  0
 28104  1  0  0  0
 28105  1  0  0  0
 29106  1  0  0  0
 29107  1  0  0  0
 33 34  1  0  0  0
 33 66  1  0  0  0
 33 70  2  0  0  0
 34 36  1  0  0  0
 34 59  1  0  0  0
 34108  1  0  0  0
 35 44  2  0  0  0
 35 45  1  0  0  0
 35 68  1  0  0  0
 36 56  1  0  0  0
 36109  1  0  0  0
 37 39  1  0  0  0
 37 47  1  0  0  0
 37 66  1  0  0  0
 37110  1  0  0  0
 38 43  2  0  0  0
 38 46  1  0  0  0
 38 47  1  0  0  0
 39 64  1  0  0  0
 39 67  2  0  0  0
 40 52  1  0  0  0
 40 53  2  0  0  0
 40 58  1  0  0  0
 41111  1  0  0  0
 41112  1  0  0  0
 41113  1  0  0  0
 41 48  1  0  0  0
 42 43  1  0  0  0
 42 66  1  0  0  0
 42114  1  0  0  0
 42115  1  0  0  0
 43 44  1  0  0  0
 44116  1  0  0  0
 45 46  2  0  0  0
 45117  1  0  0  0
 46118  1  0  0  0
 47119  1  0  0  0
 47120  1  0  0  0
 48 56  1  0  0  0
 48 65  1  0  0  0
 48121  1  0  0  0
 49 50  1  0  0  0
 49 53  1  0  0  0
 49 64  1  0  0  0
 49122  1  0  0  0
 50 51  1  0  0  0
 50123  1  0  0  0
 50124  1  0  0  0
 51 52  1  0  0  0
 51125  1  0  0  0
 51126  1  0  0  0
 52127  1  0  0  0
 52128  1  0  0  0
 53 54  1  0  0  0
 54 55  2  0  0  0
 54129  1  0  0  0
 55 57  1  0  0  0
 55130  1  0  0  0
 56 69  2  0  0  0
 57 58  2  0  0  0
 57131  1  0  0  0
 58132  1  0  0  0
 59 60  1  0  0  0
 59 61  1  0  0  0
 59 62  1  0  0  0
 60133  1  0  0  0
 60134  1  0  0  0
 60135  1  0  0  0
 61136  1  0  0  0
 61137  1  0  0  0
 61138  1  0  0  0
 62139  1  0  0  0
 62140  1  0  0  0
 62141  1  0  0  0
 63 65  1  0  0  0
 63142  1  0  0  0
 63143  1  0  0  0
 63144  1  0  0  0
 64145  1  0  0  0
 65146  1  0  0  0
 68 81  1  0  0  0
 71 74  2  0  0  0
 71 76  1  0  0  0
 71147  1  0  0  0
 72 73  2  0  0  0
 72 74  1  0  0  0
 72 77  1  0  0  0
 73 75  1  0  0  0
 73 78  1  0  0  0
 74 85  1  0  0  0
 75 76  2  0  0  0
 75 83  1  0  0  0
 76 87  1  0  0  0
 77 84  1  0  0  0
 77 86  2  0  0  0
 78148  1  0  0  0
 78149  1  0  0  0
 78150  1  0  0  0
 79 80  1  0  0  0
 79 81  1  0  0  0
 79151  1  0  0  0
 79152  1  0  0  0
 80 82  1  0  0  0
 80153  1  0  0  0
 80154  1  0  0  0
 81155  1  0  0  0
 81156  1  0  0  0
 82 87  1  0  0  0
 82157  1  0  0  0
 82158  1  0  0  0
 83159  1  0  0  0
 83160  1  0  0  0
 84161  1  0  0  0
 84162  1  0  0  0
 85163  1  0  0  0
M  ISO  4   1 100  68 101  81 101  85 100
M  END
> <chiral flag>
0

> <version>
0

> <s_m_source_file>
/data/baiqing/PycharmProjects/Reinvent-master-3.2/result/LINK_invent/BTK/process_docking_weight1_custom_product_contain_oxygen_bond_distance_aromatic_linkinvent_7_9_3/rearranged_h_0107.sdf

> <i_m_source_file_index>
13

> <r_mmod_Potential_Energy-OPLS-2005>
-55.9487724304199

> <r_mmod_Stretch_Energy-OPLS-2005>
56.7324104309082

> <r_mmod_Bend_Energy-OPLS-2005>
130.67008972168

> <r_mmod_Torsional_Energy-OPLS-2005>
306.212615966797

> <r_mmod_Improper_Torsional_Energy-OPLS-2005>
10.6660099029541

> <r_mmod_Van_der_Waal_Energy-OPLS-2005>
163.634262084961

> <r_mmod_Electrostatic_Energy-OPLS-2005>
-489.811798095703

> <r_mmod_Solvation_Energy-OPLS-2005>
-264.428100585938

> <b_mmod_Minimization_Converged-OPLS-2005>
0

> <r_mmod_RMS_Derivative-OPLS-2005>
2.58401679992676

$$$$
13
                    3D
 Structure written by MMmdl.
162171  0  0  1  0            999 V2000
  -30.6519  -14.7150   20.5047 C   0  0  0  0  0  0
  -30.4344  -12.4435   19.4795 C   0  0  0  0  0  0
  -29.5198  -12.5173   18.2401 C   0  0  0  0  0  0
  -28.0425  -12.3498   18.6480 C   0  0  0  0  0  0
  -27.6501  -13.2329   19.8650 C   0  0  2  0  0  0
  -28.6938  -13.1510   20.9996 C   0  0  0  0  0  0
  -25.2547  -13.8213   20.5734 C   0  0  0  0  0  0
  -24.1824  -13.0472   20.9207 C   0  0  0  0  0  0
  -24.6378  -11.6939   20.8719 C   0  0  0  0  0  0
  -23.9018  -10.4342   21.0370 C   0  0  0  0  0  0
  -24.3556   -9.4277   21.9160 C   0  0  0  0  0  0
  -23.6268   -8.2285   22.0742 C   0  0  0  0  0  0
  -22.4270   -8.0271   21.3509 C   0  0  0  0  0  0
  -21.9877   -9.0253   20.4637 C   0  0  0  0  0  0
  -22.7178  -10.2149   20.3044 C   0  0  0  0  0  0
  -21.6871   -6.0719   22.5273 C   0  0  0  0  0  0
  -21.4046   -6.5628   23.8211 C   0  0  0  0  0  0
  -21.3652   -5.6772   24.9170 C   0  0  0  0  0  0
  -21.6018   -4.3033   24.7216 C   0  0  0  0  0  0
  -21.8819   -3.8128   23.4348 C   0  0  0  0  0  0
  -21.9206   -4.6945   22.3408 C   0  0  0  0  0  0
  -22.7842  -13.5261   21.1832 C   0  0  0  0  0  0
  -22.1658   -4.2145   21.0985 F   0  0  0  0  0  0
  -21.5621   -3.4504   25.7721 F   0  0  0  0  0  0
  -29.9995  -13.5020   20.4254 N   0  0  0  0  0  0
  -26.2996  -12.9423   20.3374 N   0  0  0  0  0  0
  -25.9336  -11.6557   20.5749 N   0  0  0  0  0  0
  -22.0370  -12.8343   22.0347 N   0  0  0  0  0  0
  -25.4220  -15.1928   20.4075 N   0  0  0  0  0  0
  -31.8217  -14.7856   20.1248 O   0  0  0  0  0  0
  -21.6638   -6.8856   21.4232 O   0  0  0  0  0  0
  -22.3574  -14.5542   20.6592 O   0  0  0  0  0  0
  -24.6271  -31.8535   23.1934 C   0  0  0  0  0  0
  -25.9131  -32.4736   23.8287 C   0  0  1  0  0  0
  -27.2357  -27.2502   20.1454 C   0  0  0  0  0  0
  -25.5953  -33.8553   24.2217 N   0  0  0  0  0  0
  -23.4251  -30.4686   21.5374 C   0  0  2  0  0  0
  -24.8775  -28.9017   20.1112 C   0  0  0  0  0  0
  -22.7495  -29.4551   22.4912 C   0  0  0  0  0  0
  -18.0281  -28.1374   22.8475 C   0  0  0  0  0  0
  -24.1491  -36.7261   23.2626 C   0  0  0  0  0  0
  -25.9709  -30.7508   21.3851 C   0  0  0  0  0  0
  -26.0420  -29.3717   20.7331 C   0  0  0  0  0  0
  -27.2145  -28.5565   20.7447 C   0  0  0  0  0  0
  -26.0582  -26.8479   19.4781 C   0  0  0  0  0  0
  -24.8884  -27.6441   19.4832 C   0  0  0  0  0  0
  -23.6492  -29.7923   20.1563 C   0  0  0  0  0  0
  -25.4129  -36.3046   24.0290 C   0  0  1  0  0  0
  -20.5891  -28.3648   23.1267 C   0  0  2  0  0  0
  -20.6792  -26.9386   22.5377 C   0  0  0  0  0  0
  -19.5748  -26.6402   21.5203 C   0  0  0  0  0  0
  -18.1919  -26.7921   22.1614 C   0  0  0  0  0  0
  -19.1552  -28.8828   23.2881 C   0  0  0  0  0  0
  -18.9482  -30.1424   23.8914 C   0  0  0  0  0  0
  -17.6481  -30.6553   24.0604 C   0  0  0  0  0  0
  -25.9070  -34.9427   23.5054 C   0  0  0  0  0  0
  -16.5373  -29.9065   23.6360 C   0  0  0  0  0  0
  -16.7272  -28.6511   23.0345 C   0  0  0  0  0  0
  -26.4531  -31.6577   25.0687 C   0  0  0  0  0  0
  -25.3775  -31.3725   26.1407 C   0  0  0  0  0  0
  -27.0374  -30.2970   24.6223 C   0  0  0  0  0  0
  -27.6051  -32.4365   25.7491 C   0  0  0  0  0  0
  -27.5572  -37.1789   24.8455 C   0  0  0  0  0  0
  -21.4206  -29.3006   22.3689 N   0  0  0  0  0  0
  -26.4275  -37.3764   23.9413 N   0  0  0  0  0  0
  -24.6933  -31.0437   22.0950 N   0  0  0  0  0  0
  -23.4205  -28.8065   23.2986 O   0  0  0  0  0  0
  -28.3635  -26.4040   20.2603 O   0  0  0  0  0  0
  -26.5624  -34.8902   22.4615 O   0  0  0  0  0  0
  -23.5426  -32.1390   23.7204 O   0  0  0  0  0  0
  -31.6189  -17.7239   20.9923 C   0  0  0  0  0  0
  -29.3249  -18.3962   20.8011 C   0  0  0  0  0  0
  -30.2781  -17.2993   20.8449 C   0  0  0  0  0  0
  -31.9498  -19.0950   21.0360 C   0  0  0  0  0  0
  -29.7295  -19.7927   20.8515 C   0  0  0  0  0  0
  -26.8158  -22.3431   18.9307 C   0  0  0  0  0  0
  -26.7058  -23.2043   20.2095 C   0  0  0  0  0  0
  -28.3155  -22.0174   18.7873 C   0  0  0  0  0  0
  -28.1573  -23.6030   20.5301 C   0  0  2  0  0  0
  -33.3835  -19.5222   21.2907 C   0  0  0  0  0  0
  -28.7606  -21.0503   21.0027 C   0  0  0  0  0  0
  -28.5110  -24.9979   19.7347 C   0  0  0  0  0  0
  -31.0442  -20.0961   20.9361 N   0  0  0  0  0  0
  -29.9133  -15.8518   20.8154 N   0  0  0  0  0  0
  -28.9015  -22.3055   20.1104 N   0  3  1  0  0  0
  -31.4779  -12.5425   19.1765 H   0  0  0  0  0  0
  -30.3655  -11.4660   19.9577 H   0  0  0  0  0  0
  -29.7926  -11.7422   17.5222 H   0  0  0  0  0  0
  -29.6729  -13.4719   17.7326 H   0  0  0  0  0  0
  -27.8836  -11.2968   18.8832 H   0  0  0  0  0  0
  -27.3927  -12.5566   17.7974 H   0  0  0  0  0  0
  -27.6515  -14.2614   19.5022 H   0  0  0  0  0  0
  -28.7275  -12.1490   21.4282 H   0  0  0  0  0  0
  -28.4217  -13.8218   21.8175 H   0  0  0  0  0  0
  -25.2658   -9.5771   22.4776 H   0  0  0  0  0  0
  -23.9948   -7.4686   22.7479 H   0  0  0  0  0  0
  -21.0806   -8.8761   19.8964 H   0  0  0  0  0  0
  -22.3584  -10.9676   19.6167 H   0  0  0  0  0  0
  -21.2048   -7.6124   23.9721 H   0  0  0  0  0  0
  -21.1469   -6.0486   25.9072 H   0  0  0  0  0  0
  -22.0602   -2.7585   23.2839 H   0  0  0  0  0  0
  -22.3896  -12.0077   22.4943 H   0  0  0  0  0  0
  -21.0966  -13.1463   22.2380 H   0  0  0  0  0  0
  -24.6354  -15.8299   20.4790 H   0  0  0  0  0  0
  -26.2497  -15.6285   20.0245 H   0  0  0  0  0  0
  -26.7172  -32.5367   23.0994 H   0  0  0  0  0  0
  -25.0186  -33.9744   25.0413 H   0  0  0  0  0  0
  -22.7196  -31.2886   21.3849 H   0  0  0  0  0  0
  -23.3766  -35.9587   23.3291 H   0  0  0  0  0  0
  -24.3546  -36.8898   22.2040 H   0  0  0  0  0  0
  -23.7249  -37.6450   23.6689 H   0  0  0  0  0  0
  -26.1203  -31.5021   20.6084 H   0  0  0  0  0  0
  -26.8448  -30.7992   22.0221 H   0  0  0  0  0  0
  -28.1011  -28.9104   21.2509 H   0  0  0  0  0  0
  -26.0228  -25.9040   18.9579 H   0  0  0  0  0  0
  -24.0014  -27.2715   18.9901 H   0  0  0  0  0  0
  -23.7777  -30.5653   19.3986 H   0  0  0  0  0  0
  -22.7706  -29.2252   19.8453 H   0  0  0  0  0  0
  -25.1342  -36.1861   25.0776 H   0  0  0  0  0  0
  -20.9961  -28.3217   24.1384 H   0  0  0  0  0  0
  -20.5609  -26.2279   23.3569 H   0  0  0  0  0  0
  -21.6675  -26.7354   22.1215 H   0  0  0  0  0  0
  -19.6919  -25.6359   21.1130 H   0  0  0  0  0  0
  -19.6674  -27.3281   20.6787 H   0  0  0  0  0  0
  -17.4218  -26.6616   21.4005 H   0  0  0  0  0  0
  -18.0344  -26.0092   22.9063 H   0  0  0  0  0  0
  -19.7971  -30.7247   24.2249 H   0  0  0  0  0  0
  -17.5043  -31.6196   24.5264 H   0  0  0  0  0  0
  -15.5366  -30.2982   23.7694 H   0  0  0  0  0  0
  -15.8677  -28.0849   22.7035 H   0  0  0  0  0  0
  -24.5930  -30.7098   25.7728 H   0  0  0  0  0  0
  -24.8988  -32.2896   26.4865 H   0  0  0  0  0  0
  -25.8093  -30.8862   27.0157 H   0  0  0  0  0  0
  -26.2927  -29.6722   24.1244 H   0  0  0  0  0  0
  -27.4006  -29.7251   25.4777 H   0  0  0  0  0  0
  -27.8879  -30.4206   23.9502 H   0  0  0  0  0  0
  -27.2611  -33.3654   26.2059 H   0  0  0  0  0  0
  -28.3891  -32.6946   25.0365 H   0  0  0  0  0  0
  -28.0716  -31.8510   26.5418 H   0  0  0  0  0  0
  -28.2586  -38.0087   24.7534 H   0  0  0  0  0  0
  -28.1062  -36.2615   24.6275 H   0  0  0  0  0  0
  -27.2267  -37.1452   25.8844 H   0  0  0  0  0  0
  -20.9327  -29.8793   21.6987 H   0  0  0  0  0  0
  -26.0121  -38.2812   24.1464 H   0  0  0  0  0  0
  -32.4206  -17.0086   21.1004 H   0  0  0  0  0  0
  -28.2689  -18.1737   20.7559 H   0  0  0  0  0  0
  -26.4509  -22.8652   18.0431 H   0  0  0  0  0  0
  -26.2300  -21.4277   19.0390 H   0  0  0  0  0  0
  -26.3075  -22.6015   21.0290 H   0  0  0  0  0  0
  -26.0311  -24.0468   20.0914 H   0  0  0  0  0  0
  -28.7720  -22.6937   18.0624 H   0  0  0  0  0  0
  -28.5027  -21.0046   18.4308 H   0  0  0  0  0  0
  -28.2961  -23.7729   21.5981 H   0  0  0  0  0  0
  -34.0942  -18.8043   20.8800 H   0  0  0  0  0  0
  -33.5561  -19.5797   22.3659 H   0  0  0  0  0  0
  -33.6019  -20.4993   20.8595 H   0  0  0  0  0  0
  -28.8841  -21.3884   22.0297 H   0  0  0  0  0  0
  -27.7382  -20.6733   20.9461 H   0  0  0  0  0  0
  -28.0953  -24.9618   18.7272 H   0  0  0  0  0  0
  -29.5828  -24.9350   19.5506 H   0  0  0  0  0  0
  -28.9478  -15.6448   21.0077 H   0  0  0  0  0  0
  -29.8978  -22.4666   20.0295 H   0  0  0  0  0  0
  1 25  1  0  0  0
  1 30  2  0  0  0
  1 84  1  0  0  0
  2  3  1  0  0  0
  2 25  1  0  0  0
  2 86  1  0  0  0
  2 87  1  0  0  0
  3  4  1  0  0  0
  3 88  1  0  0  0
  3 89  1  0  0  0
  4  5  1  0  0  0
  4 90  1  0  0  0
  4 91  1  0  0  0
  5  6  1  0  0  0
  5 26  1  0  0  0
  5 92  1  0  0  0
  6 25  1  0  0  0
  6 93  1  0  0  0
  6 94  1  0  0  0
  7  8  2  0  0  0
  7 26  1  0  0  0
  7 29  1  0  0  0
  8  9  1  0  0  0
  8 22  1  0  0  0
  9 10  1  0  0  0
  9 27  2  0  0  0
 10 11  2  0  0  0
 10 15  1  0  0  0
 11 12  1  0  0  0
 11 95  1  0  0  0
 12 13  2  0  0  0
 12 96  1  0  0  0
 13 14  1  0  0  0
 13 31  1  0  0  0
 14 15  2  0  0  0
 14 97  1  0  0  0
 15 98  1  0  0  0
 16 17  2  0  0  0
 16 21  1  0  0  0
 16 31  1  0  0  0
 17 18  1  0  0  0
 17 99  1  0  0  0
 18 19  2  0  0  0
 18100  1  0  0  0
 19 20  1  0  0  0
 19 24  1  0  0  0
 20 21  2  0  0  0
 20101  1  0  0  0
 21 23  1  0  0  0
 22 28  1  0  0  0
 22 32  2  0  0  0
 26 27  1  0  0  0
 28102  1  0  0  0
 28103  1  0  0  0
 29104  1  0  0  0
 29105  1  0  0  0
 33 34  1  0  0  0
 33 66  1  0  0  0
 33 70  2  0  0  0
 34 36  1  0  0  0
 34 59  1  0  0  0
 34106  1  0  0  0
 35 44  2  0  0  0
 35 45  1  0  0  0
 35 68  1  0  0  0
 36 56  1  0  0  0
 36107  1  0  0  0
 37 39  1  0  0  0
 37 47  1  0  0  0
 37 66  1  0  0  0
 37108  1  0  0  0
 38 43  2  0  0  0
 38 46  1  0  0  0
 38 47  1  0  0  0
 39 64  1  0  0  0
 39 67  2  0  0  0
 40 52  1  0  0  0
 40 53  2  0  0  0
 40 58  1  0  0  0
 41109  1  0  0  0
 41110  1  0  0  0
 41111  1  0  0  0
 41 48  1  0  0  0
 42 43  1  0  0  0
 42 66  1  0  0  0
 42112  1  0  0  0
 42113  1  0  0  0
 43 44  1  0  0  0
 44114  1  0  0  0
 45 46  2  0  0  0
 45115  1  0  0  0
 46116  1  0  0  0
 47117  1  0  0  0
 47118  1  0  0  0
 48 56  1  0  0  0
 48 65  1  0  0  0
 48119  1  0  0  0
 49 50  1  0  0  0
 49 53  1  0  0  0
 49 64  1  0  0  0
 49120  1  0  0  0
 50 51  1  0  0  0
 50121  1  0  0  0
 50122  1  0  0  0
 51 52  1  0  0  0
 51123  1  0  0  0
 51124  1  0  0  0
 52125  1  0  0  0
 52126  1  0  0  0
 53 54  1  0  0  0
 54 55  2  0  0  0
 54127  1  0  0  0
 55 57  1  0  0  0
 55128  1  0  0  0
 56 69  2  0  0  0
 57 58  2  0  0  0
 57129  1  0  0  0
 58130  1  0  0  0
 59 60  1  0  0  0
 59 61  1  0  0  0
 59 62  1  0  0  0
 60131  1  0  0  0
 60132  1  0  0  0
 60133  1  0  0  0
 61134  1  0  0  0
 61135  1  0  0  0
 61136  1  0  0  0
 62137  1  0  0  0
 62138  1  0  0  0
 62139  1  0  0  0
 63 65  1  0  0  0
 63140  1  0  0  0
 63141  1  0  0  0
 63142  1  0  0  0
 64143  1  0  0  0
 65144  1  0  0  0
 68 82  1  0  0  0
 71 73  2  0  0  0
 71 74  1  0  0  0
 71145  1  0  0  0
 72 73  1  0  0  0
 72 75  2  0  0  0
 72146  1  0  0  0
 73 84  1  0  0  0
 74 80  1  0  0  0
 74 83  2  0  0  0
 75 81  1  0  0  0
 75 83  1  0  0  0
 76 77  1  0  0  0
 76 78  1  0  0  0
 76147  1  0  0  0
 76148  1  0  0  0
 77 79  1  0  0  0
 77149  1  0  0  0
 77150  1  0  0  0
 78 85  1  0  0  0
 78151  1  0  0  0
 78152  1  0  0  0
 79 82  1  0  0  0
 79 85  1  0  0  0
 79153  1  0  0  0
 80154  1  0  0  0
 80155  1  0  0  0
 80156  1  0  0  0
 81157  1  0  0  0
 81158  1  0  0  0
 81 85  1  0  0  0
 82159  1  0  0  0
 82160  1  0  0  0
 84161  1  0  0  0
 85162  1  0  0  0
M  CHG  1  85   1
M  ISO  4   1 100  68 101  82 101  84 100
M  END
> <chiral flag>
0

> <version>
0

> <s_m_source_file>
/data/baiqing/PycharmProjects/Reinvent-master-3.2/result/LINK_invent/BTK/process_docking_weight1_custom_product_contain_oxygen_bond_distance_aromatic_linkinvent_7_9_3/rearranged_h_0107.sdf

> <i_m_source_file_index>
14

> <r_mmod_Potential_Energy-OPLS-2005>
18.9032287597656

> <r_mmod_Stretch_Energy-OPLS-2005>
132.633346557617

> <r_mmod_Bend_Energy-OPLS-2005>
228.321029663086

> <r_mmod_Torsional_Energy-OPLS-2005>
276.598815917969

> <r_mmod_Improper_Torsional_Energy-OPLS-2005>
5.46869897842407

> <r_mmod_Van_der_Waal_Energy-OPLS-2005>
136.577423095703

> <r_mmod_Electrostatic_Energy-OPLS-2005>
-405.456176757812

> <r_mmod_Solvation_Energy-OPLS-2005>
-434.294403076172

> <b_mmod_Minimization_Converged-OPLS-2005>
0

> <r_mmod_RMS_Derivative-OPLS-2005>
5.46934938430786

$$$$
14
                    3D
 Structure written by MMmdl.
163171  0  0  1  0            999 V2000
  -30.7098  -14.5000   20.5677 C   0  0  0  0  0  0
  -30.4063  -12.3290   19.4262 C   0  0  0  0  0  0
  -29.4808  -12.5082   18.2061 C   0  0  0  0  0  0
  -28.0044  -12.3678   18.6210 C   0  0  0  0  0  0
  -27.6516  -13.2134   19.8747 C   0  0  2  0  0  0
  -28.6954  -13.0286   20.9990 C   0  0  0  0  0  0
  -25.2512  -13.8176   20.5679 C   0  0  0  0  0  0
  -24.1781  -13.0433   20.9168 C   0  0  0  0  0  0
  -24.6361  -11.6902   20.8741 C   0  0  0  0  0  0
  -23.9047  -10.4285   21.0411 C   0  0  0  0  0  0
  -24.3602   -9.4204   21.9194 C   0  0  0  0  0  0
  -23.6277   -8.2238   22.0764 C   0  0  0  0  0  0
  -22.4262   -8.0271   21.3544 C   0  0  0  0  0  0
  -21.9901   -9.0240   20.4646 C   0  0  0  0  0  0
  -22.7223  -10.2123   20.3057 C   0  0  0  0  0  0
  -21.6857   -6.0710   22.5272 C   0  0  0  0  0  0
  -21.4004   -6.5622   23.8196 C   0  0  0  0  0  0
  -21.3661   -5.6788   24.9172 C   0  0  0  0  0  0
  -21.6055   -4.3046   24.7237 C   0  0  0  0  0  0
  -21.8820   -3.8126   23.4360 C   0  0  0  0  0  0
  -21.9189   -4.6936   22.3410 C   0  0  0  0  0  0
  -22.7812  -13.5225   21.1842 C   0  0  0  0  0  0
  -22.1654   -4.2113   21.0989 F   0  0  0  0  0  0
  -21.5655   -3.4538   25.7755 F   0  0  0  0  0  0
  -30.0200  -13.3291   20.4376 N   0  0  0  0  0  0
  -26.2956  -12.9360   20.3390 N   0  0  0  0  0  0
  -25.9288  -11.6508   20.5788 N   0  0  0  0  0  0
  -22.0471  -12.8200   22.0401 N   0  0  0  0  0  0
  -25.4213  -15.1904   20.4111 N   0  0  0  0  0  0
  -31.8108  -14.6725   20.0324 O   0  0  0  0  0  0
  -21.6643   -6.8853   21.4228 O   0  0  0  0  0  0
  -22.3482  -14.5528   20.6705 O   0  0  0  0  0  0
  -24.6166  -31.8634   23.2066 C   0  0  0  0  0  0
  -25.9054  -32.4795   23.8356 C   0  0  1  0  0  0
  -27.2231  -27.3978   20.0811 C   0  0  0  0  0  0
  -25.5909  -33.8599   24.2273 N   0  0  0  0  0  0
  -23.4045  -30.4908   21.5460 C   0  0  2  0  0  0
  -24.8440  -28.9484   20.1079 C   0  0  0  0  0  0
  -22.7400  -29.4661   22.4919 C   0  0  0  0  0  0
  -18.0286  -28.1381   22.8509 C   0  0  0  0  0  0
  -24.1458  -36.7246   23.2649 C   0  0  0  0  0  0
  -25.9358  -30.8133   21.3661 C   0  0  0  0  0  0
  -26.0066  -29.4478   20.7072 C   0  0  0  0  0  0
  -27.1926  -28.6767   20.6958 C   0  0  0  0  0  0
  -26.0353  -26.9181   19.4821 C   0  0  0  0  0  0
  -24.8546  -27.6831   19.4960 C   0  0  0  0  0  0
  -23.6109  -29.8230   20.1599 C   0  0  0  0  0  0
  -25.4087  -36.3077   24.0341 C   0  0  1  0  0  0
  -20.5882  -28.3694   23.1273 C   0  0  2  0  0  0
  -20.6755  -26.9420   22.5397 C   0  0  0  0  0  0
  -19.5731  -26.6391   21.5193 C   0  0  0  0  0  0
  -18.1915  -26.7937   22.1622 C   0  0  0  0  0  0
  -19.1536  -28.8840   23.2905 C   0  0  0  0  0  0
  -18.9479  -30.1430   23.8951 C   0  0  0  0  0  0
  -17.6492  -30.6602   24.0572 C   0  0  0  0  0  0
  -25.9052  -34.9461   23.5100 C   0  0  0  0  0  0
  -16.5376  -29.9118   23.6330 C   0  0  0  0  0  0
  -16.7281  -28.6513   23.0383 C   0  0  0  0  0  0
  -26.4479  -31.6607   25.0715 C   0  0  0  0  0  0
  -25.3764  -31.3705   26.1469 C   0  0  0  0  0  0
  -27.0301  -30.3057   24.6083 C   0  0  0  0  0  0
  -27.6044  -32.4327   25.7506 C   0  0  0  0  0  0
  -27.5548  -37.1760   24.8496 C   0  0  0  0  0  0
  -21.4113  -29.3073   22.3672 N   0  0  0  0  0  0
  -26.4255  -37.3787   23.9456 N   0  0  0  0  0  0
  -24.6703  -31.0715   22.0983 N   0  0  0  0  0  0
  -23.4162  -28.8188   23.2941 O   0  0  0  0  0  0
  -28.3955  -26.6615   20.1140 O   0  0  0  0  0  0
  -26.5605  -34.8925   22.4656 O   0  0  0  0  0  0
  -23.5353  -32.1391   23.7450 O   0  0  0  0  0  0
  -28.9920  -18.3033   22.4319 C   0  0  0  0  0  0
  -28.5953  -20.6888   22.0500 C   0  0  0  0  0  0
  -29.1135  -19.2100   20.1875 C   0  0  0  0  0  0
  -28.6896  -19.5905   22.9274 C   0  0  0  0  0  0
  -29.2728  -18.0926   21.0614 C   0  0  0  0  0  0
  -28.7583  -20.5055   20.6638 C   0  0  0  0  0  0
  -28.2873  -24.1295   20.1228 C   0  0  0  0  0  0
  -28.4457  -19.8010   24.4065 C   0  0  0  0  0  0
  -30.1917  -23.0034   18.7419 C   0  0  0  0  0  0
  -30.6944  -15.7198   22.5935 C   0  0  0  0  0  0
  -29.6924  -16.7173   20.4537 C   0  0  0  0  0  0
  -28.5570  -25.4504   19.3299 C   0  0  0  0  0  0
  -29.2170  -22.8621   19.9278 C   0  0  2  0  0  0
  -28.4997  -21.5764   19.7806 N   0  0  0  0  0  0
  -30.1209  -15.5175   21.2545 N   0  0  0  0  0  0
  -27.3361  -24.0950   20.9095 O   0  0  0  0  0  0
  -31.4511  -12.4153   19.1224 H   0  0  0  0  0  0
  -30.2985  -11.3260   19.8394 H   0  0  0  0  0  0
  -29.7213  -11.7733   17.4365 H   0  0  0  0  0  0
  -29.6405  -13.4877   17.7523 H   0  0  0  0  0  0
  -27.8104  -11.3119   18.8128 H   0  0  0  0  0  0
  -27.3533  -12.6445   17.7909 H   0  0  0  0  0  0
  -27.6834  -14.2581   19.5649 H   0  0  0  0  0  0
  -28.6776  -12.0039   21.3718 H   0  0  0  0  0  0
  -28.4527  -13.6603   21.8548 H   0  0  0  0  0  0
  -25.2753   -9.5684   22.4750 H   0  0  0  0  0  0
  -23.9990   -7.4637   22.7491 H   0  0  0  0  0  0
  -21.0833   -8.8746   19.8952 H   0  0  0  0  0  0
  -22.3684  -10.9647   19.6147 H   0  0  0  0  0  0
  -21.1968   -7.6123   23.9681 H   0  0  0  0  0  0
  -21.1498   -6.0528   25.9075 H   0  0  0  0  0  0
  -22.0599   -2.7582   23.2882 H   0  0  0  0  0  0
  -22.4112  -11.9860   22.4754 H   0  0  0  0  0  0
  -21.1089  -13.1192   22.2643 H   0  0  0  0  0  0
  -24.6571  -15.8457   20.5345 H   0  0  0  0  0  0
  -26.2853  -15.6376   20.1327 H   0  0  0  0  0  0
  -26.7109  -32.5473   23.1103 H   0  0  0  0  0  0
  -25.0166  -33.9768   25.0490 H   0  0  0  0  0  0
  -22.6983  -31.3108   21.4013 H   0  0  0  0  0  0
  -23.3749  -35.9554   23.3353 H   0  0  0  0  0  0
  -24.3567  -36.8812   22.2053 H   0  0  0  0  0  0
  -23.7156  -37.6434   23.6641 H   0  0  0  0  0  0
  -26.0560  -31.5788   20.5978 H   0  0  0  0  0  0
  -26.8223  -30.8600   21.9875 H   0  0  0  0  0  0
  -28.0876  -29.0593   21.1679 H   0  0  0  0  0  0
  -25.9933  -25.9439   19.0187 H   0  0  0  0  0  0
  -23.9590  -27.2880   19.0367 H   0  0  0  0  0  0
  -23.7304  -30.6000   19.4048 H   0  0  0  0  0  0
  -22.7304  -29.2539   19.8565 H   0  0  0  0  0  0
  -25.1246  -36.1908   25.0835 H   0  0  0  0  0  0
  -21.0012  -28.3251   24.1374 H   0  0  0  0  0  0
  -20.5586  -26.2319   23.3600 H   0  0  0  0  0  0
  -21.6627  -26.7402   22.1211 H   0  0  0  0  0  0
  -19.6914  -25.6295   21.1223 H   0  0  0  0  0  0
  -19.6669  -27.3200   20.6721 H   0  0  0  0  0  0
  -17.4170  -26.6693   21.4041 H   0  0  0  0  0  0
  -18.0343  -26.0051   22.9004 H   0  0  0  0  0  0
  -19.7970  -30.7194   24.2364 H   0  0  0  0  0  0
  -17.5086  -31.6310   24.5137 H   0  0  0  0  0  0
  -15.5385  -30.3065   23.7628 H   0  0  0  0  0  0
  -15.8672  -28.0837   22.7133 H   0  0  0  0  0  0
  -24.5997  -30.6975   25.7827 H   0  0  0  0  0  0
  -24.8893  -32.2847   26.4879 H   0  0  0  0  0  0
  -25.8158  -30.8940   27.0256 H   0  0  0  0  0  0
  -26.2807  -29.6809   24.1202 H   0  0  0  0  0  0
  -27.4147  -29.7299   25.4516 H   0  0  0  0  0  0
  -27.8636  -30.4388   23.9173 H   0  0  0  0  0  0
  -27.2676  -33.3660   26.2059 H   0  0  0  0  0  0
  -28.3906  -32.6833   25.0365 H   0  0  0  0  0  0
  -28.0672  -31.8462   26.5459 H   0  0  0  0  0  0
  -28.2579  -38.0043   24.7530 H   0  0  0  0  0  0
  -28.0998  -36.2567   24.6316 H   0  0  0  0  0  0
  -27.2275  -37.1400   25.8903 H   0  0  0  0  0  0
  -20.9241  -29.8850   21.6953 H   0  0  0  0  0  0
  -26.0116  -38.2842   24.1520 H   0  0  0  0  0  0
  -29.0010  -17.4867   23.1302 H   0  0  0  0  0  0
  -28.3270  -21.6618   22.4412 H   0  0  0  0  0  0
  -29.2557  -19.0601   19.1259 H   0  0  0  0  0  0
  -28.2988  -18.8540   24.9260 H   0  0  0  0  0  0
  -27.5564  -20.4122   24.5582 H   0  0  0  0  0  0
  -29.2949  -20.3082   24.8663 H   0  0  0  0  0  0
  -30.9037  -23.8161   18.8939 H   0  0  0  0  0  0
  -29.6663  -23.1777   17.8001 H   0  0  0  0  0  0
  -30.7905  -22.0992   18.6188 H   0  0  0  0  0  0
  -29.9349  -15.5409   23.3540 H   0  0  0  0  0  0
  -31.1075  -16.7193   22.7190 H   0  0  0  0  0  0
  -31.5140  -15.0308   22.8165 H   0  0  0  0  0  0
  -30.4923  -16.9453   19.7449 H   0  0  0  0  0  0
  -28.8531  -16.3912   19.8377 H   0  0  0  0  0  0
  -27.9594  -25.4697   18.4171 H   0  0  0  0  0  0
  -29.5899  -25.4641   18.9954 H   0  0  0  0  0  0
  -29.8310  -22.7900   20.8266 H   0  0  0  0  0  0
  -28.3272  -21.3031   18.8178 H   0  0  0  0  0  0
  1 25  1  0  0  0
  1 30  2  0  0  0
  1 85  1  0  0  0
  2  3  1  0  0  0
  2 25  1  0  0  0
  2 87  1  0  0  0
  2 88  1  0  0  0
  3  4  1  0  0  0
  3 89  1  0  0  0
  3 90  1  0  0  0
  4  5  1  0  0  0
  4 91  1  0  0  0
  4 92  1  0  0  0
  5  6  1  0  0  0
  5 26  1  0  0  0
  5 93  1  0  0  0
  6 25  1  0  0  0
  6 94  1  0  0  0
  6 95  1  0  0  0
  7  8  2  0  0  0
  7 26  1  0  0  0
  7 29  1  0  0  0
  8  9  1  0  0  0
  8 22  1  0  0  0
  9 10  1  0  0  0
  9 27  2  0  0  0
 10 11  2  0  0  0
 10 15  1  0  0  0
 11 12  1  0  0  0
 11 96  1  0  0  0
 12 13  2  0  0  0
 12 97  1  0  0  0
 13 14  1  0  0  0
 13 31  1  0  0  0
 14 15  2  0  0  0
 14 98  1  0  0  0
 15 99  1  0  0  0
 16 17  2  0  0  0
 16 21  1  0  0  0
 16 31  1  0  0  0
 17 18  1  0  0  0
 17100  1  0  0  0
 18 19  2  0  0  0
 18101  1  0  0  0
 19 20  1  0  0  0
 19 24  1  0  0  0
 20 21  2  0  0  0
 20102  1  0  0  0
 21 23  1  0  0  0
 22 28  1  0  0  0
 22 32  2  0  0  0
 26 27  1  0  0  0
 28103  1  0  0  0
 28104  1  0  0  0
 29105  1  0  0  0
 29106  1  0  0  0
 33 34  1  0  0  0
 33 66  1  0  0  0
 33 70  2  0  0  0
 34 36  1  0  0  0
 34 59  1  0  0  0
 34107  1  0  0  0
 35 44  2  0  0  0
 35 45  1  0  0  0
 35 68  1  0  0  0
 36 56  1  0  0  0
 36108  1  0  0  0
 37 39  1  0  0  0
 37 47  1  0  0  0
 37 66  1  0  0  0
 37109  1  0  0  0
 38 43  2  0  0  0
 38 46  1  0  0  0
 38 47  1  0  0  0
 39 64  1  0  0  0
 39 67  2  0  0  0
 40 52  1  0  0  0
 40 53  2  0  0  0
 40 58  1  0  0  0
 41110  1  0  0  0
 41111  1  0  0  0
 41112  1  0  0  0
 41 48  1  0  0  0
 42 43  1  0  0  0
 42 66  1  0  0  0
 42113  1  0  0  0
 42114  1  0  0  0
 43 44  1  0  0  0
 44115  1  0  0  0
 45 46  2  0  0  0
 45116  1  0  0  0
 46117  1  0  0  0
 47118  1  0  0  0
 47119  1  0  0  0
 48 56  1  0  0  0
 48 65  1  0  0  0
 48120  1  0  0  0
 49 50  1  0  0  0
 49 53  1  0  0  0
 49 64  1  0  0  0
 49121  1  0  0  0
 50 51  1  0  0  0
 50122  1  0  0  0
 50123  1  0  0  0
 51 52  1  0  0  0
 51124  1  0  0  0
 51125  1  0  0  0
 52126  1  0  0  0
 52127  1  0  0  0
 53 54  1  0  0  0
 54 55  2  0  0  0
 54128  1  0  0  0
 55 57  1  0  0  0
 55129  1  0  0  0
 56 69  2  0  0  0
 57 58  2  0  0  0
 57130  1  0  0  0
 58131  1  0  0  0
 59 60  1  0  0  0
 59 61  1  0  0  0
 59 62  1  0  0  0
 60132  1  0  0  0
 60133  1  0  0  0
 60134  1  0  0  0
 61135  1  0  0  0
 61136  1  0  0  0
 61137  1  0  0  0
 62138  1  0  0  0
 62139  1  0  0  0
 62140  1  0  0  0
 63 65  1  0  0  0
 63141  1  0  0  0
 63142  1  0  0  0
 63143  1  0  0  0
 64144  1  0  0  0
 65145  1  0  0  0
 68 82  1  0  0  0
 71 74  2  0  0  0
 71 75  1  0  0  0
 71146  1  0  0  0
 72 74  1  0  0  0
 72 76  2  0  0  0
 72147  1  0  0  0
 73 75  2  0  0  0
 73 76  1  0  0  0
 73148  1  0  0  0
 74 78  1  0  0  0
 75 81  1  0  0  0
 76 84  1  0  0  0
 77 82  1  0  0  0
 77 83  1  0  0  0
 77 86  2  0  0  0
 78149  1  0  0  0
 78150  1  0  0  0
 78151  1  0  0  0
 79152  1  0  0  0
 79153  1  0  0  0
 79154  1  0  0  0
 79 83  1  0  0  0
 80 85  1  0  0  0
 80155  1  0  0  0
 80156  1  0  0  0
 80157  1  0  0  0
 81 85  1  0  0  0
 81158  1  0  0  0
 81159  1  0  0  0
 82160  1  0  0  0
 82161  1  0  0  0
 83 84  1  0  0  0
 83162  1  0  0  0
 84163  1  0  0  0
M  ISO  4   1 100  68 101  82 101  85 100
M  END
> <chiral flag>
0

> <version>
0

> <s_m_source_file>
/data/baiqing/PycharmProjects/Reinvent-master-3.2/result/LINK_invent/BTK/process_docking_weight1_custom_product_contain_oxygen_bond_distance_aromatic_linkinvent_7_9_3/rearranged_h_0107.sdf

> <i_m_source_file_index>
15

> <r_mmod_Potential_Energy-OPLS-2005>
186.350616455078

> <r_mmod_Stretch_Energy-OPLS-2005>
56.0868682861328

> <r_mmod_Bend_Energy-OPLS-2005>
142.219940185547

> <r_mmod_Torsional_Energy-OPLS-2005>
285.455413818359

> <r_mmod_Improper_Torsional_Energy-OPLS-2005>
8.08555316925049

> <r_mmod_Van_der_Waal_Energy-OPLS-2005>
154.831481933594

> <r_mmod_Electrostatic_Energy-OPLS-2005>
-254.812362670898

> <r_mmod_Solvation_Energy-OPLS-2005>
-223.199661254883

> <b_mmod_Minimization_Converged-OPLS-2005>
0

> <r_mmod_RMS_Derivative-OPLS-2005>
3.43803548812866

$$$$
15
                    3D
 Structure written by MMmdl.
160168  0  0  1  0            999 V2000
  -30.6881  -14.6423   20.3212 C   0  0  0  0  0  0
  -30.4267  -12.3673   19.4159 C   0  0  0  0  0  0
  -29.4842  -12.4084   18.1963 C   0  0  0  0  0  0
  -28.0050  -12.3158   18.6256 C   0  0  0  0  0  0
  -27.6421  -13.2093   19.8463 C   0  0  2  0  0  0
  -28.7161  -13.1681   20.9475 C   0  0  0  0  0  0
  -25.2553  -13.8117   20.5963 C   0  0  0  0  0  0
  -24.1801  -13.0380   20.9261 C   0  0  0  0  0  0
  -24.6370  -11.6856   20.8756 C   0  0  0  0  0  0
  -23.9043  -10.4251   21.0392 C   0  0  0  0  0  0
  -24.3589   -9.4166   21.9163 C   0  0  0  0  0  0
  -23.6256   -8.2217   22.0743 C   0  0  0  0  0  0
  -22.4237   -8.0260   21.3546 C   0  0  0  0  0  0
  -21.9885   -9.0225   20.4644 C   0  0  0  0  0  0
  -22.7220  -10.2091   20.3038 C   0  0  0  0  0  0
  -21.6839   -6.0726   22.5285 C   0  0  0  0  0  0
  -21.4019   -6.5639   23.8217 C   0  0  0  0  0  0
  -21.3656   -5.6790   24.9184 C   0  0  0  0  0  0
  -21.6040   -4.3053   24.7233 C   0  0  0  0  0  0
  -21.8811   -3.8139   23.4358 C   0  0  0  0  0  0
  -21.9187   -4.6958   22.3413 C   0  0  0  0  0  0
  -22.7818  -13.5181   21.1893 C   0  0  0  0  0  0
  -22.1649   -4.2147   21.0989 F   0  0  0  0  0  0
  -21.5617   -3.4533   25.7743 F   0  0  0  0  0  0
  -30.0097  -13.4535   20.3142 N   0  0  0  0  0  0
  -26.2974  -12.9314   20.3419 N   0  0  0  0  0  0
  -25.9307  -11.6465   20.5792 N   0  0  0  0  0  0
  -22.0443  -12.8183   22.0424 N   0  0  0  0  0  0
  -25.4201  -15.1877   20.4795 N   0  0  0  0  0  0
  -31.9145  -14.6586   20.4332 O   0  0  0  0  0  0
  -21.6609   -6.8867   21.4241 O   0  0  0  0  0  0
  -22.3535  -14.5511   20.6746 O   0  0  0  0  0  0
  -24.6220  -31.8613   23.2063 C   0  0  0  0  0  0
  -25.9083  -32.4800   23.8365 C   0  0  1  0  0  0
  -27.2352  -27.3674   20.1058 C   0  0  0  0  0  0
  -25.5908  -33.8593   24.2295 N   0  0  0  0  0  0
  -23.4115  -30.4824   21.5504 C   0  0  2  0  0  0
  -24.8560  -28.9393   20.1168 C   0  0  0  0  0  0
  -22.7448  -29.4582   22.4976 C   0  0  0  0  0  0
  -18.0257  -28.1379   22.8533 C   0  0  0  0  0  0
  -24.1488  -36.7310   23.2635 C   0  0  0  0  0  0
  -25.9448  -30.8070   21.3656 C   0  0  0  0  0  0
  -26.0204  -29.4362   20.7137 C   0  0  0  0  0  0
  -27.2087  -28.6608   20.6998 C   0  0  0  0  0  0
  -26.0420  -26.8993   19.5066 C   0  0  0  0  0  0
  -24.8653  -27.6732   19.5087 C   0  0  0  0  0  0
  -23.6221  -29.8139   20.1661 C   0  0  0  0  0  0
  -25.4109  -36.3094   24.0335 C   0  0  1  0  0  0
  -20.5860  -28.3645   23.1321 C   0  0  2  0  0  0
  -20.6748  -26.9376   22.5423 C   0  0  0  0  0  0
  -19.5704  -26.6419   21.5213 C   0  0  0  0  0  0
  -18.1909  -26.7915   22.1677 C   0  0  0  0  0  0
  -19.1519  -28.8835   23.2908 C   0  0  0  0  0  0
  -18.9456  -30.1441   23.8906 C   0  0  0  0  0  0
  -17.6464  -30.6593   24.0558 C   0  0  0  0  0  0
  -25.9043  -34.9464   23.5116 C   0  0  0  0  0  0
  -16.5345  -29.9078   23.6337 C   0  0  0  0  0  0
  -16.7252  -28.6486   23.0389 C   0  0  0  0  0  0
  -26.4480  -31.6597   25.0720 C   0  0  0  0  0  0
  -25.3729  -31.3701   26.1459 C   0  0  0  0  0  0
  -27.0317  -30.3045   24.6105 C   0  0  0  0  0  0
  -27.6051  -32.4321   25.7484 C   0  0  0  0  0  0
  -27.5582  -37.1810   24.8466 C   0  0  0  0  0  0
  -21.4155  -29.3015   22.3757 N   0  0  0  0  0  0
  -26.4297  -37.3793   23.9407 N   0  0  0  0  0  0
  -24.6776  -31.0666   22.0998 N   0  0  0  0  0  0
  -23.4212  -28.8116   23.3022 O   0  0  0  0  0  0
  -28.4158  -26.6255   20.1402 O   0  0  0  0  0  0
  -26.5608  -34.8935   22.4686 O   0  0  0  0  0  0
  -23.5404  -32.1396   23.7425 O   0  0  0  0  0  0
  -29.8657  -18.0377   20.4397 C   0  0  0  0  0  0
  -27.8522  -19.3711   20.1705 C   0  0  0  0  0  0
  -29.3068  -16.9355   19.7183 C   0  0  0  0  0  0
  -28.0276  -17.1604   19.1106 C   0  0  0  0  0  0
  -27.2846  -18.3262   19.4231 C   0  0  0  0  0  0
  -29.1832  -19.2829   20.6145 C   0  0  0  0  0  0
  -30.1775  -15.7464   19.3291 C   0  0  0  0  0  0
  -27.4685  -16.2711   17.9929 C   0  0  0  0  0  0
  -28.6535  -24.1608   20.7959 C   0  0  0  0  0  0
  -29.0395  -22.7012   20.3311 C   0  0  0  0  0  0
  -28.5204  -25.2463   19.6692 C   0  0  0  0  0  0
  -29.1709  -21.6312   21.4746 C   0  0  0  0  0  0
  -30.6118  -15.7392   18.1348 N   0  0  0  0  0  0
  -25.9944  -18.5102   18.9264 N   0  0  0  0  0  0
  -29.8470  -20.3769   21.1690 O   0  0  0  0  0  0
  -31.4611  -12.4829   19.0849 H   0  0  0  0  0  0
  -30.3720  -11.4044   19.9284 H   0  0  0  0  0  0
  -29.7167  -11.5837   17.5211 H   0  0  0  0  0  0
  -29.6459  -13.3145   17.6147 H   0  0  0  0  0  0
  -27.8025  -11.2717   18.8613 H   0  0  0  0  0  0
  -27.3556  -12.5580   17.7829 H   0  0  0  0  0  0
  -27.6299  -14.2275   19.4878 H   0  0  0  0  0  0
  -28.7405  -12.1943   21.4363 H   0  0  0  0  0  0
  -28.4993  -13.9073   21.7217 H   0  0  0  0  0  0
  -25.2738   -9.5644   22.4729 H   0  0  0  0  0  0
  -23.9962   -7.4616   22.7470 H   0  0  0  0  0  0
  -21.0808   -8.8729   19.8967 H   0  0  0  0  0  0
  -22.3667  -10.9612   19.6135 H   0  0  0  0  0  0
  -21.2016   -7.6146   23.9730 H   0  0  0  0  0  0
  -21.1488   -6.0521   25.9090 H   0  0  0  0  0  0
  -22.0596   -2.7603   23.2856 H   0  0  0  0  0  0
  -22.4048  -11.9846   22.4820 H   0  0  0  0  0  0
  -21.1056  -13.1214   22.2619 H   0  0  0  0  0  0
  -24.6548  -15.8271   20.6639 H   0  0  0  0  0  0
  -26.2901  -15.6591   20.2691 H   0  0  0  0  0  0
  -26.7143  -32.5481   23.1110 H   0  0  0  0  0  0
  -25.0078  -33.9738   25.0449 H   0  0  0  0  0  0
  -22.7057  -31.3030   21.4083 H   0  0  0  0  0  0
  -23.3755  -35.9645   23.3303 H   0  0  0  0  0  0
  -24.3572  -36.8923   22.2047 H   0  0  0  0  0  0
  -23.7239  -37.6514   23.6655 H   0  0  0  0  0  0
  -26.0619  -31.5635   20.5886 H   0  0  0  0  0  0
  -26.8329  -30.8623   21.9837 H   0  0  0  0  0  0
  -28.1094  -29.0452   21.1613 H   0  0  0  0  0  0
  -25.9752  -25.9318   19.0358 H   0  0  0  0  0  0
  -23.9704  -27.2799   19.0444 H   0  0  0  0  0  0
  -23.7406  -30.5863   19.4075 H   0  0  0  0  0  0
  -22.7433  -29.2414   19.8646 H   0  0  0  0  0  0
  -25.1284  -36.1959   25.0833 H   0  0  0  0  0  0
  -20.9980  -28.3200   24.1413 H   0  0  0  0  0  0
  -20.5666  -26.2246   23.3604 H   0  0  0  0  0  0
  -21.6640  -26.7443   22.1260 H   0  0  0  0  0  0
  -19.6848  -25.6363   21.1171 H   0  0  0  0  0  0
  -19.6599  -27.3292   20.6792 H   0  0  0  0  0  0
  -17.4116  -26.6690   21.4130 H   0  0  0  0  0  0
  -18.0322  -26.0027   22.9027 H   0  0  0  0  0  0
  -19.7929  -30.7231   24.2308 H   0  0  0  0  0  0
  -17.5035  -31.6287   24.5122 H   0  0  0  0  0  0
  -15.5358  -30.3003   23.7650 H   0  0  0  0  0  0
  -15.8647  -28.0781   22.7130 H   0  0  0  0  0  0
  -24.5907  -30.7047   25.7780 H   0  0  0  0  0  0
  -24.8926  -32.2858   26.4920 H   0  0  0  0  0  0
  -25.8077  -30.8848   27.0202 H   0  0  0  0  0  0
  -26.2861  -29.6810   24.1163 H   0  0  0  0  0  0
  -27.4085  -29.7276   25.4555 H   0  0  0  0  0  0
  -27.8691  -30.4373   23.9255 H   0  0  0  0  0  0
  -27.2668  -33.3610   26.2088 H   0  0  0  0  0  0
  -28.3850  -32.6898   25.0306 H   0  0  0  0  0  0
  -28.0735  -31.8429   26.5379 H   0  0  0  0  0  0
  -28.2602  -38.0105   24.7509 H   0  0  0  0  0  0
  -28.1073  -36.2631   24.6296 H   0  0  0  0  0  0
  -27.2291  -37.1458   25.8868 H   0  0  0  0  0  0
  -20.9284  -29.8810   21.7088 H   0  0  0  0  0  0
  -26.0178  -38.2873   24.1423 H   0  0  0  0  0  0
  -30.8887  -17.9604   20.7784 H   0  0  0  0  0  0
  -27.2759  -20.2710   20.3301 H   0  0  0  0  0  0
  -27.3016  -16.8823   17.1038 H   0  0  0  0  0  0
  -26.5116  -15.8361   18.2685 H   0  0  0  0  0  0
  -28.1167  -15.4608   17.6728 H   0  0  0  0  0  0
  -27.7232  -24.1297   21.3640 H   0  0  0  0  0  0
  -29.4148  -24.5039   21.4976 H   0  0  0  0  0  0
  -29.9932  -22.7398   19.8026 H   0  0  0  0  0  0
  -28.3090  -22.3625   19.5967 H   0  0  0  0  0  0
  -27.7580  -24.9558   18.9502 H   0  0  0  0  0  0
  -29.4408  -25.2179   19.0857 H   0  0  0  0  0  0
  -29.7760  -22.0878   22.2601 H   0  0  0  0  0  0
  -28.2062  -21.4432   21.9493 H   0  0  0  0  0  0
  -30.2536  -16.5408   17.6307 H   0  0  0  0  0  0
  -25.3922  -19.1786   19.3964 H   0  0  0  0  0  0
  -25.4888  -17.6932   18.6049 H   0  0  0  0  0  0
  1 25  1  0  0  0
  1 30  2  0  0  0
  1 77  1  0  0  0
  2  3  1  0  0  0
  2 25  1  0  0  0
  2 86  1  0  0  0
  2 87  1  0  0  0
  3  4  1  0  0  0
  3 88  1  0  0  0
  3 89  1  0  0  0
  4  5  1  0  0  0
  4 90  1  0  0  0
  4 91  1  0  0  0
  5  6  1  0  0  0
  5 26  1  0  0  0
  5 92  1  0  0  0
  6 25  1  0  0  0
  6 93  1  0  0  0
  6 94  1  0  0  0
  7  8  2  0  0  0
  7 26  1  0  0  0
  7 29  1  0  0  0
  8  9  1  0  0  0
  8 22  1  0  0  0
  9 10  1  0  0  0
  9 27  2  0  0  0
 10 11  2  0  0  0
 10 15  1  0  0  0
 11 12  1  0  0  0
 11 95  1  0  0  0
 12 13  2  0  0  0
 12 96  1  0  0  0
 13 14  1  0  0  0
 13 31  1  0  0  0
 14 15  2  0  0  0
 14 97  1  0  0  0
 15 98  1  0  0  0
 16 17  2  0  0  0
 16 21  1  0  0  0
 16 31  1  0  0  0
 17 18  1  0  0  0
 17 99  1  0  0  0
 18 19  2  0  0  0
 18100  1  0  0  0
 19 20  1  0  0  0
 19 24  1  0  0  0
 20 21  2  0  0  0
 20101  1  0  0  0
 21 23  1  0  0  0
 22 28  1  0  0  0
 22 32  2  0  0  0
 26 27  1  0  0  0
 28102  1  0  0  0
 28103  1  0  0  0
 29104  1  0  0  0
 29105  1  0  0  0
 33 34  1  0  0  0
 33 66  1  0  0  0
 33 70  2  0  0  0
 34 36  1  0  0  0
 34 59  1  0  0  0
 34106  1  0  0  0
 35 44  2  0  0  0
 35 45  1  0  0  0
 35 68  1  0  0  0
 36 56  1  0  0  0
 36107  1  0  0  0
 37 39  1  0  0  0
 37 47  1  0  0  0
 37 66  1  0  0  0
 37108  1  0  0  0
 38 43  2  0  0  0
 38 46  1  0  0  0
 38 47  1  0  0  0
 39 64  1  0  0  0
 39 67  2  0  0  0
 40 52  1  0  0  0
 40 53  2  0  0  0
 40 58  1  0  0  0
 41109  1  0  0  0
 41110  1  0  0  0
 41111  1  0  0  0
 41 48  1  0  0  0
 42 43  1  0  0  0
 42 66  1  0  0  0
 42112  1  0  0  0
 42113  1  0  0  0
 43 44  1  0  0  0
 44114  1  0  0  0
 45 46  2  0  0  0
 45115  1  0  0  0
 46116  1  0  0  0
 47117  1  0  0  0
 47118  1  0  0  0
 48 56  1  0  0  0
 48 65  1  0  0  0
 48119  1  0  0  0
 49 50  1  0  0  0
 49 53  1  0  0  0
 49 64  1  0  0  0
 49120  1  0  0  0
 50 51  1  0  0  0
 50121  1  0  0  0
 50122  1  0  0  0
 51 52  1  0  0  0
 51123  1  0  0  0
 51124  1  0  0  0
 52125  1  0  0  0
 52126  1  0  0  0
 53 54  1  0  0  0
 54 55  2  0  0  0
 54127  1  0  0  0
 55 57  1  0  0  0
 55128  1  0  0  0
 56 69  2  0  0  0
 57 58  2  0  0  0
 57129  1  0  0  0
 58130  1  0  0  0
 59 60  1  0  0  0
 59 61  1  0  0  0
 59 62  1  0  0  0
 60131  1  0  0  0
 60132  1  0  0  0
 60133  1  0  0  0
 61134  1  0  0  0
 61135  1  0  0  0
 61136  1  0  0  0
 62137  1  0  0  0
 62138  1  0  0  0
 62139  1  0  0  0
 63 65  1  0  0  0
 63140  1  0  0  0
 63141  1  0  0  0
 63142  1  0  0  0
 64143  1  0  0  0
 65144  1  0  0  0
 68 81  1  0  0  0
 71 73  2  0  0  0
 71 76  1  0  0  0
 71145  1  0  0  0
 72 75  1  0  0  0
 72 76  2  0  0  0
 72146  1  0  0  0
 73 74  1  0  0  0
 73 77  1  0  0  0
 74 75  2  0  0  0
 74 78  1  0  0  0
 75 84  1  0  0  0
 76 85  1  0  0  0
 77 83  2  0  0  0
 78147  1  0  0  0
 78148  1  0  0  0
 78149  1  0  0  0
 79 80  1  0  0  0
 79 81  1  0  0  0
 79150  1  0  0  0
 79151  1  0  0  0
 80 82  1  0  0  0
 80152  1  0  0  0
 80153  1  0  0  0
 81154  1  0  0  0
 81155  1  0  0  0
 82 85  1  0  0  0
 82156  1  0  0  0
 82157  1  0  0  0
 83158  1  0  0  0
 84159  1  0  0  0
 84160  1  0  0  0
M  ISO  4   1 100  68 101  77 100  81 101
M  END
> <chiral flag>
0

> <version>
0

> <s_m_source_file>
/data/baiqing/PycharmProjects/Reinvent-master-3.2/result/LINK_invent/BTK/process_docking_weight1_custom_product_contain_oxygen_bond_distance_aromatic_linkinvent_7_9_3/rearranged_h_0107.sdf

> <i_m_source_file_index>
16

> <r_mmod_Potential_Energy-OPLS-2005>
297.957397460938

> <r_mmod_Stretch_Energy-OPLS-2005>
68.2885284423828

> <r_mmod_Bend_Energy-OPLS-2005>
165.849151611328

> <r_mmod_Torsional_Energy-OPLS-2005>
285.77880859375

> <r_mmod_Improper_Torsional_Energy-OPLS-2005>
39.8530235290527

> <r_mmod_Van_der_Waal_Energy-OPLS-2005>
147.697570800781

> <r_mmod_Electrostatic_Energy-OPLS-2005>
-268.937194824219

> <r_mmod_Solvation_Energy-OPLS-2005>
-208.513488769531

> <b_mmod_Minimization_Converged-OPLS-2005>
0

> <r_mmod_RMS_Derivative-OPLS-2005>
3.93967366218567

$$$$
16
                    3D
 Structure written by MMmdl.
167175  0  0  1  0            999 V2000
  -30.6947  -14.5365   20.5786 C   0  0  0  0  0  0
  -30.4264  -12.3399   19.4452 C   0  0  0  0  0  0
  -29.5045  -12.4636   18.2123 C   0  0  0  0  0  0
  -28.0199  -12.3487   18.6199 C   0  0  0  0  0  0
  -27.6546  -13.2067   19.8624 C   0  0  2  0  0  0
  -28.6968  -13.0253   20.9848 C   0  0  0  0  0  0
  -25.2572  -13.8151   20.5662 C   0  0  0  0  0  0
  -24.1823  -13.0426   20.9173 C   0  0  0  0  0  0
  -24.6384  -11.6903   20.8728 C   0  0  0  0  0  0
  -23.9056  -10.4284   21.0395 C   0  0  0  0  0  0
  -24.3605   -9.4205   21.9176 C   0  0  0  0  0  0
  -23.6278   -8.2241   22.0752 C   0  0  0  0  0  0
  -22.4261   -8.0268   21.3544 C   0  0  0  0  0  0
  -21.9893   -9.0247   20.4657 C   0  0  0  0  0  0
  -22.7224  -10.2125   20.3060 C   0  0  0  0  0  0
  -21.6851   -6.0728   22.5279 C   0  0  0  0  0  0
  -21.4022   -6.5644   23.8209 C   0  0  0  0  0  0
  -21.3659   -5.6798   24.9170 C   0  0  0  0  0  0
  -21.6031   -4.3056   24.7229 C   0  0  0  0  0  0
  -21.8814   -3.8144   23.4354 C   0  0  0  0  0  0
  -21.9188   -4.6955   22.3408 C   0  0  0  0  0  0
  -22.7851  -13.5236   21.1861 C   0  0  0  0  0  0
  -22.1648   -4.2141   21.0983 F   0  0  0  0  0  0
  -21.5629   -3.4544   25.7745 F   0  0  0  0  0  0
  -30.0148  -13.3587   20.4267 N   0  0  0  0  0  0
  -26.2993  -12.9312   20.3318 N   0  0  0  0  0  0
  -25.9315  -11.6481   20.5770 N   0  0  0  0  0  0
  -22.0481  -12.8226   22.0416 N   0  0  0  0  0  0
  -25.4301  -15.1858   20.4081 N   0  0  0  0  0  0
  -31.8326  -14.6889   20.1203 O   0  0  0  0  0  0
  -21.6630   -6.8861   21.4237 O   0  0  0  0  0  0
  -22.3541  -14.5552   20.6743 O   0  0  0  0  0  0
  -24.6193  -31.8643   23.2100 C   0  0  0  0  0  0
  -25.9076  -32.4797   23.8399 C   0  0  1  0  0  0
  -27.2248  -27.3855   20.0863 C   0  0  0  0  0  0
  -25.5906  -33.8599   24.2314 N   0  0  0  0  0  0
  -23.4077  -30.4900   21.5520 C   0  0  2  0  0  0
  -24.8484  -28.9525   20.1172 C   0  0  0  0  0  0
  -22.7427  -29.4640   22.4991 C   0  0  0  0  0  0
  -18.0260  -28.1369   22.8486 C   0  0  0  0  0  0
  -24.1486  -36.7309   23.2640 C   0  0  0  0  0  0
  -25.9426  -30.8137   21.3701 C   0  0  0  0  0  0
  -26.0146  -29.4471   20.7117 C   0  0  0  0  0  0
  -27.2029  -28.6729   20.6897 C   0  0  0  0  0  0
  -26.0229  -26.9132   19.5045 C   0  0  0  0  0  0
  -24.8496  -27.6871   19.5129 C   0  0  0  0  0  0
  -23.6158  -29.8265   20.1662 C   0  0  0  0  0  0
  -25.4107  -36.3097   24.0332 C   0  0  1  0  0  0
  -20.5861  -28.3661   23.1305 C   0  0  2  0  0  0
  -20.6747  -26.9392   22.5421 C   0  0  0  0  0  0
  -19.5732  -26.6373   21.5211 C   0  0  0  0  0  0
  -18.1905  -26.7915   22.1610 C   0  0  0  0  0  0
  -19.1515  -28.8831   23.2891 C   0  0  0  0  0  0
  -18.9440  -30.1433   23.8916 C   0  0  0  0  0  0
  -17.6443  -30.6579   24.0569 C   0  0  0  0  0  0
  -25.9043  -34.9459   23.5123 C   0  0  0  0  0  0
  -16.5336  -29.9082   23.6326 C   0  0  0  0  0  0
  -16.7246  -28.6489   23.0363 C   0  0  0  0  0  0
  -26.4482  -31.6593   25.0747 C   0  0  0  0  0  0
  -25.3742  -31.3703   26.1496 C   0  0  0  0  0  0
  -27.0293  -30.3014   24.6164 C   0  0  0  0  0  0
  -27.6064  -32.4307   25.7494 C   0  0  0  0  0  0
  -27.5586  -37.1806   24.8458 C   0  0  0  0  0  0
  -21.4155  -29.3029   22.3729 N   0  0  0  0  0  0
  -26.4289  -37.3788   23.9417 N   0  0  0  0  0  0
  -24.6752  -31.0724   22.1007 N   0  0  0  0  0  0
  -23.4174  -28.8165   23.3037 O   0  0  0  0  0  0
  -28.4055  -26.6481   20.0983 O   0  0  0  0  0  0
  -26.5621  -34.8914   22.4695 O   0  0  0  0  0  0
  -23.5372  -32.1415   23.7463 O   0  0  0  0  0  0
  -29.2607  -18.0364   20.5965 C   0  0  0  0  0  0
  -28.4729  -18.6403   18.3679 C   0  0  0  0  0  0
  -29.2681  -16.3898   18.8106 C   0  0  0  0  0  0
  -28.7267  -19.0096   19.7020 C   0  0  0  0  0  0
  -29.5276  -16.6894   20.1754 C   0  0  0  0  0  0
  -28.7397  -17.3422   17.9073 C   0  0  0  0  0  0
  -28.9811  -21.4522   20.1641 C   0  0  0  0  0  0
  -31.0775  -16.6293   23.1233 C   0  0  0  0  0  0
  -28.5605  -16.1338   23.0953 C   0  0  0  0  0  0
  -28.4194  -15.7191   16.1595 C   0  0  0  0  0  0
  -28.2417  -22.7537   19.7407 C   0  0  0  0  0  0
  -28.6213  -24.1193   20.4116 C   0  0  0  0  0  0
  -28.5057  -25.3497   19.4530 C   0  0  0  0  0  0
  -29.9515  -15.7453   22.5477 C   0  0  0  0  0  0
  -28.2650  -20.3088   20.0939 N   0  0  0  0  0  0
  -29.9955  -15.6165   21.0653 N   0  0  0  0  0  0
  -30.1522  -21.4855   20.5462 O   0  0  0  0  0  0
  -28.4391  -17.0760   16.5880 O   0  0  0  0  0  0
  -31.4746  -12.4333   19.1568 H   0  0  0  0  0  0
  -30.3322  -11.3466   19.8875 H   0  0  0  0  0  0
  -29.7473  -11.6832   17.4898 H   0  0  0  0  0  0
  -29.6867  -13.4029   17.6959 H   0  0  0  0  0  0
  -27.8249  -11.2971   18.8355 H   0  0  0  0  0  0
  -27.3734  -12.6072   17.7799 H   0  0  0  0  0  0
  -27.6802  -14.2476   19.5469 H   0  0  0  0  0  0
  -28.7014  -11.9966   21.3469 H   0  0  0  0  0  0
  -28.4360  -13.6265   21.8507 H   0  0  0  0  0  0
  -25.2740   -9.5693   22.4761 H   0  0  0  0  0  0
  -23.9989   -7.4641   22.7475 H   0  0  0  0  0  0
  -21.0813   -8.8755   19.8971 H   0  0  0  0  0  0
  -22.3656  -10.9657   19.6181 H   0  0  0  0  0  0
  -21.2029   -7.6152   23.9717 H   0  0  0  0  0  0
  -21.1473   -6.0525   25.9072 H   0  0  0  0  0  0
  -22.0600   -2.7610   23.2856 H   0  0  0  0  0  0
  -22.4076  -11.9880   22.4798 H   0  0  0  0  0  0
  -21.1105  -13.1277   22.2614 H   0  0  0  0  0  0
  -24.6704  -15.8456   20.5327 H   0  0  0  0  0  0
  -26.2966  -15.6279   20.1307 H   0  0  0  0  0  0
  -26.7135  -32.5474   23.1142 H   0  0  0  0  0  0
  -25.0045  -33.9757   25.0450 H   0  0  0  0  0  0
  -22.6985  -31.3089   21.4148 H   0  0  0  0  0  0
  -23.3746  -35.9649   23.3291 H   0  0  0  0  0  0
  -24.3582  -36.8947   22.2061 H   0  0  0  0  0  0
  -23.7238  -37.6504   23.6668 H   0  0  0  0  0  0
  -26.0699  -31.5789   20.6038 H   0  0  0  0  0  0
  -26.8251  -30.8576   21.9969 H   0  0  0  0  0  0
  -28.1049  -29.0587   21.1442 H   0  0  0  0  0  0
  -25.9364  -25.9422   19.0451 H   0  0  0  0  0  0
  -23.9491  -27.2956   19.0584 H   0  0  0  0  0  0
  -23.7339  -30.6032   19.4096 H   0  0  0  0  0  0
  -22.7362  -29.2542   19.8650 H   0  0  0  0  0  0
  -25.1285  -36.1962   25.0825 H   0  0  0  0  0  0
  -20.9927  -28.3226   24.1438 H   0  0  0  0  0  0
  -20.5608  -26.2284   23.3623 H   0  0  0  0  0  0
  -21.6629  -26.7413   22.1249 H   0  0  0  0  0  0
  -19.6900  -25.6285   21.1245 H   0  0  0  0  0  0
  -19.6675  -27.3196   20.6749 H   0  0  0  0  0  0
  -17.4182  -26.6670   21.4007 H   0  0  0  0  0  0
  -18.0297  -26.0041   22.8983 H   0  0  0  0  0  0
  -19.7915  -30.7240   24.2300 H   0  0  0  0  0  0
  -17.4995  -31.6260   24.5167 H   0  0  0  0  0  0
  -15.5341  -30.2997   23.7623 H   0  0  0  0  0  0
  -15.8637  -28.0804   22.7098 H   0  0  0  0  0  0
  -24.5943  -30.7005   25.7853 H   0  0  0  0  0  0
  -24.8896  -32.2843   26.4938 H   0  0  0  0  0  0
  -25.8106  -30.8899   27.0262 H   0  0  0  0  0  0
  -26.2832  -29.6785   24.1209 H   0  0  0  0  0  0
  -27.4007  -29.7255   25.4653 H   0  0  0  0  0  0
  -27.8706  -30.4298   23.9349 H   0  0  0  0  0  0
  -27.2710  -33.3617   26.2081 H   0  0  0  0  0  0
  -28.3868  -32.6851   25.0307 H   0  0  0  0  0  0
  -28.0739  -31.8419   26.5399 H   0  0  0  0  0  0
  -28.2594  -38.0113   24.7519 H   0  0  0  0  0  0
  -28.1080  -36.2646   24.6243 H   0  0  0  0  0  0
  -27.2308  -37.1420   25.8860 H   0  0  0  0  0  0
  -20.9325  -29.8784   21.6982 H   0  0  0  0  0  0
  -26.0168  -38.2856   24.1438 H   0  0  0  0  0  0
  -29.4273  -18.3502   21.6119 H   0  0  0  0  0  0
  -28.0396  -19.3562   17.6829 H   0  0  0  0  0  0
  -29.4584  -15.3980   18.4456 H   0  0  0  0  0  0
  -31.0905  -16.5579   24.2128 H   0  0  0  0  0  0
  -30.9714  -17.6842   22.8804 H   0  0  0  0  0  0
  -32.0583  -16.3122   22.7674 H   0  0  0  0  0  0
  -28.4874  -15.8847   24.1546 H   0  0  0  0  0  0
  -27.7524  -15.6091   22.5852 H   0  0  0  0  0  0
  -28.3507  -17.1987   23.0230 H   0  0  0  0  0  0
  -28.0464  -15.6719   15.1358 H   0  0  0  0  0  0
  -27.7533  -15.1146   16.7778 H   0  0  0  0  0  0
  -29.4172  -15.2775   16.1699 H   0  0  0  0  0  0
  -27.1660  -22.6052   19.8437 H   0  0  0  0  0  0
  -28.4195  -22.8348   18.6679 H   0  0  0  0  0  0
  -29.6337  -24.0864   20.8150 H   0  0  0  0  0  0
  -27.9649  -24.2712   21.2688 H   0  0  0  0  0  0
  -27.7480  -25.1701   18.6964 H   0  0  0  0  0  0
  -29.4196  -25.3838   18.8600 H   0  0  0  0  0  0
  -30.1404  -14.7526   22.9667 H   0  0  0  0  0  0
  -27.2988  -20.4817   19.8534 H   0  0  0  0  0  0
  1 25  1  0  0  0
  1 30  2  0  0  0
  1 86  1  0  0  0
  2  3  1  0  0  0
  2 25  1  0  0  0
  2 89  1  0  0  0
  2 90  1  0  0  0
  3  4  1  0  0  0
  3 91  1  0  0  0
  3 92  1  0  0  0
  4  5  1  0  0  0
  4 93  1  0  0  0
  4 94  1  0  0  0
  5  6  1  0  0  0
  5 26  1  0  0  0
  5 95  1  0  0  0
  6 25  1  0  0  0
  6 96  1  0  0  0
  6 97  1  0  0  0
  7  8  2  0  0  0
  7 26  1  0  0  0
  7 29  1  0  0  0
  8  9  1  0  0  0
  8 22  1  0  0  0
  9 10  1  0  0  0
  9 27  2  0  0  0
 10 11  2  0  0  0
 10 15  1  0  0  0
 11 12  1  0  0  0
 11 98  1  0  0  0
 12 13  2  0  0  0
 12 99  1  0  0  0
 13 14  1  0  0  0
 13 31  1  0  0  0
 14 15  2  0  0  0
 14100  1  0  0  0
 15101  1  0  0  0
 16 17  2  0  0  0
 16 21  1  0  0  0
 16 31  1  0  0  0
 17 18  1  0  0  0
 17102  1  0  0  0
 18 19  2  0  0  0
 18103  1  0  0  0
 19 20  1  0  0  0
 19 24  1  0  0  0
 20 21  2  0  0  0
 20104  1  0  0  0
 21 23  1  0  0  0
 22 28  1  0  0  0
 22 32  2  0  0  0
 26 27  1  0  0  0
 28105  1  0  0  0
 28106  1  0  0  0
 29107  1  0  0  0
 29108  1  0  0  0
 33 34  1  0  0  0
 33 66  1  0  0  0
 33 70  2  0  0  0
 34 36  1  0  0  0
 34 59  1  0  0  0
 34109  1  0  0  0
 35 44  2  0  0  0
 35 45  1  0  0  0
 35 68  1  0  0  0
 36 56  1  0  0  0
 36110  1  0  0  0
 37 39  1  0  0  0
 37 47  1  0  0  0
 37 66  1  0  0  0
 37111  1  0  0  0
 38 43  2  0  0  0
 38 46  1  0  0  0
 38 47  1  0  0  0
 39 64  1  0  0  0
 39 67  2  0  0  0
 40 52  1  0  0  0
 40 53  2  0  0  0
 40 58  1  0  0  0
 41112  1  0  0  0
 41113  1  0  0  0
 41114  1  0  0  0
 41 48  1  0  0  0
 42 43  1  0  0  0
 42 66  1  0  0  0
 42115  1  0  0  0
 42116  1  0  0  0
 43 44  1  0  0  0
 44117  1  0  0  0
 45 46  2  0  0  0
 45118  1  0  0  0
 46119  1  0  0  0
 47120  1  0  0  0
 47121  1  0  0  0
 48 56  1  0  0  0
 48 65  1  0  0  0
 48122  1  0  0  0
 49 50  1  0  0  0
 49 53  1  0  0  0
 49 64  1  0  0  0
 49123  1  0  0  0
 50 51  1  0  0  0
 50124  1  0  0  0
 50125  1  0  0  0
 51 52  1  0  0  0
 51126  1  0  0  0
 51127  1  0  0  0
 52128  1  0  0  0
 52129  1  0  0  0
 53 54  1  0  0  0
 54 55  2  0  0  0
 54130  1  0  0  0
 55 57  1  0  0  0
 55131  1  0  0  0
 56 69  2  0  0  0
 57 58  2  0  0  0
 57132  1  0  0  0
 58133  1  0  0  0
 59 60  1  0  0  0
 59 61  1  0  0  0
 59 62  1  0  0  0
 60134  1  0  0  0
 60135  1  0  0  0
 60136  1  0  0  0
 61137  1  0  0  0
 61138  1  0  0  0
 61139  1  0  0  0
 62140  1  0  0  0
 62141  1  0  0  0
 62142  1  0  0  0
 63 65  1  0  0  0
 63143  1  0  0  0
 63144  1  0  0  0
 63145  1  0  0  0
 64146  1  0  0  0
 65147  1  0  0  0
 68 83  1  0  0  0
 71 74  2  0  0  0
 71 75  1  0  0  0
 71148  1  0  0  0
 72 74  1  0  0  0
 72 76  2  0  0  0
 72149  1  0  0  0
 73 75  2  0  0  0
 73 76  1  0  0  0
 73150  1  0  0  0
 74 85  1  0  0  0
 75 86  1  0  0  0
 76 88  1  0  0  0
 77 81  1  0  0  0
 77 85  1  0  0  0
 77 87  2  0  0  0
 78151  1  0  0  0
 78152  1  0  0  0
 78153  1  0  0  0
 78 84  1  0  0  0
 79 84  1  0  0  0
 79154  1  0  0  0
 79155  1  0  0  0
 79156  1  0  0  0
 80 88  1  0  0  0
 80157  1  0  0  0
 80158  1  0  0  0
 80159  1  0  0  0
 81 82  1  0  0  0
 81160  1  0  0  0
 81161  1  0  0  0
 82 83  1  0  0  0
 82162  1  0  0  0
 82163  1  0  0  0
 83164  1  0  0  0
 83165  1  0  0  0
 84 86  1  0  0  0
 84166  1  0  0  0
 85167  1  0  0  0
M  ISO  4   1 100  68 101  83 101  86 100
M  END
> <chiral flag>
0

> <version>
0

> <s_m_source_file>
/data/baiqing/PycharmProjects/Reinvent-master-3.2/result/LINK_invent/BTK/process_docking_weight1_custom_product_contain_oxygen_bond_distance_aromatic_linkinvent_7_9_3/rearranged_h_0107.sdf

> <i_m_source_file_index>
17

> <r_mmod_Potential_Energy-OPLS-2005>
207.889678955078

> <r_mmod_Stretch_Energy-OPLS-2005>
60.7521438598633

> <r_mmod_Bend_Energy-OPLS-2005>
142.920364379883

> <r_mmod_Torsional_Energy-OPLS-2005>
330.405731201172

> <r_mmod_Improper_Torsional_Energy-OPLS-2005>
7.45044708251953

> <r_mmod_Van_der_Waal_Energy-OPLS-2005>
153.195999145508

> <r_mmod_Electrostatic_Energy-OPLS-2005>
-285.541168212891

> <r_mmod_Solvation_Energy-OPLS-2005>
-223.171524047852

> <b_mmod_Minimization_Converged-OPLS-2005>
0

> <r_mmod_RMS_Derivative-OPLS-2005>
2.17792677879333

$$$$
17
                    3D
 Structure written by MMmdl.
161170  0  0  1  0            999 V2000
  -30.5147  -14.9090   20.4510 C   0  0  0  0  0  0
  -30.4563  -12.5621   19.4940 C   0  0  0  0  0  0
  -29.5289  -12.5376   18.2545 C   0  0  0  0  0  0
  -28.0583  -12.3254   18.6665 C   0  0  0  0  0  0
  -27.6415  -13.2356   19.8507 C   0  0  2  0  0  0
  -28.6854  -13.2041   20.9892 C   0  0  0  0  0  0
  -25.2489  -13.8140   20.5618 C   0  0  0  0  0  0
  -24.1801  -13.0413   20.9215 C   0  0  0  0  0  0
  -24.6408  -11.6898   20.8776 C   0  0  0  0  0  0
  -23.9080  -10.4280   21.0427 C   0  0  0  0  0  0
  -24.3625   -9.4188   21.9198 C   0  0  0  0  0  0
  -23.6289   -8.2229   22.0753 C   0  0  0  0  0  0
  -22.4272   -8.0281   21.3541 C   0  0  0  0  0  0
  -21.9919   -9.0260   20.4643 C   0  0  0  0  0  0
  -22.7259  -10.2134   20.3063 C   0  0  0  0  0  0
  -21.6849   -6.0735   22.5283 C   0  0  0  0  0  0
  -21.4010   -6.5632   23.8219 C   0  0  0  0  0  0
  -21.3663   -5.6779   24.9179 C   0  0  0  0  0  0
  -21.6044   -4.3042   24.7224 C   0  0  0  0  0  0
  -21.8815   -3.8142   23.4342 C   0  0  0  0  0  0
  -21.9186   -4.6963   22.3402 C   0  0  0  0  0  0
  -22.7825  -13.5225   21.1862 C   0  0  0  0  0  0
  -22.1654   -4.2154   21.0975 F   0  0  0  0  0  0
  -21.5629   -3.4521   25.7732 F   0  0  0  0  0  0
  -29.9704  -13.6282   20.4115 N   0  0  0  0  0  0
  -26.2942  -12.9371   20.3264 N   0  0  0  0  0  0
  -25.9346  -11.6520   20.5777 N   0  0  0  0  0  0
  -22.0441  -12.8247   22.0418 N   0  0  0  0  0  0
  -25.4111  -15.1824   20.3850 N   0  0  0  0  0  0
  -31.6949  -15.0529   20.1102 O   0  0  0  0  0  0
  -21.6625   -6.8886   21.4247 O   0  0  0  0  0  0
  -22.3524  -14.5532   20.6698 O   0  0  0  0  0  0
  -24.6411  -31.8463   23.1893 C   0  0  0  0  0  0
  -25.9187  -32.4710   23.8275 C   0  0  1  0  0  0
  -27.2208  -27.1575   20.1523 C   0  0  0  0  0  0
  -25.5932  -33.8512   24.2198 N   0  0  0  0  0  0
  -23.4436  -30.4654   21.5354 C   0  0  2  0  0  0
  -24.8932  -28.8935   20.1146 C   0  0  0  0  0  0
  -22.7555  -29.4550   22.4875 C   0  0  0  0  0  0
  -18.0299  -28.1395   22.8482 C   0  0  0  0  0  0
  -24.1486  -36.7270   23.2642 C   0  0  0  0  0  0
  -25.9978  -30.7288   21.3823 C   0  0  0  0  0  0
  -26.0702  -29.3402   20.7279 C   0  0  0  0  0  0
  -27.2365  -28.4893   20.7265 C   0  0  0  0  0  0
  -26.0159  -26.8063   19.5041 C   0  0  0  0  0  0
  -24.8773  -27.6389   19.4884 C   0  0  0  0  0  0
  -23.6687  -29.7935   20.1552 C   0  0  0  0  0  0
  -25.4118  -36.3045   24.0318 C   0  0  1  0  0  0
  -20.5909  -28.3708   23.1252 C   0  0  2  0  0  0
  -20.6783  -26.9416   22.5411 C   0  0  0  0  0  0
  -19.5754  -26.6379   21.5222 C   0  0  0  0  0  0
  -18.1936  -26.7931   22.1632 C   0  0  0  0  0  0
  -19.1555  -28.8871   23.2856 C   0  0  0  0  0  0
  -18.9472  -30.1470   23.8879 C   0  0  0  0  0  0
  -17.6470  -30.6592   24.0562 C   0  0  0  0  0  0
  -25.9069  -34.9420   23.5071 C   0  0  0  0  0  0
  -16.5361  -29.9089   23.6335 C   0  0  0  0  0  0
  -16.7285  -28.6507   23.0356 C   0  0  0  0  0  0
  -26.4506  -31.6556   25.0701 C   0  0  0  0  0  0
  -25.3690  -31.3750   26.1398 C   0  0  0  0  0  0
  -27.0350  -30.2952   24.6246 C   0  0  0  0  0  0
  -27.6047  -32.4296   25.7487 C   0  0  0  0  0  0
  -27.5575  -37.1792   24.8463 C   0  0  0  0  0  0
  -21.4250  -29.3041   22.3630 N   0  0  0  0  0  0
  -26.4284  -37.3757   23.9410 N   0  0  0  0  0  0
  -24.7141  -31.0344   22.0913 N   0  0  0  0  0  0
  -23.4217  -28.8096   23.3011 O   0  0  0  0  0  0
  -28.2940  -26.2002   20.1899 O   0  0  0  0  0  0
  -26.5666  -34.8916   22.4658 O   0  0  0  0  0  0
  -23.5535  -32.1319   23.7133 O   0  0  0  0  0  0
  -30.2062  -19.9192   20.0256 C   0  0  0  0  0  0
  -30.3988  -18.4658   20.0069 C   0  0  0  0  0  0
  -28.3473  -19.6358   21.4347 C   0  0  0  0  0  0
  -28.5111  -18.1959   21.4215 C   0  0  0  0  0  0
  -29.1702  -20.5962   20.7646 C   0  0  0  0  0  0
  -29.5715  -17.5178   20.7140 C   0  0  0  0  0  0
  -29.3586  -22.4394   22.3367 C   0  0  0  0  0  0
  -30.1359  -23.7444   22.4156 C   0  0  0  0  0  0
  -30.4117  -24.0439   20.9488 C   0  0  0  0  0  0
  -29.1837  -23.4446   20.2639 C   0  0  2  0  0  0
  -26.0666  -17.8651   22.2082 C   0  0  0  0  0  0
  -27.5268  -17.3841   22.2715 C   0  0  0  0  0  0
  -28.0364  -24.6752   20.3413 C   0  0  0  0  0  0
  -29.0177  -22.1010   21.0699 N   0  0  0  0  0  0
  -29.6464  -15.9852   20.7429 N   0  0  0  0  0  0
  -29.1091  -21.7946   23.3599 O   0  0  0  0  0  0
  -31.4891  -12.7334   19.1854 H   0  0  0  0  0  0
  -30.4535  -11.5939   19.9975 H   0  0  0  0  0  0
  -29.8428  -11.7545   17.5626 H   0  0  0  0  0  0
  -29.6218  -13.4801   17.7123 H   0  0  0  0  0  0
  -27.9428  -11.2787   18.9513 H   0  0  0  0  0  0
  -27.3981  -12.4830   17.8130 H   0  0  0  0  0  0
  -27.6209  -14.2505   19.4523 H   0  0  0  0  0  0
  -28.7637  -12.2035   21.4164 H   0  0  0  0  0  0
  -28.3884  -13.8576   21.8105 H   0  0  0  0  0  0
  -25.2768   -9.5653   22.4778 H   0  0  0  0  0  0
  -23.9987   -7.4616   22.7474 H   0  0  0  0  0  0
  -21.0850   -8.8802   19.8943 H   0  0  0  0  0  0
  -22.3739  -10.9682   19.6173 H   0  0  0  0  0  0
  -21.1992   -7.6137   23.9729 H   0  0  0  0  0  0
  -21.1494   -6.0503   25.9088 H   0  0  0  0  0  0
  -22.0591   -2.7604   23.2836 H   0  0  0  0  0  0
  -22.4033  -11.9934   22.4872 H   0  0  0  0  0  0
  -21.1059  -13.1302   22.2576 H   0  0  0  0  0  0
  -24.6348  -15.8256   20.4887 H   0  0  0  0  0  0
  -26.2386  -15.6186   20.0018 H   0  0  0  0  0  0
  -26.7255  -32.5339   23.1011 H   0  0  0  0  0  0
  -25.0007  -33.9617   25.0293 H   0  0  0  0  0  0
  -22.7438  -31.2898   21.3819 H   0  0  0  0  0  0
  -23.3753  -35.9597   23.3292 H   0  0  0  0  0  0
  -24.3565  -36.8912   22.2057 H   0  0  0  0  0  0
  -23.7232  -37.6461   23.6684 H   0  0  0  0  0  0
  -26.1438  -31.4817   20.6064 H   0  0  0  0  0  0
  -26.8722  -30.7849   22.0185 H   0  0  0  0  0  0
  -28.1367  -28.8300   21.2183 H   0  0  0  0  0  0
  -25.9221  -25.8560   19.0036 H   0  0  0  0  0  0
  -23.9795  -27.2925   18.9951 H   0  0  0  0  0  0
  -23.8042  -30.5668   19.3977 H   0  0  0  0  0  0
  -22.7847  -29.2323   19.8473 H   0  0  0  0  0  0
  -25.1307  -36.1875   25.0810 H   0  0  0  0  0  0
  -20.9997  -28.3295   24.1377 H   0  0  0  0  0  0
  -20.5678  -26.2324   23.3627 H   0  0  0  0  0  0
  -21.6649  -26.7425   22.1212 H   0  0  0  0  0  0
  -19.6911  -25.6285   21.1265 H   0  0  0  0  0  0
  -19.6694  -27.3181   20.6746 H   0  0  0  0  0  0
  -17.4207  -26.6676   21.4036 H   0  0  0  0  0  0
  -18.0333  -26.0081   22.9036 H   0  0  0  0  0  0
  -19.7947  -30.7287   24.2246 H   0  0  0  0  0  0
  -17.5025  -31.6272   24.5163 H   0  0  0  0  0  0
  -15.5362  -30.2990   23.7659 H   0  0  0  0  0  0
  -15.8684  -28.0822   22.7081 H   0  0  0  0  0  0
  -24.5870  -30.7099   25.7715 H   0  0  0  0  0  0
  -24.8880  -32.2939   26.4764 H   0  0  0  0  0  0
  -25.7965  -30.8956   27.0212 H   0  0  0  0  0  0
  -26.2952  -29.6698   24.1240 H   0  0  0  0  0  0
  -27.3955  -29.7223   25.4799 H   0  0  0  0  0  0
  -27.8865  -30.4191   23.9552 H   0  0  0  0  0  0
  -27.2652  -33.3611   26.2032 H   0  0  0  0  0  0
  -28.3883  -32.6825   25.0333 H   0  0  0  0  0  0
  -28.0680  -31.8432   26.5433 H   0  0  0  0  0  0
  -28.2587  -38.0094   24.7512 H   0  0  0  0  0  0
  -28.1073  -36.2623   24.6285 H   0  0  0  0  0  0
  -27.2295  -37.1439   25.8867 H   0  0  0  0  0  0
  -20.9453  -29.8759   21.6815 H   0  0  0  0  0  0
  -26.0153  -38.2824   24.1418 H   0  0  0  0  0  0
  -30.9244  -20.5273   19.4929 H   0  0  0  0  0  0
  -31.2256  -18.0776   19.4283 H   0  0  0  0  0  0
  -27.5677  -20.0486   22.0550 H   0  0  0  0  0  0
  -31.0517  -23.6369   22.9966 H   0  0  0  0  0  0
  -29.5156  -24.5127   22.8784 H   0  0  0  0  0  0
  -31.3172  -23.5316   20.6201 H   0  0  0  0  0  0
  -30.5478  -25.1077   20.7519 H   0  0  0  0  0  0
  -29.4152  -23.2267   19.2209 H   0  0  0  0  0  0
  -25.4170  -17.1676   22.7373 H   0  0  0  0  0  0
  -25.7135  -17.9257   21.1780 H   0  0  0  0  0  0
  -25.9210  -18.8374   22.6762 H   0  0  0  0  0  0
  -27.8714  -17.4075   23.3062 H   0  0  0  0  0  0
  -27.5280  -16.3352   21.9843 H   0  0  0  0  0  0
  -27.5408  -24.5846   21.3084 H   0  0  0  0  0  0
  -27.2750  -24.3827   19.6221 H   0  0  0  0  0  0
  -28.7769  -15.5903   21.0650 H   0  0  0  0  0  0
  1 25  1  0  0  0
  1 30  2  0  0  0
  1 85  1  0  0  0
  2  3  1  0  0  0
  2 25  1  0  0  0
  2 87  1  0  0  0
  2 88  1  0  0  0
  3  4  1  0  0  0
  3 89  1  0  0  0
  3 90  1  0  0  0
  4  5  1  0  0  0
  4 91  1  0  0  0
  4 92  1  0  0  0
  5  6  1  0  0  0
  5 26  1  0  0  0
  5 93  1  0  0  0
  6 25  1  0  0  0
  6 94  1  0  0  0
  6 95  1  0  0  0
  7  8  2  0  0  0
  7 26  1  0  0  0
  7 29  1  0  0  0
  8  9  1  0  0  0
  8 22  1  0  0  0
  9 10  1  0  0  0
  9 27  2  0  0  0
 10 11  2  0  0  0
 10 15  1  0  0  0
 11 12  1  0  0  0
 11 96  1  0  0  0
 12 13  2  0  0  0
 12 97  1  0  0  0
 13 14  1  0  0  0
 13 31  1  0  0  0
 14 15  2  0  0  0
 14 98  1  0  0  0
 15 99  1  0  0  0
 16 17  2  0  0  0
 16 21  1  0  0  0
 16 31  1  0  0  0
 17 18  1  0  0  0
 17100  1  0  0  0
 18 19  2  0  0  0
 18101  1  0  0  0
 19 20  1  0  0  0
 19 24  1  0  0  0
 20 21  2  0  0  0
 20102  1  0  0  0
 21 23  1  0  0  0
 22 28  1  0  0  0
 22 32  2  0  0  0
 26 27  1  0  0  0
 28103  1  0  0  0
 28104  1  0  0  0
 29105  1  0  0  0
 29106  1  0  0  0
 33 34  1  0  0  0
 33 66  1  0  0  0
 33 70  2  0  0  0
 34 36  1  0  0  0
 34 59  1  0  0  0
 34107  1  0  0  0
 35 44  2  0  0  0
 35 45  1  0  0  0
 35 68  1  0  0  0
 36 56  1  0  0  0
 36108  1  0  0  0
 37 39  1  0  0  0
 37 47  1  0  0  0
 37 66  1  0  0  0
 37109  1  0  0  0
 38 43  2  0  0  0
 38 46  1  0  0  0
 38 47  1  0  0  0
 39 64  1  0  0  0
 39 67  2  0  0  0
 40 52  1  0  0  0
 40 53  2  0  0  0
 40 58  1  0  0  0
 41110  1  0  0  0
 41111  1  0  0  0
 41112  1  0  0  0
 41 48  1  0  0  0
 42 43  1  0  0  0
 42 66  1  0  0  0
 42113  1  0  0  0
 42114  1  0  0  0
 43 44  1  0  0  0
 44115  1  0  0  0
 45 46  2  0  0  0
 45116  1  0  0  0
 46117  1  0  0  0
 47118  1  0  0  0
 47119  1  0  0  0
 48 56  1  0  0  0
 48 65  1  0  0  0
 48120  1  0  0  0
 49 50  1  0  0  0
 49 53  1  0  0  0
 49 64  1  0  0  0
 49121  1  0  0  0
 50 51  1  0  0  0
 50122  1  0  0  0
 50123  1  0  0  0
 51 52  1  0  0  0
 51124  1  0  0  0
 51125  1  0  0  0
 52126  1  0  0  0
 52127  1  0  0  0
 53 54  1  0  0  0
 54 55  2  0  0  0
 54128  1  0  0  0
 55 57  1  0  0  0
 55129  1  0  0  0
 56 69  2  0  0  0
 57 58  2  0  0  0
 57130  1  0  0  0
 58131  1  0  0  0
 59 60  1  0  0  0
 59 61  1  0  0  0
 59 62  1  0  0  0
 60132  1  0  0  0
 60133  1  0  0  0
 60134  1  0  0  0
 61135  1  0  0  0
 61136  1  0  0  0
 61137  1  0  0  0
 62138  1  0  0  0
 62139  1  0  0  0
 62140  1  0  0  0
 63 65  1  0  0  0
 63141  1  0  0  0
 63142  1  0  0  0
 63143  1  0  0  0
 64144  1  0  0  0
 65145  1  0  0  0
 68 83  1  0  0  0
 71 72  2  0  0  0
 71 75  1  0  0  0
 71146  1  0  0  0
 72 76  1  0  0  0
 72147  1  0  0  0
 73 74  1  0  0  0
 73 75  2  0  0  0
 73148  1  0  0  0
 74 76  2  0  0  0
 74 82  1  0  0  0
 75 84  1  0  0  0
 76 85  1  0  0  0
 77 78  1  0  0  0
 77 84  1  0  0  0
 77 86  2  0  0  0
 78 79  1  0  0  0
 78149  1  0  0  0
 78150  1  0  0  0
 79 80  1  0  0  0
 79151  1  0  0  0
 79152  1  0  0  0
 80 83  1  0  0  0
 80 84  1  0  0  0
 80153  1  0  0  0
 81 82  1  0  0  0
 81154  1  0  0  0
 81155  1  0  0  0
 81156  1  0  0  0
 82157  1  0  0  0
 82158  1  0  0  0
 83159  1  0  0  0
 83160  1  0  0  0
 85161  1  0  0  0
M  ISO  4   1 100  68 101  83 101  85 100
M  END
> <chiral flag>
0

> <version>
0

> <s_m_source_file>
/data/baiqing/PycharmProjects/Reinvent-master-3.2/result/LINK_invent/BTK/process_docking_weight1_custom_product_contain_oxygen_bond_distance_aromatic_linkinvent_7_9_3/rearranged_h_0107.sdf

> <i_m_source_file_index>
18

> <r_mmod_Potential_Energy-OPLS-2005>
569.171203613281

> <r_mmod_Stretch_Energy-OPLS-2005>
231.101333618164

> <r_mmod_Bend_Energy-OPLS-2005>
309.756958007812

> <r_mmod_Torsional_Energy-OPLS-2005>
310.252380371094

> <r_mmod_Improper_Torsional_Energy-OPLS-2005>
6.23855352401733

> <r_mmod_Van_der_Waal_Energy-OPLS-2005>
134.547088623047

> <r_mmod_Electrostatic_Energy-OPLS-2005>
-372.871246337891

> <r_mmod_Solvation_Energy-OPLS-2005>
-216.457855224609

> <b_mmod_Minimization_Converged-OPLS-2005>
0

> <r_mmod_RMS_Derivative-OPLS-2005>
1.13179886341095

$$$$
18
                    3D
 Structure written by MMmdl.
170178  0  0  1  0            999 V2000
  -30.7682  -14.3794   20.6551 C   0  0  0  0  0  0
  -30.4094  -12.2902   19.3943 C   0  0  0  0  0  0
  -29.4798  -12.5225   18.1884 C   0  0  0  0  0  0
  -28.0046  -12.3822   18.6063 C   0  0  0  0  0  0
  -27.6645  -13.2050   19.8775 C   0  0  2  0  0  0
  -28.7049  -12.9574   20.9919 C   0  0  0  0  0  0
  -25.2611  -13.8153   20.5670 C   0  0  0  0  0  0
  -24.1848  -13.0433   20.9151 C   0  0  0  0  0  0
  -24.6395  -11.6899   20.8716 C   0  0  0  0  0  0
  -23.9063  -10.4280   21.0400 C   0  0  0  0  0  0
  -24.3612   -9.4199   21.9178 C   0  0  0  0  0  0
  -23.6286   -8.2243   22.0764 C   0  0  0  0  0  0
  -22.4275   -8.0274   21.3546 C   0  0  0  0  0  0
  -21.9905   -9.0245   20.4647 C   0  0  0  0  0  0
  -22.7238  -10.2125   20.3052 C   0  0  0  0  0  0
  -21.6859   -6.0729   22.5269 C   0  0  0  0  0  0
  -21.4021   -6.5639   23.8199 C   0  0  0  0  0  0
  -21.3659   -5.6794   24.9165 C   0  0  0  0  0  0
  -21.6045   -4.3055   24.7217 C   0  0  0  0  0  0
  -21.8822   -3.8144   23.4340 C   0  0  0  0  0  0
  -21.9192   -4.6958   22.3394 C   0  0  0  0  0  0
  -22.7875  -13.5239   21.1801 C   0  0  0  0  0  0
  -22.1662   -4.2142   21.0972 F   0  0  0  0  0  0
  -21.5624   -3.4539   25.7733 F   0  0  0  0  0  0
  -30.0438  -13.2493   20.4473 N   0  0  0  0  0  0
  -26.3044  -12.9314   20.3373 N   0  0  0  0  0  0
  -25.9326  -11.6482   20.5753 N   0  0  0  0  0  0
  -22.0521  -12.8224   22.0365 N   0  0  0  0  0  0
  -25.4326  -15.1863   20.4073 N   0  0  0  0  0  0
  -31.8157  -14.6258   20.0520 O   0  0  0  0  0  0
  -21.6642   -6.8867   21.4237 O   0  0  0  0  0  0
  -22.3564  -14.5546   20.6662 O   0  0  0  0  0  0
  -24.6153  -31.8686   23.2111 C   0  0  0  0  0  0
  -25.9051  -32.4827   23.8399 C   0  0  1  0  0  0
  -27.2518  -27.4517   20.0869 C   0  0  0  0  0  0
  -25.5909  -33.8617   24.2335 N   0  0  0  0  0  0
  -23.4012  -30.4903   21.5512 C   0  0  2  0  0  0
  -24.8472  -28.9553   20.1172 C   0  0  0  0  0  0
  -22.7425  -29.4664   22.5019 C   0  0  0  0  0  0
  -18.0273  -28.1390   22.8501 C   0  0  0  0  0  0
  -24.1482  -36.7327   23.2644 C   0  0  0  0  0  0
  -25.9255  -30.8407   21.3575 C   0  0  0  0  0  0
  -26.0036  -29.4736   20.7112 C   0  0  0  0  0  0
  -27.2003  -28.7260   20.6966 C   0  0  0  0  0  0
  -26.0681  -26.9371   19.5016 C   0  0  0  0  0  0
  -24.8735  -27.6852   19.5163 C   0  0  0  0  0  0
  -23.6077  -29.8207   20.1663 C   0  0  0  0  0  0
  -25.4100  -36.3123   24.0335 C   0  0  1  0  0  0
  -20.5871  -28.3657   23.1337 C   0  0  2  0  0  0
  -20.6756  -26.9403   22.5440 C   0  0  0  0  0  0
  -19.5729  -26.6404   21.5241 C   0  0  0  0  0  0
  -18.1901  -26.7916   22.1655 C   0  0  0  0  0  0
  -19.1526  -28.8844   23.2894 C   0  0  0  0  0  0
  -18.9460  -30.1451   23.8884 C   0  0  0  0  0  0
  -17.6457  -30.6572   24.0590 C   0  0  0  0  0  0
  -25.9047  -34.9477   23.5141 C   0  0  0  0  0  0
  -16.5344  -29.9082   23.6338 C   0  0  0  0  0  0
  -16.7265  -28.6527   23.0318 C   0  0  0  0  0  0
  -26.4471  -31.6589   25.0713 C   0  0  0  0  0  0
  -25.3724  -31.3672   26.1455 C   0  0  0  0  0  0
  -27.0322  -30.3038   24.6059 C   0  0  0  0  0  0
  -27.6046  -32.4291   25.7489 C   0  0  0  0  0  0
  -27.5569  -37.1822   24.8467 C   0  0  0  0  0  0
  -21.4160  -29.3018   22.3762 N   0  0  0  0  0  0
  -26.4288  -37.3812   23.9413 N   0  0  0  0  0  0
  -24.6652  -31.0810   22.0996 N   0  0  0  0  0  0
  -23.4221  -28.8216   23.3052 O   0  0  0  0  0  0
  -28.4772  -26.8133   20.0921 O   0  0  0  0  0  0
  -26.5613  -34.8938   22.4707 O   0  0  0  0  0  0
  -23.5351  -32.1423   23.7540 O   0  0  0  0  0  0
  -28.8198  -19.9161   23.6904 C   0  0  0  0  0  0
  -28.1126  -21.5077   21.4952 C   0  0  0  0  0  0
  -28.5228  -19.2901   22.4579 C   0  0  0  0  0  0
  -28.1450  -20.1019   21.3571 C   0  0  0  0  0  0
  -28.7986  -21.3159   23.8167 C   0  0  0  0  0  0
  -28.4643  -22.1332   22.7167 C   0  0  0  0  0  0
  -29.7581  -17.0721   23.0276 C   0  0  0  0  0  0
  -27.7568  -19.4977   20.0165 C   0  0  0  0  0  0
  -31.3199  -17.4549   21.0728 C   0  0  0  0  0  0
  -32.0748  -16.0388   23.0246 C   0  0  0  0  0  0
  -28.5618  -17.7599   22.3410 C   0  0  0  0  0  0
  -29.1461  -24.5811   20.7856 C   0  0  0  0  0  0
  -28.6547  -25.4727   19.6334 C   0  0  0  0  0  0
  -28.0808  -24.3832   21.8809 C   0  0  0  0  0  0
  -30.8602  -16.4354   22.1474 C   0  0  0  0  0  0
  -29.1033  -21.8982   25.0461 N   0  0  0  0  0  0
  -30.2707  -15.2132   21.5778 N   0  0  0  0  0  0
  -29.7869  -16.9612   24.2568 O   0  0  0  0  0  0
  -28.5043  -23.5016   22.9170 O   0  0  0  0  0  0
  -31.4546  -12.3759   19.0911 H   0  0  0  0  0  0
  -30.2924  -11.2721   19.7691 H   0  0  0  0  0  0
  -29.7099  -11.8116   17.3934 H   0  0  0  0  0  0
  -29.6523  -13.5151   17.7692 H   0  0  0  0  0  0
  -27.8097  -11.3239   18.7856 H   0  0  0  0  0  0
  -27.3515  -12.6751   17.7838 H   0  0  0  0  0  0
  -27.7184  -14.2574   19.6017 H   0  0  0  0  0  0
  -28.6702  -11.9156   21.3156 H   0  0  0  0  0  0
  -28.4546  -13.5389   21.8793 H   0  0  0  0  0  0
  -25.2766   -9.5678   22.4742 H   0  0  0  0  0  0
  -23.9987   -7.4651   22.7501 H   0  0  0  0  0  0
  -21.0836   -8.8763   19.8960 H   0  0  0  0  0  0
  -22.3695  -10.9659   19.6152 H   0  0  0  0  0  0
  -21.2030   -7.6150   23.9696 H   0  0  0  0  0  0
  -21.1478   -6.0530   25.9063 H   0  0  0  0  0  0
  -22.0604   -2.7608   23.2842 H   0  0  0  0  0  0
  -22.4154  -11.9879   22.4729 H   0  0  0  0  0  0
  -21.1150  -13.1246   22.2574 H   0  0  0  0  0  0
  -24.6630  -15.8383   20.5023 H   0  0  0  0  0  0
  -26.2792  -15.6207   20.0623 H   0  0  0  0  0  0
  -26.7136  -32.5553   23.1191 H   0  0  0  0  0  0
  -25.0021  -33.9764   25.0446 H   0  0  0  0  0  0
  -22.6897  -31.3073   21.4130 H   0  0  0  0  0  0
  -23.3745  -35.9668   23.3322 H   0  0  0  0  0  0
  -24.3576  -36.8928   22.2063 H   0  0  0  0  0  0
  -23.7233  -37.6532   23.6640 H   0  0  0  0  0  0
  -26.0287  -31.6056   20.5863 H   0  0  0  0  0  0
  -26.8202  -30.8993   21.9674 H   0  0  0  0  0  0
  -28.0972  -29.1324   21.1454 H   0  0  0  0  0  0
  -26.0272  -25.9757   19.0158 H   0  0  0  0  0  0
  -23.9806  -27.2755   19.0619 H   0  0  0  0  0  0
  -23.7129  -30.5941   19.4043 H   0  0  0  0  0  0
  -22.7292  -29.2391   19.8742 H   0  0  0  0  0  0
  -25.1271  -36.1999   25.0823 H   0  0  0  0  0  0
  -20.9933  -28.3216   24.1469 H   0  0  0  0  0  0
  -20.5728  -26.2255   23.3628 H   0  0  0  0  0  0
  -21.6610  -26.7475   22.1185 H   0  0  0  0  0  0
  -19.6897  -25.6341   21.1219 H   0  0  0  0  0  0
  -19.6643  -27.3269   20.6803 H   0  0  0  0  0  0
  -17.4187  -26.6707   21.4045 H   0  0  0  0  0  0
  -18.0258  -26.0062   22.9047 H   0  0  0  0  0  0
  -19.7938  -30.7281   24.2240 H   0  0  0  0  0  0
  -17.5010  -31.6247   24.5212 H   0  0  0  0  0  0
  -15.5344  -30.2984   23.7656 H   0  0  0  0  0  0
  -15.8678  -28.0877   22.6961 H   0  0  0  0  0  0
  -24.5938  -30.6962   25.7810 H   0  0  0  0  0  0
  -24.8858  -32.2807   26.4872 H   0  0  0  0  0  0
  -25.8081  -30.8901   27.0239 H   0  0  0  0  0  0
  -26.2861  -29.6791   24.1124 H   0  0  0  0  0  0
  -27.4142  -29.7277   25.4504 H   0  0  0  0  0  0
  -27.8670  -30.4422   23.9176 H   0  0  0  0  0  0
  -27.2677  -33.3621   26.2024 H   0  0  0  0  0  0
  -28.3873  -32.6783   25.0310 H   0  0  0  0  0  0
  -28.0664  -31.8404   26.5438 H   0  0  0  0  0  0
  -28.2599  -38.0114   24.7499 H   0  0  0  0  0  0
  -28.1046  -36.2636   24.6290 H   0  0  0  0  0  0
  -27.2277  -37.1449   25.8870 H   0  0  0  0  0  0
  -20.9346  -29.8746   21.6974 H   0  0  0  0  0  0
  -26.0188  -38.2901   24.1388 H   0  0  0  0  0  0
  -29.0721  -19.3168   24.5543 H   0  0  0  0  0  0
  -27.8200  -22.0961   20.6381 H   0  0  0  0  0  0
  -27.5018  -20.2687   19.2884 H   0  0  0  0  0  0
  -26.8891  -18.8461   20.1212 H   0  0  0  0  0  0
  -28.5763  -18.9190   19.5925 H   0  0  0  0  0  0
  -31.5214  -18.4324   21.5169 H   0  0  0  0  0  0
  -30.5778  -17.5942   20.2863 H   0  0  0  0  0  0
  -32.2442  -17.1442   20.5855 H   0  0  0  0  0  0
  -32.4647  -16.8949   23.5772 H   0  0  0  0  0  0
  -32.8965  -15.6514   22.4222 H   0  0  0  0  0  0
  -31.8145  -15.2695   23.7550 H   0  0  0  0  0  0
  -28.5502  -17.4484   21.2988 H   0  0  0  0  0  0
  -27.6473  -17.3644   22.7799 H   0  0  0  0  0  0
  -30.0530  -25.0029   21.2218 H   0  0  0  0  0  0
  -29.4415  -23.6198   20.3663 H   0  0  0  0  0  0
  -27.7951  -25.0140   19.1543 H   0  0  0  0  0  0
  -29.4287  -25.5023   18.8659 H   0  0  0  0  0  0
  -27.1238  -24.0660   21.4674 H   0  0  0  0  0  0
  -27.8888  -25.3489   22.3491 H   0  0  0  0  0  0
  -28.9691  -21.3368   25.8810 H   0  0  0  0  0  0
  -28.7948  -22.8587   25.1666 H   0  0  0  0  0  0
  -29.4059  -14.9128   22.0010 H   0  0  0  0  0  0
  1 25  1  0  0  0
  1 30  2  0  0  0
  1 87  1  0  0  0
  2  3  1  0  0  0
  2 25  1  0  0  0
  2 90  1  0  0  0
  2 91  1  0  0  0
  3  4  1  0  0  0
  3 92  1  0  0  0
  3 93  1  0  0  0
  4  5  1  0  0  0
  4 94  1  0  0  0
  4 95  1  0  0  0
  5  6  1  0  0  0
  5 26  1  0  0  0
  5 96  1  0  0  0
  6 25  1  0  0  0
  6 97  1  0  0  0
  6 98  1  0  0  0
  7  8  2  0  0  0
  7 26  1  0  0  0
  7 29  1  0  0  0
  8  9  1  0  0  0
  8 22  1  0  0  0
  9 10  1  0  0  0
  9 27  2  0  0  0
 10 11  2  0  0  0
 10 15  1  0  0  0
 11 12  1  0  0  0
 11 99  1  0  0  0
 12 13  2  0  0  0
 12100  1  0  0  0
 13 14  1  0  0  0
 13 31  1  0  0  0
 14 15  2  0  0  0
 14101  1  0  0  0
 15102  1  0  0  0
 16 17  2  0  0  0
 16 21  1  0  0  0
 16 31  1  0  0  0
 17 18  1  0  0  0
 17103  1  0  0  0
 18 19  2  0  0  0
 18104  1  0  0  0
 19 20  1  0  0  0
 19 24  1  0  0  0
 20 21  2  0  0  0
 20105  1  0  0  0
 21 23  1  0  0  0
 22 28  1  0  0  0
 22 32  2  0  0  0
 26 27  1  0  0  0
 28106  1  0  0  0
 28107  1  0  0  0
 29108  1  0  0  0
 29109  1  0  0  0
 33 34  1  0  0  0
 33 66  1  0  0  0
 33 70  2  0  0  0
 34 36  1  0  0  0
 34 59  1  0  0  0
 34110  1  0  0  0
 35 44  2  0  0  0
 35 45  1  0  0  0
 35 68  1  0  0  0
 36 56  1  0  0  0
 36111  1  0  0  0
 37 39  1  0  0  0
 37 47  1  0  0  0
 37 66  1  0  0  0
 37112  1  0  0  0
 38 43  2  0  0  0
 38 46  1  0  0  0
 38 47  1  0  0  0
 39 64  1  0  0  0
 39 67  2  0  0  0
 40 52  1  0  0  0
 40 53  2  0  0  0
 40 58  1  0  0  0
 41113  1  0  0  0
 41114  1  0  0  0
 41115  1  0  0  0
 41 48  1  0  0  0
 42 43  1  0  0  0
 42 66  1  0  0  0
 42116  1  0  0  0
 42117  1  0  0  0
 43 44  1  0  0  0
 44118  1  0  0  0
 45 46  2  0  0  0
 45119  1  0  0  0
 46120  1  0  0  0
 47121  1  0  0  0
 47122  1  0  0  0
 48 56  1  0  0  0
 48 65  1  0  0  0
 48123  1  0  0  0
 49 50  1  0  0  0
 49 53  1  0  0  0
 49 64  1  0  0  0
 49124  1  0  0  0
 50 51  1  0  0  0
 50125  1  0  0  0
 50126  1  0  0  0
 51 52  1  0  0  0
 51127  1  0  0  0
 51128  1  0  0  0
 52129  1  0  0  0
 52130  1  0  0  0
 53 54  1  0  0  0
 54 55  2  0  0  0
 54131  1  0  0  0
 55 57  1  0  0  0
 55132  1  0  0  0
 56 69  2  0  0  0
 57 58  2  0  0  0
 57133  1  0  0  0
 58134  1  0  0  0
 59 60  1  0  0  0
 59 61  1  0  0  0
 59 62  1  0  0  0
 60135  1  0  0  0
 60136  1  0  0  0
 60137  1  0  0  0
 61138  1  0  0  0
 61139  1  0  0  0
 61140  1  0  0  0
 62141  1  0  0  0
 62142  1  0  0  0
 62143  1  0  0  0
 63 65  1  0  0  0
 63144  1  0  0  0
 63145  1  0  0  0
 63146  1  0  0  0
 64147  1  0  0  0
 65148  1  0  0  0
 68 83  1  0  0  0
 71 73  2  0  0  0
 71 75  1  0  0  0
 71149  1  0  0  0
 72 74  2  0  0  0
 72 76  1  0  0  0
 72150  1  0  0  0
 73 74  1  0  0  0
 73 81  1  0  0  0
 74 78  1  0  0  0
 75 76  2  0  0  0
 75 86  1  0  0  0
 76 89  1  0  0  0
 77 81  1  0  0  0
 77 85  1  0  0  0
 77 88  2  0  0  0
 78151  1  0  0  0
 78152  1  0  0  0
 78153  1  0  0  0
 79154  1  0  0  0
 79155  1  0  0  0
 79156  1  0  0  0
 79 85  1  0  0  0
 80 85  1  0  0  0
 80157  1  0  0  0
 80158  1  0  0  0
 80159  1  0  0  0
 81160  1  0  0  0
 81161  1  0  0  0
 82 83  1  0  0  0
 82 84  1  0  0  0
 82162  1  0  0  0
 82163  1  0  0  0
 83164  1  0  0  0
 83165  1  0  0  0
 84 89  1  0  0  0
 84166  1  0  0  0
 84167  1  0  0  0
 85 87  1  0  0  0
 86168  1  0  0  0
 86169  1  0  0  0
 87170  1  0  0  0
M  ISO  4   1 100  68 101  83 101  87 100
M  END
> <chiral flag>
0

> <version>
0

> <s_m_source_file>
/data/baiqing/PycharmProjects/Reinvent-master-3.2/result/LINK_invent/BTK/process_docking_weight1_custom_product_contain_oxygen_bond_distance_aromatic_linkinvent_7_9_3/rearranged_h_0107.sdf

> <i_m_source_file_index>
19

> <r_mmod_Potential_Energy-OPLS-2005>
-109.926139831543

> <r_mmod_Stretch_Energy-OPLS-2005>
37.5768547058105

> <r_mmod_Bend_Energy-OPLS-2005>
124.962921142578

> <r_mmod_Torsional_Energy-OPLS-2005>
200.057022094727

> <r_mmod_Improper_Torsional_Energy-OPLS-2005>
6.34832763671875

> <r_mmod_Van_der_Waal_Energy-OPLS-2005>
164.039108276367

> <r_mmod_Electrostatic_Energy-OPLS-2005>
-423.160217285156

> <r_mmod_Solvation_Energy-OPLS-2005>
-228.591415405273

> <b_mmod_Minimization_Converged-OPLS-2005>
0

> <r_mmod_RMS_Derivative-OPLS-2005>
3.12256407737732

$$$$
19
                    3D
 Structure written by MMmdl.
155163  0  0  1  0            999 V2000
  -30.7189  -14.4992   20.6486 C   0  0  0  0  0  0
  -30.4261  -12.3540   19.4306 C   0  0  0  0  0  0
  -29.4955  -12.5323   18.2136 C   0  0  0  0  0  0
  -28.0208  -12.3660   18.6252 C   0  0  0  0  0  0
  -27.6605  -13.2082   19.8764 C   0  0  2  0  0  0
  -28.6956  -12.9881   21.0008 C   0  0  0  0  0  0
  -25.2577  -13.8163   20.5673 C   0  0  0  0  0  0
  -24.1829  -13.0435   20.9162 C   0  0  0  0  0  0
  -24.6385  -11.6907   20.8720 C   0  0  0  0  0  0
  -23.9053  -10.4291   21.0403 C   0  0  0  0  0  0
  -24.3608   -9.4207   21.9177 C   0  0  0  0  0  0
  -23.6286   -8.2242   22.0748 C   0  0  0  0  0  0
  -22.4268   -8.0277   21.3539 C   0  0  0  0  0  0
  -21.9900   -9.0251   20.4639 C   0  0  0  0  0  0
  -22.7229  -10.2131   20.3049 C   0  0  0  0  0  0
  -21.6850   -6.0734   22.5280 C   0  0  0  0  0  0
  -21.4017   -6.5638   23.8214 C   0  0  0  0  0  0
  -21.3657   -5.6788   24.9172 C   0  0  0  0  0  0
  -21.6045   -4.3051   24.7225 C   0  0  0  0  0  0
  -21.8821   -3.8144   23.4346 C   0  0  0  0  0  0
  -21.9192   -4.6962   22.3402 C   0  0  0  0  0  0
  -22.7854  -13.5233   21.1842 C   0  0  0  0  0  0
  -22.1659   -4.2150   21.0978 F   0  0  0  0  0  0
  -21.5625   -3.4532   25.7735 F   0  0  0  0  0  0
  -30.0315  -13.3247   20.4704 N   0  0  0  0  0  0
  -26.3008  -12.9338   20.3352 N   0  0  0  0  0  0
  -25.9308  -11.6493   20.5740 N   0  0  0  0  0  0
  -22.0504  -12.8220   22.0401 N   0  0  0  0  0  0
  -25.4297  -15.1880   20.4078 N   0  0  0  0  0  0
  -31.7468  -14.7684   20.0166 O   0  0  0  0  0  0
  -21.6631   -6.8878   21.4244 O   0  0  0  0  0  0
  -22.3535  -14.5542   20.6697 O   0  0  0  0  0  0
  -24.6213  -31.8649   23.2061 C   0  0  0  0  0  0
  -25.9080  -32.4797   23.8382 C   0  0  1  0  0  0
  -27.2236  -27.3698   20.1009 C   0  0  0  0  0  0
  -25.5916  -33.8594   24.2308 N   0  0  0  0  0  0
  -23.4119  -30.4917   21.5473 C   0  0  2  0  0  0
  -24.8556  -28.9579   20.1087 C   0  0  0  0  0  0
  -22.7444  -29.4666   22.4933 C   0  0  0  0  0  0
  -18.0289  -28.1379   22.8493 C   0  0  0  0  0  0
  -24.1485  -36.7310   23.2633 C   0  0  0  0  0  0
  -25.9494  -30.8083   21.3736 C   0  0  0  0  0  0
  -26.0216  -29.4408   20.7153 C   0  0  0  0  0  0
  -27.2063  -28.6555   20.7088 C   0  0  0  0  0  0
  -26.0373  -26.9366   19.4606 C   0  0  0  0  0  0
  -24.8623  -27.7066   19.4766 C   0  0  0  0  0  0
  -23.6215  -29.8324   20.1605 C   0  0  0  0  0  0
  -25.4109  -36.3098   24.0332 C   0  0  1  0  0  0
  -20.5888  -28.3686   23.1277 C   0  0  2  0  0  0
  -20.6778  -26.9410   22.5402 C   0  0  0  0  0  0
  -19.5747  -26.6389   21.5207 C   0  0  0  0  0  0
  -18.1932  -26.7925   22.1629 C   0  0  0  0  0  0
  -19.1547  -28.8842   23.2886 C   0  0  0  0  0  0
  -18.9469  -30.1448   23.8893 C   0  0  0  0  0  0
  -17.6472  -30.6578   24.0575 C   0  0  0  0  0  0
  -25.9042  -34.9460   23.5120 C   0  0  0  0  0  0
  -16.5359  -29.9086   23.6325 C   0  0  0  0  0  0
  -16.7278  -28.6510   23.0340 C   0  0  0  0  0  0
  -26.4483  -31.6582   25.0722 C   0  0  0  0  0  0
  -25.3722  -31.3712   26.1461 C   0  0  0  0  0  0
  -27.0308  -30.3004   24.6154 C   0  0  0  0  0  0
  -27.6054  -32.4309   25.7481 C   0  0  0  0  0  0
  -27.5583  -37.1794   24.8455 C   0  0  0  0  0  0
  -21.4170  -29.3047   22.3659 N   0  0  0  0  0  0
  -26.4288  -37.3794   23.9413 N   0  0  0  0  0  0
  -24.6794  -31.0712   22.0991 N   0  0  0  0  0  0
  -23.4189  -28.8199   23.2995 O   0  0  0  0  0  0
  -28.3573  -26.5558   20.1607 O   0  0  0  0  0  0
  -26.5608  -34.8922   22.4681 O   0  0  0  0  0  0
  -23.5382  -32.1426   23.7412 O   0  0  0  0  0  0
  -30.2595  -17.8693   20.7003 C   0  0  0  0  0  0
  -29.4431  -19.0696   20.7072 C   0  0  0  0  0  0
  -29.7265  -16.7996   21.4029 C   0  0  0  0  0  0
  -28.2619  -18.8618   21.3837 C   0  0  0  0  0  0
  -30.2403  -15.4516   21.7623 C   0  0  0  0  0  0
  -27.1076  -19.7944   21.5621 C   0  0  0  0  0  0
  -29.2137  -24.1215   20.4774 C   0  0  0  0  0  0
  -28.9940  -22.6374   20.0026 C   0  0  0  0  0  0
  -28.1808  -25.1333   19.8766 C   0  0  0  0  0  0
  -29.7577  -21.4958   20.7598 C   0  0  0  0  0  0
  -30.2619  -15.0773   22.9762 N   0  0  0  0  0  0
  -29.7426  -20.2328   20.0428 O   0  0  0  0  0  0
  -28.1753  -17.2536   22.0613 S   0  0  0  0  0  0
  -31.4683  -12.4699   19.1285 H   0  0  0  0  0  0
  -30.3481  -11.3393   19.8237 H   0  0  0  0  0  0
  -29.7498  -11.8113   17.4356 H   0  0  0  0  0  0
  -29.6458  -13.5215   17.7778 H   0  0  0  0  0  0
  -27.8499  -11.3087   18.8295 H   0  0  0  0  0  0
  -27.3639  -12.6223   17.7937 H   0  0  0  0  0  0
  -27.7054  -14.2570   19.5808 H   0  0  0  0  0  0
  -28.6841  -11.9463   21.3260 H   0  0  0  0  0  0
  -28.4074  -13.5628   21.8792 H   0  0  0  0  0  0
  -25.2760   -9.5679   22.4740 H   0  0  0  0  0  0
  -23.9994   -7.4634   22.7468 H   0  0  0  0  0  0
  -21.0830   -8.8769   19.8944 H   0  0  0  0  0  0
  -22.3696  -10.9661   19.6144 H   0  0  0  0  0  0
  -21.2016   -7.6147   23.9721 H   0  0  0  0  0  0
  -21.1474   -6.0513   25.9075 H   0  0  0  0  0  0
  -22.0605   -2.7606   23.2842 H   0  0  0  0  0  0
  -22.4112  -11.9871   22.4781 H   0  0  0  0  0  0
  -21.1125  -13.1245   22.2631 H   0  0  0  0  0  0
  -24.6661  -15.8452   20.5212 H   0  0  0  0  0  0
  -26.2877  -15.6270   20.0995 H   0  0  0  0  0  0
  -26.7149  -32.5483   23.1134 H   0  0  0  0  0  0
  -25.0036  -33.9756   25.0432 H   0  0  0  0  0  0
  -22.7053  -31.3119   21.4091 H   0  0  0  0  0  0
  -23.3743  -35.9645   23.3298 H   0  0  0  0  0  0
  -24.3584  -36.8922   22.2046 H   0  0  0  0  0  0
  -23.7243  -37.6516   23.6654 H   0  0  0  0  0  0
  -26.0781  -31.5734   20.6065 H   0  0  0  0  0  0
  -26.8318  -30.8539   22.0004 H   0  0  0  0  0  0
  -28.0996  -29.0206   21.1953 H   0  0  0  0  0  0
  -25.9844  -25.9929   18.9389 H   0  0  0  0  0  0
  -23.9707  -27.3317   18.9933 H   0  0  0  0  0  0
  -23.7327  -30.6117   19.4056 H   0  0  0  0  0  0
  -22.7426  -29.2586   19.8611 H   0  0  0  0  0  0
  -25.1274  -36.1964   25.0825 H   0  0  0  0  0  0
  -21.0001  -28.3271   24.1390 H   0  0  0  0  0  0
  -20.5680  -26.2294   23.3599 H   0  0  0  0  0  0
  -21.6644  -26.7432   22.1190 H   0  0  0  0  0  0
  -19.6906  -25.6305   21.1224 H   0  0  0  0  0  0
  -19.6680  -27.3204   20.6742 H   0  0  0  0  0  0
  -17.4197  -26.6672   21.4036 H   0  0  0  0  0  0
  -18.0337  -26.0059   22.9018 H   0  0  0  0  0  0
  -19.7945  -30.7274   24.2245 H   0  0  0  0  0  0
  -17.5026  -31.6252   24.5179 H   0  0  0  0  0  0
  -15.5361  -30.2991   23.7640 H   0  0  0  0  0  0
  -15.8690  -28.0838   22.7027 H   0  0  0  0  0  0
  -24.5917  -30.7029   25.7806 H   0  0  0  0  0  0
  -24.8876  -32.2860   26.4874 H   0  0  0  0  0  0
  -25.8051  -30.8916   27.0246 H   0  0  0  0  0  0
  -26.2856  -29.6773   24.1184 H   0  0  0  0  0  0
  -27.4008  -29.7250   25.4652 H   0  0  0  0  0  0
  -27.8743  -30.4278   23.9360 H   0  0  0  0  0  0
  -27.2681  -33.3617   26.2062 H   0  0  0  0  0  0
  -28.3865  -32.6860   25.0300 H   0  0  0  0  0  0
  -28.0735  -31.8431   26.5390 H   0  0  0  0  0  0
  -28.2577  -38.0113   24.7543 H   0  0  0  0  0  0
  -28.1105  -36.2647   24.6235 H   0  0  0  0  0  0
  -27.2308  -37.1392   25.8857 H   0  0  0  0  0  0
  -20.9317  -29.8788   21.6902 H   0  0  0  0  0  0
  -26.0175  -38.2868   24.1443 H   0  0  0  0  0  0
  -31.2169  -17.8423   20.2003 H   0  0  0  0  0  0
  -26.9222  -20.3652   20.6532 H   0  0  0  0  0  0
  -27.2891  -20.4947   22.3774 H   0  0  0  0  0  0
  -26.1934  -19.2474   21.7952 H   0  0  0  0  0  0
  -30.2258  -24.4340   20.2190 H   0  0  0  0  0  0
  -29.1521  -24.1656   21.5655 H   0  0  0  0  0  0
  -29.2612  -22.5873   18.9465 H   0  0  0  0  0  0
  -27.9281  -22.4133   20.0412 H   0  0  0  0  0  0
  -27.2149  -24.7991   20.2579 H   0  0  0  0  0  0
  -28.1543  -25.0109   18.7932 H   0  0  0  0  0  0
  -29.3741  -21.3933   21.7758 H   0  0  0  0  0  0
  -30.8033  -21.7853   20.8699 H   0  0  0  0  0  0
  -29.9142  -15.8041   23.5899 H   0  0  0  0  0  0
  1 25  1  0  0  0
  1 30  2  0  0  0
  1 75  1  0  0  0
  2  3  1  0  0  0
  2 25  1  0  0  0
  2 84  1  0  0  0
  2 85  1  0  0  0
  3  4  1  0  0  0
  3 86  1  0  0  0
  3 87  1  0  0  0
  4  5  1  0  0  0
  4 88  1  0  0  0
  4 89  1  0  0  0
  5  6  1  0  0  0
  5 26  1  0  0  0
  5 90  1  0  0  0
  6 25  1  0  0  0
  6 91  1  0  0  0
  6 92  1  0  0  0
  7  8  2  0  0  0
  7 26  1  0  0  0
  7 29  1  0  0  0
  8  9  1  0  0  0
  8 22  1  0  0  0
  9 10  1  0  0  0
  9 27  2  0  0  0
 10 11  2  0  0  0
 10 15  1  0  0  0
 11 12  1  0  0  0
 11 93  1  0  0  0
 12 13  2  0  0  0
 12 94  1  0  0  0
 13 14  1  0  0  0
 13 31  1  0  0  0
 14 15  2  0  0  0
 14 95  1  0  0  0
 15 96  1  0  0  0
 16 17  2  0  0  0
 16 21  1  0  0  0
 16 31  1  0  0  0
 17 18  1  0  0  0
 17 97  1  0  0  0
 18 19  2  0  0  0
 18 98  1  0  0  0
 19 20  1  0  0  0
 19 24  1  0  0  0
 20 21  2  0  0  0
 20 99  1  0  0  0
 21 23  1  0  0  0
 22 28  1  0  0  0
 22 32  2  0  0  0
 26 27  1  0  0  0
 28100  1  0  0  0
 28101  1  0  0  0
 29102  1  0  0  0
 29103  1  0  0  0
 33 34  1  0  0  0
 33 66  1  0  0  0
 33 70  2  0  0  0
 34 36  1  0  0  0
 34 59  1  0  0  0
 34104  1  0  0  0
 35 44  2  0  0  0
 35 45  1  0  0  0
 35 68  1  0  0  0
 36 56  1  0  0  0
 36105  1  0  0  0
 37 39  1  0  0  0
 37 47  1  0  0  0
 37 66  1  0  0  0
 37106  1  0  0  0
 38 43  2  0  0  0
 38 46  1  0  0  0
 38 47  1  0  0  0
 39 64  1  0  0  0
 39 67  2  0  0  0
 40 52  1  0  0  0
 40 53  2  0  0  0
 40 58  1  0  0  0
 41107  1  0  0  0
 41108  1  0  0  0
 41109  1  0  0  0
 41 48  1  0  0  0
 42 43  1  0  0  0
 42 66  1  0  0  0
 42110  1  0  0  0
 42111  1  0  0  0
 43 44  1  0  0  0
 44112  1  0  0  0
 45 46  2  0  0  0
 45113  1  0  0  0
 46114  1  0  0  0
 47115  1  0  0  0
 47116  1  0  0  0
 48 56  1  0  0  0
 48 65  1  0  0  0
 48117  1  0  0  0
 49 50  1  0  0  0
 49 53  1  0  0  0
 49 64  1  0  0  0
 49118  1  0  0  0
 50 51  1  0  0  0
 50119  1  0  0  0
 50120  1  0  0  0
 51 52  1  0  0  0
 51121  1  0  0  0
 51122  1  0  0  0
 52123  1  0  0  0
 52124  1  0  0  0
 53 54  1  0  0  0
 54 55  2  0  0  0
 54125  1  0  0  0
 55 57  1  0  0  0
 55126  1  0  0  0
 56 69  2  0  0  0
 57 58  2  0  0  0
 57127  1  0  0  0
 58128  1  0  0  0
 59 60  1  0  0  0
 59 61  1  0  0  0
 59 62  1  0  0  0
 60129  1  0  0  0
 60130  1  0  0  0
 60131  1  0  0  0
 61132  1  0  0  0
 61133  1  0  0  0
 61134  1  0  0  0
 62135  1  0  0  0
 62136  1  0  0  0
 62137  1  0  0  0
 63 65  1  0  0  0
 63138  1  0  0  0
 63139  1  0  0  0
 63140  1  0  0  0
 64141  1  0  0  0
 65142  1  0  0  0
 68 79  1  0  0  0
 71 72  1  0  0  0
 71 73  2  0  0  0
 71143  1  0  0  0
 72 74  2  0  0  0
 72 82  1  0  0  0
 73 75  1  0  0  0
 73 83  1  0  0  0
 74 76  1  0  0  0
 74 83  1  0  0  0
 75 81  2  0  0  0
 76144  1  0  0  0
 76145  1  0  0  0
 76146  1  0  0  0
 77 78  1  0  0  0
 77 79  1  0  0  0
 77147  1  0  0  0
 77148  1  0  0  0
 78 80  1  0  0  0
 78149  1  0  0  0
 78150  1  0  0  0
 79151  1  0  0  0
 79152  1  0  0  0
 80 82  1  0  0  0
 80153  1  0  0  0
 80154  1  0  0  0
 81155  1  0  0  0
M  ISO  4   1 100  68 101  75 100  79 101
M  END
> <chiral flag>
0

> <version>
0

> <s_m_source_file>
/data/baiqing/PycharmProjects/Reinvent-master-3.2/result/LINK_invent/BTK/process_docking_weight1_custom_product_contain_oxygen_bond_distance_aromatic_linkinvent_7_9_3/rearranged_h_0107.sdf

> <i_m_source_file_index>
20

> <r_mmod_Potential_Energy-OPLS-2005>
103.908180236816

> <r_mmod_Stretch_Energy-OPLS-2005>
55.5869407653809

> <r_mmod_Bend_Energy-OPLS-2005>
122.067398071289

> <r_mmod_Torsional_Energy-OPLS-2005>
228.929611206055

> <r_mmod_Improper_Torsional_Energy-OPLS-2005>
2.90437054634094

> <r_mmod_Van_der_Waal_Energy-OPLS-2005>
125.704933166504

> <r_mmod_Electrostatic_Energy-OPLS-2005>
-258.829864501953

> <r_mmod_Solvation_Energy-OPLS-2005>
-195.709045410156

> <b_mmod_Minimization_Converged-OPLS-2005>
0

> <r_mmod_RMS_Derivative-OPLS-2005>
1.46510767936707

$$$$
20
                    3D
 Structure written by MMmdl.
164173  0  0  1  0            999 V2000
  -30.5499  -14.9519   20.3609 C   0  0  0  0  0  0
  -30.4482  -12.5717   19.4922 C   0  0  0  0  0  0
  -29.5269  -12.4470   18.2566 C   0  0  0  0  0  0
  -28.0447  -12.3060   18.6690 C   0  0  0  0  0  0
  -27.6246  -13.2360   19.8428 C   0  0  2  0  0  0
  -28.6849  -13.2826   20.9616 C   0  0  0  0  0  0
  -25.2421  -13.8148   20.5715 C   0  0  0  0  0  0
  -24.1749  -13.0393   20.9262 C   0  0  0  0  0  0
  -24.6376  -11.6885   20.8818 C   0  0  0  0  0  0
  -23.9061  -10.4269   21.0435 C   0  0  0  0  0  0
  -24.3616   -9.4192   21.9215 C   0  0  0  0  0  0
  -23.6292   -8.2227   22.0768 C   0  0  0  0  0  0
  -22.4273   -8.0281   21.3557 C   0  0  0  0  0  0
  -21.9907   -9.0253   20.4658 C   0  0  0  0  0  0
  -22.7235  -10.2128   20.3072 C   0  0  0  0  0  0
  -21.6856   -6.0739   22.5287 C   0  0  0  0  0  0
  -21.4010   -6.5644   23.8221 C   0  0  0  0  0  0
  -21.3648   -5.6798   24.9184 C   0  0  0  0  0  0
  -21.6041   -4.3059   24.7228 C   0  0  0  0  0  0
  -21.8820   -3.8153   23.4350 C   0  0  0  0  0  0
  -21.9191   -4.6968   22.3406 C   0  0  0  0  0  0
  -22.7775  -13.5189   21.1886 C   0  0  0  0  0  0
  -22.1661   -4.2155   21.0981 F   0  0  0  0  0  0
  -21.5623   -3.4538   25.7737 F   0  0  0  0  0  0
  -29.9449  -13.6938   20.3275 N   0  0  0  0  0  0
  -26.2880  -12.9371   20.3370 N   0  0  0  0  0  0
  -25.9319  -11.6519   20.5869 N   0  0  0  0  0  0
  -22.0413  -12.8208   22.0451 N   0  0  0  0  0  0
  -25.3974  -15.1862   20.3981 N   0  0  0  0  0  0
  -31.7816  -14.9787   20.2626 O   0  0  0  0  0  0
  -21.6642   -6.8883   21.4249 O   0  0  0  0  0  0
  -22.3467  -14.5490   20.6717 O   0  0  0  0  0  0
  -24.6407  -31.8462   23.1889 C   0  0  0  0  0  0
  -25.9191  -32.4707   23.8271 C   0  0  1  0  0  0
  -27.2261  -27.1618   20.1548 C   0  0  0  0  0  0
  -25.5947  -33.8511   24.2191 N   0  0  0  0  0  0
  -23.4429  -30.4649   21.5348 C   0  0  2  0  0  0
  -24.8938  -28.8941   20.1128 C   0  0  0  0  0  0
  -22.7550  -29.4561   22.4876 C   0  0  0  0  0  0
  -18.0297  -28.1403   22.8469 C   0  0  0  0  0  0
  -24.1488  -36.7261   23.2643 C   0  0  0  0  0  0
  -25.9970  -30.7293   21.3834 C   0  0  0  0  0  0
  -26.0701  -29.3423   20.7265 C   0  0  0  0  0  0
  -27.2376  -28.4937   20.7271 C   0  0  0  0  0  0
  -26.0209  -26.8065   19.5077 C   0  0  0  0  0  0
  -24.8809  -27.6385   19.4871 C   0  0  0  0  0  0
  -23.6679  -29.7921   20.1546 C   0  0  0  0  0  0
  -25.4120  -36.3039   24.0314 C   0  0  1  0  0  0
  -20.5907  -28.3725   23.1241 C   0  0  2  0  0  0
  -20.6787  -26.9431   22.5410 C   0  0  0  0  0  0
  -19.5765  -26.6380   21.5215 C   0  0  0  0  0  0
  -18.1941  -26.7936   22.1620 C   0  0  0  0  0  0
  -19.1554  -28.8880   23.2845 C   0  0  0  0  0  0
  -18.9475  -30.1476   23.8872 C   0  0  0  0  0  0
  -17.6476  -30.6600   24.0556 C   0  0  0  0  0  0
  -25.9070  -34.9415   23.5060 C   0  0  0  0  0  0
  -16.5364  -29.9094   23.6340 C   0  0  0  0  0  0
  -16.7283  -28.6514   23.0352 C   0  0  0  0  0  0
  -26.4515  -31.6569   25.0706 C   0  0  0  0  0  0
  -25.3699  -31.3762   26.1401 C   0  0  0  0  0  0
  -27.0385  -30.2968   24.6280 C   0  0  0  0  0  0
  -27.6037  -32.4338   25.7503 C   0  0  0  0  0  0
  -27.5573  -37.1785   24.8462 C   0  0  0  0  0  0
  -21.4247  -29.3049   22.3618 N   0  0  0  0  0  0
  -26.4283  -37.3752   23.9405 N   0  0  0  0  0  0
  -24.7132  -31.0338   22.0915 N   0  0  0  0  0  0
  -23.4200  -28.8111   23.3020 O   0  0  0  0  0  0
  -28.3022  -26.2072   20.2047 O   0  0  0  0  0  0
  -26.5660  -34.8912   22.4642 O   0  0  0  0  0  0
  -23.5534  -32.1337   23.7126 O   0  0  0  0  0  0
  -28.3852  -19.5343   21.2823 C   0  0  0  0  0  0
  -30.2737  -20.0517   19.9794 C   0  0  0  0  0  0
  -28.6223  -18.1050   21.1421 C   0  0  0  0  0  0
  -29.1733  -20.5980   20.7190 C   0  0  0  0  0  0
  -30.5409  -18.6249   19.8295 C   0  0  0  0  0  0
  -29.7278  -17.5656   20.3921 C   0  0  0  0  0  0
  -29.0215  -22.3661   22.3842 C   0  0  0  0  0  0
  -26.7260  -17.4457   22.6823 C   0  0  0  0  0  0
  -27.6897  -17.1586   21.7881 C   0  0  0  0  0  0
  -29.7763  -23.6605   22.6488 C   0  0  0  0  0  0
  -30.2889  -24.0272   21.2633 C   0  0  0  0  0  0
  -29.1995  -23.4565   20.3553 C   0  0  2  0  0  0
  -29.5478  -16.0295   18.4890 C   0  0  0  0  0  0
  -28.0430  -24.6781   20.2788 C   0  0  0  0  0  0
  -28.9120  -22.0786   21.0646 N   0  0  0  0  0  0
  -31.6594  -18.2670   19.0757 N   0  0  0  0  0  0
  -29.8023  -16.0956   19.9408 N   0  0  0  0  0  0
  -28.5932  -21.6873   23.3226 O   0  0  0  0  0  0
  -31.4782  -12.7368   19.1708 H   0  0  0  0  0  0
  -30.4571  -11.6418   20.0625 H   0  0  0  0  0  0
  -29.8245  -11.5788   17.6662 H   0  0  0  0  0  0
  -29.6635  -13.3000   17.5951 H   0  0  0  0  0  0
  -27.8945  -11.2672   18.9642 H   0  0  0  0  0  0
  -27.3970  -12.4682   17.8065 H   0  0  0  0  0  0
  -27.5528  -14.2363   19.4305 H   0  0  0  0  0  0
  -28.7863  -12.3135   21.4513 H   0  0  0  0  0  0
  -28.4001  -13.9921   21.7388 H   0  0  0  0  0  0
  -25.2749   -9.5677   22.4802 H   0  0  0  0  0  0
  -24.0006   -7.4611   22.7474 H   0  0  0  0  0  0
  -21.0848   -8.8764   19.8957 H   0  0  0  0  0  0
  -22.3694  -10.9676   19.6188 H   0  0  0  0  0  0
  -21.1998   -7.6152   23.9718 H   0  0  0  0  0  0
  -21.1471   -6.0533   25.9089 H   0  0  0  0  0  0
  -22.0605   -2.7613   23.2848 H   0  0  0  0  0  0
  -22.4011  -11.9884   22.4889 H   0  0  0  0  0  0
  -21.1028  -13.1257   22.2614 H   0  0  0  0  0  0
  -24.6329  -15.8373   20.5370 H   0  0  0  0  0  0
  -26.2462  -15.6385   20.0875 H   0  0  0  0  0  0
  -26.7258  -32.5324   23.1003 H   0  0  0  0  0  0
  -25.0053  -33.9622   25.0311 H   0  0  0  0  0  0
  -22.7442  -31.2899   21.3802 H   0  0  0  0  0  0
  -23.3756  -35.9588   23.3297 H   0  0  0  0  0  0
  -24.3568  -36.8903   22.2058 H   0  0  0  0  0  0
  -23.7240  -37.6452   23.6688 H   0  0  0  0  0  0
  -26.1471  -31.4842   20.6108 H   0  0  0  0  0  0
  -26.8695  -30.7800   22.0233 H   0  0  0  0  0  0
  -28.1359  -28.8352   21.2211 H   0  0  0  0  0  0
  -25.9263  -25.8506   19.0178 H   0  0  0  0  0  0
  -23.9834  -27.2881   18.9950 H   0  0  0  0  0  0
  -23.7996  -30.5654   19.3969 H   0  0  0  0  0  0
  -22.7839  -29.2298   19.8476 H   0  0  0  0  0  0
  -25.1310  -36.1862   25.0807 H   0  0  0  0  0  0
  -20.9991  -28.3316   24.1364 H   0  0  0  0  0  0
  -20.5679  -26.2339   23.3627 H   0  0  0  0  0  0
  -21.6653  -26.7438   22.1207 H   0  0  0  0  0  0
  -19.6926  -25.6281   21.1265 H   0  0  0  0  0  0
  -19.6706  -27.3173   20.6730 H   0  0  0  0  0  0
  -17.4208  -26.6671   21.4026 H   0  0  0  0  0  0
  -18.0345  -26.0092   22.9033 H   0  0  0  0  0  0
  -19.7955  -30.7295   24.2229 H   0  0  0  0  0  0
  -17.5034  -31.6276   24.5167 H   0  0  0  0  0  0
  -15.5366  -30.2990   23.7686 H   0  0  0  0  0  0
  -15.8678  -28.0833   22.7080 H   0  0  0  0  0  0
  -24.5870  -30.7122   25.7717 H   0  0  0  0  0  0
  -24.8900  -32.2951   26.4777 H   0  0  0  0  0  0
  -25.7973  -30.8957   27.0210 H   0  0  0  0  0  0
  -26.3010  -29.6690   24.1267 H   0  0  0  0  0  0
  -27.3982  -29.7262   25.4853 H   0  0  0  0  0  0
  -27.8918  -30.4209   23.9611 H   0  0  0  0  0  0
  -27.2614  -33.3650   26.2033 H   0  0  0  0  0  0
  -28.3879  -32.6885   25.0361 H   0  0  0  0  0  0
  -28.0672  -31.8498   26.5464 H   0  0  0  0  0  0
  -28.2578  -38.0093   24.7511 H   0  0  0  0  0  0
  -28.1077  -36.2619   24.6284 H   0  0  0  0  0  0
  -27.2287  -37.1430   25.8864 H   0  0  0  0  0  0
  -20.9462  -29.8753   21.6791 H   0  0  0  0  0  0
  -26.0148  -38.2816   24.1418 H   0  0  0  0  0  0
  -27.5336  -19.8494   21.8640 H   0  0  0  0  0  0
  -30.9637  -20.7532   19.5319 H   0  0  0  0  0  0
  -26.0953  -16.6567   23.0679 H   0  0  0  0  0  0
  -26.5349  -18.4415   23.0525 H   0  0  0  0  0  0
  -27.7829  -16.1240   21.5030 H   0  0  0  0  0  0
  -30.5879  -23.5146   23.3621 H   0  0  0  0  0  0
  -29.0914  -24.4113   23.0444 H   0  0  0  0  0  0
  -31.2427  -23.5325   21.0720 H   0  0  0  0  0  0
  -30.4472  -25.0988   21.1375 H   0  0  0  0  0  0
  -29.6093  -23.2834   19.3598 H   0  0  0  0  0  0
  -30.4758  -15.9044   17.9278 H   0  0  0  0  0  0
  -29.0713  -16.9360   18.1140 H   0  0  0  0  0  0
  -28.8894  -15.2214   18.1993 H   0  0  0  0  0  0
  -27.3924  -24.5524   21.1442 H   0  0  0  0  0  0
  -27.4215  -24.4103   19.4269 H   0  0  0  0  0  0
  -32.0156  -18.9184   18.3849 H   0  0  0  0  0  0
  -31.7491  -17.2947   18.7996 H   0  0  0  0  0  0
  1 25  1  0  0  0
  1 30  2  0  0  0
  1 87  1  0  0  0
  2  3  1  0  0  0
  2 25  1  0  0  0
  2 89  1  0  0  0
  2 90  1  0  0  0
  3  4  1  0  0  0
  3 91  1  0  0  0
  3 92  1  0  0  0
  4  5  1  0  0  0
  4 93  1  0  0  0
  4 94  1  0  0  0
  5  6  1  0  0  0
  5 26  1  0  0  0
  5 95  1  0  0  0
  6 25  1  0  0  0
  6 96  1  0  0  0
  6 97  1  0  0  0
  7  8  2  0  0  0
  7 26  1  0  0  0
  7 29  1  0  0  0
  8  9  1  0  0  0
  8 22  1  0  0  0
  9 10  1  0  0  0
  9 27  2  0  0  0
 10 11  2  0  0  0
 10 15  1  0  0  0
 11 12  1  0  0  0
 11 98  1  0  0  0
 12 13  2  0  0  0
 12 99  1  0  0  0
 13 14  1  0  0  0
 13 31  1  0  0  0
 14 15  2  0  0  0
 14100  1  0  0  0
 15101  1  0  0  0
 16 17  2  0  0  0
 16 21  1  0  0  0
 16 31  1  0  0  0
 17 18  1  0  0  0
 17102  1  0  0  0
 18 19  2  0  0  0
 18103  1  0  0  0
 19 20  1  0  0  0
 19 24  1  0  0  0
 20 21  2  0  0  0
 20104  1  0  0  0
 21 23  1  0  0  0
 22 28  1  0  0  0
 22 32  2  0  0  0
 26 27  1  0  0  0
 28105  1  0  0  0
 28106  1  0  0  0
 29107  1  0  0  0
 29108  1  0  0  0
 33 34  1  0  0  0
 33 66  1  0  0  0
 33 70  2  0  0  0
 34 36  1  0  0  0
 34 59  1  0  0  0
 34109  1  0  0  0
 35 44  2  0  0  0
 35 45  1  0  0  0
 35 68  1  0  0  0
 36 56  1  0  0  0
 36110  1  0  0  0
 37 39  1  0  0  0
 37 47  1  0  0  0
 37 66  1  0  0  0
 37111  1  0  0  0
 38 43  2  0  0  0
 38 46  1  0  0  0
 38 47  1  0  0  0
 39 64  1  0  0  0
 39 67  2  0  0  0
 40 52  1  0  0  0
 40 53  2  0  0  0
 40 58  1  0  0  0
 41112  1  0  0  0
 41113  1  0  0  0
 41114  1  0  0  0
 41 48  1  0  0  0
 42 43  1  0  0  0
 42 66  1  0  0  0
 42115  1  0  0  0
 42116  1  0  0  0
 43 44  1  0  0  0
 44117  1  0  0  0
 45 46  2  0  0  0
 45118  1  0  0  0
 46119  1  0  0  0
 47120  1  0  0  0
 47121  1  0  0  0
 48 56  1  0  0  0
 48 65  1  0  0  0
 48122  1  0  0  0
 49 50  1  0  0  0
 49 53  1  0  0  0
 49 64  1  0  0  0
 49123  1  0  0  0
 50 51  1  0  0  0
 50124  1  0  0  0
 50125  1  0  0  0
 51 52  1  0  0  0
 51126  1  0  0  0
 51127  1  0  0  0
 52128  1  0  0  0
 52129  1  0  0  0
 53 54  1  0  0  0
 54 55  2  0  0  0
 54130  1  0  0  0
 55 57  1  0  0  0
 55131  1  0  0  0
 56 69  2  0  0  0
 57 58  2  0  0  0
 57132  1  0  0  0
 58133  1  0  0  0
 59 60  1  0  0  0
 59 61  1  0  0  0
 59 62  1  0  0  0
 60134  1  0  0  0
 60135  1  0  0  0
 60136  1  0  0  0
 61137  1  0  0  0
 61138  1  0  0  0
 61139  1  0  0  0
 62140  1  0  0  0
 62141  1  0  0  0
 62142  1  0  0  0
 63 65  1  0  0  0
 63143  1  0  0  0
 63144  1  0  0  0
 63145  1  0  0  0
 64146  1  0  0  0
 65147  1  0  0  0
 68 84  1  0  0  0
 71 73  2  0  0  0
 71 74  1  0  0  0
 71148  1  0  0  0
 72 74  2  0  0  0
 72 75  1  0  0  0
 72149  1  0  0  0
 73 76  1  0  0  0
 73 79  1  0  0  0
 74 85  1  0  0  0
 75 76  2  0  0  0
 75 86  1  0  0  0
 76 87  1  0  0  0
 77 80  1  0  0  0
 77 85  1  0  0  0
 77 88  2  0  0  0
 78 79  2  0  0  0
 78150  1  0  0  0
 78151  1  0  0  0
 79152  1  0  0  0
 80 81  1  0  0  0
 80153  1  0  0  0
 80154  1  0  0  0
 81 82  1  0  0  0
 81155  1  0  0  0
 81156  1  0  0  0
 82 84  1  0  0  0
 82 85  1  0  0  0
 82157  1  0  0  0
 83 87  1  0  0  0
 83158  1  0  0  0
 83159  1  0  0  0
 83160  1  0  0  0
 84161  1  0  0  0
 84162  1  0  0  0
 86163  1  0  0  0
 86164  1  0  0  0
M  ISO  4   1 100  68 101  84 101  87 100
M  END
> <chiral flag>
0

> <version>
0

> <s_m_source_file>
/data/baiqing/PycharmProjects/Reinvent-master-3.2/result/LINK_invent/BTK/process_docking_weight1_custom_product_contain_oxygen_bond_distance_aromatic_linkinvent_7_9_3/rearranged_h_0107.sdf

> <i_m_source_file_index>
21

> <r_mmod_Potential_Energy-OPLS-2005>
774.489807128906

> <r_mmod_Stretch_Energy-OPLS-2005>
239.765731811523

> <r_mmod_Bend_Energy-OPLS-2005>
303.270141601562

> <r_mmod_Torsional_Energy-OPLS-2005>
426.833984375

> <r_mmod_Improper_Torsional_Energy-OPLS-2005>
29.8268337249756

> <r_mmod_Van_der_Waal_Energy-OPLS-2005>
140.686813354492

> <r_mmod_Electrostatic_Energy-OPLS-2005>
-340.684478759766

> <r_mmod_Solvation_Energy-OPLS-2005>
-211.125274658203

> <b_mmod_Minimization_Converged-OPLS-2005>
0

> <r_mmod_RMS_Derivative-OPLS-2005>
1.29295289516449

$$$$
21
                    3D
 Structure written by MMmdl.
160168  0  0  1  0            999 V2000
  -30.8179  -14.3816   20.6400 C   0  0  0  0  0  0
  -30.4000  -12.2787   19.4276 C   0  0  0  0  0  0
  -29.4882  -12.5204   18.2111 C   0  0  0  0  0  0
  -28.0145  -12.3674   18.6226 C   0  0  0  0  0  0
  -27.6657  -13.2114   19.8769 C   0  0  2  0  0  0
  -28.7086  -13.0151   21.0059 C   0  0  0  0  0  0
  -25.2619  -13.8180   20.5693 C   0  0  0  0  0  0
  -24.1883  -13.0462   20.9153 C   0  0  0  0  0  0
  -24.6427  -11.6912   20.8707 C   0  0  0  0  0  0
  -23.9093  -10.4310   21.0387 C   0  0  0  0  0  0
  -24.3642   -9.4221   21.9155 C   0  0  0  0  0  0
  -23.6315   -8.2260   22.0733 C   0  0  0  0  0  0
  -22.4280   -8.0305   21.3547 C   0  0  0  0  0  0
  -21.9934   -9.0273   20.4621 C   0  0  0  0  0  0
  -22.7274  -10.2147   20.3038 C   0  0  0  0  0  0
  -21.6852   -6.0768   22.5284 C   0  0  0  0  0  0
  -21.4003   -6.5654   23.8227 C   0  0  0  0  0  0
  -21.3666   -5.6786   24.9179 C   0  0  0  0  0  0
  -21.6060   -4.3053   24.7205 C   0  0  0  0  0  0
  -21.8814   -3.8164   23.4307 C   0  0  0  0  0  0
  -21.9193   -4.7002   22.3380 C   0  0  0  0  0  0
  -22.7897  -13.5239   21.1811 C   0  0  0  0  0  0
  -22.1658   -4.2199   21.0953 F   0  0  0  0  0  0
  -21.5636   -3.4521   25.7703 F   0  0  0  0  0  0
  -30.0564  -13.2671   20.4634 N   0  0  0  0  0  0
  -26.3068  -12.9359   20.3381 N   0  0  0  0  0  0
  -25.9362  -11.6514   20.5761 N   0  0  0  0  0  0
  -22.0559  -12.8242   22.0370 N   0  0  0  0  0  0
  -25.4338  -15.1916   20.4102 N   0  0  0  0  0  0
  -31.8300  -14.6037   19.9738 O   0  0  0  0  0  0
  -21.6628   -6.8916   21.4255 O   0  0  0  0  0  0
  -22.3575  -14.5549   20.6655 O   0  0  0  0  0  0
  -24.6167  -31.8649   23.2045 C   0  0  0  0  0  0
  -25.9073  -32.4786   23.8367 C   0  0  1  0  0  0
  -27.2501  -27.4308   20.0927 C   0  0  0  0  0  0
  -25.5941  -33.8603   24.2285 N   0  0  0  0  0  0
  -23.4020  -30.4872   21.5427 C   0  0  2  0  0  0
  -24.8512  -28.9503   20.1087 C   0  0  0  0  0  0
  -22.7394  -29.4644   22.4947 C   0  0  0  0  0  0
  -18.0276  -28.1355   22.8461 C   0  0  0  0  0  0
  -24.1483  -36.7312   23.2634 C   0  0  0  0  0  0
  -25.9324  -30.8233   21.3589 C   0  0  0  0  0  0
  -26.0108  -29.4609   20.7045 C   0  0  0  0  0  0
  -27.2088  -28.7098   20.6910 C   0  0  0  0  0  0
  -26.0685  -26.9319   19.4901 C   0  0  0  0  0  0
  -24.8760  -27.6819   19.4996 C   0  0  0  0  0  0
  -23.6092  -29.8164   20.1579 C   0  0  0  0  0  0
  -25.4100  -36.3079   24.0314 C   0  0  1  0  0  0
  -20.5856  -28.3645   23.1291 C   0  0  2  0  0  0
  -20.6775  -26.9392   22.5397 C   0  0  0  0  0  0
  -19.5762  -26.6362   21.5181 C   0  0  0  0  0  0
  -18.1931  -26.7900   22.1592 C   0  0  0  0  0  0
  -19.1529  -28.8809   23.2871 C   0  0  0  0  0  0
  -18.9484  -30.1411   23.8878 C   0  0  0  0  0  0
  -17.6501  -30.6575   24.0553 C   0  0  0  0  0  0
  -25.9047  -34.9451   23.5079 C   0  0  0  0  0  0
  -16.5376  -29.9091   23.6322 C   0  0  0  0  0  0
  -16.7273  -28.6500   23.0343 C   0  0  0  0  0  0
  -26.4483  -31.6587   25.0723 C   0  0  0  0  0  0
  -25.3811  -31.3738   26.1528 C   0  0  0  0  0  0
  -27.0281  -30.3004   24.6094 C   0  0  0  0  0  0
  -27.5998  -32.4338   25.7543 C   0  0  0  0  0  0
  -27.5550  -37.1802   24.8453 C   0  0  0  0  0  0
  -21.4118  -29.3034   22.3692 N   0  0  0  0  0  0
  -26.4265  -37.3780   23.9416 N   0  0  0  0  0  0
  -24.6676  -31.0729   22.0941 N   0  0  0  0  0  0
  -23.4152  -28.8211   23.3024 O   0  0  0  0  0  0
  -28.4331  -26.7101   20.1214 O   0  0  0  0  0  0
  -26.5594  -34.8906   22.4626 O   0  0  0  0  0  0
  -23.5351  -32.1455   23.7422 O   0  0  0  0  0  0
  -31.3338  -17.9345   19.9859 C   0  0  0  0  0  0
  -31.0131  -19.1074   19.2796 C   0  0  0  0  0  0
  -29.6553  -19.8641   21.1463 C   0  0  0  0  0  0
  -30.8211  -17.7008   21.2791 C   0  0  0  0  0  0
  -29.9539  -18.6693   21.8548 C   0  0  0  0  0  0
  -30.1901  -20.0913   19.8571 C   0  0  0  0  0  0
  -29.8618  -22.4969   19.1318 C   0  0  0  0  0  0
  -29.3025  -18.4296   23.2079 C   0  0  0  0  0  0
  -31.2276  -16.4129   22.0075 C   0  0  0  0  0  0
  -30.3163  -23.2180   20.4256 C   0  0  0  0  0  0
  -29.6220  -24.6041   20.7436 C   0  0  0  0  0  0
  -28.3270  -25.2790   20.1554 C   0  0  0  0  0  0
  -29.7913  -21.1606   19.0102 N   0  0  0  0  0  0
  -30.4587  -15.2215   21.6200 N   0  0  0  0  0  0
  -29.5962  -23.1718   18.1382 O   0  0  0  0  0  0
  -31.4513  -12.3127   19.1399 H   0  0  0  0  0  0
  -30.2425  -11.2723   19.8186 H   0  0  0  0  0  0
  -29.6517  -13.5244   17.8145 H   0  0  0  0  0  0
  -29.7335  -11.8241   17.4087 H   0  0  0  0  0  0
  -27.8305  -11.3083   18.8137 H   0  0  0  0  0  0
  -27.3582  -12.6448   17.7980 H   0  0  0  0  0  0
  -27.7018  -14.2561   19.5670 H   0  0  0  0  0  0
  -28.4668  -13.6554   21.8533 H   0  0  0  0  0  0
  -28.6646  -11.9940   21.3872 H   0  0  0  0  0  0
  -25.2814   -9.5678   22.4700 H   0  0  0  0  0  0
  -24.0032   -7.4645   22.7441 H   0  0  0  0  0  0
  -21.0880   -8.8810   19.8896 H   0  0  0  0  0  0
  -22.3775  -10.9683   19.6120 H   0  0  0  0  0  0
  -21.1988   -7.6157   23.9753 H   0  0  0  0  0  0
  -21.1494   -6.0496   25.9088 H   0  0  0  0  0  0
  -22.0592   -2.7632   23.2779 H   0  0  0  0  0  0
  -22.4167  -11.9888   22.4754 H   0  0  0  0  0  0
  -21.1161  -13.1222   22.2530 H   0  0  0  0  0  0
  -24.6717  -15.8512   20.5271 H   0  0  0  0  0  0
  -26.2996  -15.6349   20.1258 H   0  0  0  0  0  0
  -26.7163  -32.5438   23.1145 H   0  0  0  0  0  0
  -25.0200  -33.9804   25.0492 H   0  0  0  0  0  0
  -22.6913  -31.3023   21.4008 H   0  0  0  0  0  0
  -23.3709  -35.9685   23.3310 H   0  0  0  0  0  0
  -24.3574  -36.8918   22.2051 H   0  0  0  0  0  0
  -23.7278  -37.6529   23.6660 H   0  0  0  0  0  0
  -26.0562  -31.5831   20.5856 H   0  0  0  0  0  0
  -26.8163  -30.8708   21.9825 H   0  0  0  0  0  0
  -28.0987  -29.0988   21.1651 H   0  0  0  0  0  0
  -26.0477  -25.9636   19.0132 H   0  0  0  0  0  0
  -23.9901  -27.2688   19.0356 H   0  0  0  0  0  0
  -23.7185  -30.5920   19.3982 H   0  0  0  0  0  0
  -22.7306  -29.2409   19.8581 H   0  0  0  0  0  0
  -25.1277  -36.1925   25.0805 H   0  0  0  0  0  0
  -20.9964  -28.3231   24.1401 H   0  0  0  0  0  0
  -20.5644  -26.2279   23.3591 H   0  0  0  0  0  0
  -21.6660  -26.7430   22.1206 H   0  0  0  0  0  0
  -19.6954  -25.6274   21.1208 H   0  0  0  0  0  0
  -19.6704  -27.3168   20.6703 H   0  0  0  0  0  0
  -17.4208  -26.6610   21.3993 H   0  0  0  0  0  0
  -18.0353  -26.0043   22.8990 H   0  0  0  0  0  0
  -19.7985  -30.7195   24.2234 H   0  0  0  0  0  0
  -17.5098  -31.6258   24.5162 H   0  0  0  0  0  0
  -15.5390  -30.3022   23.7654 H   0  0  0  0  0  0
  -15.8653  -28.0831   22.7084 H   0  0  0  0  0  0
  -24.5974  -30.7041   25.7980 H   0  0  0  0  0  0
  -24.9060  -32.2932   26.4967 H   0  0  0  0  0  0
  -25.8283  -30.8995   27.0289 H   0  0  0  0  0  0
  -26.2814  -29.6815   24.1106 H   0  0  0  0  0  0
  -27.3989  -29.7170   25.4533 H   0  0  0  0  0  0
  -27.8684  -30.4246   23.9266 H   0  0  0  0  0  0
  -27.2507  -33.3599   26.2120 H   0  0  0  0  0  0
  -28.3859  -32.6973   25.0470 H   0  0  0  0  0  0
  -28.0616  -31.8506   26.5525 H   0  0  0  0  0  0
  -28.2554  -38.0105   24.7471 H   0  0  0  0  0  0
  -28.1047  -36.2623   24.6297 H   0  0  0  0  0  0
  -27.2276  -37.1476   25.8858 H   0  0  0  0  0  0
  -20.9268  -29.8806   21.6962 H   0  0  0  0  0  0
  -26.0120  -38.2834   24.1456 H   0  0  0  0  0  0
  -31.9663  -17.1975   19.5113 H   0  0  0  0  0  0
  -31.3895  -19.2372   18.2744 H   0  0  0  0  0  0
  -28.9721  -20.5804   21.5802 H   0  0  0  0  0  0
  -28.5200  -19.1658   23.4007 H   0  0  0  0  0  0
  -30.0347  -18.4893   24.0145 H   0  0  0  0  0  0
  -28.8419  -17.4398   23.2434 H   0  0  0  0  0  0
  -31.1853  -16.5450   23.0884 H   0  0  0  0  0  0
  -32.2909  -16.2437   21.8161 H   0  0  0  0  0  0
  -30.2739  -22.5332   21.2761 H   0  0  0  0  0  0
  -31.3886  -23.3913   20.3180 H   0  0  0  0  0  0
  -28.8724  -23.8798   21.0559 H   0  0  0  0  0  0
  -30.0784  -24.9537   19.8147 H   0  0  0  0  0  0
  -28.1071  -24.9262   19.1474 H   0  0  0  0  0  0
  -27.4405  -25.0539   20.7584 H   0  0  0  0  0  0
  -29.5929  -20.8870   18.0579 H   0  0  0  0  0  0
  -29.6722  -14.9621   22.1943 H   0  0  0  0  0  0
  1 25  1  0  0  0
  1 30  2  0  0  0
  1 84  1  0  0  0
  2  3  1  0  0  0
  2 25  1  0  0  0
  2 86  1  0  0  0
  2 87  1  0  0  0
  3  4  1  0  0  0
  3 88  1  0  0  0
  3 89  1  0  0  0
  4  5  1  0  0  0
  4 90  1  0  0  0
  4 91  1  0  0  0
  5  6  1  0  0  0
  5 26  1  0  0  0
  5 92  1  0  0  0
  6 25  1  0  0  0
  6 93  1  0  0  0
  6 94  1  0  0  0
  7  8  2  0  0  0
  7 26  1  0  0  0
  7 29  1  0  0  0
  8  9  1  0  0  0
  8 22  1  0  0  0
  9 10  1  0  0  0
  9 27  2  0  0  0
 10 11  2  0  0  0
 10 15  1  0  0  0
 11 12  1  0  0  0
 11 95  1  0  0  0
 12 13  2  0  0  0
 12 96  1  0  0  0
 13 14  1  0  0  0
 13 31  1  0  0  0
 14 15  2  0  0  0
 14 97  1  0  0  0
 15 98  1  0  0  0
 16 17  2  0  0  0
 16 21  1  0  0  0
 16 31  1  0  0  0
 17 18  1  0  0  0
 17 99  1  0  0  0
 18 19  2  0  0  0
 18100  1  0  0  0
 19 20  1  0  0  0
 19 24  1  0  0  0
 20 21  2  0  0  0
 20101  1  0  0  0
 21 23  1  0  0  0
 22 28  1  0  0  0
 22 32  2  0  0  0
 26 27  1  0  0  0
 28102  1  0  0  0
 28103  1  0  0  0
 29104  1  0  0  0
 29105  1  0  0  0
 33 34  1  0  0  0
 33 66  1  0  0  0
 33 70  2  0  0  0
 34 36  1  0  0  0
 34 59  1  0  0  0
 34106  1  0  0  0
 35 44  2  0  0  0
 35 45  1  0  0  0
 35 68  1  0  0  0
 36 56  1  0  0  0
 36107  1  0  0  0
 37 39  1  0  0  0
 37 47  1  0  0  0
 37 66  1  0  0  0
 37108  1  0  0  0
 38 43  2  0  0  0
 38 46  1  0  0  0
 38 47  1  0  0  0
 39 64  1  0  0  0
 39 67  2  0  0  0
 40 52  1  0  0  0
 40 53  2  0  0  0
 40 58  1  0  0  0
 41109  1  0  0  0
 41110  1  0  0  0
 41111  1  0  0  0
 41 48  1  0  0  0
 42 43  1  0  0  0
 42 66  1  0  0  0
 42112  1  0  0  0
 42113  1  0  0  0
 43 44  1  0  0  0
 44114  1  0  0  0
 45 46  2  0  0  0
 45115  1  0  0  0
 46116  1  0  0  0
 47117  1  0  0  0
 47118  1  0  0  0
 48 56  1  0  0  0
 48 65  1  0  0  0
 48119  1  0  0  0
 49 50  1  0  0  0
 49 53  1  0  0  0
 49 64  1  0  0  0
 49120  1  0  0  0
 50 51  1  0  0  0
 50121  1  0  0  0
 50122  1  0  0  0
 51 52  1  0  0  0
 51123  1  0  0  0
 51124  1  0  0  0
 52125  1  0  0  0
 52126  1  0  0  0
 53 54  1  0  0  0
 54 55  2  0  0  0
 54127  1  0  0  0
 55 57  1  0  0  0
 55128  1  0  0  0
 56 69  2  0  0  0
 57 58  2  0  0  0
 57129  1  0  0  0
 58130  1  0  0  0
 59 60  1  0  0  0
 59 61  1  0  0  0
 59 62  1  0  0  0
 60131  1  0  0  0
 60132  1  0  0  0
 60133  1  0  0  0
 61134  1  0  0  0
 61135  1  0  0  0
 61136  1  0  0  0
 62137  1  0  0  0
 62138  1  0  0  0
 62139  1  0  0  0
 63 65  1  0  0  0
 63140  1  0  0  0
 63141  1  0  0  0
 63142  1  0  0  0
 64143  1  0  0  0
 65144  1  0  0  0
 68 82  1  0  0  0
 71 72  2  0  0  0
 71 74  1  0  0  0
 71145  1  0  0  0
 72 76  1  0  0  0
 72146  1  0  0  0
 73 75  1  0  0  0
 73 76  2  0  0  0
 73147  1  0  0  0
 74 75  2  0  0  0
 74 79  1  0  0  0
 75 78  1  0  0  0
 76 83  1  0  0  0
 77 80  1  0  0  0
 77 83  1  0  0  0
 77 85  2  0  0  0
 78148  1  0  0  0
 78149  1  0  0  0
 78150  1  0  0  0
 79 84  1  0  0  0
 79151  1  0  0  0
 79152  1  0  0  0
 80 81  1  0  0  0
 80153  1  0  0  0
 80154  1  0  0  0
 81 82  1  0  0  0
 81155  1  0  0  0
 81156  1  0  0  0
 82157  1  0  0  0
 82158  1  0  0  0
 83159  1  0  0  0
 84160  1  0  0  0
M  ISO  4   1 100  68 101  82 101  84 100
M  END
> <chiral flag>
0

> <version>
0

> <s_m_source_file>
/data/baiqing/PycharmProjects/Reinvent-master-3.2/result/LINK_invent/BTK/process_docking_weight1_custom_product_contain_oxygen_bond_distance_aromatic_linkinvent_7_9_3/rearranged_h_0107.sdf

> <i_m_source_file_index>
22

> <r_mmod_Potential_Energy-OPLS-2005>
98.2010345458984

> <r_mmod_Stretch_Energy-OPLS-2005>
43.5231056213379

> <r_mmod_Bend_Energy-OPLS-2005>
347.082916259766

> <r_mmod_Torsional_Energy-OPLS-2005>
230.589050292969

> <r_mmod_Improper_Torsional_Energy-OPLS-2005>
3.71753907203674

> <r_mmod_Van_der_Waal_Energy-OPLS-2005>
171.973281860352

> <r_mmod_Electrostatic_Energy-OPLS-2005>
-489.291259765625

> <r_mmod_Solvation_Energy-OPLS-2005>
-221.238388061523

> <b_mmod_Minimization_Converged-OPLS-2005>
0

> <r_mmod_RMS_Derivative-OPLS-2005>
4.68313837051392

$$$$
22
                    3D
 Structure written by MMmdl.
164173  0  0  1  0            999 V2000
  -30.5429  -14.7710   20.4910 C   0  0  0  0  0  0
  -30.4594  -12.4780   19.4656 C   0  0  0  0  0  0
  -29.5208  -12.5289   18.2363 C   0  0  0  0  0  0
  -28.0466  -12.3351   18.6490 C   0  0  0  0  0  0
  -27.6515  -13.2191   19.8614 C   0  0  2  0  0  0
  -28.6980  -13.1025   20.9926 C   0  0  0  0  0  0
  -25.2555  -13.8172   20.5695 C   0  0  0  0  0  0
  -24.1817  -13.0434   20.9187 C   0  0  0  0  0  0
  -24.6387  -11.6908   20.8718 C   0  0  0  0  0  0
  -23.9059  -10.4294   21.0381 C   0  0  0  0  0  0
  -24.3614   -9.4215   21.9160 C   0  0  0  0  0  0
  -23.6288   -8.2255   22.0757 C   0  0  0  0  0  0
  -22.4261   -8.0295   21.3557 C   0  0  0  0  0  0
  -21.9892   -9.0263   20.4656 C   0  0  0  0  0  0
  -22.7230  -10.2136   20.3043 C   0  0  0  0  0  0
  -21.6860   -6.0724   22.5270 C   0  0  0  0  0  0
  -21.4024   -6.5627   23.8202 C   0  0  0  0  0  0
  -21.3656   -5.6783   24.9163 C   0  0  0  0  0  0
  -21.6045   -4.3044   24.7221 C   0  0  0  0  0  0
  -21.8826   -3.8138   23.4343 C   0  0  0  0  0  0
  -21.9198   -4.6954   22.3393 C   0  0  0  0  0  0
  -22.7843  -13.5235   21.1851 C   0  0  0  0  0  0
  -22.1661   -4.2142   21.0974 F   0  0  0  0  0  0
  -21.5626   -3.4532   25.7732 F   0  0  0  0  0  0
  -30.0014  -13.5027   20.4321 N   0  0  0  0  0  0
  -26.2976  -12.9346   20.3304 N   0  0  0  0  0  0
  -25.9317  -11.6502   20.5734 N   0  0  0  0  0  0
  -22.0491  -12.8233   22.0411 N   0  0  0  0  0  0
  -25.4273  -15.1889   20.4143 N   0  0  0  0  0  0
  -31.6922  -14.9804   20.0847 O   0  0  0  0  0  0
  -21.6645   -6.8874   21.4236 O   0  0  0  0  0  0
  -22.3526  -14.5539   20.6701 O   0  0  0  0  0  0
  -24.6326  -31.8541   23.1951 C   0  0  0  0  0  0
  -25.9139  -32.4759   23.8317 C   0  0  1  0  0  0
  -27.2394  -27.2533   20.1383 C   0  0  0  0  0  0
  -25.5928  -33.8559   24.2251 N   0  0  0  0  0  0
  -23.4317  -30.4724   21.5384 C   0  0  2  0  0  0
  -24.8833  -28.9113   20.1120 C   0  0  0  0  0  0
  -22.7515  -29.4595   22.4911 C   0  0  0  0  0  0
  -18.0293  -28.1393   22.8484 C   0  0  0  0  0  0
  -24.1486  -36.7272   23.2643 C   0  0  0  0  0  0
  -25.9763  -30.7657   21.3736 C   0  0  0  0  0  0
  -26.0531  -29.3855   20.7181 C   0  0  0  0  0  0
  -27.2317  -28.5712   20.7140 C   0  0  0  0  0  0
  -26.0423  -26.8397   19.5136 C   0  0  0  0  0  0
  -24.8837  -27.6470   19.4983 C   0  0  0  0  0  0
  -23.6527  -29.7999   20.1567 C   0  0  0  0  0  0
  -25.4114  -36.3073   24.0331 C   0  0  1  0  0  0
  -20.5900  -28.3702   23.1270 C   0  0  2  0  0  0
  -20.6788  -26.9419   22.5412 C   0  0  0  0  0  0
  -19.5759  -26.6384   21.5219 C   0  0  0  0  0  0
  -18.1937  -26.7937   22.1622 C   0  0  0  0  0  0
  -19.1549  -28.8864   23.2871 C   0  0  0  0  0  0
  -18.9469  -30.1460   23.8893 C   0  0  0  0  0  0
  -17.6471  -30.6592   24.0563 C   0  0  0  0  0  0
  -25.9057  -34.9443   23.5097 C   0  0  0  0  0  0
  -16.5360  -29.9090   23.6332 C   0  0  0  0  0  0
  -16.7284  -28.6506   23.0356 C   0  0  0  0  0  0
  -26.4495  -31.6591   25.0712 C   0  0  0  0  0  0
  -25.3717  -31.3743   26.1435 C   0  0  0  0  0  0
  -27.0342  -30.3018   24.6187 C   0  0  0  0  0  0
  -27.6062  -32.4327   25.7473 C   0  0  0  0  0  0
  -27.5578  -37.1789   24.8467 C   0  0  0  0  0  0
  -21.4221  -29.3043   22.3653 N   0  0  0  0  0  0
  -26.4285  -37.3778   23.9419 N   0  0  0  0  0  0
  -24.6995  -31.0491   22.0927 N   0  0  0  0  0  0
  -23.4200  -28.8155   23.3037 O   0  0  0  0  0  0
  -28.3611  -26.3889   20.1921 O   0  0  0  0  0  0
  -26.5636  -34.8927   22.4670 O   0  0  0  0  0  0
  -23.5471  -32.1369   23.7229 O   0  0  0  0  0  0
  -28.3369  -19.1886   21.5846 C   0  0  0  0  0  0
  -28.5655  -17.7651   21.7777 C   0  0  0  0  0  0
  -29.1079  -19.7960   20.6114 C   0  0  0  0  0  0
  -29.4971  -17.1583   20.9480 C   0  0  0  0  0  0
  -30.6565  -24.6988   20.8953 C   0  0  0  0  0  0
  -29.5336  -24.0620   20.5089 C   0  0  0  0  0  0
  -31.8304  -24.0197   21.5924 C   0  0  0  0  0  0
  -31.4487  -22.7303   22.3739 C   0  0  0  0  0  0
  -29.9751  -22.2904   22.2217 C   0  0  0  0  0  0
  -27.2749  -19.9168   22.3684 C   0  0  0  0  0  0
  -27.7695  -17.0087   22.8121 C   0  0  0  0  0  0
  -28.9459  -21.3058   20.0877 C   0  0  0  0  0  0
  -28.2419  -24.8815   20.0810 C   0  0  0  0  0  0
  -29.6786  -15.7560   20.9425 N   0  0  0  0  0  0
  -29.5883  -22.5015   20.8120 N   0  3  1  0  0  0
  -30.1607  -18.4880   19.9295 S   0  0  0  0  0  0
  -31.4937  -12.6450   19.1589 H   0  0  0  0  0  0
  -30.4391  -11.4904   19.9278 H   0  0  0  0  0  0
  -29.8065  -11.7685   17.5084 H   0  0  0  0  0  0
  -29.6351  -13.4899   17.7319 H   0  0  0  0  0  0
  -27.9077  -11.2834   18.9024 H   0  0  0  0  0  0
  -27.3887  -12.5341   17.8027 H   0  0  0  0  0  0
  -27.6583  -14.2470   19.4998 H   0  0  0  0  0  0
  -28.7452  -12.0791   21.3663 H   0  0  0  0  0  0
  -28.4171  -13.7107   21.8530 H   0  0  0  0  0  0
  -25.2767   -9.5707   22.4714 H   0  0  0  0  0  0
  -24.0003   -7.4642   22.7474 H   0  0  0  0  0  0
  -21.0822   -8.8780   19.8964 H   0  0  0  0  0  0
  -22.3677  -10.9663   19.6148 H   0  0  0  0  0  0
  -21.2022   -7.6133   23.9689 H   0  0  0  0  0  0
  -21.1462   -6.0518   25.9057 H   0  0  0  0  0  0
  -22.0607   -2.7604   23.2849 H   0  0  0  0  0  0
  -22.4130  -11.9915   22.4814 H   0  0  0  0  0  0
  -21.1112  -13.1266   22.2619 H   0  0  0  0  0  0
  -24.6583  -15.8405   20.5221 H   0  0  0  0  0  0
  -26.2736  -15.6288   20.0760 H   0  0  0  0  0  0
  -26.7212  -32.5417   23.1069 H   0  0  0  0  0  0
  -25.0083  -33.9687   25.0403 H   0  0  0  0  0  0
  -22.7279  -31.2938   21.3881 H   0  0  0  0  0  0
  -23.3767  -35.9586   23.3301 H   0  0  0  0  0  0
  -24.3588  -36.8898   22.2059 H   0  0  0  0  0  0
  -23.7211  -37.6459   23.6671 H   0  0  0  0  0  0
  -26.1101  -31.5226   20.5995 H   0  0  0  0  0  0
  -26.8552  -30.8223   22.0042 H   0  0  0  0  0  0
  -28.1290  -28.9325   21.1969 H   0  0  0  0  0  0
  -25.9824  -25.8676   19.0470 H   0  0  0  0  0  0
  -23.9879  -27.2738   19.0212 H   0  0  0  0  0  0
  -23.7788  -30.5743   19.3990 H   0  0  0  0  0  0
  -22.7713  -29.2328   19.8530 H   0  0  0  0  0  0
  -25.1290  -36.1921   25.0823 H   0  0  0  0  0  0
  -20.9980  -28.3296   24.1397 H   0  0  0  0  0  0
  -20.5696  -26.2317   23.3622 H   0  0  0  0  0  0
  -21.6662  -26.7452   22.1208 H   0  0  0  0  0  0
  -19.6924  -25.6292   21.1256 H   0  0  0  0  0  0
  -19.6696  -27.3193   20.6749 H   0  0  0  0  0  0
  -17.4209  -26.6684   21.4023 H   0  0  0  0  0  0
  -18.0329  -26.0083   22.9018 H   0  0  0  0  0  0
  -19.7946  -30.7273   24.2270 H   0  0  0  0  0  0
  -17.5026  -31.6274   24.5160 H   0  0  0  0  0  0
  -15.5360  -30.2986   23.7657 H   0  0  0  0  0  0
  -15.8687  -28.0812   22.7083 H   0  0  0  0  0  0
  -24.5879  -30.7110   25.7758 H   0  0  0  0  0  0
  -24.8914  -32.2910   26.4870 H   0  0  0  0  0  0
  -25.8023  -30.8905   27.0210 H   0  0  0  0  0  0
  -26.2918  -29.6765   24.1214 H   0  0  0  0  0  0
  -27.4047  -29.7287   25.4693 H   0  0  0  0  0  0
  -27.8785  -30.4316   23.9416 H   0  0  0  0  0  0
  -27.2692  -33.3640   26.2040 H   0  0  0  0  0  0
  -28.3863  -32.6868   25.0284 H   0  0  0  0  0  0
  -28.0746  -31.8459   26.5384 H   0  0  0  0  0  0
  -28.2595  -38.0088   24.7539 H   0  0  0  0  0  0
  -28.1067  -36.2624   24.6258 H   0  0  0  0  0  0
  -27.2307  -37.1407   25.8872 H   0  0  0  0  0  0
  -20.9419  -29.8728   21.6817 H   0  0  0  0  0  0
  -26.0162  -38.2847   24.1443 H   0  0  0  0  0  0
  -30.7309  -25.7722   20.7883 H   0  0  0  0  0  0
  -32.2760  -24.7400   22.2804 H   0  0  0  0  0  0
  -32.5983  -23.8048   20.8472 H   0  0  0  0  0  0
  -31.6695  -22.8648   23.4334 H   0  0  0  0  0  0
  -32.1021  -21.9167   22.0507 H   0  0  0  0  0  0
  -29.3251  -22.8845   22.8662 H   0  0  0  0  0  0
  -29.8784  -21.2614   22.5603 H   0  0  0  0  0  0
  -27.3733  -19.7342   23.4384 H   0  0  0  0  0  0
  -26.2801  -19.5797   22.0745 H   0  0  0  0  0  0
  -27.2966  -20.9968   22.2342 H   0  0  0  0  0  0
  -26.7000  -17.0808   22.6142 H   0  0  0  0  0  0
  -27.9427  -17.4157   23.8083 H   0  0  0  0  0  0
  -28.0099  -15.9486   22.8645 H   0  0  0  0  0  0
  -27.8818  -21.5286   20.0233 H   0  0  0  0  0  0
  -29.2907  -21.3478   19.0545 H   0  0  0  0  0  0
  -27.4091  -24.5446   20.6985 H   0  0  0  0  0  0
  -28.0046  -24.6177   19.0499 H   0  0  0  0  0  0
  -28.8865  -15.2924   21.3581 H   0  0  0  0  0  0
  -30.4970  -22.2891   20.4310 H   0  0  0  0  0  0
  1 25  1  0  0  0
  1 30  2  0  0  0
  1 84  1  0  0  0
  2  3  1  0  0  0
  2 25  1  0  0  0
  2 87  1  0  0  0
  2 88  1  0  0  0
  3  4  1  0  0  0
  3 89  1  0  0  0
  3 90  1  0  0  0
  4  5  1  0  0  0
  4 91  1  0  0  0
  4 92  1  0  0  0
  5  6  1  0  0  0
  5 26  1  0  0  0
  5 93  1  0  0  0
  6 25  1  0  0  0
  6 94  1  0  0  0
  6 95  1  0  0  0
  7  8  2  0  0  0
  7 26  1  0  0  0
  7 29  1  0  0  0
  8  9  1  0  0  0
  8 22  1  0  0  0
  9 10  1  0  0  0
  9 27  2  0  0  0
 10 11  2  0  0  0
 10 15  1  0  0  0
 11 12  1  0  0  0
 11 96  1  0  0  0
 12 13  2  0  0  0
 12 97  1  0  0  0
 13 14  1  0  0  0
 13 31  1  0  0  0
 14 15  2  0  0  0
 14 98  1  0  0  0
 15 99  1  0  0  0
 16 17  2  0  0  0
 16 21  1  0  0  0
 16 31  1  0  0  0
 17 18  1  0  0  0
 17100  1  0  0  0
 18 19  2  0  0  0
 18101  1  0  0  0
 19 20  1  0  0  0
 19 24  1  0  0  0
 20 21  2  0  0  0
 20102  1  0  0  0
 21 23  1  0  0  0
 22 28  1  0  0  0
 22 32  2  0  0  0
 26 27  1  0  0  0
 28103  1  0  0  0
 28104  1  0  0  0
 29105  1  0  0  0
 29106  1  0  0  0
 33 34  1  0  0  0
 33 66  1  0  0  0
 33 70  2  0  0  0
 34 36  1  0  0  0
 34 59  1  0  0  0
 34107  1  0  0  0
 35 44  2  0  0  0
 35 45  1  0  0  0
 35 68  1  0  0  0
 36 56  1  0  0  0
 36108  1  0  0  0
 37 39  1  0  0  0
 37 47  1  0  0  0
 37 66  1  0  0  0
 37109  1  0  0  0
 38 43  2  0  0  0
 38 46  1  0  0  0
 38 47  1  0  0  0
 39 64  1  0  0  0
 39 67  2  0  0  0
 40 52  1  0  0  0
 40 53  2  0  0  0
 40 58  1  0  0  0
 41110  1  0  0  0
 41111  1  0  0  0
 41112  1  0  0  0
 41 48  1  0  0  0
 42 43  1  0  0  0
 42 66  1  0  0  0
 42113  1  0  0  0
 42114  1  0  0  0
 43 44  1  0  0  0
 44115  1  0  0  0
 45 46  2  0  0  0
 45116  1  0  0  0
 46117  1  0  0  0
 47118  1  0  0  0
 47119  1  0  0  0
 48 56  1  0  0  0
 48 65  1  0  0  0
 48120  1  0  0  0
 49 50  1  0  0  0
 49 53  1  0  0  0
 49 64  1  0  0  0
 49121  1  0  0  0
 50 51  1  0  0  0
 50122  1  0  0  0
 50123  1  0  0  0
 51 52  1  0  0  0
 51124  1  0  0  0
 51125  1  0  0  0
 52126  1  0  0  0
 52127  1  0  0  0
 53 54  1  0  0  0
 54 55  2  0  0  0
 54128  1  0  0  0
 55 57  1  0  0  0
 55129  1  0  0  0
 56 69  2  0  0  0
 57 58  2  0  0  0
 57130  1  0  0  0
 58131  1  0  0  0
 59 60  1  0  0  0
 59 61  1  0  0  0
 59 62  1  0  0  0
 60132  1  0  0  0
 60133  1  0  0  0
 60134  1  0  0  0
 61135  1  0  0  0
 61136  1  0  0  0
 61137  1  0  0  0
 62138  1  0  0  0
 62139  1  0  0  0
 62140  1  0  0  0
 63 65  1  0  0  0
 63141  1  0  0  0
 63142  1  0  0  0
 63143  1  0  0  0
 64144  1  0  0  0
 65145  1  0  0  0
 68 83  1  0  0  0
 71 72  1  0  0  0
 71 73  2  0  0  0
 71 80  1  0  0  0
 72 74  2  0  0  0
 72 81  1  0  0  0
 73 82  1  0  0  0
 73 86  1  0  0  0
 74 84  1  0  0  0
 74 86  1  0  0  0
 75 76  2  0  0  0
 75 77  1  0  0  0
 75146  1  0  0  0
 76 83  1  0  0  0
 76 85  1  0  0  0
 77 78  1  0  0  0
 77147  1  0  0  0
 77148  1  0  0  0
 78 79  1  0  0  0
 78149  1  0  0  0
 78150  1  0  0  0
 79 85  1  0  0  0
 79151  1  0  0  0
 79152  1  0  0  0
 80153  1  0  0  0
 80154  1  0  0  0
 80155  1  0  0  0
 81156  1  0  0  0
 81157  1  0  0  0
 81158  1  0  0  0
 82159  1  0  0  0
 82160  1  0  0  0
 82 85  1  0  0  0
 83161  1  0  0  0
 83162  1  0  0  0
 84163  1  0  0  0
 85164  1  0  0  0
M  CHG  1  85   1
M  ISO  4   1 100  68 101  83 101  84 100
M  END
> <chiral flag>
0

> <version>
0

> <s_m_source_file>
/data/baiqing/PycharmProjects/Reinvent-master-3.2/result/LINK_invent/BTK/process_docking_weight1_custom_product_contain_oxygen_bond_distance_aromatic_linkinvent_7_9_3/rearranged_h_0107.sdf

> <i_m_source_file_index>
23

> <r_mmod_Potential_Energy-OPLS-2005>
143.993774414062

> <r_mmod_Stretch_Energy-OPLS-2005>
136.500350952148

> <r_mmod_Bend_Energy-OPLS-2005>
293.6572265625

> <r_mmod_Torsional_Energy-OPLS-2005>
239.879089355469

> <r_mmod_Improper_Torsional_Energy-OPLS-2005>
4.14401483535767

> <r_mmod_Van_der_Waal_Energy-OPLS-2005>
122.25479888916

> <r_mmod_Electrostatic_Energy-OPLS-2005>
-313.608795166016

> <r_mmod_Solvation_Energy-OPLS-2005>
-431.487640380859

> <b_mmod_Minimization_Converged-OPLS-2005>
0

> <r_mmod_RMS_Derivative-OPLS-2005>
1.80793726444244

$$$$
23
                    3D
 Structure written by MMmdl.
170178  0  0  1  0            999 V2000
  -30.8183  -14.4261   20.6027 C   0  0  0  0  0  0
  -30.3881  -12.2950   19.4338 C   0  0  0  0  0  0
  -29.4877  -12.5168   18.2085 C   0  0  0  0  0  0
  -28.0099  -12.3792   18.6147 C   0  0  0  0  0  0
  -27.6554  -13.2301   19.8657 C   0  0  2  0  0  0
  -28.7002  -13.0767   20.9942 C   0  0  0  0  0  0
  -25.2540  -13.8192   20.5799 C   0  0  0  0  0  0
  -24.1797  -13.0417   20.9233 C   0  0  0  0  0  0
  -24.6416  -11.6912   20.8725 C   0  0  0  0  0  0
  -23.9089  -10.4251   21.0351 C   0  0  0  0  0  0
  -24.3651   -9.4173   21.9114 C   0  0  0  0  0  0
  -23.6376   -8.2175   22.0659 C   0  0  0  0  0  0
  -22.4313   -8.0232   21.3502 C   0  0  0  0  0  0
  -21.9943   -9.0172   20.4578 C   0  0  0  0  0  0
  -22.7281  -10.2046   20.2959 C   0  0  0  0  0  0
  -21.6875   -6.0726   22.5246 C   0  0  0  0  0  0
  -21.4019   -6.5662   23.8158 C   0  0  0  0  0  0
  -21.3704   -5.6864   24.9174 C   0  0  0  0  0  0
  -21.6050   -4.3113   24.7223 C   0  0  0  0  0  0
  -21.8821   -3.8161   23.4360 C   0  0  0  0  0  0
  -21.9224   -4.6965   22.3407 C   0  0  0  0  0  0
  -22.7791  -13.5157   21.1873 C   0  0  0  0  0  0
  -22.1698   -4.2144   21.1002 F   0  0  0  0  0  0
  -21.5679   -3.4575   25.7728 F   0  0  0  0  0  0
  -30.0408  -13.3158   20.4414 N   0  0  0  0  0  0
  -26.2997  -12.9442   20.3379 N   0  0  0  0  0  0
  -25.9358  -11.6567   20.5804 N   0  0  0  0  0  0
  -22.0402  -12.7994   22.0301 N   0  0  0  0  0  0
  -25.4179  -15.1912   20.4349 N   0  0  0  0  0  0
  -31.8758  -14.5624   19.9811 O   0  0  0  0  0  0
  -21.6699   -6.8821   21.4183 O   0  0  0  0  0  0
  -22.3492  -14.5538   20.6880 O   0  0  0  0  0  0
  -24.6173  -31.8672   23.2059 C   0  0  0  0  0  0
  -25.9073  -32.4815   23.8363 C   0  0  1  0  0  0
  -27.2469  -27.4270   20.1002 C   0  0  0  0  0  0
  -25.5939  -33.8603   24.2325 N   0  0  0  0  0  0
  -23.4076  -30.4879   21.5466 C   0  0  2  0  0  0
  -24.8589  -28.9445   20.1154 C   0  0  0  0  0  0
  -22.7436  -29.4668   22.4978 C   0  0  0  0  0  0
  -18.0290  -28.1379   22.8504 C   0  0  0  0  0  0
  -24.1491  -36.7319   23.2634 C   0  0  0  0  0  0
  -25.9351  -30.8254   21.3639 C   0  0  0  0  0  0
  -26.0151  -29.4567   20.7193 C   0  0  0  0  0  0
  -27.2138  -28.7033   20.7108 C   0  0  0  0  0  0
  -26.0780  -26.9295   19.4938 C   0  0  0  0  0  0
  -24.8856  -27.6802   19.4981 C   0  0  0  0  0  0
  -23.6212  -29.8128   20.1630 C   0  0  0  0  0  0
  -25.4107  -36.3108   24.0340 C   0  0  1  0  0  0
  -20.5880  -28.3680   23.1318 C   0  0  2  0  0  0
  -20.6766  -26.9416   22.5420 C   0  0  0  0  0  0
  -19.5746  -26.6393   21.5211 C   0  0  0  0  0  0
  -18.1929  -26.7927   22.1629 C   0  0  0  0  0  0
  -19.1539  -28.8840   23.2903 C   0  0  0  0  0  0
  -18.9460  -30.1444   23.8913 C   0  0  0  0  0  0
  -17.6461  -30.6570   24.0577 C   0  0  0  0  0  0
  -25.9045  -34.9472   23.5130 C   0  0  0  0  0  0
  -16.5351  -29.9082   23.6325 C   0  0  0  0  0  0
  -16.7283  -28.6505   23.0332 C   0  0  0  0  0  0
  -26.4486  -31.6572   25.0680 C   0  0  0  0  0  0
  -25.3777  -31.3683   26.1449 C   0  0  0  0  0  0
  -27.0302  -30.3012   24.6039 C   0  0  0  0  0  0
  -27.6067  -32.4267   25.7458 C   0  0  0  0  0  0
  -27.5588  -37.1813   24.8465 C   0  0  0  0  0  0
  -21.4148  -29.3053   22.3719 N   0  0  0  0  0  0
  -26.4296  -37.3785   23.9422 N   0  0  0  0  0  0
  -24.6710  -31.0767   22.0970 N   0  0  0  0  0  0
  -23.4205  -28.8229   23.3034 O   0  0  0  0  0  0
  -28.3949  -26.6657   20.0580 O   0  0  0  0  0  0
  -26.5575  -34.8928   22.4667 O   0  0  0  0  0  0
  -23.5370  -32.1414   23.7453 O   0  0  0  0  0  0
  -30.3305  -17.2204   19.8482 C   0  0  0  0  0  0
  -29.0490  -18.8826   21.6767 C   0  0  0  0  0  0
  -30.0525  -18.5640   19.5039 C   0  0  0  0  0  0
  -29.3027  -17.5307   22.0191 C   0  0  0  0  0  0
  -30.0120  -16.6765   21.1266 C   0  0  0  0  0  0
  -29.4345  -19.4363   20.4287 C   0  0  0  0  0  0
  -29.2106  -13.0216   24.4005 C   0  0  0  0  0  0
  -30.0894  -14.0366   24.4314 C   0  0  0  0  0  0
  -30.4624  -19.0819   18.1344 C   0  0  0  0  0  0
  -28.7770  -17.0413   23.3611 C   0  0  0  0  0  0
  -31.3509  -14.1146   23.5975 C   0  0  0  0  0  0
  -29.1959  -24.3282   20.6123 C   0  0  0  0  0  0
  -28.2882  -23.0710   20.4518 C   0  0  0  0  0  0
  -31.4194  -15.3668   22.6889 C   0  0  0  0  0  0
  -28.4590  -25.6340   21.0551 C   0  0  0  0  0  0
  -28.7983  -21.7186   21.0368 C   0  0  0  0  0  0
  -30.4805  -15.3556   21.5357 N   0  0  0  0  0  0
  -29.2304  -20.7649   20.0534 O   0  0  0  0  0  0
  -31.4414  -12.3169   19.1424 H   0  0  0  0  0  0
  -30.2254  -11.2977   19.8483 H   0  0  0  0  0  0
  -29.7333  -11.8010   17.4239 H   0  0  0  0  0  0
  -29.6638  -13.5078   17.7892 H   0  0  0  0  0  0
  -27.8078  -11.3264   18.8084 H   0  0  0  0  0  0
  -27.3703  -12.6528   17.7739 H   0  0  0  0  0  0
  -27.6809  -14.2707   19.5421 H   0  0  0  0  0  0
  -28.6622  -12.0770   21.4279 H   0  0  0  0  0  0
  -28.4666  -13.7732   21.8006 H   0  0  0  0  0  0
  -25.2840   -9.5639   22.4619 H   0  0  0  0  0  0
  -24.0224   -7.4526   22.7272 H   0  0  0  0  0  0
  -21.0885   -8.8620   19.8855 H   0  0  0  0  0  0
  -22.3704  -10.9568   19.6070 H   0  0  0  0  0  0
  -21.1963   -7.6177   23.9591 H   0  0  0  0  0  0
  -21.1616   -6.0668   25.9075 H   0  0  0  0  0  0
  -22.0573   -2.7601   23.2884 H   0  0  0  0  0  0
  -22.3940  -11.9471   22.4357 H   0  0  0  0  0  0
  -21.0972  -13.0895   22.2482 H   0  0  0  0  0  0
  -26.2738  -15.6510   20.1479 H   0  0  0  0  0  0
  -24.6472  -15.8319   20.5918 H   0  0  0  0  0  0
  -26.7149  -32.5525   23.1136 H   0  0  0  0  0  0
  -25.0140  -33.9732   25.0512 H   0  0  0  0  0  0
  -22.6972  -31.3042   21.4012 H   0  0  0  0  0  0
  -23.3741  -35.9668   23.3292 H   0  0  0  0  0  0
  -24.3593  -36.8921   22.2051 H   0  0  0  0  0  0
  -23.7259  -37.6533   23.6634 H   0  0  0  0  0  0
  -26.0407  -31.5878   20.5900 H   0  0  0  0  0  0
  -26.8257  -30.8851   21.9765 H   0  0  0  0  0  0
  -28.1063  -29.0971   21.1752 H   0  0  0  0  0  0
  -26.0963  -25.9579   19.0198 H   0  0  0  0  0  0
  -24.0012  -27.2785   19.0228 H   0  0  0  0  0  0
  -23.7336  -30.5835   19.4000 H   0  0  0  0  0  0
  -22.7443  -29.2358   19.8657 H   0  0  0  0  0  0
  -25.1277  -36.1956   25.0834 H   0  0  0  0  0  0
  -20.9964  -28.3227   24.1435 H   0  0  0  0  0  0
  -20.5642  -26.2295   23.3600 H   0  0  0  0  0  0
  -21.6637  -26.7426   22.1224 H   0  0  0  0  0  0
  -19.6900  -25.6301   21.1234 H   0  0  0  0  0  0
  -19.6663  -27.3199   20.6734 H   0  0  0  0  0  0
  -17.4192  -26.6687   21.4033 H   0  0  0  0  0  0
  -18.0322  -26.0041   22.9000 H   0  0  0  0  0  0
  -19.7926  -30.7272   24.2260 H   0  0  0  0  0  0
  -17.5010  -31.6250   24.5195 H   0  0  0  0  0  0
  -15.5353  -30.2995   23.7616 H   0  0  0  0  0  0
  -15.8686  -28.0846   22.7000 H   0  0  0  0  0  0
  -24.5953  -30.7009   25.7824 H   0  0  0  0  0  0
  -24.8979  -32.2842   26.4913 H   0  0  0  0  0  0
  -25.8171  -30.8868   27.0201 H   0  0  0  0  0  0
  -26.2825  -29.6771   24.1133 H   0  0  0  0  0  0
  -27.4123  -29.7227   25.4467 H   0  0  0  0  0  0
  -27.8643  -30.4321   23.9137 H   0  0  0  0  0  0
  -27.2691  -33.3555   26.2069 H   0  0  0  0  0  0
  -28.3879  -32.6839   25.0290 H   0  0  0  0  0  0
  -28.0734  -31.8367   26.5353 H   0  0  0  0  0  0
  -28.2600  -38.0111   24.7498 H   0  0  0  0  0  0
  -28.1078  -36.2641   24.6288 H   0  0  0  0  0  0
  -27.2308  -37.1464   25.8866 H   0  0  0  0  0  0
  -20.9301  -29.8830   21.6989 H   0  0  0  0  0  0
  -26.0180  -38.2872   24.1387 H   0  0  0  0  0  0
  -30.8489  -16.6307   19.1075 H   0  0  0  0  0  0
  -28.5320  -19.4796   22.4110 H   0  0  0  0  0  0
  -28.3282  -13.0307   25.0266 H   0  0  0  0  0  0
  -29.3487  -12.1645   23.7561 H   0  0  0  0  0  0
  -29.9155  -14.8704   25.1004 H   0  0  0  0  0  0
  -30.9175  -18.3074   17.5168 H   0  0  0  0  0  0
  -31.1806  -19.8926   18.2413 H   0  0  0  0  0  0
  -29.5996  -19.4712   17.5933 H   0  0  0  0  0  0
  -27.8814  -17.5890   23.6535 H   0  0  0  0  0  0
  -29.5158  -17.1863   24.1511 H   0  0  0  0  0  0
  -28.5076  -15.9891   23.3119 H   0  0  0  0  0  0
  -31.4865  -13.1946   23.0280 H   0  0  0  0  0  0
  -32.1889  -14.1486   24.2934 H   0  0  0  0  0  0
  -29.7655  -24.5065   19.6982 H   0  0  0  0  0  0
  -29.9474  -24.1195   21.3758 H   0  0  0  0  0  0
  -27.9783  -22.9536   19.4125 H   0  0  0  0  0  0
  -27.3651  -23.2737   20.9925 H   0  0  0  0  0  0
  -32.4428  -15.4540   22.3112 H   0  0  0  0  0  0
  -31.3179  -16.2654   23.2954 H   0  0  0  0  0  0
  -29.0028  -26.0612   21.9001 H   0  0  0  0  0  0
  -27.4670  -25.4072   21.4474 H   0  0  0  0  0  0
  -27.9465  -21.2954   21.5679 H   0  0  0  0  0  0
  -29.5854  -21.8723   21.7781 H   0  0  0  0  0  0
  1 25  1  0  0  0
  1 30  2  0  0  0
  1 87  1  0  0  0
  2  3  1  0  0  0
  2 25  1  0  0  0
  2 89  1  0  0  0
  2 90  1  0  0  0
  3  4  1  0  0  0
  3 91  1  0  0  0
  3 92  1  0  0  0
  4  5  1  0  0  0
  4 93  1  0  0  0
  4 94  1  0  0  0
  5  6  1  0  0  0
  5 26  1  0  0  0
  5 95  1  0  0  0
  6 25  1  0  0  0
  6 96  1  0  0  0
  6 97  1  0  0  0
  7  8  2  0  0  0
  7 26  1  0  0  0
  7 29  1  0  0  0
  8  9  1  0  0  0
  8 22  1  0  0  0
  9 10  1  0  0  0
  9 27  2  0  0  0
 10 11  2  0  0  0
 10 15  1  0  0  0
 11 12  1  0  0  0
 11 98  1  0  0  0
 12 13  2  0  0  0
 12 99  1  0  0  0
 13 14  1  0  0  0
 13 31  1  0  0  0
 14 15  2  0  0  0
 14100  1  0  0  0
 15101  1  0  0  0
 16 17  2  0  0  0
 16 21  1  0  0  0
 16 31  1  0  0  0
 17 18  1  0  0  0
 17102  1  0  0  0
 18 19  2  0  0  0
 18103  1  0  0  0
 19 20  1  0  0  0
 19 24  1  0  0  0
 20 21  2  0  0  0
 20104  1  0  0  0
 21 23  1  0  0  0
 22 28  1  0  0  0
 22 32  2  0  0  0
 26 27  1  0  0  0
 28105  1  0  0  0
 28106  1  0  0  0
 29107  1  0  0  0
 29108  1  0  0  0
 33 34  1  0  0  0
 33 66  1  0  0  0
 33 70  2  0  0  0
 34 36  1  0  0  0
 34 59  1  0  0  0
 34109  1  0  0  0
 35 44  2  0  0  0
 35 45  1  0  0  0
 35 68  1  0  0  0
 36 56  1  0  0  0
 36110  1  0  0  0
 37 39  1  0  0  0
 37 47  1  0  0  0
 37 66  1  0  0  0
 37111  1  0  0  0
 38 43  2  0  0  0
 38 46  1  0  0  0
 38 47  1  0  0  0
 39 64  1  0  0  0
 39 67  2  0  0  0
 40 52  1  0  0  0
 40 53  2  0  0  0
 40 58  1  0  0  0
 41112  1  0  0  0
 41113  1  0  0  0
 41114  1  0  0  0
 41 48  1  0  0  0
 42 43  1  0  0  0
 42 66  1  0  0  0
 42115  1  0  0  0
 42116  1  0  0  0
 43 44  1  0  0  0
 44117  1  0  0  0
 45 46  2  0  0  0
 45118  1  0  0  0
 46119  1  0  0  0
 47120  1  0  0  0
 47121  1  0  0  0
 48 56  1  0  0  0
 48 65  1  0  0  0
 48122  1  0  0  0
 49 50  1  0  0  0
 49 53  1  0  0  0
 49 64  1  0  0  0
 49123  1  0  0  0
 50 51  1  0  0  0
 50124  1  0  0  0
 50125  1  0  0  0
 51 52  1  0  0  0
 51126  1  0  0  0
 51127  1  0  0  0
 52128  1  0  0  0
 52129  1  0  0  0
 53 54  1  0  0  0
 54 55  2  0  0  0
 54130  1  0  0  0
 55 57  1  0  0  0
 55131  1  0  0  0
 56 69  2  0  0  0
 57 58  2  0  0  0
 57132  1  0  0  0
 58133  1  0  0  0
 59 60  1  0  0  0
 59 61  1  0  0  0
 59 62  1  0  0  0
 60134  1  0  0  0
 60135  1  0  0  0
 60136  1  0  0  0
 61137  1  0  0  0
 61138  1  0  0  0
 61139  1  0  0  0
 62140  1  0  0  0
 62141  1  0  0  0
 62142  1  0  0  0
 63 65  1  0  0  0
 63143  1  0  0  0
 63144  1  0  0  0
 63145  1  0  0  0
 64146  1  0  0  0
 65147  1  0  0  0
 68 85  1  0  0  0
 71 73  2  0  0  0
 71 75  1  0  0  0
 71148  1  0  0  0
 72 74  1  0  0  0
 72 76  2  0  0  0
 72149  1  0  0  0
 73 76  1  0  0  0
 73 79  1  0  0  0
 74 75  2  0  0  0
 74 80  1  0  0  0
 75 87  1  0  0  0
 76 88  1  0  0  0
 77 78  2  0  0  0
 77150  1  0  0  0
 77151  1  0  0  0
 78 81  1  0  0  0
 78152  1  0  0  0
 79153  1  0  0  0
 79154  1  0  0  0
 79155  1  0  0  0
 80156  1  0  0  0
 80157  1  0  0  0
 80158  1  0  0  0
 81 84  1  0  0  0
 81159  1  0  0  0
 81160  1  0  0  0
 82 83  1  0  0  0
 82 85  1  0  0  0
 82161  1  0  0  0
 82162  1  0  0  0
 83 86  1  0  0  0
 83163  1  0  0  0
 83164  1  0  0  0
 84 87  1  0  0  0
 84165  1  0  0  0
 84166  1  0  0  0
 85167  1  0  0  0
 85168  1  0  0  0
 86 88  1  0  0  0
 86169  1  0  0  0
 86170  1  0  0  0
M  ISO  4   1 100  68 101  85 101  87 100
M  END
> <chiral flag>
0

> <version>
0

> <s_m_source_file>
/data/baiqing/PycharmProjects/Reinvent-master-3.2/result/LINK_invent/BTK/process_docking_weight1_custom_product_contain_oxygen_bond_distance_aromatic_linkinvent_7_9_3/rearranged_h_0107.sdf

> <i_m_source_file_index>
24

> <r_mmod_Potential_Energy-OPLS-2005>
209.306091308594

> <r_mmod_Stretch_Energy-OPLS-2005>
50.8185691833496

> <r_mmod_Bend_Energy-OPLS-2005>
130.994644165039

> <r_mmod_Torsional_Energy-OPLS-2005>
341.493774414062

> <r_mmod_Improper_Torsional_Energy-OPLS-2005>
6.05249166488647

> <r_mmod_Van_der_Waal_Energy-OPLS-2005>
157.978332519531

> <r_mmod_Electrostatic_Energy-OPLS-2005>
-315.810363769531

> <r_mmod_Solvation_Energy-OPLS-2005>
-177.60986328125

> <b_mmod_Minimization_Converged-OPLS-2005>
0

> <r_mmod_RMS_Derivative-OPLS-2005>
4.6126708984375

$$$$
24
                    3D
 Structure written by MMmdl.
167176  0  0  1  0            999 V2000
  -30.6640  -14.4717   20.6061 C   0  0  0  0  0  0
  -30.4163  -12.3172   19.4140 C   0  0  0  0  0  0
  -29.4836  -12.5077   18.2007 C   0  0  0  0  0  0
  -28.0048  -12.3662   18.6176 C   0  0  0  0  0  0
  -27.6519  -13.2044   19.8729 C   0  0  2  0  0  0
  -28.6878  -12.9601   20.9898 C   0  0  0  0  0  0
  -25.2564  -13.8144   20.5691 C   0  0  0  0  0  0
  -24.1796  -13.0431   20.9153 C   0  0  0  0  0  0
  -24.6357  -11.6901   20.8677 C   0  0  0  0  0  0
  -23.9041  -10.4296   21.0383 C   0  0  0  0  0  0
  -24.3615   -9.4231   21.9171 C   0  0  0  0  0  0
  -23.6306   -8.2255   22.0756 C   0  0  0  0  0  0
  -22.4287   -8.0280   21.3528 C   0  0  0  0  0  0
  -21.9902   -9.0256   20.4633 C   0  0  0  0  0  0
  -22.7228  -10.2137   20.3037 C   0  0  0  0  0  0
  -21.6876   -6.0730   22.5266 C   0  0  0  0  0  0
  -21.4026   -6.5630   23.8199 C   0  0  0  0  0  0
  -21.3662   -5.6775   24.9157 C   0  0  0  0  0  0
  -21.6059   -4.3046   24.7209 C   0  0  0  0  0  0
  -21.8840   -3.8133   23.4332 C   0  0  0  0  0  0
  -21.9210   -4.6950   22.3388 C   0  0  0  0  0  0
  -22.7856  -13.5266   21.1838 C   0  0  0  0  0  0
  -22.1668   -4.2136   21.0965 F   0  0  0  0  0  0
  -21.5628   -3.4544   25.7731 F   0  0  0  0  0  0
  -30.0154  -13.2877   20.4436 N   0  0  0  0  0  0
  -26.2951  -12.9290   20.3320 N   0  0  0  0  0  0
  -25.9267  -11.6454   20.5705 N   0  0  0  0  0  0
  -22.0532  -12.8227   22.0402 N   0  0  0  0  0  0
  -25.4297  -15.1863   20.4215 N   0  0  0  0  0  0
  -31.7810  -14.6922   20.1254 O   0  0  0  0  0  0
  -21.6648   -6.8874   21.4234 O   0  0  0  0  0  0
  -22.3534  -14.5583   20.6745 O   0  0  0  0  0  0
  -24.6189  -31.8634   23.2083 C   0  0  0  0  0  0
  -25.9065  -32.4795   23.8373 C   0  0  1  0  0  0
  -27.2248  -27.3964   20.0979 C   0  0  0  0  0  0
  -25.5892  -33.8594   24.2286 N   0  0  0  0  0  0
  -23.4093  -30.4893   21.5456 C   0  0  2  0  0  0
  -24.8566  -28.9515   20.1122 C   0  0  0  0  0  0
  -22.7433  -29.4642   22.4929 C   0  0  0  0  0  0
  -18.0285  -28.1395   22.8468 C   0  0  0  0  0  0
  -24.1488  -36.7303   23.2642 C   0  0  0  0  0  0
  -25.9452  -30.8186   21.3684 C   0  0  0  0  0  0
  -26.0229  -29.4548   20.7038 C   0  0  0  0  0  0
  -27.2155  -28.6873   20.6851 C   0  0  0  0  0  0
  -26.0424  -26.9205   19.4941 C   0  0  0  0  0  0
  -24.8636  -27.6867   19.5030 C   0  0  0  0  0  0
  -23.6215  -29.8244   20.1601 C   0  0  0  0  0  0
  -25.4115  -36.3088   24.0329 C   0  0  1  0  0  0
  -20.5874  -28.3697   23.1289 C   0  0  2  0  0  0
  -20.6760  -26.9419   22.5427 C   0  0  0  0  0  0
  -19.5749  -26.6381   21.5209 C   0  0  0  0  0  0
  -18.1925  -26.7933   22.1613 C   0  0  0  0  0  0
  -19.1537  -28.8861   23.2870 C   0  0  0  0  0  0
  -18.9458  -30.1457   23.8894 C   0  0  0  0  0  0
  -17.6463  -30.6589   24.0566 C   0  0  0  0  0  0
  -25.9047  -34.9457   23.5111 C   0  0  0  0  0  0
  -16.5355  -29.9093   23.6328 C   0  0  0  0  0  0
  -16.7269  -28.6518   23.0325 C   0  0  0  0  0  0
  -26.4485  -31.6607   25.0720 C   0  0  0  0  0  0
  -25.3756  -31.3729   26.1472 C   0  0  0  0  0  0
  -27.0341  -30.3044   24.6165 C   0  0  0  0  0  0
  -27.6035  -32.4354   25.7480 C   0  0  0  0  0  0
  -27.5581  -37.1813   24.8460 C   0  0  0  0  0  0
  -21.4151  -29.3050   22.3681 N   0  0  0  0  0  0
  -26.4302  -37.3776   23.9399 N   0  0  0  0  0  0
  -24.6755  -31.0719   22.0986 N   0  0  0  0  0  0
  -23.4188  -28.8186   23.2993 O   0  0  0  0  0  0
  -28.3515  -26.5934   20.1226 O   0  0  0  0  0  0
  -26.5625  -34.8917   22.4685 O   0  0  0  0  0  0
  -23.5373  -32.1412   23.7454 O   0  0  0  0  0  0
  -28.5406  -17.9100   20.3331 C   0  0  0  0  0  0
  -27.9306  -19.0691   19.7956 C   0  0  0  0  0  0
  -29.6595  -20.4473   20.7744 C   0  0  0  0  0  0
  -29.7281  -18.0014   21.0939 C   0  0  0  0  0  0
  -28.4937  -20.3602   19.9829 C   0  0  0  0  0  0
  -30.2623  -19.2956   21.3366 C   0  0  0  0  0  0
  -28.7186  -24.3268   18.4074 C   0  0  0  0  0  0
  -28.1505  -24.0940   19.6169 C   0  0  0  0  0  0
  -28.6745  -23.4187   17.2511 C   0  0  0  0  0  0
  -27.4586  -22.5113   17.0865 C   0  0  0  0  0  0
  -27.4908  -21.2663   17.9763 C   0  0  0  0  0  0
  -27.4911  -22.7383   20.0612 C   0  0  1  0  0  0
  -27.4561  -22.5305   21.5944 C   0  0  0  0  0  0
  -30.4355  -16.7527   21.6631 C   0  0  0  0  0  0
  -28.1526  -25.2475   20.6480 C   0  0  0  0  0  0
  -27.9504  -21.5140   19.3453 N   0  0  0  0  0  0
  -31.3915  -19.4651   22.1404 N   0  0  0  0  0  0
  -29.9599  -15.4199   21.2567 N   0  0  0  0  0  0
  -29.5562  -23.4080   16.3867 O   0  0  0  0  0  0
  -31.4596  -12.4379   19.1173 H   0  0  0  0  0  0
  -30.3338  -11.3009   19.8022 H   0  0  0  0  0  0
  -29.7178  -11.7777   17.4262 H   0  0  0  0  0  0
  -29.6515  -13.4882   17.7527 H   0  0  0  0  0  0
  -27.8272  -11.3105   18.8233 H   0  0  0  0  0  0
  -27.3443  -12.6253   17.7895 H   0  0  0  0  0  0
  -27.6948  -14.2538   19.5812 H   0  0  0  0  0  0
  -28.6727  -11.9119   21.2921 H   0  0  0  0  0  0
  -28.4375  -13.5174   21.8935 H   0  0  0  0  0  0
  -25.2777   -9.5741   22.4714 H   0  0  0  0  0  0
  -24.0062   -7.4670   22.7475 H   0  0  0  0  0  0
  -21.0849   -8.8772   19.8924 H   0  0  0  0  0  0
  -22.3708  -10.9663   19.6119 H   0  0  0  0  0  0
  -21.2005   -7.6139   23.9700 H   0  0  0  0  0  0
  -21.1458   -6.0497   25.9061 H   0  0  0  0  0  0
  -22.0618   -2.7597   23.2819 H   0  0  0  0  0  0
  -22.4202  -11.9875   22.4707 H   0  0  0  0  0  0
  -21.1127  -13.1181   22.2592 H   0  0  0  0  0  0
  -26.2952  -15.6292   20.1447 H   0  0  0  0  0  0
  -24.6687  -15.8437   20.5583 H   0  0  0  0  0  0
  -26.7131  -32.5496   23.1131 H   0  0  0  0  0  0
  -24.9988  -33.9747   25.0389 H   0  0  0  0  0  0
  -22.7001  -31.3078   21.4054 H   0  0  0  0  0  0
  -23.3741  -35.9644   23.3321 H   0  0  0  0  0  0
  -24.3579  -36.8912   22.2055 H   0  0  0  0  0  0
  -23.7269  -37.6515   23.6670 H   0  0  0  0  0  0
  -26.0797  -31.5923   20.6105 H   0  0  0  0  0  0
  -26.8247  -30.8569   21.9998 H   0  0  0  0  0  0
  -28.1169  -29.0691   21.1447 H   0  0  0  0  0  0
  -26.0276  -25.9476   19.0245 H   0  0  0  0  0  0
  -23.9671  -27.2926   19.0449 H   0  0  0  0  0  0
  -23.7406  -30.6034   19.4066 H   0  0  0  0  0  0
  -22.7429  -29.2518   19.8567 H   0  0  0  0  0  0
  -25.1306  -36.1933   25.0824 H   0  0  0  0  0  0
  -20.9978  -28.3287   24.1400 H   0  0  0  0  0  0
  -20.5636  -26.2310   23.3630 H   0  0  0  0  0  0
  -21.6634  -26.7419   22.1244 H   0  0  0  0  0  0
  -19.6914  -25.6283   21.1251 H   0  0  0  0  0  0
  -19.6707  -27.3178   20.6729 H   0  0  0  0  0  0
  -17.4194  -26.6668   21.4017 H   0  0  0  0  0  0
  -18.0333  -26.0086   22.9025 H   0  0  0  0  0  0
  -19.7935  -30.7267   24.2260 H   0  0  0  0  0  0
  -17.5019  -31.6267   24.5178 H   0  0  0  0  0  0
  -15.5354  -30.2994   23.7657 H   0  0  0  0  0  0
  -15.8659  -28.0846   22.7017 H   0  0  0  0  0  0
  -24.5915  -30.7094   25.7827 H   0  0  0  0  0  0
  -24.8973  -32.2888   26.4937 H   0  0  0  0  0  0
  -25.8105  -30.8890   27.0224 H   0  0  0  0  0  0
  -26.2891  -29.6734   24.1313 H   0  0  0  0  0  0
  -27.4192  -29.7357   25.4638 H   0  0  0  0  0  0
  -27.8686  -30.4339   23.9276 H   0  0  0  0  0  0
  -27.2634  -33.3647   26.2058 H   0  0  0  0  0  0
  -28.3832  -32.6935   25.0306 H   0  0  0  0  0  0
  -28.0727  -31.8503   26.5399 H   0  0  0  0  0  0
  -28.2589  -38.0107   24.7474 H   0  0  0  0  0  0
  -28.1075  -36.2638   24.6314 H   0  0  0  0  0  0
  -27.2296  -37.1494   25.8858 H   0  0  0  0  0  0
  -20.9320  -29.8775   21.6891 H   0  0  0  0  0  0
  -26.0172  -38.2850   24.1373 H   0  0  0  0  0  0
  -28.0912  -16.9461   20.1477 H   0  0  0  0  0  0
  -27.0272  -18.9414   19.2140 H   0  0  0  0  0  0
  -30.1109  -21.4151   20.9329 H   0  0  0  0  0  0
  -29.1778  -25.2881   18.2176 H   0  0  0  0  0  0
  -27.3552  -22.2204   16.0410 H   0  0  0  0  0  0
  -26.5743  -23.1007   17.3249 H   0  0  0  0  0  0
  -28.1415  -20.5254   17.5052 H   0  0  0  0  0  0
  -26.4921  -20.8293   17.9988 H   0  0  0  0  0  0
  -26.4433  -22.8520   19.7793 H   0  0  0  0  0  0
  -26.9868  -21.5808   21.8553 H   0  0  0  0  0  0
  -26.8578  -23.2840   22.1027 H   0  0  0  0  0  0
  -28.4515  -22.5436   22.0366 H   0  0  0  0  0  0
  -31.5001  -16.8428   21.4428 H   0  0  0  0  0  0
  -30.3556  -16.8019   22.7491 H   0  0  0  0  0  0
  -28.9386  -25.0458   21.3777 H   0  0  0  0  0  0
  -27.2201  -25.2266   21.2104 H   0  0  0  0  0  0
  -31.5328  -20.3798   22.5570 H   0  0  0  0  0  0
  -31.6491  -18.7150   22.7744 H   0  0  0  0  0  0
  -29.0484  -15.1439   21.5891 H   0  0  0  0  0  0
  1 25  1  0  0  0
  1 30  2  0  0  0
  1 88  1  0  0  0
  2  3  1  0  0  0
  2 25  1  0  0  0
  2 90  1  0  0  0
  2 91  1  0  0  0
  3  4  1  0  0  0
  3 92  1  0  0  0
  3 93  1  0  0  0
  4  5  1  0  0  0
  4 94  1  0  0  0
  4 95  1  0  0  0
  5  6  1  0  0  0
  5 26  1  0  0  0
  5 96  1  0  0  0
  6 25  1  0  0  0
  6 97  1  0  0  0
  6 98  1  0  0  0
  7  8  2  0  0  0
  7 26  1  0  0  0
  7 29  1  0  0  0
  8  9  1  0  0  0
  8 22  1  0  0  0
  9 10  1  0  0  0
  9 27  2  0  0  0
 10 11  2  0  0  0
 10 15  1  0  0  0
 11 12  1  0  0  0
 11 99  1  0  0  0
 12 13  2  0  0  0
 12100  1  0  0  0
 13 14  1  0  0  0
 13 31  1  0  0  0
 14 15  2  0  0  0
 14101  1  0  0  0
 15102  1  0  0  0
 16 17  2  0  0  0
 16 21  1  0  0  0
 16 31  1  0  0  0
 17 18  1  0  0  0
 17103  1  0  0  0
 18 19  2  0  0  0
 18104  1  0  0  0
 19 20  1  0  0  0
 19 24  1  0  0  0
 20 21  2  0  0  0
 20105  1  0  0  0
 21 23  1  0  0  0
 22 28  1  0  0  0
 22 32  2  0  0  0
 26 27  1  0  0  0
 28106  1  0  0  0
 28107  1  0  0  0
 29108  1  0  0  0
 29109  1  0  0  0
 33 34  1  0  0  0
 33 66  1  0  0  0
 33 70  2  0  0  0
 34 36  1  0  0  0
 34 59  1  0  0  0
 34110  1  0  0  0
 35 44  2  0  0  0
 35 45  1  0  0  0
 35 68  1  0  0  0
 36 56  1  0  0  0
 36111  1  0  0  0
 37 39  1  0  0  0
 37 47  1  0  0  0
 37 66  1  0  0  0
 37112  1  0  0  0
 38 43  2  0  0  0
 38 46  1  0  0  0
 38 47  1  0  0  0
 39 64  1  0  0  0
 39 67  2  0  0  0
 40 52  1  0  0  0
 40 53  2  0  0  0
 40 58  1  0  0  0
 41113  1  0  0  0
 41114  1  0  0  0
 41115  1  0  0  0
 41 48  1  0  0  0
 42 43  1  0  0  0
 42 66  1  0  0  0
 42116  1  0  0  0
 42117  1  0  0  0
 43 44  1  0  0  0
 44118  1  0  0  0
 45 46  2  0  0  0
 45119  1  0  0  0
 46120  1  0  0  0
 47121  1  0  0  0
 47122  1  0  0  0
 48 56  1  0  0  0
 48 65  1  0  0  0
 48123  1  0  0  0
 49 50  1  0  0  0
 49 53  1  0  0  0
 49 64  1  0  0  0
 49124  1  0  0  0
 50 51  1  0  0  0
 50125  1  0  0  0
 50126  1  0  0  0
 51 52  1  0  0  0
 51127  1  0  0  0
 51128  1  0  0  0
 52129  1  0  0  0
 52130  1  0  0  0
 53 54  1  0  0  0
 54 55  2  0  0  0
 54131  1  0  0  0
 55 57  1  0  0  0
 55132  1  0  0  0
 56 69  2  0  0  0
 57 58  2  0  0  0
 57133  1  0  0  0
 58134  1  0  0  0
 59 60  1  0  0  0
 59 61  1  0  0  0
 59 62  1  0  0  0
 60135  1  0  0  0
 60136  1  0  0  0
 60137  1  0  0  0
 61138  1  0  0  0
 61139  1  0  0  0
 61140  1  0  0  0
 62141  1  0  0  0
 62142  1  0  0  0
 62143  1  0  0  0
 63 65  1  0  0  0
 63144  1  0  0  0
 63145  1  0  0  0
 63146  1  0  0  0
 64147  1  0  0  0
 65148  1  0  0  0
 68 85  1  0  0  0
 71 72  2  0  0  0
 71 74  1  0  0  0
 71149  1  0  0  0
 72 75  1  0  0  0
 72150  1  0  0  0
 73 75  2  0  0  0
 73 76  1  0  0  0
 73151  1  0  0  0
 74 76  2  0  0  0
 74 84  1  0  0  0
 75 86  1  0  0  0
 76 87  1  0  0  0
 77 78  2  0  0  0
 77 79  1  0  0  0
 77152  1  0  0  0
 78 82  1  0  0  0
 78 85  1  0  0  0
 79 80  1  0  0  0
 79 89  2  0  0  0
 80 81  1  0  0  0
 80153  1  0  0  0
 80154  1  0  0  0
 81 86  1  0  0  0
 81155  1  0  0  0
 81156  1  0  0  0
 82 83  1  0  0  0
 82 86  1  0  0  0
 82157  1  0  0  0
 83158  1  0  0  0
 83159  1  0  0  0
 83160  1  0  0  0
 84 88  1  0  0  0
 84161  1  0  0  0
 84162  1  0  0  0
 85163  1  0  0  0
 85164  1  0  0  0
 87165  1  0  0  0
 87166  1  0  0  0
 88167  1  0  0  0
M  ISO  4   1 100  68 101  85 101  88 100
M  END
> <chiral flag>
0

> <version>
0

> <s_m_source_file>
/data/baiqing/PycharmProjects/Reinvent-master-3.2/result/LINK_invent/BTK/process_docking_weight1_custom_product_contain_oxygen_bond_distance_aromatic_linkinvent_7_9_3/rearranged_h_0107.sdf

> <i_m_source_file_index>
25

> <r_mmod_Potential_Energy-OPLS-2005>
-45.7431297302246

> <r_mmod_Stretch_Energy-OPLS-2005>
53.0809669494629

> <r_mmod_Bend_Energy-OPLS-2005>
127.5380859375

> <r_mmod_Torsional_Energy-OPLS-2005>
227.29801940918

> <r_mmod_Improper_Torsional_Energy-OPLS-2005>
7.12401247024536

> <r_mmod_Van_der_Waal_Energy-OPLS-2005>
173.074768066406

> <r_mmod_Electrostatic_Energy-OPLS-2005>
-406.940795898438

> <r_mmod_Solvation_Energy-OPLS-2005>
-244.285873413086

> <b_mmod_Minimization_Converged-OPLS-2005>
0

> <r_mmod_RMS_Derivative-OPLS-2005>
3.8119375705719

$$$$
25
                    3D
 Structure written by MMmdl.
158166  0  0  1  0            999 V2000
  -30.6024  -14.6956   20.4717 C   0  0  0  0  0  0
  -30.4438  -12.4236   19.4553 C   0  0  0  0  0  0
  -29.5094  -12.5099   18.2271 C   0  0  0  0  0  0
  -28.0341  -12.3373   18.6420 C   0  0  0  0  0  0
  -27.6491  -13.2135   19.8629 C   0  0  2  0  0  0
  -28.7002  -13.1006   20.9907 C   0  0  0  0  0  0
  -25.2547  -13.8131   20.5745 C   0  0  0  0  0  0
  -24.1813  -13.0399   20.9216 C   0  0  0  0  0  0
  -24.6385  -11.6877   20.8747 C   0  0  0  0  0  0
  -23.9052  -10.4271   21.0409 C   0  0  0  0  0  0
  -24.3607   -9.4190   21.9188 C   0  0  0  0  0  0
  -23.6283   -8.2228   22.0756 C   0  0  0  0  0  0
  -22.4266   -8.0271   21.3544 C   0  0  0  0  0  0
  -21.9902   -9.0242   20.4645 C   0  0  0  0  0  0
  -22.7229  -10.2120   20.3054 C   0  0  0  0  0  0
  -21.6846   -6.0731   22.5279 C   0  0  0  0  0  0
  -21.4008   -6.5637   23.8212 C   0  0  0  0  0  0
  -21.3659   -5.6791   24.9175 C   0  0  0  0  0  0
  -21.6046   -4.3054   24.7226 C   0  0  0  0  0  0
  -21.8820   -3.8145   23.4347 C   0  0  0  0  0  0
  -21.9190   -4.6960   22.3402 C   0  0  0  0  0  0
  -22.7837  -13.5204   21.1870 C   0  0  0  0  0  0
  -22.1661   -4.2147   21.0979 F   0  0  0  0  0  0
  -21.5633   -3.4538   25.7740 F   0  0  0  0  0  0
  -30.0084  -13.4572   20.4169 N   0  0  0  0  0  0
  -26.2973  -12.9315   20.3343 N   0  0  0  0  0  0
  -25.9314  -11.6473   20.5763 N   0  0  0  0  0  0
  -22.0470  -12.8203   22.0420 N   0  0  0  0  0  0
  -25.4190  -15.1859   20.4237 N   0  0  0  0  0  0
  -31.7797  -14.8496   20.1329 O   0  0  0  0  0  0
  -21.6630   -6.8872   21.4242 O   0  0  0  0  0  0
  -22.3534  -14.5515   20.6721 O   0  0  0  0  0  0
  -24.6278  -31.8580   23.2016 C   0  0  0  0  0  0
  -25.9117  -32.4772   23.8352 C   0  0  1  0  0  0
  -27.2260  -27.2956   20.1237 C   0  0  0  0  0  0
  -25.5926  -33.8575   24.2276 N   0  0  0  0  0  0
  -23.4237  -30.4808   21.5436 C   0  0  2  0  0  0
  -24.8729  -28.9341   20.1102 C   0  0  0  0  0  0
  -22.7487  -29.4609   22.4920 C   0  0  0  0  0  0
  -18.0288  -28.1389   22.8488 C   0  0  0  0  0  0
  -24.1490  -36.7288   23.2640 C   0  0  0  0  0  0
  -25.9671  -30.7788   21.3805 C   0  0  0  0  0  0
  -26.0406  -29.4031   20.7262 C   0  0  0  0  0  0
  -27.2180  -28.5926   20.7303 C   0  0  0  0  0  0
  -26.0428  -26.8993   19.4582 C   0  0  0  0  0  0
  -24.8769  -27.6875   19.4672 C   0  0  0  0  0  0
  -23.6416  -29.8164   20.1588 C   0  0  0  0  0  0
  -25.4118  -36.3081   24.0330 C   0  0  1  0  0  0
  -20.5891  -28.3697   23.1278 C   0  0  2  0  0  0
  -20.6775  -26.9417   22.5413 C   0  0  0  0  0  0
  -19.5752  -26.6385   21.5216 C   0  0  0  0  0  0
  -18.1929  -26.7932   22.1624 C   0  0  0  0  0  0
  -19.1542  -28.8859   23.2878 C   0  0  0  0  0  0
  -18.9465  -30.1460   23.8895 C   0  0  0  0  0  0
  -17.6464  -30.6589   24.0567 C   0  0  0  0  0  0
  -25.9053  -34.9449   23.5104 C   0  0  0  0  0  0
  -16.5356  -29.9089   23.6332 C   0  0  0  0  0  0
  -16.7276  -28.6506   23.0354 C   0  0  0  0  0  0
  -26.4498  -31.6588   25.0729 C   0  0  0  0  0  0
  -25.3724  -31.3720   26.1448 C   0  0  0  0  0  0
  -27.0350  -30.3010   24.6200 C   0  0  0  0  0  0
  -27.6053  -32.4326   25.7502 C   0  0  0  0  0  0
  -27.5582  -37.1803   24.8467 C   0  0  0  0  0  0
  -21.4197  -29.3045   22.3664 N   0  0  0  0  0  0
  -26.4294  -37.3778   23.9410 N   0  0  0  0  0  0
  -24.6914  -31.0569   22.0982 N   0  0  0  0  0  0
  -23.4198  -28.8149   23.3009 O   0  0  0  0  0  0
  -28.3292  -26.4178   20.1641 O   0  0  0  0  0  0
  -26.5625  -34.8919   22.4672 O   0  0  0  0  0  0
  -23.5434  -32.1394   23.7324 O   0  0  0  0  0  0
  -28.8061  -19.3521   19.7677 C   0  0  0  0  0  0
  -30.7267  -19.4522   21.1950 C   0  0  0  0  0  0
  -28.8762  -17.9200   19.7621 C   0  0  0  0  0  0
  -29.7180  -20.1664   20.4858 C   0  0  0  0  0  0
  -29.8539  -17.2125   20.5340 C   0  0  0  0  0  0
  -30.7924  -18.0118   21.2492 C   0  0  0  0  0  0
  -26.6927  -17.5952   18.5560 C   0  0  0  0  0  0
  -27.9008  -17.1620   18.9545 C   0  0  0  0  0  0
  -28.1150  -25.0154   20.2720 C   0  0  0  0  0  0
  -29.0548  -24.0052   20.2670 C   0  0  0  0  0  0
  -28.6726  -22.5490   20.3299 C   0  0  0  0  0  0
  -32.6900  -18.0695   22.7316 C   0  0  0  0  0  0
  -29.7031  -21.6454   20.4588 N   0  0  0  0  0  0
  -29.7502  -15.7495   20.7053 N   0  0  0  0  0  0
  -27.5031  -22.1621   20.2763 O   0  0  0  0  0  0
  -30.3548  -24.3264   20.1918 O   0  0  0  0  0  0
  -31.7176  -17.3259   22.0096 O   0  0  0  0  0  0
  -31.4824  -12.5598   19.1491 H   0  0  0  0  0  0
  -30.3924  -11.4343   19.9122 H   0  0  0  0  0  0
  -29.7811  -11.7514   17.4916 H   0  0  0  0  0  0
  -29.6397  -13.4741   17.7329 H   0  0  0  0  0  0
  -27.8822  -11.2844   18.8828 H   0  0  0  0  0  0
  -27.3764  -12.5534   17.7992 H   0  0  0  0  0  0
  -27.6496  -14.2407   19.5079 H   0  0  0  0  0  0
  -28.7272  -12.0860   21.3904 H   0  0  0  0  0  0
  -28.4435  -13.7464   21.8320 H   0  0  0  0  0  0
  -25.2751   -9.5666   22.4763 H   0  0  0  0  0  0
  -23.9990   -7.4621   22.7477 H   0  0  0  0  0  0
  -21.0833   -8.8761   19.8952 H   0  0  0  0  0  0
  -22.3692  -10.9661   19.6163 H   0  0  0  0  0  0
  -21.1997   -7.6146   23.9712 H   0  0  0  0  0  0
  -21.1486   -6.0526   25.9079 H   0  0  0  0  0  0
  -22.0601   -2.7607   23.2851 H   0  0  0  0  0  0
  -22.4076  -11.9858   22.4800 H   0  0  0  0  0  0
  -21.1095  -13.1243   22.2628 H   0  0  0  0  0  0
  -24.6389  -15.8241   20.5356 H   0  0  0  0  0  0
  -26.2478  -15.6459   20.0703 H   0  0  0  0  0  0
  -26.7183  -32.5439   23.1096 H   0  0  0  0  0  0
  -25.0076  -33.9719   25.0423 H   0  0  0  0  0  0
  -22.7192  -31.3024   21.3985 H   0  0  0  0  0  0
  -23.3756  -35.9615   23.3301 H   0  0  0  0  0  0
  -24.3578  -36.8914   22.2055 H   0  0  0  0  0  0
  -23.7235  -37.6486   23.6664 H   0  0  0  0  0  0
  -26.1027  -31.5386   20.6097 H   0  0  0  0  0  0
  -26.8456  -30.8291   22.0114 H   0  0  0  0  0  0
  -28.1113  -28.9431   21.2278 H   0  0  0  0  0  0
  -26.0002  -25.9559   18.9333 H   0  0  0  0  0  0
  -23.9870  -27.3283   18.9685 H   0  0  0  0  0  0
  -23.7630  -30.5930   19.4026 H   0  0  0  0  0  0
  -22.7616  -29.2468   19.8548 H   0  0  0  0  0  0
  -25.1295  -36.1938   25.0822 H   0  0  0  0  0  0
  -20.9987  -28.3276   24.1399 H   0  0  0  0  0  0
  -20.5679  -26.2307   23.3614 H   0  0  0  0  0  0
  -21.6643  -26.7440   22.1211 H   0  0  0  0  0  0
  -19.6913  -25.6295   21.1247 H   0  0  0  0  0  0
  -19.6692  -27.3195   20.6744 H   0  0  0  0  0  0
  -17.4203  -26.6694   21.4018 H   0  0  0  0  0  0
  -18.0319  -26.0070   22.9013 H   0  0  0  0  0  0
  -19.7941  -30.7280   24.2263 H   0  0  0  0  0  0
  -17.5018  -31.6268   24.5171 H   0  0  0  0  0  0
  -15.5357  -30.2994   23.7651 H   0  0  0  0  0  0
  -15.8677  -28.0826   22.7070 H   0  0  0  0  0  0
  -24.5928  -30.7035   25.7778 H   0  0  0  0  0  0
  -24.8877  -32.2878   26.4841 H   0  0  0  0  0  0
  -25.8050  -30.8934   27.0242 H   0  0  0  0  0  0
  -26.2933  -29.6754   24.1221 H   0  0  0  0  0  0
  -27.4039  -29.7275   25.4713 H   0  0  0  0  0  0
  -27.8805  -30.4295   23.9438 H   0  0  0  0  0  0
  -27.2668  -33.3637   26.2057 H   0  0  0  0  0  0
  -28.3874  -32.6865   25.0335 H   0  0  0  0  0  0
  -28.0705  -31.8463   26.5435 H   0  0  0  0  0  0
  -28.2598  -38.0102   24.7520 H   0  0  0  0  0  0
  -28.1080  -36.2632   24.6289 H   0  0  0  0  0  0
  -27.2298  -37.1453   25.8870 H   0  0  0  0  0  0
  -20.9377  -29.8779   21.6883 H   0  0  0  0  0  0
  -26.0175  -38.2852   24.1416 H   0  0  0  0  0  0
  -28.0526  -19.8449   19.1723 H   0  0  0  0  0  0
  -31.4477  -20.0452   21.7367 H   0  0  0  0  0  0
  -26.0605  -16.9707   17.9405 H   0  0  0  0  0  0
  -26.3032  -18.5647   18.8300 H   0  0  0  0  0  0
  -28.2138  -16.1828   18.6246 H   0  0  0  0  0  0
  -27.0682  -24.7640   20.3706 H   0  0  0  0  0  0
  -33.3493  -17.3807   23.2601 H   0  0  0  0  0  0
  -32.2271  -18.7163   23.4783 H   0  0  0  0  0  0
  -33.3105  -18.6703   22.0651 H   0  0  0  0  0  0
  -30.5956  -22.1032   20.5932 H   0  0  0  0  0  0
  -28.8088  -15.4323   20.8711 H   0  0  0  0  0  0
  -30.4000  -25.2737   20.1525 H   0  0  0  0  0  0
  1 25  1  0  0  0
  1 30  2  0  0  0
  1 84  1  0  0  0
  2  3  1  0  0  0
  2 25  1  0  0  0
  2 88  1  0  0  0
  2 89  1  0  0  0
  3  4  1  0  0  0
  3 90  1  0  0  0
  3 91  1  0  0  0
  4  5  1  0  0  0
  4 92  1  0  0  0
  4 93  1  0  0  0
  5  6  1  0  0  0
  5 26  1  0  0  0
  5 94  1  0  0  0
  6 25  1  0  0  0
  6 95  1  0  0  0
  6 96  1  0  0  0
  7  8  2  0  0  0
  7 26  1  0  0  0
  7 29  1  0  0  0
  8  9  1  0  0  0
  8 22  1  0  0  0
  9 10  1  0  0  0
  9 27  2  0  0  0
 10 11  2  0  0  0
 10 15  1  0  0  0
 11 12  1  0  0  0
 11 97  1  0  0  0
 12 13  2  0  0  0
 12 98  1  0  0  0
 13 14  1  0  0  0
 13 31  1  0  0  0
 14 15  2  0  0  0
 14 99  1  0  0  0
 15100  1  0  0  0
 16 17  2  0  0  0
 16 21  1  0  0  0
 16 31  1  0  0  0
 17 18  1  0  0  0
 17101  1  0  0  0
 18 19  2  0  0  0
 18102  1  0  0  0
 19 20  1  0  0  0
 19 24  1  0  0  0
 20 21  2  0  0  0
 20103  1  0  0  0
 21 23  1  0  0  0
 22 28  1  0  0  0
 22 32  2  0  0  0
 26 27  1  0  0  0
 28104  1  0  0  0
 28105  1  0  0  0
 29106  1  0  0  0
 29107  1  0  0  0
 33 34  1  0  0  0
 33 66  1  0  0  0
 33 70  2  0  0  0
 34 36  1  0  0  0
 34 59  1  0  0  0
 34108  1  0  0  0
 35 44  2  0  0  0
 35 45  1  0  0  0
 35 68  1  0  0  0
 36 56  1  0  0  0
 36109  1  0  0  0
 37 39  1  0  0  0
 37 47  1  0  0  0
 37 66  1  0  0  0
 37110  1  0  0  0
 38 43  2  0  0  0
 38 46  1  0  0  0
 38 47  1  0  0  0
 39 64  1  0  0  0
 39 67  2  0  0  0
 40 52  1  0  0  0
 40 53  2  0  0  0
 40 58  1  0  0  0
 41111  1  0  0  0
 41112  1  0  0  0
 41113  1  0  0  0
 41 48  1  0  0  0
 42 43  1  0  0  0
 42 66  1  0  0  0
 42114  1  0  0  0
 42115  1  0  0  0
 43 44  1  0  0  0
 44116  1  0  0  0
 45 46  2  0  0  0
 45117  1  0  0  0
 46118  1  0  0  0
 47119  1  0  0  0
 47120  1  0  0  0
 48 56  1  0  0  0
 48 65  1  0  0  0
 48121  1  0  0  0
 49 50  1  0  0  0
 49 53  1  0  0  0
 49 64  1  0  0  0
 49122  1  0  0  0
 50 51  1  0  0  0
 50123  1  0  0  0
 50124  1  0  0  0
 51 52  1  0  0  0
 51125  1  0  0  0
 51126  1  0  0  0
 52127  1  0  0  0
 52128  1  0  0  0
 53 54  1  0  0  0
 54 55  2  0  0  0
 54129  1  0  0  0
 55 57  1  0  0  0
 55130  1  0  0  0
 56 69  2  0  0  0
 57 58  2  0  0  0
 57131  1  0  0  0
 58132  1  0  0  0
 59 60  1  0  0  0
 59 61  1  0  0  0
 59 62  1  0  0  0
 60133  1  0  0  0
 60134  1  0  0  0
 60135  1  0  0  0
 61136  1  0  0  0
 61137  1  0  0  0
 61138  1  0  0  0
 62139  1  0  0  0
 62140  1  0  0  0
 62141  1  0  0  0
 63 65  1  0  0  0
 63142  1  0  0  0
 63143  1  0  0  0
 63144  1  0  0  0
 64145  1  0  0  0
 65146  1  0  0  0
 68 79  1  0  0  0
 71 73  2  0  0  0
 71 74  1  0  0  0
 71147  1  0  0  0
 72 74  2  0  0  0
 72 76  1  0  0  0
 72148  1  0  0  0
 73 75  1  0  0  0
 73 78  1  0  0  0
 74 83  1  0  0  0
 75 76  2  0  0  0
 75 84  1  0  0  0
 76 87  1  0  0  0
 77 78  2  0  0  0
 77149  1  0  0  0
 77150  1  0  0  0
 78151  1  0  0  0
 79 80  2  0  0  0
 79152  1  0  0  0
 80 81  1  0  0  0
 80 86  1  0  0  0
 81 83  1  0  0  0
 81 85  2  0  0  0
 82 87  1  0  0  0
 82153  1  0  0  0
 82154  1  0  0  0
 82155  1  0  0  0
 83156  1  0  0  0
 84157  1  0  0  0
 86158  1  0  0  0
M  ISO  4   1 100  68 101  79 101  84 100
M  END
> <chiral flag>
0

> <version>
0

> <s_m_source_file>
/data/baiqing/PycharmProjects/Reinvent-master-3.2/result/LINK_invent/BTK/process_docking_weight1_custom_product_contain_oxygen_bond_distance_aromatic_linkinvent_7_9_3/rearranged_h_0107.sdf

> <i_m_source_file_index>
26

> <r_mmod_Potential_Energy-OPLS-2005>
11.3540382385254

> <r_mmod_Stretch_Energy-OPLS-2005>
93.0103149414062

> <r_mmod_Bend_Energy-OPLS-2005>
144.597885131836

> <r_mmod_Torsional_Energy-OPLS-2005>
242.555160522461

> <r_mmod_Improper_Torsional_Energy-OPLS-2005>
6.6333794593811

> <r_mmod_Van_der_Waal_Energy-OPLS-2005>
152.241729736328

> <r_mmod_Electrostatic_Energy-OPLS-2005>
-463.478363037109

> <r_mmod_Solvation_Energy-OPLS-2005>
-229.701385498047

> <b_mmod_Minimization_Converged-OPLS-2005>
0

> <r_mmod_RMS_Derivative-OPLS-2005>
0.590743005275726

$$$$
26
                    3D
 Structure written by MMmdl.
163171  0  0  1  0            999 V2000
  -30.6227  -14.7413   20.4334 C   0  0  0  0  0  0
  -30.4313  -12.4475   19.4663 C   0  0  0  0  0  0
  -29.5053  -12.4891   18.2293 C   0  0  0  0  0  0
  -28.0346  -12.2800   18.6448 C   0  0  0  0  0  0
  -27.6239  -13.1884   19.8285 C   0  0  2  0  0  0
  -28.6756  -13.1812   20.9584 C   0  0  0  0  0  0
  -25.2546  -13.8063   20.5707 C   0  0  0  0  0  0
  -24.1793  -13.0380   20.9238 C   0  0  0  0  0  0
  -24.6329  -11.6845   20.8796 C   0  0  0  0  0  0
  -23.9011  -10.4254   21.0456 C   0  0  0  0  0  0
  -24.3586   -9.4170   21.9213 C   0  0  0  0  0  0
  -23.6271   -8.2206   22.0760 C   0  0  0  0  0  0
  -22.4253   -8.0262   21.3550 C   0  0  0  0  0  0
  -21.9886   -9.0235   20.4652 C   0  0  0  0  0  0
  -22.7210  -10.2112   20.3076 C   0  0  0  0  0  0
  -21.6843   -6.0731   22.5280 C   0  0  0  0  0  0
  -21.4011   -6.5637   23.8212 C   0  0  0  0  0  0
  -21.3646   -5.6789   24.9173 C   0  0  0  0  0  0
  -21.6040   -4.3053   24.7224 C   0  0  0  0  0  0
  -21.8828   -3.8149   23.4346 C   0  0  0  0  0  0
  -21.9198   -4.6966   22.3406 C   0  0  0  0  0  0
  -22.7839  -13.5225   21.1887 C   0  0  0  0  0  0
  -22.1668   -4.2159   21.0985 F   0  0  0  0  0  0
  -21.5618   -3.4536   25.7740 F   0  0  0  0  0  0
  -29.9841  -13.5192   20.3801 N   0  0  0  0  0  0
  -26.2854  -12.9136   20.3220 N   0  0  0  0  0  0
  -25.9225  -11.6348   20.5763 N   0  0  0  0  0  0
  -22.0468  -12.8217   22.0434 N   0  0  0  0  0  0
  -25.4369  -15.1772   20.4133 N   0  0  0  0  0  0
  -31.8433  -14.8151   20.2666 O   0  0  0  0  0  0
  -21.6620   -6.8866   21.4243 O   0  0  0  0  0  0
  -22.3552  -14.5542   20.6734 O   0  0  0  0  0  0
  -24.6290  -31.8580   23.2021 C   0  0  0  0  0  0
  -25.9126  -32.4770   23.8355 C   0  0  1  0  0  0
  -27.2247  -27.2912   20.1191 C   0  0  0  0  0  0
  -25.5936  -33.8570   24.2284 N   0  0  0  0  0  0
  -23.4235  -30.4821   21.5447 C   0  0  2  0  0  0
  -24.8725  -28.9377   20.1089 C   0  0  0  0  0  0
  -22.7483  -29.4617   22.4917 C   0  0  0  0  0  0
  -18.0289  -28.1387   22.8484 C   0  0  0  0  0  0
  -24.1488  -36.7286   23.2633 C   0  0  0  0  0  0
  -25.9692  -30.7797   21.3788 C   0  0  0  0  0  0
  -26.0433  -29.4058   20.7192 C   0  0  0  0  0  0
  -27.2225  -28.5958   20.7128 C   0  0  0  0  0  0
  -26.0282  -26.8897   19.4785 C   0  0  0  0  0  0
  -24.8702  -27.6872   19.4766 C   0  0  0  0  0  0
  -23.6401  -29.8195   20.1593 C   0  0  0  0  0  0
  -25.4116  -36.3078   24.0325 C   0  0  1  0  0  0
  -20.5888  -28.3698   23.1274 C   0  0  2  0  0  0
  -20.6777  -26.9413   22.5411 C   0  0  0  0  0  0
  -19.5754  -26.6388   21.5210 C   0  0  0  0  0  0
  -18.1932  -26.7932   22.1621 C   0  0  0  0  0  0
  -19.1538  -28.8860   23.2875 C   0  0  0  0  0  0
  -18.9463  -30.1459   23.8892 C   0  0  0  0  0  0
  -17.6461  -30.6589   24.0565 C   0  0  0  0  0  0
  -25.9057  -34.9445   23.5107 C   0  0  0  0  0  0
  -16.5355  -29.9088   23.6330 C   0  0  0  0  0  0
  -16.7274  -28.6506   23.0349 C   0  0  0  0  0  0
  -26.4504  -31.6576   25.0725 C   0  0  0  0  0  0
  -25.3741  -31.3697   26.1446 C   0  0  0  0  0  0
  -27.0347  -30.3000   24.6186 C   0  0  0  0  0  0
  -27.6069  -32.4298   25.7498 C   0  0  0  0  0  0
  -27.5588  -37.1793   24.8458 C   0  0  0  0  0  0
  -21.4192  -29.3052   22.3667 N   0  0  0  0  0  0
  -26.4292  -37.3780   23.9413 N   0  0  0  0  0  0
  -24.6928  -31.0562   22.0985 N   0  0  0  0  0  0
  -23.4197  -28.8140   23.2992 O   0  0  0  0  0  0
  -28.3262  -26.4083   20.1753 O   0  0  0  0  0  0
  -26.5617  -34.8910   22.4668 O   0  0  0  0  0  0
  -23.5450  -32.1388   23.7338 O   0  0  0  0  0  0
  -29.8442  -18.7396   23.0163 C   0  0  0  0  0  0
  -29.7462  -18.6689   20.2676 C   0  0  0  0  0  0
  -29.9030  -17.4713   22.3809 C   0  0  0  0  0  0
  -29.8616  -17.3940   20.9581 C   0  0  0  0  0  0
  -29.7123  -19.9693   22.3175 C   0  0  0  0  0  0
  -29.6477  -19.9605   20.9052 C   0  0  0  0  0  0
  -30.0048  -16.2707   23.2422 C   0  0  0  0  0  0
  -30.5677  -16.2150   24.4638 C   0  0  0  0  0  0
  -29.7485  -16.0587   20.1703 C   0  0  0  0  0  0
  -30.6198  -14.9679   25.3204 C   0  0  0  0  0  0
  -29.6503  -21.2253   24.3748 C   0  0  0  0  0  0
  -29.1531  -23.8068   20.3518 C   0  0  0  0  0  0
  -28.0442  -24.9408   20.1069 C   0  0  0  0  0  0
  -28.6558  -22.2770   20.4338 C   0  0  0  0  0  0
  -28.9605  -16.0832   19.1783 N   0  0  0  0  0  0
  -29.6880  -21.1940   22.9534 O   0  0  0  0  0  0
  -29.6034  -21.1677   20.1599 O   0  0  0  0  0  0
  -31.4721  -12.5749   19.1644 H   0  0  0  0  0  0
  -30.3711  -11.4772   19.9619 H   0  0  0  0  0  0
  -29.8025  -11.7281   17.5063 H   0  0  0  0  0  0
  -29.6099  -13.4517   17.7249 H   0  0  0  0  0  0
  -27.9108  -11.2330   18.9221 H   0  0  0  0  0  0
  -27.3748  -12.4494   17.7933 H   0  0  0  0  0  0
  -27.5580  -14.1741   19.3963 H   0  0  0  0  0  0
  -28.7188  -12.2042   21.4423 H   0  0  0  0  0  0
  -28.3911  -13.8934   21.7316 H   0  0  0  0  0  0
  -25.2733   -9.5651   22.4777 H   0  0  0  0  0  0
  -23.9988   -7.4595   22.7462 H   0  0  0  0  0  0
  -21.0823   -8.8764   19.8946 H   0  0  0  0  0  0
  -22.3691  -10.9662   19.6185 H   0  0  0  0  0  0
  -21.2000   -7.6144   23.9722 H   0  0  0  0  0  0
  -21.1451   -6.0516   25.9076 H   0  0  0  0  0  0
  -22.0619   -2.7616   23.2849 H   0  0  0  0  0  0
  -22.4081  -11.9854   22.4774 H   0  0  0  0  0  0
  -21.1096  -13.1260   22.2663 H   0  0  0  0  0  0
  -24.6841  -15.8479   20.5217 H   0  0  0  0  0  0
  -26.2959  -15.5922   20.0712 H   0  0  0  0  0  0
  -26.7187  -32.5427   23.1091 H   0  0  0  0  0  0
  -25.0082  -33.9715   25.0430 H   0  0  0  0  0  0
  -22.7189  -31.3038   21.4012 H   0  0  0  0  0  0
  -23.3769  -35.9601   23.3277 H   0  0  0  0  0  0
  -24.3579  -36.8931   22.2053 H   0  0  0  0  0  0
  -23.7222  -37.6472   23.6670 H   0  0  0  0  0  0
  -26.1047  -31.5422   20.6104 H   0  0  0  0  0  0
  -26.8485  -30.8271   22.0101 H   0  0  0  0  0  0
  -28.1177  -28.9494   21.2050 H   0  0  0  0  0  0
  -25.9473  -25.9395   18.9748 H   0  0  0  0  0  0
  -23.9762  -27.3268   18.9859 H   0  0  0  0  0  0
  -23.7599  -30.5976   19.4049 H   0  0  0  0  0  0
  -22.7604  -29.2503   19.8536 H   0  0  0  0  0  0
  -25.1291  -36.1930   25.0820 H   0  0  0  0  0  0
  -20.9975  -28.3278   24.1397 H   0  0  0  0  0  0
  -20.5679  -26.2300   23.3607 H   0  0  0  0  0  0
  -21.6644  -26.7440   22.1202 H   0  0  0  0  0  0
  -19.6916  -25.6300   21.1231 H   0  0  0  0  0  0
  -19.6692  -27.3207   20.6742 H   0  0  0  0  0  0
  -17.4193  -26.6672   21.4026 H   0  0  0  0  0  0
  -18.0342  -26.0079   22.9023 H   0  0  0  0  0  0
  -19.7931  -30.7278   24.2262 H   0  0  0  0  0  0
  -17.5011  -31.6256   24.5176 H   0  0  0  0  0  0
  -15.5353  -30.2990   23.7653 H   0  0  0  0  0  0
  -15.8672  -28.0823   22.7076 H   0  0  0  0  0  0
  -24.5943  -30.7011   25.7772 H   0  0  0  0  0  0
  -24.8898  -32.2847   26.4865 H   0  0  0  0  0  0
  -25.8081  -30.8886   27.0220 H   0  0  0  0  0  0
  -26.2922  -29.6744   24.1218 H   0  0  0  0  0  0
  -27.4047  -29.7255   25.4688 H   0  0  0  0  0  0
  -27.8790  -30.4279   23.9411 H   0  0  0  0  0  0
  -27.2702  -33.3608   26.2065 H   0  0  0  0  0  0
  -28.3897  -32.6829   25.0335 H   0  0  0  0  0  0
  -28.0713  -31.8416   26.5422 H   0  0  0  0  0  0
  -28.2573  -38.0121   24.7547 H   0  0  0  0  0  0
  -28.1115  -36.2651   24.6234 H   0  0  0  0  0  0
  -27.2295  -37.1378   25.8854 H   0  0  0  0  0  0
  -20.9373  -29.8794   21.6890 H   0  0  0  0  0  0
  -26.0169  -38.2845   24.1457 H   0  0  0  0  0  0
  -29.8736  -18.7515   24.0931 H   0  0  0  0  0  0
  -29.7110  -18.6602   19.1877 H   0  0  0  0  0  0
  -29.5552  -15.3655   22.8730 H   0  0  0  0  0  0
  -31.0252  -17.0921   24.8994 H   0  0  0  0  0  0
  -30.1921  -14.1074   24.8043 H   0  0  0  0  0  0
  -30.0659  -15.1194   26.2478 H   0  0  0  0  0  0
  -31.6533  -14.7336   25.5771 H   0  0  0  0  0  0
  -29.5758  -22.2586   24.7130 H   0  0  0  0  0  0
  -30.5591  -20.8046   24.8074 H   0  0  0  0  0  0
  -28.7840  -20.6901   24.7676 H   0  0  0  0  0  0
  -29.6975  -24.0363   21.2681 H   0  0  0  0  0  0
  -29.8870  -23.8832   19.5496 H   0  0  0  0  0  0
  -27.2269  -24.7407   20.8017 H   0  0  0  0  0  0
  -27.6552  -24.7297   19.1108 H   0  0  0  0  0  0
  -27.8860  -22.1608   19.6704 H   0  0  0  0  0  0
  -28.1186  -22.1220   21.3682 H   0  0  0  0  0  0
  -28.4956  -16.9789   19.1030 H   0  0  0  0  0  0
  1 25  1  0  0  0
  1 30  2  0  0  0
  1 79  1  0  0  0
  2  3  1  0  0  0
  2 25  1  0  0  0
  2 88  1  0  0  0
  2 89  1  0  0  0
  3  4  1  0  0  0
  3 90  1  0  0  0
  3 91  1  0  0  0
  4  5  1  0  0  0
  4 92  1  0  0  0
  4 93  1  0  0  0
  5  6  1  0  0  0
  5 26  1  0  0  0
  5 94  1  0  0  0
  6 25  1  0  0  0
  6 95  1  0  0  0
  6 96  1  0  0  0
  7  8  2  0  0  0
  7 26  1  0  0  0
  7 29  1  0  0  0
  8  9  1  0  0  0
  8 22  1  0  0  0
  9 10  1  0  0  0
  9 27  2  0  0  0
 10 11  2  0  0  0
 10 15  1  0  0  0
 11 12  1  0  0  0
 11 97  1  0  0  0
 12 13  2  0  0  0
 12 98  1  0  0  0
 13 14  1  0  0  0
 13 31  1  0  0  0
 14 15  2  0  0  0
 14 99  1  0  0  0
 15100  1  0  0  0
 16 17  2  0  0  0
 16 21  1  0  0  0
 16 31  1  0  0  0
 17 18  1  0  0  0
 17101  1  0  0  0
 18 19  2  0  0  0
 18102  1  0  0  0
 19 20  1  0  0  0
 19 24  1  0  0  0
 20 21  2  0  0  0
 20103  1  0  0  0
 21 23  1  0  0  0
 22 28  1  0  0  0
 22 32  2  0  0  0
 26 27  1  0  0  0
 28104  1  0  0  0
 28105  1  0  0  0
 29106  1  0  0  0
 29107  1  0  0  0
 33 34  1  0  0  0
 33 66  1  0  0  0
 33 70  2  0  0  0
 34 36  1  0  0  0
 34 59  1  0  0  0
 34108  1  0  0  0
 35 44  2  0  0  0
 35 45  1  0  0  0
 35 68  1  0  0  0
 36 56  1  0  0  0
 36109  1  0  0  0
 37 39  1  0  0  0
 37 47  1  0  0  0
 37 66  1  0  0  0
 37110  1  0  0  0
 38 43  2  0  0  0
 38 46  1  0  0  0
 38 47  1  0  0  0
 39 64  1  0  0  0
 39 67  2  0  0  0
 40 52  1  0  0  0
 40 53  2  0  0  0
 40 58  1  0  0  0
 41111  1  0  0  0
 41112  1  0  0  0
 41113  1  0  0  0
 41 48  1  0  0  0
 42 43  1  0  0  0
 42 66  1  0  0  0
 42114  1  0  0  0
 42115  1  0  0  0
 43 44  1  0  0  0
 44116  1  0  0  0
 45 46  2  0  0  0
 45117  1  0  0  0
 46118  1  0  0  0
 47119  1  0  0  0
 47120  1  0  0  0
 48 56  1  0  0  0
 48 65  1  0  0  0
 48121  1  0  0  0
 49 50  1  0  0  0
 49 53  1  0  0  0
 49 64  1  0  0  0
 49122  1  0  0  0
 50 51  1  0  0  0
 50123  1  0  0  0
 50124  1  0  0  0
 51 52  1  0  0  0
 51125  1  0  0  0
 51126  1  0  0  0
 52127  1  0  0  0
 52128  1  0  0  0
 53 54  1  0  0  0
 54 55  2  0  0  0
 54129  1  0  0  0
 55 57  1  0  0  0
 55130  1  0  0  0
 56 69  2  0  0  0
 57 58  2  0  0  0
 57131  1  0  0  0
 58132  1  0  0  0
 59 60  1  0  0  0
 59 61  1  0  0  0
 59 62  1  0  0  0
 60133  1  0  0  0
 60134  1  0  0  0
 60135  1  0  0  0
 61136  1  0  0  0
 61137  1  0  0  0
 61138  1  0  0  0
 62139  1  0  0  0
 62140  1  0  0  0
 62141  1  0  0  0
 63 65  1  0  0  0
 63142  1  0  0  0
 63143  1  0  0  0
 63144  1  0  0  0
 64145  1  0  0  0
 65146  1  0  0  0
 68 83  1  0  0  0
 71 73  2  0  0  0
 71 75  1  0  0  0
 71147  1  0  0  0
 72 74  2  0  0  0
 72 76  1  0  0  0
 72148  1  0  0  0
 73 74  1  0  0  0
 73 77  1  0  0  0
 74 79  1  0  0  0
 75 76  2  0  0  0
 75 86  1  0  0  0
 76 87  1  0  0  0
 77 78  2  0  0  0
 77149  1  0  0  0
 78 80  1  0  0  0
 78150  1  0  0  0
 79 85  2  0  0  0
 80151  1  0  0  0
 80152  1  0  0  0
 80153  1  0  0  0
 81 86  1  0  0  0
 81154  1  0  0  0
 81155  1  0  0  0
 81156  1  0  0  0
 82 83  1  0  0  0
 82 84  1  0  0  0
 82157  1  0  0  0
 82158  1  0  0  0
 83159  1  0  0  0
 83160  1  0  0  0
 84 87  1  0  0  0
 84161  1  0  0  0
 84162  1  0  0  0
 85163  1  0  0  0
M  ISO  4   1 100  68 101  79 100  83 101
M  END
> <chiral flag>
0

> <version>
0

> <s_m_source_file>
/data/baiqing/PycharmProjects/Reinvent-master-3.2/result/LINK_invent/BTK/process_docking_weight1_custom_product_contain_oxygen_bond_distance_aromatic_linkinvent_7_9_3/rearranged_h_0107.sdf

> <i_m_source_file_index>
27

> <r_mmod_Potential_Energy-OPLS-2005>
381.587432861328

> <r_mmod_Stretch_Energy-OPLS-2005>
117.769172668457

> <r_mmod_Bend_Energy-OPLS-2005>
178.614334106445

> <r_mmod_Torsional_Energy-OPLS-2005>
262.566040039062

> <r_mmod_Improper_Torsional_Energy-OPLS-2005>
15.8921880722046

> <r_mmod_Van_der_Waal_Energy-OPLS-2005>
162.624786376953

> <r_mmod_Electrostatic_Energy-OPLS-2005>
-240.085662841797

> <r_mmod_Solvation_Energy-OPLS-2005>
-200.203109741211

> <b_mmod_Minimization_Converged-OPLS-2005>
0

> <r_mmod_RMS_Derivative-OPLS-2005>
1.60550785064697

$$$$
27
                    3D
 Structure written by MMmdl.
160168  0  0  1  0            999 V2000
  -30.6487  -14.6408   20.5993 C   0  0  0  0  0  0
  -30.4371  -12.4261   19.4463 C   0  0  0  0  0  0
  -29.5062  -12.5379   18.2181 C   0  0  0  0  0  0
  -28.0281  -12.3633   18.6212 C   0  0  0  0  0  0
  -27.6515  -13.2181   19.8583 C   0  0  2  0  0  0
  -28.6898  -13.0321   20.9786 C   0  0  0  0  0  0
  -25.2558  -13.8185   20.5665 C   0  0  0  0  0  0
  -24.1827  -13.0448   20.9175 C   0  0  0  0  0  0
  -24.6397  -11.6920   20.8712 C   0  0  0  0  0  0
  -23.9072  -10.4302   21.0390 C   0  0  0  0  0  0
  -24.3623   -9.4219   21.9173 C   0  0  0  0  0  0
  -23.6301   -8.2252   22.0748 C   0  0  0  0  0  0
  -22.4282   -8.0289   21.3539 C   0  0  0  0  0  0
  -21.9917   -9.0263   20.4639 C   0  0  0  0  0  0
  -22.7245  -10.2141   20.3042 C   0  0  0  0  0  0
  -21.6858   -6.0744   22.5278 C   0  0  0  0  0  0
  -21.4017   -6.5641   23.8214 C   0  0  0  0  0  0
  -21.3657   -5.6792   24.9176 C   0  0  0  0  0  0
  -21.6044   -4.3056   24.7224 C   0  0  0  0  0  0
  -21.8820   -3.8153   23.4342 C   0  0  0  0  0  0
  -21.9194   -4.6973   22.3399 C   0  0  0  0  0  0
  -22.7851  -13.5238   21.1860 C   0  0  0  0  0  0
  -22.1659   -4.2159   21.0978 F   0  0  0  0  0  0
  -21.5630   -3.4534   25.7732 F   0  0  0  0  0  0
  -30.0053  -13.4284   20.4482 N   0  0  0  0  0  0
  -26.2974  -12.9362   20.3263 N   0  0  0  0  0  0
  -25.9315  -11.6516   20.5691 N   0  0  0  0  0  0
  -22.0503  -12.8216   22.0411 N   0  0  0  0  0  0
  -25.4285  -15.1906   20.4103 N   0  0  0  0  0  0
  -31.7443  -14.8265   20.0560 O   0  0  0  0  0  0
  -21.6645   -6.8887   21.4240 O   0  0  0  0  0  0
  -22.3521  -14.5544   20.6722 O   0  0  0  0  0  0
  -24.6266  -31.8586   23.2010 C   0  0  0  0  0  0
  -25.9110  -32.4772   23.8347 C   0  0  1  0  0  0
  -27.2271  -27.3172   20.1226 C   0  0  0  0  0  0
  -25.5923  -33.8573   24.2274 N   0  0  0  0  0  0
  -23.4209  -30.4799   21.5437 C   0  0  2  0  0  0
  -24.8691  -28.9296   20.1145 C   0  0  0  0  0  0
  -22.7474  -29.4617   22.4943 C   0  0  0  0  0  0
  -18.0284  -28.1385   22.8488 C   0  0  0  0  0  0
  -24.1487  -36.7291   23.2640 C   0  0  0  0  0  0
  -25.9613  -30.7895   21.3709 C   0  0  0  0  0  0
  -26.0380  -29.4149   20.7161 C   0  0  0  0  0  0
  -27.2239  -28.6218   20.7057 C   0  0  0  0  0  0
  -26.0388  -26.8795   19.5021 C   0  0  0  0  0  0
  -24.8711  -27.6674   19.4980 C   0  0  0  0  0  0
  -23.6363  -29.8099   20.1609 C   0  0  0  0  0  0
  -25.4114  -36.3081   24.0328 C   0  0  1  0  0  0
  -20.5882  -28.3690   23.1284 C   0  0  2  0  0  0
  -20.6771  -26.9412   22.5411 C   0  0  0  0  0  0
  -19.5747  -26.6384   21.5213 C   0  0  0  0  0  0
  -18.1927  -26.7930   22.1623 C   0  0  0  0  0  0
  -19.1535  -28.8854   23.2880 C   0  0  0  0  0  0
  -18.9460  -30.1457   23.8895 C   0  0  0  0  0  0
  -17.6460  -30.6589   24.0563 C   0  0  0  0  0  0
  -25.9049  -34.9450   23.5101 C   0  0  0  0  0  0
  -16.5351  -29.9087   23.6334 C   0  0  0  0  0  0
  -16.7272  -28.6504   23.0355 C   0  0  0  0  0  0
  -26.4497  -31.6585   25.0719 C   0  0  0  0  0  0
  -25.3731  -31.3716   26.1445 C   0  0  0  0  0  0
  -27.0346  -30.3013   24.6172 C   0  0  0  0  0  0
  -27.6051  -32.4325   25.7495 C   0  0  0  0  0  0
  -27.5578  -37.1800   24.8465 C   0  0  0  0  0  0
  -21.4187  -29.3042   22.3682 N   0  0  0  0  0  0
  -26.4290  -37.3775   23.9409 N   0  0  0  0  0  0
  -24.6884  -31.0591   22.0959 N   0  0  0  0  0  0
  -23.4193  -28.8159   23.3028 O   0  0  0  0  0  0
  -28.3379  -26.4648   20.1249 O   0  0  0  0  0  0
  -26.5620  -34.8917   22.4669 O   0  0  0  0  0  0
  -23.5428  -32.1385   23.7337 O   0  0  0  0  0  0
  -29.7611  -19.5250   21.4834 C   0  0  0  0  0  0
  -29.3493  -18.8365   19.2291 C   0  0  0  0  0  0
  -30.0089  -18.1628   21.8319 C   0  0  0  0  0  0
  -29.5779  -17.4673   19.5836 C   0  0  0  0  0  0
  -29.4161  -19.9080   20.1658 C   0  0  0  0  0  0
  -29.9035  -17.0717   20.9106 C   0  0  0  0  0  0
  -28.7535  -23.8755   19.9231 C   0  0  0  0  0  0
  -28.3885  -15.1087   24.7901 C   0  0  0  0  0  0
  -28.8797  -22.4542   20.6289 C   0  0  0  0  0  0
  -28.1416  -25.1107   20.7061 C   0  0  0  0  0  0
  -28.5875  -15.7409   23.4091 C   0  0  0  0  0  0
  -29.9624  -15.3789   22.7927 C   0  0  0  0  0  0
  -29.1695  -21.2645   19.7544 N   0  0  0  0  0  0
  -30.0497  -15.6530   21.3386 N   0  0  0  0  0  0
  -29.1179  -24.0003   18.7484 O   0  0  0  0  0  0
  -31.4759  -12.5633   19.1423 H   0  0  0  0  0  0
  -30.3904  -11.4220   19.8713 H   0  0  0  0  0  0
  -29.7808  -11.7951   17.4678 H   0  0  0  0  0  0
  -29.6420  -13.5123   17.7461 H   0  0  0  0  0  0
  -27.8651  -11.3068   18.8385 H   0  0  0  0  0  0
  -27.3751  -12.6047   17.7817 H   0  0  0  0  0  0
  -27.6816  -14.2623   19.5456 H   0  0  0  0  0  0
  -28.7146  -11.9901   21.3013 H   0  0  0  0  0  0
  -28.3859  -13.5831   21.8577 H   0  0  0  0  0  0
  -25.2767   -9.5701   22.4747 H   0  0  0  0  0  0
  -24.0008   -7.4646   22.7469 H   0  0  0  0  0  0
  -21.0846   -8.8788   19.8947 H   0  0  0  0  0  0
  -22.3707  -10.9678   19.6151 H   0  0  0  0  0  0
  -21.2009   -7.6150   23.9720 H   0  0  0  0  0  0
  -21.1475   -6.0521   25.9079 H   0  0  0  0  0  0
  -22.0602   -2.7616   23.2838 H   0  0  0  0  0  0
  -22.4123  -11.9863   22.4772 H   0  0  0  0  0  0
  -21.1124  -13.1241   22.2637 H   0  0  0  0  0  0
  -24.6686  -15.8510   20.5312 H   0  0  0  0  0  0
  -26.2923  -15.6292   20.1173 H   0  0  0  0  0  0
  -26.7177  -32.5444   23.1096 H   0  0  0  0  0  0
  -25.0075  -33.9719   25.0423 H   0  0  0  0  0  0
  -22.7153  -31.3004   21.3977 H   0  0  0  0  0  0
  -23.3750  -35.9621   23.3302 H   0  0  0  0  0  0
  -24.3578  -36.8915   22.2055 H   0  0  0  0  0  0
  -23.7239  -37.6491   23.6665 H   0  0  0  0  0  0
  -26.0899  -31.5515   20.6009 H   0  0  0  0  0  0
  -26.8425  -30.8414   21.9989 H   0  0  0  0  0  0
  -28.1247  -28.9919   21.1751 H   0  0  0  0  0  0
  -26.0090  -25.9114   19.0223 H   0  0  0  0  0  0
  -23.9758  -27.2907   19.0228 H   0  0  0  0  0  0
  -23.7548  -30.5837   19.4015 H   0  0  0  0  0  0
  -22.7570  -29.2373   19.8606 H   0  0  0  0  0  0
  -25.1296  -36.1931   25.0821 H   0  0  0  0  0  0
  -20.9972  -28.3262   24.1406 H   0  0  0  0  0  0
  -20.5674  -26.2297   23.3611 H   0  0  0  0  0  0
  -21.6640  -26.7442   22.1204 H   0  0  0  0  0  0
  -19.6909  -25.6294   21.1244 H   0  0  0  0  0  0
  -19.6686  -27.3193   20.6743 H   0  0  0  0  0  0
  -17.4197  -26.6682   21.4022 H   0  0  0  0  0  0
  -18.0323  -26.0069   22.9016 H   0  0  0  0  0  0
  -19.7934  -30.7276   24.2262 H   0  0  0  0  0  0
  -17.5013  -31.6269   24.5164 H   0  0  0  0  0  0
  -15.5351  -30.2989   23.7659 H   0  0  0  0  0  0
  -15.8669  -28.0823   22.7073 H   0  0  0  0  0  0
  -24.5909  -30.7063   25.7771 H   0  0  0  0  0  0
  -24.8920  -32.2877   26.4880 H   0  0  0  0  0  0
  -25.8059  -30.8887   27.0215 H   0  0  0  0  0  0
  -26.2919  -29.6756   24.1206 H   0  0  0  0  0  0
  -27.4058  -29.7276   25.4676 H   0  0  0  0  0  0
  -27.8780  -30.4306   23.9385 H   0  0  0  0  0  0
  -27.2659  -33.3626   26.2067 H   0  0  0  0  0  0
  -28.3867  -32.6885   25.0329 H   0  0  0  0  0  0
  -28.0713  -31.8454   26.5418 H   0  0  0  0  0  0
  -28.2591  -38.0101   24.7517 H   0  0  0  0  0  0
  -28.1079  -36.2631   24.6287 H   0  0  0  0  0  0
  -27.2294  -37.1446   25.8867 H   0  0  0  0  0  0
  -20.9370  -29.8765   21.6891 H   0  0  0  0  0  0
  -26.0171  -38.2848   24.1416 H   0  0  0  0  0  0
  -29.8491  -20.2767   22.2544 H   0  0  0  0  0  0
  -29.1003  -19.0538   18.1997 H   0  0  0  0  0  0
  -30.2760  -17.9833   22.8616 H   0  0  0  0  0  0
  -29.4753  -16.7155   18.8142 H   0  0  0  0  0  0
  -27.4247  -15.3942   25.2130 H   0  0  0  0  0  0
  -29.1638  -15.4276   25.4871 H   0  0  0  0  0  0
  -28.4143  -14.0198   24.7341 H   0  0  0  0  0  0
  -27.9511  -22.2696   21.1703 H   0  0  0  0  0  0
  -29.6617  -22.5353   21.3847 H   0  0  0  0  0  0
  -28.5815  -25.1156   21.7031 H   0  0  0  0  0  0
  -27.0811  -24.9084   20.8550 H   0  0  0  0  0  0
  -28.4753  -16.8188   23.5124 H   0  0  0  0  0  0
  -27.7697  -15.4345   22.7566 H   0  0  0  0  0  0
  -30.1726  -14.3290   23.0116 H   0  0  0  0  0  0
  -30.7628  -15.9078   23.3113 H   0  0  0  0  0  0
  -28.9849  -21.4322   18.7675 H   0  0  0  0  0  0
  1 25  1  0  0  0
  1 30  2  0  0  0
  1 84  1  0  0  0
  2  3  1  0  0  0
  2 25  1  0  0  0
  2 86  1  0  0  0
  2 87  1  0  0  0
  3  4  1  0  0  0
  3 88  1  0  0  0
  3 89  1  0  0  0
  4  5  1  0  0  0
  4 90  1  0  0  0
  4 91  1  0  0  0
  5  6  1  0  0  0
  5 26  1  0  0  0
  5 92  1  0  0  0
  6 25  1  0  0  0
  6 93  1  0  0  0
  6 94  1  0  0  0
  7  8  2  0  0  0
  7 26  1  0  0  0
  7 29  1  0  0  0
  8  9  1  0  0  0
  8 22  1  0  0  0
  9 10  1  0  0  0
  9 27  2  0  0  0
 10 11  2  0  0  0
 10 15  1  0  0  0
 11 12  1  0  0  0
 11 95  1  0  0  0
 12 13  2  0  0  0
 12 96  1  0  0  0
 13 14  1  0  0  0
 13 31  1  0  0  0
 14 15  2  0  0  0
 14 97  1  0  0  0
 15 98  1  0  0  0
 16 17  2  0  0  0
 16 21  1  0  0  0
 16 31  1  0  0  0
 17 18  1  0  0  0
 17 99  1  0  0  0
 18 19  2  0  0  0
 18100  1  0  0  0
 19 20  1  0  0  0
 19 24  1  0  0  0
 20 21  2  0  0  0
 20101  1  0  0  0
 21 23  1  0  0  0
 22 28  1  0  0  0
 22 32  2  0  0  0
 26 27  1  0  0  0
 28102  1  0  0  0
 28103  1  0  0  0
 29104  1  0  0  0
 29105  1  0  0  0
 33 34  1  0  0  0
 33 66  1  0  0  0
 33 70  2  0  0  0
 34 36  1  0  0  0
 34 59  1  0  0  0
 34106  1  0  0  0
 35 44  2  0  0  0
 35 45  1  0  0  0
 35 68  1  0  0  0
 36 56  1  0  0  0
 36107  1  0  0  0
 37 39  1  0  0  0
 37 47  1  0  0  0
 37 66  1  0  0  0
 37108  1  0  0  0
 38 43  2  0  0  0
 38 46  1  0  0  0
 38 47  1  0  0  0
 39 64  1  0  0  0
 39 67  2  0  0  0
 40 52  1  0  0  0
 40 53  2  0  0  0
 40 58  1  0  0  0
 41109  1  0  0  0
 41110  1  0  0  0
 41111  1  0  0  0
 41 48  1  0  0  0
 42 43  1  0  0  0
 42 66  1  0  0  0
 42112  1  0  0  0
 42113  1  0  0  0
 43 44  1  0  0  0
 44114  1  0  0  0
 45 46  2  0  0  0
 45115  1  0  0  0
 46116  1  0  0  0
 47117  1  0  0  0
 47118  1  0  0  0
 48 56  1  0  0  0
 48 65  1  0  0  0
 48119  1  0  0  0
 49 50  1  0  0  0
 49 53  1  0  0  0
 49 64  1  0  0  0
 49120  1  0  0  0
 50 51  1  0  0  0
 50121  1  0  0  0
 50122  1  0  0  0
 51 52  1  0  0  0
 51123  1  0  0  0
 51124  1  0  0  0
 52125  1  0  0  0
 52126  1  0  0  0
 53 54  1  0  0  0
 54 55  2  0  0  0
 54127  1  0  0  0
 55 57  1  0  0  0
 55128  1  0  0  0
 56 69  2  0  0  0
 57 58  2  0  0  0
 57129  1  0  0  0
 58130  1  0  0  0
 59 60  1  0  0  0
 59 61  1  0  0  0
 59 62  1  0  0  0
 60131  1  0  0  0
 60132  1  0  0  0
 60133  1  0  0  0
 61134  1  0  0  0
 61135  1  0  0  0
 61136  1  0  0  0
 62137  1  0  0  0
 62138  1  0  0  0
 62139  1  0  0  0
 63 65  1  0  0  0
 63140  1  0  0  0
 63141  1  0  0  0
 63142  1  0  0  0
 64143  1  0  0  0
 65144  1  0  0  0
 68 80  1  0  0  0
 71 73  2  0  0  0
 71 75  1  0  0  0
 71145  1  0  0  0
 72 74  1  0  0  0
 72 75  2  0  0  0
 72146  1  0  0  0
 73 76  1  0  0  0
 73147  1  0  0  0
 74 76  2  0  0  0
 74148  1  0  0  0
 75 83  1  0  0  0
 76 84  1  0  0  0
 77 79  1  0  0  0
 77 80  1  0  0  0
 77 85  2  0  0  0
 78 81  1  0  0  0
 78149  1  0  0  0
 78150  1  0  0  0
 78151  1  0  0  0
 79 83  1  0  0  0
 79152  1  0  0  0
 79153  1  0  0  0
 80154  1  0  0  0
 80155  1  0  0  0
 81 82  1  0  0  0
 81156  1  0  0  0
 81157  1  0  0  0
 82 84  1  0  0  0
 82158  1  0  0  0
 82159  1  0  0  0
 83160  1  0  0  0
M  ISO  4   1 100  68 101  80 101  84 100
M  END
> <chiral flag>
0

> <version>
0

> <s_m_source_file>
/data/baiqing/PycharmProjects/Reinvent-master-3.2/result/LINK_invent/BTK/process_docking_weight1_custom_product_contain_oxygen_bond_distance_aromatic_linkinvent_7_9_3/rearranged_h_0107.sdf

> <i_m_source_file_index>
28

> <r_mmod_Potential_Energy-OPLS-2005>
251.369750976562

> <r_mmod_Stretch_Energy-OPLS-2005>
95.413459777832

> <r_mmod_Bend_Energy-OPLS-2005>
152.825576782227

> <r_mmod_Torsional_Energy-OPLS-2005>
288.747589111328

> <r_mmod_Improper_Torsional_Energy-OPLS-2005>
3.29989910125732

> <r_mmod_Van_der_Waal_Energy-OPLS-2005>
144.777160644531

> <r_mmod_Electrostatic_Energy-OPLS-2005>
-257.681213378906

> <r_mmod_Solvation_Energy-OPLS-2005>
-222.416458129883

> <b_mmod_Minimization_Converged-OPLS-2005>
0

> <r_mmod_RMS_Derivative-OPLS-2005>
0.615694522857666

$$$$
28
                    3D
 Structure written by MMmdl.
169178  0  0  1  0            999 V2000
  -30.6220  -14.5569   20.6015 C   0  0  0  0  0  0
  -30.4552  -12.3717   19.4202 C   0  0  0  0  0  0
  -29.5050  -12.5320   18.2114 C   0  0  0  0  0  0
  -28.0265  -12.3727   18.6236 C   0  0  0  0  0  0
  -27.6674  -13.2012   19.8845 C   0  0  2  0  0  0
  -28.7111  -12.9511   20.9957 C   0  0  0  0  0  0
  -25.2588  -13.8133   20.5589 C   0  0  0  0  0  0
  -24.1848  -13.0428   20.9152 C   0  0  0  0  0  0
  -24.6401  -11.6892   20.8732 C   0  0  0  0  0  0
  -23.9053  -10.4287   21.0411 C   0  0  0  0  0  0
  -24.3605   -9.4203   21.9182 C   0  0  0  0  0  0
  -23.6287   -8.2239   22.0748 C   0  0  0  0  0  0
  -22.4270   -8.0275   21.3543 C   0  0  0  0  0  0
  -21.9905   -9.0243   20.4639 C   0  0  0  0  0  0
  -22.7227  -10.2129   20.3057 C   0  0  0  0  0  0
  -21.6854   -6.0731   22.5277 C   0  0  0  0  0  0
  -21.4009   -6.5633   23.8206 C   0  0  0  0  0  0
  -21.3659   -5.6785   24.9164 C   0  0  0  0  0  0
  -21.6052   -4.3050   24.7218 C   0  0  0  0  0  0
  -21.8818   -3.8145   23.4335 C   0  0  0  0  0  0
  -21.9188   -4.6961   22.3392 C   0  0  0  0  0  0
  -22.7874  -13.5237   21.1820 C   0  0  0  0  0  0
  -22.1664   -4.2150   21.0970 F   0  0  0  0  0  0
  -21.5627   -3.4532   25.7730 F   0  0  0  0  0  0
  -30.0375  -13.3268   20.4612 N   0  0  0  0  0  0
  -26.3055  -12.9294   20.3393 N   0  0  0  0  0  0
  -25.9335  -11.6463   20.5810 N   0  0  0  0  0  0
  -22.0523  -12.8234   22.0387 N   0  0  0  0  0  0
  -25.4264  -15.1835   20.3822 N   0  0  0  0  0  0
  -31.6986  -14.8487   20.0697 O   0  0  0  0  0  0
  -21.6638   -6.8872   21.4239 O   0  0  0  0  0  0
  -22.3550  -14.5541   20.6671 O   0  0  0  0  0  0
  -24.6198  -31.8614   23.2032 C   0  0  0  0  0  0
  -25.9067  -32.4794   23.8357 C   0  0  1  0  0  0
  -27.2393  -27.3658   20.1239 C   0  0  0  0  0  0
  -25.5905  -33.8597   24.2289 N   0  0  0  0  0  0
  -23.4132  -30.4824   21.5426 C   0  0  2  0  0  0
  -24.8647  -28.9339   20.1170 C   0  0  0  0  0  0
  -22.7436  -29.4622   22.4933 C   0  0  0  0  0  0
  -18.0278  -28.1373   22.8487 C   0  0  0  0  0  0
  -24.1481  -36.7294   23.2645 C   0  0  0  0  0  0
  -25.9470  -30.8070   21.3659 C   0  0  0  0  0  0
  -26.0274  -29.4344   20.7159 C   0  0  0  0  0  0
  -27.2195  -28.6618   20.7089 C   0  0  0  0  0  0
  -26.0584  -26.8943   19.5131 C   0  0  0  0  0  0
  -24.8781  -27.6656   19.5092 C   0  0  0  0  0  0
  -23.6291  -29.8093   20.1602 C   0  0  0  0  0  0
  -25.4103  -36.3092   24.0338 C   0  0  1  0  0  0
  -20.5875  -28.3665   23.1285 C   0  0  2  0  0  0
  -20.6764  -26.9391   22.5406 C   0  0  0  0  0  0
  -19.5745  -26.6366   21.5203 C   0  0  0  0  0  0
  -18.1919  -26.7920   22.1608 C   0  0  0  0  0  0
  -19.1535  -28.8837   23.2884 C   0  0  0  0  0  0
  -18.9474  -30.1449   23.8890 C   0  0  0  0  0  0
  -17.6481  -30.6590   24.0569 C   0  0  0  0  0  0
  -25.9031  -34.9464   23.5108 C   0  0  0  0  0  0
  -16.5369  -29.9088   23.6340 C   0  0  0  0  0  0
  -16.7269  -28.6508   23.0346 C   0  0  0  0  0  0
  -26.4480  -31.6615   25.0720 C   0  0  0  0  0  0
  -25.3740  -31.3751   26.1477 C   0  0  0  0  0  0
  -27.0347  -30.3060   24.6147 C   0  0  0  0  0  0
  -27.6032  -32.4377   25.7477 C   0  0  0  0  0  0
  -27.5585  -37.1786   24.8471 C   0  0  0  0  0  0
  -21.4159  -29.3041   22.3693 N   0  0  0  0  0  0
  -26.4283  -37.3785   23.9433 N   0  0  0  0  0  0
  -24.6783  -31.0666   22.0948 N   0  0  0  0  0  0
  -23.4177  -28.8151   23.2995 O   0  0  0  0  0  0
  -28.3871  -26.5798   20.1136 O   0  0  0  0  0  0
  -26.5586  -34.8941   22.4668 O   0  0  0  0  0  0
  -23.5373  -32.1386   23.7380 O   0  0  0  0  0  0
  -29.1641  -19.5562   22.1218 C   0  0  0  0  0  0
  -30.1321  -17.8784   20.6284 C   0  0  0  0  0  0
  -28.8083  -18.5485   23.0427 C   0  0  0  0  0  0
  -29.8117  -19.2521   20.9092 C   0  0  0  0  0  0
  -29.7623  -16.8367   21.5378 C   0  0  0  0  0  0
  -29.0729  -17.1934   22.7221 C   0  0  0  0  0  0
  -29.6259  -22.8752   20.5079 C   0  0  0  0  0  0
  -28.1441  -18.8867   24.3181 C   0  0  0  0  0  0
  -27.5572  -20.0558   24.6303 C   0  0  0  0  0  0
  -27.8397  -23.2603   18.9854 C   0  0  0  0  0  0
  -28.4010  -21.8262   18.8560 C   0  0  0  0  0  0
  -28.8755  -24.0432   19.8043 C   0  0  1  0  0  0
  -26.9151  -20.3451   25.9699 C   0  0  0  0  0  0
  -27.3021  -15.8472   23.4680 C   0  0  0  0  0  0
  -30.2176  -20.4232   19.9736 C   0  0  0  0  0  0
  -28.3022  -25.2299   20.6795 C   0  0  0  0  0  0
  -29.3838  -21.6730   19.9239 N   0  0  0  0  0  0
  -29.9032  -15.4069   21.3713 N   0  0  0  0  0  0
  -30.4157  -23.0596   21.4380 O   0  0  0  0  0  0
  -28.6787  -16.1910   23.5782 O   0  0  0  0  0  0
  -31.4887  -12.5359   19.1099 H   0  0  0  0  0  0
  -30.4208  -11.3523   19.8083 H   0  0  0  0  0  0
  -29.7569  -11.8064   17.4371 H   0  0  0  0  0  0
  -29.6508  -13.5164   17.7648 H   0  0  0  0  0  0
  -27.8454  -11.3142   18.8143 H   0  0  0  0  0  0
  -27.3731  -12.6482   17.7948 H   0  0  0  0  0  0
  -27.7179  -14.2542   19.6059 H   0  0  0  0  0  0
  -28.7144  -11.8964   21.2760 H   0  0  0  0  0  0
  -28.4426  -13.4768   21.9116 H   0  0  0  0  0  0
  -25.2749   -9.5676   22.4754 H   0  0  0  0  0  0
  -23.9992   -7.4630   22.7471 H   0  0  0  0  0  0
  -21.0838   -8.8761   19.8945 H   0  0  0  0  0  0
  -22.3686  -10.9664   19.6169 H   0  0  0  0  0  0
  -21.2006   -7.6141   23.9709 H   0  0  0  0  0  0
  -21.1486   -6.0514   25.9066 H   0  0  0  0  0  0
  -22.0600   -2.7612   23.2832 H   0  0  0  0  0  0
  -22.4131  -11.9896   22.4766 H   0  0  0  0  0  0
  -21.1146  -13.1270   22.2612 H   0  0  0  0  0  0
  -24.6500  -15.8325   20.4488 H   0  0  0  0  0  0
  -26.2673  -15.6099   20.0143 H   0  0  0  0  0  0
  -26.7134  -32.5499   23.1106 H   0  0  0  0  0  0
  -25.0150  -33.9753   25.0502 H   0  0  0  0  0  0
  -22.7061  -31.3014   21.3960 H   0  0  0  0  0  0
  -23.3764  -35.9605   23.3283 H   0  0  0  0  0  0
  -24.3574  -36.8923   22.2067 H   0  0  0  0  0  0
  -23.7197  -37.6473   23.6678 H   0  0  0  0  0  0
  -26.0703  -31.5671   20.5931 H   0  0  0  0  0  0
  -26.8293  -30.8605   21.9922 H   0  0  0  0  0  0
  -28.1175  -29.0441   21.1749 H   0  0  0  0  0  0
  -26.0521  -25.9226   19.0389 H   0  0  0  0  0  0
  -23.9861  -27.2712   19.0425 H   0  0  0  0  0  0
  -23.7458  -30.5828   19.4001 H   0  0  0  0  0  0
  -22.7506  -29.2361   19.8601 H   0  0  0  0  0  0
  -25.1265  -36.1933   25.0820 H   0  0  0  0  0  0
  -20.9988  -28.3241   24.1394 H   0  0  0  0  0  0
  -20.5639  -26.2281   23.3601 H   0  0  0  0  0  0
  -21.6634  -26.7391   22.1221 H   0  0  0  0  0  0
  -19.6905  -25.6271   21.1240 H   0  0  0  0  0  0
  -19.6701  -27.3175   20.6736 H   0  0  0  0  0  0
  -17.4190  -26.6684   21.4007 H   0  0  0  0  0  0
  -18.0316  -26.0045   22.8988 H   0  0  0  0  0  0
  -19.7964  -30.7268   24.2235 H   0  0  0  0  0  0
  -17.5050  -31.6271   24.5171 H   0  0  0  0  0  0
  -15.5380  -30.3004   23.7673 H   0  0  0  0  0  0
  -15.8657  -28.0847   22.7043 H   0  0  0  0  0  0
  -24.5904  -30.7085   25.7846 H   0  0  0  0  0  0
  -24.8951  -32.2926   26.4923 H   0  0  0  0  0  0
  -25.8093  -30.8945   27.0248 H   0  0  0  0  0  0
  -26.2920  -29.6784   24.1216 H   0  0  0  0  0  0
  -27.4138  -29.7333   25.4621 H   0  0  0  0  0  0
  -27.8726  -30.4392   23.9300 H   0  0  0  0  0  0
  -27.2636  -33.3717   26.1978 H   0  0  0  0  0  0
  -28.3872  -32.6878   25.0315 H   0  0  0  0  0  0
  -28.0663  -31.8558   26.5454 H   0  0  0  0  0  0
  -28.2569  -38.0122   24.7563 H   0  0  0  0  0  0
  -28.1108  -36.2647   24.6223 H   0  0  0  0  0  0
  -27.2323  -37.1352   25.8881 H   0  0  0  0  0  0
  -20.9319  -29.8813   21.6962 H   0  0  0  0  0  0
  -26.0166  -38.2846   24.1477 H   0  0  0  0  0  0
  -28.9722  -20.5911   22.3582 H   0  0  0  0  0  0
  -30.6389  -17.6271   19.7068 H   0  0  0  0  0  0
  -28.1558  -18.1121   25.0726 H   0  0  0  0  0  0
  -27.5165  -20.8646   23.9163 H   0  0  0  0  0  0
  -26.8856  -23.2300   19.5122 H   0  0  0  0  0  0
  -27.6574  -23.7152   18.0115 H   0  0  0  0  0  0
  -28.8947  -21.6978   17.8911 H   0  0  0  0  0  0
  -27.6147  -21.0749   18.9330 H   0  0  0  0  0  0
  -29.6156  -24.4659   19.1243 H   0  0  0  0  0  0
  -26.9397  -19.4710   26.6221 H   0  0  0  0  0  0
  -25.8747  -20.6411   25.8338 H   0  0  0  0  0  0
  -27.4424  -21.1596   26.4674 H   0  0  0  0  0  0
  -27.0557  -15.0678   24.1888 H   0  0  0  0  0  0
  -27.0829  -15.4604   22.4746 H   0  0  0  0  0  0
  -26.6429  -16.6949   23.6558 H   0  0  0  0  0  0
  -30.2919  -20.0290   18.9595 H   0  0  0  0  0  0
  -31.2377  -20.7043   20.2407 H   0  0  0  0  0  0
  -28.8638  -25.2712   21.6132 H   0  0  0  0  0  0
  -27.2850  -24.9966   20.9946 H   0  0  0  0  0  0
  -29.2320  -14.9020   21.9297 H   0  0  0  0  0  0
  1 25  1  0  0  0
  1 30  2  0  0  0
  1 88  1  0  0  0
  2  3  1  0  0  0
  2 25  1  0  0  0
  2 91  1  0  0  0
  2 92  1  0  0  0
  3  4  1  0  0  0
  3 93  1  0  0  0
  3 94  1  0  0  0
  4  5  1  0  0  0
  4 95  1  0  0  0
  4 96  1  0  0  0
  5  6  1  0  0  0
  5 26  1  0  0  0
  5 97  1  0  0  0
  6 25  1  0  0  0
  6 98  1  0  0  0
  6 99  1  0  0  0
  7  8  2  0  0  0
  7 26  1  0  0  0
  7 29  1  0  0  0
  8  9  1  0  0  0
  8 22  1  0  0  0
  9 10  1  0  0  0
  9 27  2  0  0  0
 10 11  2  0  0  0
 10 15  1  0  0  0
 11 12  1  0  0  0
 11100  1  0  0  0
 12 13  2  0  0  0
 12101  1  0  0  0
 13 14  1  0  0  0
 13 31  1  0  0  0
 14 15  2  0  0  0
 14102  1  0  0  0
 15103  1  0  0  0
 16 17  2  0  0  0
 16 21  1  0  0  0
 16 31  1  0  0  0
 17 18  1  0  0  0
 17104  1  0  0  0
 18 19  2  0  0  0
 18105  1  0  0  0
 19 20  1  0  0  0
 19 24  1  0  0  0
 20 21  2  0  0  0
 20106  1  0  0  0
 21 23  1  0  0  0
 22 28  1  0  0  0
 22 32  2  0  0  0
 26 27  1  0  0  0
 28107  1  0  0  0
 28108  1  0  0  0
 29109  1  0  0  0
 29110  1  0  0  0
 33 34  1  0  0  0
 33 66  1  0  0  0
 33 70  2  0  0  0
 34 36  1  0  0  0
 34 59  1  0  0  0
 34111  1  0  0  0
 35 44  2  0  0  0
 35 45  1  0  0  0
 35 68  1  0  0  0
 36 56  1  0  0  0
 36112  1  0  0  0
 37 39  1  0  0  0
 37 47  1  0  0  0
 37 66  1  0  0  0
 37113  1  0  0  0
 38 43  2  0  0  0
 38 46  1  0  0  0
 38 47  1  0  0  0
 39 64  1  0  0  0
 39 67  2  0  0  0
 40 52  1  0  0  0
 40 53  2  0  0  0
 40 58  1  0  0  0
 41114  1  0  0  0
 41115  1  0  0  0
 41116  1  0  0  0
 41 48  1  0  0  0
 42 43  1  0  0  0
 42 66  1  0  0  0
 42117  1  0  0  0
 42118  1  0  0  0
 43 44  1  0  0  0
 44119  1  0  0  0
 45 46  2  0  0  0
 45120  1  0  0  0
 46121  1  0  0  0
 47122  1  0  0  0
 47123  1  0  0  0
 48 56  1  0  0  0
 48 65  1  0  0  0
 48124  1  0  0  0
 49 50  1  0  0  0
 49 53  1  0  0  0
 49 64  1  0  0  0
 49125  1  0  0  0
 50 51  1  0  0  0
 50126  1  0  0  0
 50127  1  0  0  0
 51 52  1  0  0  0
 51128  1  0  0  0
 51129  1  0  0  0
 52130  1  0  0  0
 52131  1  0  0  0
 53 54  1  0  0  0
 54 55  2  0  0  0
 54132  1  0  0  0
 55 57  1  0  0  0
 55133  1  0  0  0
 56 69  2  0  0  0
 57 58  2  0  0  0
 57134  1  0  0  0
 58135  1  0  0  0
 59 60  1  0  0  0
 59 61  1  0  0  0
 59 62  1  0  0  0
 60136  1  0  0  0
 60137  1  0  0  0
 60138  1  0  0  0
 61139  1  0  0  0
 61140  1  0  0  0
 61141  1  0  0  0
 62142  1  0  0  0
 62143  1  0  0  0
 62144  1  0  0  0
 63 65  1  0  0  0
 63145  1  0  0  0
 63146  1  0  0  0
 63147  1  0  0  0
 64148  1  0  0  0
 65149  1  0  0  0
 68 86  1  0  0  0
 71 73  2  0  0  0
 71 74  1  0  0  0
 71150  1  0  0  0
 72 74  2  0  0  0
 72 75  1  0  0  0
 72151  1  0  0  0
 73 76  1  0  0  0
 73 78  1  0  0  0
 74 85  1  0  0  0
 75 76  2  0  0  0
 75 88  1  0  0  0
 76 90  1  0  0  0
 77 82  1  0  0  0
 77 87  1  0  0  0
 77 89  2  0  0  0
 78 79  2  0  0  0
 78152  1  0  0  0
 79 83  1  0  0  0
 79153  1  0  0  0
 80 81  1  0  0  0
 80 82  1  0  0  0
 80154  1  0  0  0
 80155  1  0  0  0
 81 87  1  0  0  0
 81156  1  0  0  0
 81157  1  0  0  0
 82 86  1  0  0  0
 82158  1  0  0  0
 83159  1  0  0  0
 83160  1  0  0  0
 83161  1  0  0  0
 84 90  1  0  0  0
 84162  1  0  0  0
 84163  1  0  0  0
 84164  1  0  0  0
 85 87  1  0  0  0
 85165  1  0  0  0
 85166  1  0  0  0
 86167  1  0  0  0
 86168  1  0  0  0
 88169  1  0  0  0
M  ISO  4   1 100  68 101  86 101  88 100
M  END
> <chiral flag>
0

> <version>
0

> <s_m_source_file>
/data/baiqing/PycharmProjects/Reinvent-master-3.2/result/LINK_invent/BTK/process_docking_weight1_custom_product_contain_oxygen_bond_distance_aromatic_linkinvent_7_9_3/rearranged_h_0107.sdf

> <i_m_source_file_index>
29

> <r_mmod_Potential_Energy-OPLS-2005>
71.8852157592773

> <r_mmod_Stretch_Energy-OPLS-2005>
61.9893226623535

> <r_mmod_Bend_Energy-OPLS-2005>
172.656112670898

> <r_mmod_Torsional_Energy-OPLS-2005>
298.173522949219

> <r_mmod_Improper_Torsional_Energy-OPLS-2005>
4.35723638534546

> <r_mmod_Van_der_Waal_Energy-OPLS-2005>
135.939865112305

> <r_mmod_Electrostatic_Energy-OPLS-2005>
-404.646545410156

> <r_mmod_Solvation_Energy-OPLS-2005>
-224.8779296875

> <b_mmod_Minimization_Converged-OPLS-2005>
0

> <r_mmod_RMS_Derivative-OPLS-2005>
1.7720228433609

$$$$
29
                    3D
 Structure written by MMmdl.
161169  0  0  1  0            999 V2000
  -30.7159  -14.5380   20.6344 C   0  0  0  0  0  0
  -30.4294  -12.3790   19.4358 C   0  0  0  0  0  0
  -29.4950  -12.5512   18.2211 C   0  0  0  0  0  0
  -28.0201  -12.3878   18.6354 C   0  0  0  0  0  0
  -27.6625  -13.2201   19.8972 C   0  0  2  0  0  0
  -28.7120  -12.9979   21.0127 C   0  0  0  0  0  0
  -25.2487  -13.8128   20.5649 C   0  0  0  0  0  0
  -24.1760  -13.0381   20.9097 C   0  0  0  0  0  0
  -24.6382  -11.6874   20.8720 C   0  0  0  0  0  0
  -23.9063  -10.4258   21.0389 C   0  0  0  0  0  0
  -24.3616   -9.4180   21.9176 C   0  0  0  0  0  0
  -23.6285   -8.2220   22.0751 C   0  0  0  0  0  0
  -22.4262   -8.0264   21.3541 C   0  0  0  0  0  0
  -21.9903   -9.0231   20.4635 C   0  0  0  0  0  0
  -22.7238  -10.2103   20.3037 C   0  0  0  0  0  0
  -21.6842   -6.0730   22.5283 C   0  0  0  0  0  0
  -21.4007   -6.5632   23.8217 C   0  0  0  0  0  0
  -21.3667   -5.6785   24.9179 C   0  0  0  0  0  0
  -21.6046   -4.3050   24.7227 C   0  0  0  0  0  0
  -21.8816   -3.8139   23.4345 C   0  0  0  0  0  0
  -21.9186   -4.6957   22.3402 C   0  0  0  0  0  0
  -22.7792  -13.5175   21.1813 C   0  0  0  0  0  0
  -22.1654   -4.2150   21.0979 F   0  0  0  0  0  0
  -21.5637   -3.4529   25.7737 F   0  0  0  0  0  0
  -30.0333  -13.3566   20.4712 N   0  0  0  0  0  0
  -26.3030  -12.9367   20.3537 N   0  0  0  0  0  0
  -25.9339  -11.6498   20.5857 N   0  0  0  0  0  0
  -22.0463  -12.8179   22.0408 N   0  0  0  0  0  0
  -25.4100  -15.1832   20.4076 N   0  0  0  0  0  0
  -31.7454  -14.7844   19.9961 O   0  0  0  0  0  0
  -21.6623   -6.8868   21.4243 O   0  0  0  0  0  0
  -22.3477  -14.5510   20.6720 O   0  0  0  0  0  0
  -24.6224  -31.8610   23.2038 C   0  0  0  0  0  0
  -25.9089  -32.4783   23.8344 C   0  0  1  0  0  0
  -27.2347  -27.3632   20.1068 C   0  0  0  0  0  0
  -25.5927  -33.8590   24.2272 N   0  0  0  0  0  0
  -23.4131  -30.4847   21.5454 C   0  0  2  0  0  0
  -24.8589  -28.9422   20.1118 C   0  0  0  0  0  0
  -22.7449  -29.4630   22.4948 C   0  0  0  0  0  0
  -18.0282  -28.1369   22.8480 C   0  0  0  0  0  0
  -24.1492  -36.7304   23.2632 C   0  0  0  0  0  0
  -25.9494  -30.8059   21.3658 C   0  0  0  0  0  0
  -26.0254  -29.4372   20.7082 C   0  0  0  0  0  0
  -27.2156  -28.6605   20.6917 C   0  0  0  0  0  0
  -26.0413  -26.9032   19.5003 C   0  0  0  0  0  0
  -24.8666  -27.6788   19.4997 C   0  0  0  0  0  0
  -23.6238  -29.8160   20.1612 C   0  0  0  0  0  0
  -25.4111  -36.3087   24.0318 C   0  0  1  0  0  0
  -20.5881  -28.3675   23.1284 C   0  0  2  0  0  0
  -20.6771  -26.9402   22.5406 C   0  0  0  0  0  0
  -19.5754  -26.6375   21.5206 C   0  0  0  0  0  0
  -18.1932  -26.7908   22.1614 C   0  0  0  0  0  0
  -19.1536  -28.8842   23.2875 C   0  0  0  0  0  0
  -18.9460  -30.1450   23.8880 C   0  0  0  0  0  0
  -17.6458  -30.6572   24.0577 C   0  0  0  0  0  0
  -25.9053  -34.9459   23.5088 C   0  0  0  0  0  0
  -16.5352  -29.9074   23.6335 C   0  0  0  0  0  0
  -16.7269  -28.6497   23.0335 C   0  0  0  0  0  0
  -26.4480  -31.6587   25.0705 C   0  0  0  0  0  0
  -25.3721  -31.3738   26.1445 C   0  0  0  0  0  0
  -27.0311  -30.3008   24.6156 C   0  0  0  0  0  0
  -27.6053  -32.4304   25.7468 C   0  0  0  0  0  0
  -27.5582  -37.1793   24.8454 C   0  0  0  0  0  0
  -21.4170  -29.3040   22.3691 N   0  0  0  0  0  0
  -26.4288  -37.3786   23.9414 N   0  0  0  0  0  0
  -24.6802  -31.0667   22.0955 N   0  0  0  0  0  0
  -23.4195  -28.8163   23.2998 O   0  0  0  0  0  0
  -28.3840  -26.5715   20.1350 O   0  0  0  0  0  0
  -26.5619  -34.8928   22.4653 O   0  0  0  0  0  0
  -23.5401  -32.1376   23.7397 O   0  0  0  0  0  0
  -30.1244  -17.9927   20.9735 C   0  0  0  0  0  0
  -27.4428  -18.0995   21.6908 C   0  0  0  0  0  0
  -29.5181  -16.7890   21.4623 C   0  0  0  0  0  0
  -28.1510  -16.8914   21.8404 C   0  0  0  0  0  0
  -29.4301  -19.2461   20.8601 C   0  0  0  0  0  0
  -28.0576  -19.2869   21.2252 C   0  0  0  0  0  0
  -30.3041  -15.5121   21.7639 C   0  0  0  0  0  0
  -26.0719  -20.5789   21.7192 C   0  0  0  0  0  0
  -29.5285  -24.2989   20.4343 C   0  0  0  0  0  0
  -29.4201  -22.8031   20.9467 C   0  0  0  0  0  0
  -28.2191  -25.1150   20.1420 C   0  0  0  0  0  0
  -29.5838  -21.6104   19.9332 C   0  0  0  0  0  0
  -30.6474  -15.2556   22.9605 N   0  0  0  0  0  0
  -27.4549  -15.8358   22.4351 N   0  0  0  0  0  0
  -27.3754  -20.4844   21.1576 O   0  0  0  0  0  0
  -30.1629  -20.3769   20.4693 O   0  0  0  0  0  0
  -31.4701  -12.4965   19.1302 H   0  0  0  0  0  0
  -30.3591  -11.3654   19.8329 H   0  0  0  0  0  0
  -29.7500  -11.8296   17.4442 H   0  0  0  0  0  0
  -29.6432  -13.5400   17.7840 H   0  0  0  0  0  0
  -27.8460  -11.3288   18.8297 H   0  0  0  0  0  0
  -27.3639  -12.6575   17.8071 H   0  0  0  0  0  0
  -27.7005  -14.2725   19.6131 H   0  0  0  0  0  0
  -28.7128  -11.9505   21.3176 H   0  0  0  0  0  0
  -28.4616  -13.5462   21.9152 H   0  0  0  0  0  0
  -25.2761   -9.5652   22.4751 H   0  0  0  0  0  0
  -23.9990   -7.4606   22.7468 H   0  0  0  0  0  0
  -21.0838   -8.8743   19.8936 H   0  0  0  0  0  0
  -22.3704  -10.9636   19.6137 H   0  0  0  0  0  0
  -21.1989   -7.6138   23.9725 H   0  0  0  0  0  0
  -21.1504   -6.0512   25.9089 H   0  0  0  0  0  0
  -22.0590   -2.7603   23.2839 H   0  0  0  0  0  0
  -22.4077  -11.9832   22.4787 H   0  0  0  0  0  0
  -21.1104  -13.1229   22.2681 H   0  0  0  0  0  0
  -24.6252  -15.7395   20.7251 H   0  0  0  0  0  0
  -26.2798  -15.5164   20.8293 H   0  0  0  0  0  0
  -26.7151  -32.5469   23.1093 H   0  0  0  0  0  0
  -25.0103  -33.9736   25.0435 H   0  0  0  0  0  0
  -22.7050  -31.3039   21.4030 H   0  0  0  0  0  0
  -23.3754  -35.9640   23.3284 H   0  0  0  0  0  0
  -24.3586  -36.8929   22.2049 H   0  0  0  0  0  0
  -23.7239  -37.6500   23.6655 H   0  0  0  0  0  0
  -26.0733  -31.5706   20.5980 H   0  0  0  0  0  0
  -26.8320  -30.8529   21.9930 H   0  0  0  0  0  0
  -28.1146  -29.0419   21.1559 H   0  0  0  0  0  0
  -25.9959  -25.9382   19.0199 H   0  0  0  0  0  0
  -23.9719  -27.2918   19.0301 H   0  0  0  0  0  0
  -23.7316  -30.5897   19.3999 H   0  0  0  0  0  0
  -22.7455  -29.2392   19.8664 H   0  0  0  0  0  0
  -25.1281  -36.1938   25.0806 H   0  0  0  0  0  0
  -20.9970  -28.3242   24.1403 H   0  0  0  0  0  0
  -20.5667  -26.2281   23.3596 H   0  0  0  0  0  0
  -21.6638  -26.7420   22.1210 H   0  0  0  0  0  0
  -19.6930  -25.6291   21.1223 H   0  0  0  0  0  0
  -19.6700  -27.3201   20.6752 H   0  0  0  0  0  0
  -17.4205  -26.6662   21.4014 H   0  0  0  0  0  0
  -18.0333  -26.0035   22.8992 H   0  0  0  0  0  0
  -19.7946  -30.7282   24.2207 H   0  0  0  0  0  0
  -17.5022  -31.6247   24.5192 H   0  0  0  0  0  0
  -15.5355  -30.2981   23.7664 H   0  0  0  0  0  0
  -15.8664  -28.0840   22.7015 H   0  0  0  0  0  0
  -24.5928  -30.7030   25.7809 H   0  0  0  0  0  0
  -24.8879  -32.2910   26.4818 H   0  0  0  0  0  0
  -25.8057  -30.8987   27.0257 H   0  0  0  0  0  0
  -26.2878  -29.6774   24.1176 H   0  0  0  0  0  0
  -27.3990  -29.7253   25.4665 H   0  0  0  0  0  0
  -27.8754  -30.4271   23.9369 H   0  0  0  0  0  0
  -27.2673  -33.3612   26.2036 H   0  0  0  0  0  0
  -28.3872  -32.6843   25.0294 H   0  0  0  0  0  0
  -28.0715  -31.8429   26.5391 H   0  0  0  0  0  0
  -28.2582  -38.0115   24.7529 H   0  0  0  0  0  0
  -28.1082  -36.2636   24.6222 H   0  0  0  0  0  0
  -27.2298  -37.1380   25.8858 H   0  0  0  0  0  0
  -20.9334  -29.8774   21.6923 H   0  0  0  0  0  0
  -26.0165  -38.2849   24.1458 H   0  0  0  0  0  0
  -31.1760  -17.9683   20.7266 H   0  0  0  0  0  0
  -26.4065  -18.1058   21.9925 H   0  0  0  0  0  0
  -25.7194  -21.6073   21.6349 H   0  0  0  0  0  0
  -26.0763  -20.3223   22.7796 H   0  0  0  0  0  0
  -25.3562  -19.9457   21.1934 H   0  0  0  0  0  0
  -30.1991  -24.3572   19.5761 H   0  0  0  0  0  0
  -30.0457  -24.8472   21.2228 H   0  0  0  0  0  0
  -28.5154  -22.6828   21.5421 H   0  0  0  0  0  0
  -30.2317  -22.6775   21.6637 H   0  0  0  0  0  0
  -27.4742  -24.8605   20.8979 H   0  0  0  0  0  0
  -27.8257  -24.7821   19.1814 H   0  0  0  0  0  0
  -30.3022  -21.9317   19.1781 H   0  0  0  0  0  0
  -28.6709  -21.4270   19.3661 H   0  0  0  0  0  0
  -30.3346  -15.9829   23.5930 H   0  0  0  0  0  0
  -26.6141  -16.0726   22.9515 H   0  0  0  0  0  0
  -28.0072  -15.1549   22.9461 H   0  0  0  0  0  0
  1 25  1  0  0  0
  1 30  2  0  0  0
  1 77  1  0  0  0
  2  3  1  0  0  0
  2 25  1  0  0  0
  2 87  1  0  0  0
  2 88  1  0  0  0
  3  4  1  0  0  0
  3 89  1  0  0  0
  3 90  1  0  0  0
  4  5  1  0  0  0
  4 91  1  0  0  0
  4 92  1  0  0  0
  5  6  1  0  0  0
  5 26  1  0  0  0
  5 93  1  0  0  0
  6 25  1  0  0  0
  6 94  1  0  0  0
  6 95  1  0  0  0
  7  8  2  0  0  0
  7 26  1  0  0  0
  7 29  1  0  0  0
  8  9  1  0  0  0
  8 22  1  0  0  0
  9 10  1  0  0  0
  9 27  2  0  0  0
 10 11  2  0  0  0
 10 15  1  0  0  0
 11 12  1  0  0  0
 11 96  1  0  0  0
 12 13  2  0  0  0
 12 97  1  0  0  0
 13 14  1  0  0  0
 13 31  1  0  0  0
 14 15  2  0  0  0
 14 98  1  0  0  0
 15 99  1  0  0  0
 16 17  2  0  0  0
 16 21  1  0  0  0
 16 31  1  0  0  0
 17 18  1  0  0  0
 17100  1  0  0  0
 18 19  2  0  0  0
 18101  1  0  0  0
 19 20  1  0  0  0
 19 24  1  0  0  0
 20 21  2  0  0  0
 20102  1  0  0  0
 21 23  1  0  0  0
 22 28  1  0  0  0
 22 32  2  0  0  0
 26 27  1  0  0  0
 28103  1  0  0  0
 28104  1  0  0  0
 29105  1  0  0  0
 29106  1  0  0  0
 33 34  1  0  0  0
 33 66  1  0  0  0
 33 70  2  0  0  0
 34 36  1  0  0  0
 34 59  1  0  0  0
 34107  1  0  0  0
 35 44  2  0  0  0
 35 45  1  0  0  0
 35 68  1  0  0  0
 36 56  1  0  0  0
 36108  1  0  0  0
 37 39  1  0  0  0
 37 47  1  0  0  0
 37 66  1  0  0  0
 37109  1  0  0  0
 38 43  2  0  0  0
 38 46  1  0  0  0
 38 47  1  0  0  0
 39 64  1  0  0  0
 39 67  2  0  0  0
 40 52  1  0  0  0
 40 53  2  0  0  0
 40 58  1  0  0  0
 41110  1  0  0  0
 41111  1  0  0  0
 41112  1  0  0  0
 41 48  1  0  0  0
 42 43  1  0  0  0
 42 66  1  0  0  0
 42113  1  0  0  0
 42114  1  0  0  0
 43 44  1  0  0  0
 44115  1  0  0  0
 45 46  2  0  0  0
 45116  1  0  0  0
 46117  1  0  0  0
 47118  1  0  0  0
 47119  1  0  0  0
 48 56  1  0  0  0
 48 65  1  0  0  0
 48120  1  0  0  0
 49 50  1  0  0  0
 49 53  1  0  0  0
 49 64  1  0  0  0
 49121  1  0  0  0
 50 51  1  0  0  0
 50122  1  0  0  0
 50123  1  0  0  0
 51 52  1  0  0  0
 51124  1  0  0  0
 51125  1  0  0  0
 52126  1  0  0  0
 52127  1  0  0  0
 53 54  1  0  0  0
 54 55  2  0  0  0
 54128  1  0  0  0
 55 57  1  0  0  0
 55129  1  0  0  0
 56 69  2  0  0  0
 57 58  2  0  0  0
 57130  1  0  0  0
 58131  1  0  0  0
 59 60  1  0  0  0
 59 61  1  0  0  0
 59 62  1  0  0  0
 60132  1  0  0  0
 60133  1  0  0  0
 60134  1  0  0  0
 61135  1  0  0  0
 61136  1  0  0  0
 61137  1  0  0  0
 62138  1  0  0  0
 62139  1  0  0  0
 62140  1  0  0  0
 63 65  1  0  0  0
 63141  1  0  0  0
 63142  1  0  0  0
 63143  1  0  0  0
 64144  1  0  0  0
 65145  1  0  0  0
 68 81  1  0  0  0
 71 73  2  0  0  0
 71 75  1  0  0  0
 71146  1  0  0  0
 72 74  2  0  0  0
 72 76  1  0  0  0
 72147  1  0  0  0
 73 74  1  0  0  0
 73 77  1  0  0  0
 74 84  1  0  0  0
 75 76  2  0  0  0
 75 86  1  0  0  0
 76 85  1  0  0  0
 77 83  2  0  0  0
 78 85  1  0  0  0
 78148  1  0  0  0
 78149  1  0  0  0
 78150  1  0  0  0
 79 80  1  0  0  0
 79 81  1  0  0  0
 79151  1  0  0  0
 79152  1  0  0  0
 80 82  1  0  0  0
 80153  1  0  0  0
 80154  1  0  0  0
 81155  1  0  0  0
 81156  1  0  0  0
 82 86  1  0  0  0
 82157  1  0  0  0
 82158  1  0  0  0
 83159  1  0  0  0
 84160  1  0  0  0
 84161  1  0  0  0
M  ISO  4   1 100  68 101  77 100  81 101
M  END
> <chiral flag>
0

> <version>
0

> <s_m_source_file>
/data/baiqing/PycharmProjects/Reinvent-master-3.2/result/LINK_invent/BTK/process_docking_weight1_custom_product_contain_oxygen_bond_distance_aromatic_linkinvent_7_9_3/rearranged_h_0107.sdf

> <i_m_source_file_index>
30

> <r_mmod_Potential_Energy-OPLS-2005>
254.016510009766

> <r_mmod_Stretch_Energy-OPLS-2005>
72.3423614501953

> <r_mmod_Bend_Energy-OPLS-2005>
154.101715087891

> <r_mmod_Torsional_Energy-OPLS-2005>
264.275787353516

> <r_mmod_Improper_Torsional_Energy-OPLS-2005>
13.9990568161011

> <r_mmod_Van_der_Waal_Energy-OPLS-2005>
156.436737060547

> <r_mmod_Electrostatic_Energy-OPLS-2005>
-224.066528320312

> <r_mmod_Solvation_Energy-OPLS-2005>
-208.73323059082

> <b_mmod_Minimization_Converged-OPLS-2005>
0

> <r_mmod_RMS_Derivative-OPLS-2005>
1.66524374485016

$$$$
30
                    3D
 Structure written by MMmdl.
155163  0  0  1  0            999 V2000
  -30.7218  -14.6449   20.4859 C   0  0  0  0  0  0
  -30.4058  -12.4014   19.4634 C   0  0  0  0  0  0
  -29.4945  -12.4946   18.2253 C   0  0  0  0  0  0
  -28.0224  -12.3363   18.6436 C   0  0  0  0  0  0
  -27.6409  -13.2375   19.8493 C   0  0  2  0  0  0
  -28.6899  -13.1804   20.9831 C   0  0  0  0  0  0
  -25.2510  -13.8221   20.5724 C   0  0  0  0  0  0
  -24.1804  -13.0455   20.9219 C   0  0  0  0  0  0
  -24.6403  -11.6934   20.8764 C   0  0  0  0  0  0
  -23.9084  -10.4302   21.0414 C   0  0  0  0  0  0
  -24.3632   -9.4213   21.9187 C   0  0  0  0  0  0
  -23.6302   -8.2249   22.0756 C   0  0  0  0  0  0
  -22.4283   -8.0290   21.3546 C   0  0  0  0  0  0
  -21.9923   -9.0268   20.4651 C   0  0  0  0  0  0
  -22.7258  -10.2144   20.3062 C   0  0  0  0  0  0
  -21.6855   -6.0743   22.5279 C   0  0  0  0  0  0
  -21.4016   -6.5646   23.8213 C   0  0  0  0  0  0
  -21.3659   -5.6795   24.9174 C   0  0  0  0  0  0
  -21.6043   -4.3057   24.7224 C   0  0  0  0  0  0
  -21.8818   -3.8153   23.4345 C   0  0  0  0  0  0
  -21.9193   -4.6970   22.3403 C   0  0  0  0  0  0
  -22.7823  -13.5230   21.1865 C   0  0  0  0  0  0
  -22.1661   -4.2156   21.0981 F   0  0  0  0  0  0
  -21.5628   -3.4540   25.7738 F   0  0  0  0  0  0
  -29.9971  -13.4817   20.3897 N   0  0  0  0  0  0
  -26.2945  -12.9443   20.3313 N   0  0  0  0  0  0
  -25.9337  -11.6579   20.5776 N   0  0  0  0  0  0
  -22.0466  -12.8220   22.0420 N   0  0  0  0  0  0
  -25.4193  -15.1947   20.4159 N   0  0  0  0  0  0
  -31.9087  -14.6164   20.1542 O   0  0  0  0  0  0
  -21.6643   -6.8890   21.4244 O   0  0  0  0  0  0
  -22.3507  -14.5533   20.6708 O   0  0  0  0  0  0
  -24.6270  -31.8607   23.2041 C   0  0  0  0  0  0
  -25.9117  -32.4778   23.8364 C   0  0  1  0  0  0
  -27.2069  -27.3051   20.1196 C   0  0  0  0  0  0
  -25.5937  -33.8578   24.2292 N   0  0  0  0  0  0
  -23.4196  -30.4882   21.5474 C   0  0  2  0  0  0
  -24.8633  -28.9497   20.1073 C   0  0  0  0  0  0
  -22.7480  -29.4637   22.4933 C   0  0  0  0  0  0
  -18.0291  -28.1391   22.8486 C   0  0  0  0  0  0
  -24.1493  -36.7301   23.2633 C   0  0  0  0  0  0
  -25.9632  -30.7881   21.3778 C   0  0  0  0  0  0
  -26.0348  -29.4158   20.7183 C   0  0  0  0  0  0
  -27.2106  -28.6048   20.7175 C   0  0  0  0  0  0
  -26.0151  -26.9092   19.4655 C   0  0  0  0  0  0
  -24.8567  -27.7025   19.4706 C   0  0  0  0  0  0
  -23.6331  -29.8307   20.1602 C   0  0  0  0  0  0
  -25.4112  -36.3083   24.0327 C   0  0  1  0  0  0
  -20.5893  -28.3697   23.1282 C   0  0  2  0  0  0
  -20.6782  -26.9422   22.5409 C   0  0  0  0  0  0
  -19.5761  -26.6397   21.5208 C   0  0  0  0  0  0
  -18.1937  -26.7937   22.1614 C   0  0  0  0  0  0
  -19.1544  -28.8860   23.2879 C   0  0  0  0  0  0
  -18.9462  -30.1457   23.8903 C   0  0  0  0  0  0
  -17.6463  -30.6589   24.0569 C   0  0  0  0  0  0
  -25.9052  -34.9451   23.5110 C   0  0  0  0  0  0
  -16.5354  -29.9092   23.6330 C   0  0  0  0  0  0
  -16.7277  -28.6508   23.0350 C   0  0  0  0  0  0
  -26.4496  -31.6579   25.0731 C   0  0  0  0  0  0
  -25.3729  -31.3739   26.1464 C   0  0  0  0  0  0
  -27.0303  -30.2982   24.6193 C   0  0  0  0  0  0
  -27.6086  -32.4287   25.7481 C   0  0  0  0  0  0
  -27.5582  -37.1797   24.8460 C   0  0  0  0  0  0
  -21.4196  -29.3046   22.3670 N   0  0  0  0  0  0
  -26.4292  -37.3775   23.9407 N   0  0  0  0  0  0
  -24.6889  -31.0620   22.0995 N   0  0  0  0  0  0
  -23.4209  -28.8168   23.3004 O   0  0  0  0  0  0
  -28.2950  -26.4150   20.1993 O   0  0  0  0  0  0
  -26.5623  -34.8917   22.4676 O   0  0  0  0  0  0
  -23.5433  -32.1415   23.7360 O   0  0  0  0  0  0
  -28.8258  -18.7172   20.0250 C   0  0  0  0  0  0
  -30.5698  -19.5732   21.4294 C   0  0  0  0  0  0
  -29.9737  -18.4389   20.8056 C   0  0  0  0  0  0
  -28.3258  -20.0522   19.8741 C   0  0  0  0  0  0
  -30.0936  -20.9070   21.2736 C   0  0  0  0  0  0
  -28.9520  -21.1941   20.4685 C   0  0  0  0  0  0
  -30.7003  -17.0740   20.8605 C   0  0  0  0  0  0
  -27.0902  -20.2616   19.0176 C   0  0  0  0  0  0
  -27.9925  -24.9679   20.0211 C   0  0  0  0  0  0
  -28.9469  -23.7903   20.5091 C   0  0  0  0  0  0
  -30.7889  -21.9127   21.9406 N   0  0  0  0  0  0
  -30.0789  -15.8471   20.7228 N   0  0  0  0  0  0
  -31.9157  -17.1581   21.0787 O   0  0  0  0  0  0
  -28.3735  -22.4654   20.2164 O   0  0  0  0  0  0
  -31.4519  -12.4648   19.1588 H   0  0  0  0  0  0
  -30.3008  -11.4291   19.9474 H   0  0  0  0  0  0
  -29.7621  -11.7255   17.4997 H   0  0  0  0  0  0
  -29.6390  -13.4540   17.7255 H   0  0  0  0  0  0
  -27.8699  -11.2881   18.9030 H   0  0  0  0  0  0
  -27.3643  -12.5380   17.7979 H   0  0  0  0  0  0
  -27.6346  -14.2586   19.4674 H   0  0  0  0  0  0
  -28.7045  -12.1962   21.4534 H   0  0  0  0  0  0
  -28.4442  -13.8946   21.7709 H   0  0  0  0  0  0
  -25.2775   -9.5683   22.4766 H   0  0  0  0  0  0
  -24.0009   -7.4640   22.7475 H   0  0  0  0  0  0
  -21.0854   -8.8798   19.8958 H   0  0  0  0  0  0
  -22.3720  -10.9690   19.6178 H   0  0  0  0  0  0
  -21.2008   -7.6152   23.9720 H   0  0  0  0  0  0
  -21.1481   -6.0525   25.9079 H   0  0  0  0  0  0
  -22.0595   -2.7614   23.2843 H   0  0  0  0  0  0
  -22.4084  -11.9882   22.4808 H   0  0  0  0  0  0
  -21.1083  -13.1244   22.2621 H   0  0  0  0  0  0
  -24.6526  -15.8481   20.5328 H   0  0  0  0  0  0
  -26.2690  -15.6373   20.0919 H   0  0  0  0  0  0
  -26.7182  -32.5447   23.1111 H   0  0  0  0  0  0
  -25.0069  -33.9722   25.0424 H   0  0  0  0  0  0
  -22.7129  -31.3089   21.4081 H   0  0  0  0  0  0
  -23.3754  -35.9634   23.3285 H   0  0  0  0  0  0
  -24.3589  -36.8936   22.2051 H   0  0  0  0  0  0
  -23.7249  -37.6499   23.6666 H   0  0  0  0  0  0
  -26.0951  -31.5502   20.6085 H   0  0  0  0  0  0
  -26.8438  -30.8364   22.0067 H   0  0  0  0  0  0
  -28.1046  -28.9510   21.2172 H   0  0  0  0  0  0
  -25.9351  -25.9623   18.9536 H   0  0  0  0  0  0
  -23.9612  -27.3435   18.9820 H   0  0  0  0  0  0
  -23.7521  -30.6111   19.4076 H   0  0  0  0  0  0
  -22.7518  -29.2626   19.8563 H   0  0  0  0  0  0
  -25.1286  -36.1936   25.0819 H   0  0  0  0  0  0
  -20.9978  -28.3279   24.1406 H   0  0  0  0  0  0
  -20.5684  -26.2310   23.3609 H   0  0  0  0  0  0
  -21.6650  -26.7455   22.1203 H   0  0  0  0  0  0
  -19.6926  -25.6311   21.1233 H   0  0  0  0  0  0
  -19.6703  -27.3211   20.6742 H   0  0  0  0  0  0
  -17.4209  -26.6694   21.4013 H   0  0  0  0  0  0
  -18.0329  -26.0072   22.9004 H   0  0  0  0  0  0
  -19.7939  -30.7269   24.2286 H   0  0  0  0  0  0
  -17.5019  -31.6270   24.5174 H   0  0  0  0  0  0
  -15.5357  -30.2995   23.7654 H   0  0  0  0  0  0
  -15.8677  -28.0831   22.7065 H   0  0  0  0  0  0
  -24.5967  -30.6988   25.7837 H   0  0  0  0  0  0
  -24.8831  -32.2895   26.4787 H   0  0  0  0  0  0
  -25.8065  -30.9041   27.0301 H   0  0  0  0  0  0
  -26.2857  -29.6753   24.1217 H   0  0  0  0  0  0
  -27.3974  -29.7225   25.4699 H   0  0  0  0  0  0
  -27.8755  -30.4236   23.9421 H   0  0  0  0  0  0
  -27.2751  -33.3620   26.2033 H   0  0  0  0  0  0
  -28.3908  -32.6779   25.0297 H   0  0  0  0  0  0
  -28.0738  -31.8410   26.5410 H   0  0  0  0  0  0
  -28.2603  -38.0089   24.7491 H   0  0  0  0  0  0
  -28.1075  -36.2619   24.6295 H   0  0  0  0  0  0
  -27.2307  -37.1459   25.8867 H   0  0  0  0  0  0
  -20.9377  -29.8777   21.6886 H   0  0  0  0  0  0
  -26.0180  -38.2853   24.1407 H   0  0  0  0  0  0
  -28.3420  -17.9033   19.5021 H   0  0  0  0  0  0
  -31.4586  -19.4166   22.0249 H   0  0  0  0  0  0
  -26.6083  -19.3161   18.7672 H   0  0  0  0  0  0
  -27.3556  -20.7646   18.0879 H   0  0  0  0  0  0
  -26.3587  -20.8771   19.5417 H   0  0  0  0  0  0
  -27.0448  -24.7650   20.5229 H   0  0  0  0  0  0
  -27.8201  -24.8058   18.9568 H   0  0  0  0  0  0
  -29.0934  -23.8962   21.5833 H   0  0  0  0  0  0
  -29.9212  -23.8794   20.0278 H   0  0  0  0  0  0
  -31.3960  -21.6436   22.7077 H   0  0  0  0  0  0
  -30.2952  -22.7775   22.1232 H   0  0  0  0  0  0
  -29.0744  -15.8399   20.7496 H   0  0  0  0  0  0
  1 25  1  0  0  0
  1 30  2  0  0  0
  1 82  1  0  0  0
  2  3  1  0  0  0
  2 25  1  0  0  0
  2 85  1  0  0  0
  2 86  1  0  0  0
  3  4  1  0  0  0
  3 87  1  0  0  0
  3 88  1  0  0  0
  4  5  1  0  0  0
  4 89  1  0  0  0
  4 90  1  0  0  0
  5  6  1  0  0  0
  5 26  1  0  0  0
  5 91  1  0  0  0
  6 25  1  0  0  0
  6 92  1  0  0  0
  6 93  1  0  0  0
  7  8  2  0  0  0
  7 26  1  0  0  0
  7 29  1  0  0  0
  8  9  1  0  0  0
  8 22  1  0  0  0
  9 10  1  0  0  0
  9 27  2  0  0  0
 10 11  2  0  0  0
 10 15  1  0  0  0
 11 12  1  0  0  0
 11 94  1  0  0  0
 12 13  2  0  0  0
 12 95  1  0  0  0
 13 14  1  0  0  0
 13 31  1  0  0  0
 14 15  2  0  0  0
 14 96  1  0  0  0
 15 97  1  0  0  0
 16 17  2  0  0  0
 16 21  1  0  0  0
 16 31  1  0  0  0
 17 18  1  0  0  0
 17 98  1  0  0  0
 18 19  2  0  0  0
 18 99  1  0  0  0
 19 20  1  0  0  0
 19 24  1  0  0  0
 20 21  2  0  0  0
 20100  1  0  0  0
 21 23  1  0  0  0
 22 28  1  0  0  0
 22 32  2  0  0  0
 26 27  1  0  0  0
 28101  1  0  0  0
 28102  1  0  0  0
 29103  1  0  0  0
 29104  1  0  0  0
 33 34  1  0  0  0
 33 66  1  0  0  0
 33 70  2  0  0  0
 34 36  1  0  0  0
 34 59  1  0  0  0
 34105  1  0  0  0
 35 44  2  0  0  0
 35 45  1  0  0  0
 35 68  1  0  0  0
 36 56  1  0  0  0
 36106  1  0  0  0
 37 39  1  0  0  0
 37 47  1  0  0  0
 37 66  1  0  0  0
 37107  1  0  0  0
 38 43  2  0  0  0
 38 46  1  0  0  0
 38 47  1  0  0  0
 39 64  1  0  0  0
 39 67  2  0  0  0
 40 52  1  0  0  0
 40 53  2  0  0  0
 40 58  1  0  0  0
 41108  1  0  0  0
 41109  1  0  0  0
 41110  1  0  0  0
 41 48  1  0  0  0
 42 43  1  0  0  0
 42 66  1  0  0  0
 42111  1  0  0  0
 42112  1  0  0  0
 43 44  1  0  0  0
 44113  1  0  0  0
 45 46  2  0  0  0
 45114  1  0  0  0
 46115  1  0  0  0
 47116  1  0  0  0
 47117  1  0  0  0
 48 56  1  0  0  0
 48 65  1  0  0  0
 48118  1  0  0  0
 49 50  1  0  0  0
 49 53  1  0  0  0
 49 64  1  0  0  0
 49119  1  0  0  0
 50 51  1  0  0  0
 50120  1  0  0  0
 50121  1  0  0  0
 51 52  1  0  0  0
 51122  1  0  0  0
 51123  1  0  0  0
 52124  1  0  0  0
 52125  1  0  0  0
 53 54  1  0  0  0
 54 55  2  0  0  0
 54126  1  0  0  0
 55 57  1  0  0  0
 55127  1  0  0  0
 56 69  2  0  0  0
 57 58  2  0  0  0
 57128  1  0  0  0
 58129  1  0  0  0
 59 60  1  0  0  0
 59 61  1  0  0  0
 59 62  1  0  0  0
 60130  1  0  0  0
 60131  1  0  0  0
 60132  1  0  0  0
 61133  1  0  0  0
 61134  1  0  0  0
 61135  1  0  0  0
 62136  1  0  0  0
 62137  1  0  0  0
 62138  1  0  0  0
 63 65  1  0  0  0
 63139  1  0  0  0
 63140  1  0  0  0
 63141  1  0  0  0
 64142  1  0  0  0
 65143  1  0  0  0
 68 79  1  0  0  0
 71 73  2  0  0  0
 71 74  1  0  0  0
 71144  1  0  0  0
 72 73  1  0  0  0
 72 75  2  0  0  0
 72145  1  0  0  0
 73 77  1  0  0  0
 74 76  2  0  0  0
 74 78  1  0  0  0
 75 76  1  0  0  0
 75 81  1  0  0  0
 76 84  1  0  0  0
 77 82  1  0  0  0
 77 83  2  0  0  0
 78146  1  0  0  0
 78147  1  0  0  0
 78148  1  0  0  0
 79 80  1  0  0  0
 79149  1  0  0  0
 79150  1  0  0  0
 80 84  1  0  0  0
 80151  1  0  0  0
 80152  1  0  0  0
 81153  1  0  0  0
 81154  1  0  0  0
 82155  1  0  0  0
M  ISO  4   1 100  68 101  79 101  82 100
M  END
> <chiral flag>
0

> <version>
0

> <s_m_source_file>
/data/baiqing/PycharmProjects/Reinvent-master-3.2/result/LINK_invent/BTK/process_docking_weight1_custom_product_contain_oxygen_bond_distance_aromatic_linkinvent_7_9_3/rearranged_h_0107.sdf

> <i_m_source_file_index>
31

> <r_mmod_Potential_Energy-OPLS-2005>
-5.62756109237671

> <r_mmod_Stretch_Energy-OPLS-2005>
86.2489624023438

> <r_mmod_Bend_Energy-OPLS-2005>
174.692153930664

> <r_mmod_Torsional_Energy-OPLS-2005>
220.940307617188

> <r_mmod_Improper_Torsional_Energy-OPLS-2005>
9.37593173980713

> <r_mmod_Van_der_Waal_Energy-OPLS-2005>
168.163101196289

> <r_mmod_Electrostatic_Energy-OPLS-2005>
-489.875457763672

> <r_mmod_Solvation_Energy-OPLS-2005>
-238.690872192383

> <b_mmod_Minimization_Converged-OPLS-2005>
0

> <r_mmod_RMS_Derivative-OPLS-2005>
0.83179384469986

$$$$
31
                    3D
 Structure written by MMmdl.
151159  0  0  1  0            999 V2000
  -30.6116  -14.7922   20.4584 C   0  0  0  0  0  0
  -30.4308  -12.4887   19.4900 C   0  0  0  0  0  0
  -29.5159  -12.5189   18.2466 C   0  0  0  0  0  0
  -28.0442  -12.3298   18.6603 C   0  0  0  0  0  0
  -27.6379  -13.2388   19.8506 C   0  0  2  0  0  0
  -28.6799  -13.2074   20.9900 C   0  0  0  0  0  0
  -25.2476  -13.8187   20.5672 C   0  0  0  0  0  0
  -24.1789  -13.0439   20.9224 C   0  0  0  0  0  0
  -24.6384  -11.6914   20.8752 C   0  0  0  0  0  0
  -23.9064  -10.4294   21.0416 C   0  0  0  0  0  0
  -24.3617   -9.4209   21.9191 C   0  0  0  0  0  0
  -23.6292   -8.2246   22.0754 C   0  0  0  0  0  0
  -22.4274   -8.0284   21.3549 C   0  0  0  0  0  0
  -21.9914   -9.0257   20.4649 C   0  0  0  0  0  0
  -22.7236  -10.2137   20.3063 C   0  0  0  0  0  0
  -21.6855   -6.0733   22.5279 C   0  0  0  0  0  0
  -21.4014   -6.5640   23.8208 C   0  0  0  0  0  0
  -21.3660   -5.6793   24.9173 C   0  0  0  0  0  0
  -21.6044   -4.3055   24.7226 C   0  0  0  0  0  0
  -21.8818   -3.8145   23.4349 C   0  0  0  0  0  0
  -21.9193   -4.6964   22.3403 C   0  0  0  0  0  0
  -22.7808  -13.5217   21.1880 C   0  0  0  0  0  0
  -22.1662   -4.2144   21.0984 F   0  0  0  0  0  0
  -21.5633   -3.4543   25.7743 F   0  0  0  0  0  0
  -29.9769  -13.5672   20.4041 N   0  0  0  0  0  0
  -26.2908  -12.9411   20.3265 N   0  0  0  0  0  0
  -25.9320  -11.6546   20.5765 N   0  0  0  0  0  0
  -22.0449  -12.8213   22.0438 N   0  0  0  0  0  0
  -25.4124  -15.1904   20.4014 N   0  0  0  0  0  0
  -31.8011  -14.8612   20.1360 O   0  0  0  0  0  0
  -21.6645   -6.8878   21.4237 O   0  0  0  0  0  0
  -22.3502  -14.5530   20.6724 O   0  0  0  0  0  0
  -24.6348  -31.8535   23.1955 C   0  0  0  0  0  0
  -25.9179  -32.4735   23.8297 C   0  0  1  0  0  0
  -27.2108  -27.2219   20.1423 C   0  0  0  0  0  0
  -25.5963  -33.8540   24.2209 N   0  0  0  0  0  0
  -23.4298  -30.4786   21.5397 C   0  0  2  0  0  0
  -24.8772  -28.9222   20.1076 C   0  0  0  0  0  0
  -22.7499  -29.4609   22.4878 C   0  0  0  0  0  0
  -18.0303  -28.1389   22.8474 C   0  0  0  0  0  0
  -24.1491  -36.7277   23.2633 C   0  0  0  0  0  0
  -25.9800  -30.7578   21.3793 C   0  0  0  0  0  0
  -26.0523  -29.3775   20.7196 C   0  0  0  0  0  0
  -27.2232  -28.5438   20.7183 C   0  0  0  0  0  0
  -26.0097  -26.8463   19.4989 C   0  0  0  0  0  0
  -24.8661  -27.6683   19.4816 C   0  0  0  0  0  0
  -23.6488  -29.8141   20.1551 C   0  0  0  0  0  0
  -25.4122  -36.3046   24.0302 C   0  0  1  0  0  0
  -20.5906  -28.3719   23.1243 C   0  0  2  0  0  0
  -20.6781  -26.9433   22.5400 C   0  0  0  0  0  0
  -19.5764  -26.6387   21.5197 C   0  0  0  0  0  0
  -18.1947  -26.7924   22.1621 C   0  0  0  0  0  0
  -19.1553  -28.8870   23.2854 C   0  0  0  0  0  0
  -18.9468  -30.1462   23.8881 C   0  0  0  0  0  0
  -17.6466  -30.6588   24.0557 C   0  0  0  0  0  0
  -25.9074  -34.9421   23.5053 C   0  0  0  0  0  0
  -16.5361  -29.9080   23.6326 C   0  0  0  0  0  0
  -16.7283  -28.6497   23.0347 C   0  0  0  0  0  0
  -26.4521  -31.6582   25.0706 C   0  0  0  0  0  0
  -25.3710  -31.3792   26.1400 C   0  0  0  0  0  0
  -27.0374  -30.2976   24.6255 C   0  0  0  0  0  0
  -27.6046  -32.4337   25.7517 C   0  0  0  0  0  0
  -27.5572  -37.1796   24.8459 C   0  0  0  0  0  0
  -21.4205  -29.3071   22.3621 N   0  0  0  0  0  0
  -26.4287  -37.3754   23.9398 N   0  0  0  0  0  0
  -24.7004  -31.0468   22.0952 N   0  0  0  0  0  0
  -23.4188  -28.8148   23.2984 O   0  0  0  0  0  0
  -28.2992  -26.3048   20.1833 O   0  0  0  0  0  0
  -26.5646  -34.8911   22.4621 O   0  0  0  0  0  0
  -23.5491  -32.1380   23.7232 O   0  0  0  0  0  0
  -28.0783  -20.4716   21.1107 C   0  0  0  0  0  0
  -28.2971  -19.0427   21.2424 C   0  0  0  0  0  0
  -29.1574  -21.0590   20.4990 C   0  0  0  0  0  0
  -29.4988  -18.7298   20.6470 C   0  0  0  0  0  0
  -29.5935  -22.4488   20.1203 C   0  0  0  0  0  0
  -29.2753  -23.8142   20.0325 C   0  0  0  0  0  0
  -27.3794  -18.0727   21.9377 C   0  0  0  0  0  0
  -30.3703  -17.4083   20.4293 C   0  0  0  0  0  0
  -28.0576  -24.8028   20.3042 C   0  0  0  0  0  0
  -29.8774  -15.9635   20.6513 N   0  0  0  0  0  0
  -30.0174  -19.9712   20.2096 O   0  0  0  0  0  0
  -31.4723  -12.6095   19.1883 H   0  0  0  0  0  0
  -30.3776  -11.5198   19.9881 H   0  0  0  0  0  0
  -29.8127  -11.7434   17.5384 H   0  0  0  0  0  0
  -29.6331  -13.4713   17.7262 H   0  0  0  0  0  0
  -27.9158  -11.2824   18.9362 H   0  0  0  0  0  0
  -27.3854  -12.5032   17.8088 H   0  0  0  0  0  0
  -27.6251  -14.2551   19.4566 H   0  0  0  0  0  0
  -28.7245  -12.2204   21.4540 H   0  0  0  0  0  0
  -28.4031  -13.9067   21.7808 H   0  0  0  0  0  0
  -25.2757   -9.5693   22.4767 H   0  0  0  0  0  0
  -24.0001   -7.4642   22.7473 H   0  0  0  0  0  0
  -21.0845   -8.8772   19.8956 H   0  0  0  0  0  0
  -22.3686  -10.9679   19.6179 H   0  0  0  0  0  0
  -21.2002   -7.6146   23.9710 H   0  0  0  0  0  0
  -21.1483   -6.0527   25.9076 H   0  0  0  0  0  0
  -22.0594   -2.7606   23.2853 H   0  0  0  0  0  0
  -22.4069  -11.9882   22.4836 H   0  0  0  0  0  0
  -21.1067  -13.1231   22.2640 H   0  0  0  0  0  0
  -24.6328  -15.8335   20.4905 H   0  0  0  0  0  0
  -26.2356  -15.6181   20.0002 H   0  0  0  0  0  0
  -26.7247  -32.5364   23.1036 H   0  0  0  0  0  0
  -25.0088  -33.9689   25.0334 H   0  0  0  0  0  0
  -22.7273  -31.3021   21.3937 H   0  0  0  0  0  0
  -23.3743  -35.9622   23.3295 H   0  0  0  0  0  0
  -24.3572  -36.8915   22.2048 H   0  0  0  0  0  0
  -23.7272  -37.6479   23.6681 H   0  0  0  0  0  0
  -26.1205  -31.5207   20.6117 H   0  0  0  0  0  0
  -26.8556  -30.8046   22.0155 H   0  0  0  0  0  0
  -28.1233  -28.8930   21.2044 H   0  0  0  0  0  0
  -25.9179  -25.8941   19.0019 H   0  0  0  0  0  0
  -23.9704  -27.3192   18.9854 H   0  0  0  0  0  0
  -23.7743  -30.5916   19.4004 H   0  0  0  0  0  0
  -22.7652  -29.2518   19.8469 H   0  0  0  0  0  0
  -25.1314  -36.1865   25.0794 H   0  0  0  0  0  0
  -21.0002  -28.3307   24.1361 H   0  0  0  0  0  0
  -20.5651  -26.2343   23.3616 H   0  0  0  0  0  0
  -21.6651  -26.7436   22.1215 H   0  0  0  0  0  0
  -19.6933  -25.6286   21.1256 H   0  0  0  0  0  0
  -19.6695  -27.3181   20.6712 H   0  0  0  0  0  0
  -17.4198  -26.6641   21.4044 H   0  0  0  0  0  0
  -18.0385  -26.0075   22.9033 H   0  0  0  0  0  0
  -19.7949  -30.7275   24.2244 H   0  0  0  0  0  0
  -17.5029  -31.6264   24.5167 H   0  0  0  0  0  0
  -15.5365  -30.2976   23.7662 H   0  0  0  0  0  0
  -15.8680  -28.0809   22.7073 H   0  0  0  0  0  0
  -24.5873  -30.7167   25.7716 H   0  0  0  0  0  0
  -24.8927  -32.2998   26.4752 H   0  0  0  0  0  0
  -25.7975  -30.8998   27.0219 H   0  0  0  0  0  0
  -26.2989  -29.6720   24.1229 H   0  0  0  0  0  0
  -27.3961  -29.7255   25.4825 H   0  0  0  0  0  0
  -27.8904  -30.4205   23.9575 H   0  0  0  0  0  0
  -27.2618  -33.3632   26.2080 H   0  0  0  0  0  0
  -28.3890  -32.6916   25.0388 H   0  0  0  0  0  0
  -28.0683  -31.8476   26.5464 H   0  0  0  0  0  0
  -28.2579  -38.0096   24.7486 H   0  0  0  0  0  0
  -28.1075  -36.2626   24.6304 H   0  0  0  0  0  0
  -27.2288  -37.1461   25.8859 H   0  0  0  0  0  0
  -20.9384  -29.8827   21.6866 H   0  0  0  0  0  0
  -26.0146  -38.2817   24.1402 H   0  0  0  0  0  0
  -27.2204  -21.0220   21.4735 H   0  0  0  0  0  0
  -30.6092  -22.3421   19.7671 H   0  0  0  0  0  0
  -30.0996  -24.3933   19.6395 H   0  0  0  0  0  0
  -27.0556  -17.2870   21.2582 H   0  0  0  0  0  0
  -26.4942  -18.5832   22.3174 H   0  0  0  0  0  0
  -27.8894  -17.6054   22.7812 H   0  0  0  0  0  0
  -30.7284  -17.4321   19.3997 H   0  0  0  0  0  0
  -31.2778  -17.5179   21.0260 H   0  0  0  0  0  0
  -27.6663  -24.5966   21.3009 H   0  0  0  0  0  0
  -27.2883  -24.4818   19.6063 H   0  0  0  0  0  0
  -28.8953  -15.8529   20.8512 H   0  0  0  0  0  0
  1 25  1  0  0  0
  1 30  2  0  0  0
  1 80  1  0  0  0
  2  3  1  0  0  0
  2 25  1  0  0  0
  2 82  1  0  0  0
  2 83  1  0  0  0
  3  4  1  0  0  0
  3 84  1  0  0  0
  3 85  1  0  0  0
  4  5  1  0  0  0
  4 86  1  0  0  0
  4 87  1  0  0  0
  5  6  1  0  0  0
  5 26  1  0  0  0
  5 88  1  0  0  0
  6 25  1  0  0  0
  6 89  1  0  0  0
  6 90  1  0  0  0
  7  8  2  0  0  0
  7 26  1  0  0  0
  7 29  1  0  0  0
  8  9  1  0  0  0
  8 22  1  0  0  0
  9 10  1  0  0  0
  9 27  2  0  0  0
 10 11  2  0  0  0
 10 15  1  0  0  0
 11 12  1  0  0  0
 11 91  1  0  0  0
 12 13  2  0  0  0
 12 92  1  0  0  0
 13 14  1  0  0  0
 13 31  1  0  0  0
 14 15  2  0  0  0
 14 93  1  0  0  0
 15 94  1  0  0  0
 16 17  2  0  0  0
 16 21  1  0  0  0
 16 31  1  0  0  0
 17 18  1  0  0  0
 17 95  1  0  0  0
 18 19  2  0  0  0
 18 96  1  0  0  0
 19 20  1  0  0  0
 19 24  1  0  0  0
 20 21  2  0  0  0
 20 97  1  0  0  0
 21 23  1  0  0  0
 22 28  1  0  0  0
 22 32  2  0  0  0
 26 27  1  0  0  0
 28 98  1  0  0  0
 28 99  1  0  0  0
 29100  1  0  0  0
 29101  1  0  0  0
 33 34  1  0  0  0
 33 66  1  0  0  0
 33 70  2  0  0  0
 34 36  1  0  0  0
 34 59  1  0  0  0
 34102  1  0  0  0
 35 44  2  0  0  0
 35 45  1  0  0  0
 35 68  1  0  0  0
 36 56  1  0  0  0
 36103  1  0  0  0
 37 39  1  0  0  0
 37 47  1  0  0  0
 37 66  1  0  0  0
 37104  1  0  0  0
 38 43  2  0  0  0
 38 46  1  0  0  0
 38 47  1  0  0  0
 39 64  1  0  0  0
 39 67  2  0  0  0
 40 52  1  0  0  0
 40 53  2  0  0  0
 40 58  1  0  0  0
 41105  1  0  0  0
 41106  1  0  0  0
 41107  1  0  0  0
 41 48  1  0  0  0
 42 43  1  0  0  0
 42 66  1  0  0  0
 42108  1  0  0  0
 42109  1  0  0  0
 43 44  1  0  0  0
 44110  1  0  0  0
 45 46  2  0  0  0
 45111  1  0  0  0
 46112  1  0  0  0
 47113  1  0  0  0
 47114  1  0  0  0
 48 56  1  0  0  0
 48 65  1  0  0  0
 48115  1  0  0  0
 49 50  1  0  0  0
 49 53  1  0  0  0
 49 64  1  0  0  0
 49116  1  0  0  0
 50 51  1  0  0  0
 50117  1  0  0  0
 50118  1  0  0  0
 51 52  1  0  0  0
 51119  1  0  0  0
 51120  1  0  0  0
 52121  1  0  0  0
 52122  1  0  0  0
 53 54  1  0  0  0
 54 55  2  0  0  0
 54123  1  0  0  0
 55 57  1  0  0  0
 55124  1  0  0  0
 56 69  2  0  0  0
 57 58  2  0  0  0
 57125  1  0  0  0
 58126  1  0  0  0
 59 60  1  0  0  0
 59 61  1  0  0  0
 59 62  1  0  0  0
 60127  1  0  0  0
 60128  1  0  0  0
 60129  1  0  0  0
 61130  1  0  0  0
 61131  1  0  0  0
 61132  1  0  0  0
 62133  1  0  0  0
 62134  1  0  0  0
 62135  1  0  0  0
 63 65  1  0  0  0
 63136  1  0  0  0
 63137  1  0  0  0
 63138  1  0  0  0
 64139  1  0  0  0
 65140  1  0  0  0
 68 79  1  0  0  0
 71 72  1  0  0  0
 71 73  2  0  0  0
 71141  1  0  0  0
 72 74  2  0  0  0
 72 77  1  0  0  0
 73 75  1  0  0  0
 73 81  1  0  0  0
 74 78  1  0  0  0
 74 81  1  0  0  0
 75 76  2  0  0  0
 75142  1  0  0  0
 76 79  1  0  0  0
 76143  1  0  0  0
 77144  1  0  0  0
 77145  1  0  0  0
 77146  1  0  0  0
 78 80  1  0  0  0
 78147  1  0  0  0
 78148  1  0  0  0
 79149  1  0  0  0
 79150  1  0  0  0
 80151  1  0  0  0
M  ISO  4   1 100  68 101  79 101  80 100
M  END
> <chiral flag>
0

> <version>
0

> <s_m_source_file>
/data/baiqing/PycharmProjects/Reinvent-master-3.2/result/LINK_invent/BTK/process_docking_weight1_custom_product_contain_oxygen_bond_distance_aromatic_linkinvent_7_9_3/rearranged_h_0107.sdf

> <i_m_source_file_index>
32

> <r_mmod_Potential_Energy-OPLS-2005>
171.582153320312

> <r_mmod_Stretch_Energy-OPLS-2005>
139.849349975586

> <r_mmod_Bend_Energy-OPLS-2005>
224.521423339844

> <r_mmod_Torsional_Energy-OPLS-2005>
209.750564575195

> <r_mmod_Improper_Torsional_Energy-OPLS-2005>
5.43196535110474

> <r_mmod_Van_der_Waal_Energy-OPLS-2005>
113.341773986816

> <r_mmod_Electrostatic_Energy-OPLS-2005>
-419.275634765625

> <r_mmod_Solvation_Energy-OPLS-2005>
-209.938919067383

> <b_mmod_Minimization_Converged-OPLS-2005>
0

> <r_mmod_RMS_Derivative-OPLS-2005>
2.24018096923828

$$$$
32
                    3D
 Structure written by MMmdl.
164173  0  0  1  0            999 V2000
  -30.7455  -14.4297   20.6006 C   0  0  0  0  0  0
  -30.4115  -12.2937   19.4140 C   0  0  0  0  0  0
  -29.4868  -12.5079   18.2017 C   0  0  0  0  0  0
  -28.0081  -12.3807   18.6175 C   0  0  0  0  0  0
  -27.6631  -13.2087   19.8847 C   0  0  2  0  0  0
  -28.7072  -12.9842   21.0011 C   0  0  0  0  0  0
  -25.2565  -13.8153   20.5719 C   0  0  0  0  0  0
  -24.1821  -13.0406   20.9182 C   0  0  0  0  0  0
  -24.6390  -11.6869   20.8753 C   0  0  0  0  0  0
  -23.9071  -10.4238   21.0415 C   0  0  0  0  0  0
  -24.3616   -9.4162   21.9207 C   0  0  0  0  0  0
  -23.6283   -8.2193   22.0767 C   0  0  0  0  0  0
  -22.4266   -8.0243   21.3560 C   0  0  0  0  0  0
  -21.9906   -9.0215   20.4672 C   0  0  0  0  0  0
  -22.7235  -10.2091   20.3082 C   0  0  0  0  0  0
  -21.6834   -6.0710   22.5283 C   0  0  0  0  0  0
  -21.3997   -6.5624   23.8213 C   0  0  0  0  0  0
  -21.3669   -5.6799   24.9189 C   0  0  0  0  0  0
  -21.6053   -4.3060   24.7242 C   0  0  0  0  0  0
  -21.8802   -3.8132   23.4357 C   0  0  0  0  0  0
  -21.9178   -4.6938   22.3403 C   0  0  0  0  0  0
  -22.7850  -13.5219   21.1820 C   0  0  0  0  0  0
  -22.1625   -4.2102   21.0983 F   0  0  0  0  0  0
  -21.5657   -3.4566   25.7764 F   0  0  0  0  0  0
  -30.0406  -13.2766   20.4462 N   0  0  0  0  0  0
  -26.3029  -12.9317   20.3436 N   0  0  0  0  0  0
  -25.9322  -11.6471   20.5803 N   0  0  0  0  0  0
  -22.0465  -12.8238   22.0374 N   0  0  0  0  0  0
  -25.4290  -15.1873   20.4143 N   0  0  0  0  0  0
  -31.8377  -14.6193   20.0595 O   0  0  0  0  0  0
  -21.6605   -6.8851   21.4256 O   0  0  0  0  0  0
  -22.3564  -14.5536   20.6684 O   0  0  0  0  0  0
  -24.6113  -31.8688   23.2103 C   0  0  0  0  0  0
  -25.9018  -32.4823   23.8388 C   0  0  1  0  0  0
  -27.2484  -27.4501   20.1084 C   0  0  0  0  0  0
  -25.5877  -33.8618   24.2327 N   0  0  0  0  0  0
  -23.4013  -30.4871   21.5481 C   0  0  2  0  0  0
  -24.8536  -28.9482   20.1217 C   0  0  0  0  0  0
  -22.7398  -29.4638   22.4993 C   0  0  0  0  0  0
  -18.0269  -28.1384   22.8489 C   0  0  0  0  0  0
  -24.1489  -36.7324   23.2641 C   0  0  0  0  0  0
  -25.9264  -30.8363   21.3641 C   0  0  0  0  0  0
  -26.0074  -29.4643   20.7272 C   0  0  0  0  0  0
  -27.2070  -28.7185   20.7262 C   0  0  0  0  0  0
  -26.0854  -26.9432   19.4946 C   0  0  0  0  0  0
  -24.8862  -27.6841   19.5042 C   0  0  0  0  0  0
  -23.6139  -29.8126   20.1645 C   0  0  0  0  0  0
  -25.4108  -36.3119   24.0338 C   0  0  1  0  0  0
  -20.5851  -28.3658   23.1329 C   0  0  2  0  0  0
  -20.6755  -26.9398   22.5427 C   0  0  0  0  0  0
  -19.5740  -26.6388   21.5213 C   0  0  0  0  0  0
  -18.1916  -26.7928   22.1623 C   0  0  0  0  0  0
  -19.1519  -28.8836   23.2898 C   0  0  0  0  0  0
  -18.9443  -30.1439   23.8909 C   0  0  0  0  0  0
  -17.6443  -30.6578   24.0571 C   0  0  0  0  0  0
  -25.9026  -34.9480   23.5138 C   0  0  0  0  0  0
  -16.5333  -29.9084   23.6323 C   0  0  0  0  0  0
  -16.7257  -28.6508   23.0337 C   0  0  0  0  0  0
  -26.4466  -31.6581   25.0690 C   0  0  0  0  0  0
  -25.3759  -31.3648   26.1453 C   0  0  0  0  0  0
  -27.0287  -30.3033   24.6020 C   0  0  0  0  0  0
  -27.6053  -32.4281   25.7456 C   0  0  0  0  0  0
  -27.5578  -37.1814   24.8464 C   0  0  0  0  0  0
  -21.4125  -29.3026   22.3739 N   0  0  0  0  0  0
  -26.4299  -37.3791   23.9402 N   0  0  0  0  0  0
  -24.6639  -31.0800   22.0999 N   0  0  0  0  0  0
  -23.4180  -28.8184   23.3034 O   0  0  0  0  0  0
  -28.4264  -26.7513   20.0061 O   0  0  0  0  0  0
  -26.5584  -34.8928   22.4696 O   0  0  0  0  0  0
  -23.5305  -32.1423   23.7500 O   0  0  0  0  0  0
  -29.6004  -18.9965   21.9711 C   0  0  0  0  0  0
  -28.7214  -19.4038   24.1984 C   0  0  0  0  0  0
  -29.7510  -17.2596   23.6851 C   0  0  0  0  0  0
  -28.9277  -19.8692   22.8741 C   0  0  0  0  0  0
  -29.9925  -17.6908   22.3669 C   0  0  0  0  0  0
  -29.1291  -18.1199   24.6033 C   0  0  0  0  0  0
  -28.3707  -21.2430   22.5144 C   0  0  0  0  0  0
  -29.5564  -22.5808   19.1998 C   0  0  0  0  0  0
  -29.2538  -24.0812   19.3729 C   0  0  0  0  0  0
  -28.6964  -21.7019   20.1263 C   0  0  0  0  0  0
  -29.1810  -23.4540   21.8279 C   0  0  0  0  0  0
  -28.6201  -24.4116   20.7410 C   0  0  2  0  0  0
  -30.7238  -16.7623   21.4049 C   0  0  0  0  0  0
  -28.7844  -25.9094   21.1041 C   0  0  0  0  0  0
  -28.9399  -22.0104   21.5497 N   0  0  0  0  0  0
  -30.1545  -15.4129   21.2997 N   0  0  0  0  0  0
  -27.4903  -21.7148   23.2440 O   0  0  0  0  0  0
  -28.9287  -17.7146   25.8793 F   0  0  0  0  0  0
  -31.4535  -12.3795   19.1035 H   0  0  0  0  0  0
  -30.3059  -11.2808   19.8070 H   0  0  0  0  0  0
  -29.7131  -11.7792   17.4212 H   0  0  0  0  0  0
  -29.6671  -13.4925   17.7649 H   0  0  0  0  0  0
  -27.8105  -11.3257   18.8064 H   0  0  0  0  0  0
  -27.3538  -12.6669   17.7931 H   0  0  0  0  0  0
  -27.7071  -14.2587   19.5967 H   0  0  0  0  0  0
  -28.6753  -11.9464   21.3387 H   0  0  0  0  0  0
  -28.4713  -13.5811   21.8844 H   0  0  0  0  0  0
  -25.2737   -9.5600   22.4817 H   0  0  0  0  0  0
  -23.9961   -7.4589   22.7506 H   0  0  0  0  0  0
  -21.0810   -8.8748   19.9011 H   0  0  0  0  0  0
  -22.3683  -10.9636   19.6206 H   0  0  0  0  0  0
  -21.1965   -7.6137   23.9692 H   0  0  0  0  0  0
  -21.1540   -6.0549   25.9106 H   0  0  0  0  0  0
  -22.0577   -2.7584   23.2892 H   0  0  0  0  0  0
  -22.4043  -11.9914   22.4818 H   0  0  0  0  0  0
  -21.1123  -13.1347   22.2594 H   0  0  0  0  0  0
  -24.6703  -15.8547   20.5116 H   0  0  0  0  0  0
  -26.2970  -15.6227   20.1286 H   0  0  0  0  0  0
  -26.7079  -32.5560   23.1150 H   0  0  0  0  0  0
  -25.0040  -33.9776   25.0479 H   0  0  0  0  0  0
  -22.6896  -31.3031   21.4037 H   0  0  0  0  0  0
  -23.3733  -35.9671   23.3331 H   0  0  0  0  0  0
  -24.3599  -36.8909   22.2051 H   0  0  0  0  0  0
  -23.7255  -37.6545   23.6640 H   0  0  0  0  0  0
  -26.0255  -31.5936   20.5866 H   0  0  0  0  0  0
  -26.8204  -30.9061   21.9711 H   0  0  0  0  0  0
  -28.1010  -29.1193   21.1834 H   0  0  0  0  0  0
  -26.1142  -25.9859   18.9936 H   0  0  0  0  0  0
  -24.0059  -27.2884   19.0161 H   0  0  0  0  0  0
  -23.7257  -30.5832   19.4018 H   0  0  0  0  0  0
  -22.7417  -29.2278   19.8705 H   0  0  0  0  0  0
  -25.1284  -36.1993   25.0825 H   0  0  0  0  0  0
  -20.9930  -28.3227   24.1453 H   0  0  0  0  0  0
  -20.5664  -26.2258   23.3608 H   0  0  0  0  0  0
  -21.6628  -26.7451   22.1217 H   0  0  0  0  0  0
  -19.6914  -25.6305   21.1227 H   0  0  0  0  0  0
  -19.6692  -27.3218   20.6757 H   0  0  0  0  0  0
  -17.4191  -26.6663   21.4023 H   0  0  0  0  0  0
  -18.0326  -26.0060   22.9012 H   0  0  0  0  0  0
  -19.7920  -30.7249   24.2289 H   0  0  0  0  0  0
  -17.5006  -31.6270   24.5173 H   0  0  0  0  0  0
  -15.5340  -30.3004   23.7638 H   0  0  0  0  0  0
  -15.8652  -28.0848   22.7032 H   0  0  0  0  0  0
  -24.5958  -30.6962   25.7794 H   0  0  0  0  0  0
  -24.8916  -32.2779   26.4925 H   0  0  0  0  0  0
  -25.8150  -30.8819   27.0195 H   0  0  0  0  0  0
  -26.2806  -29.6781   24.1130 H   0  0  0  0  0  0
  -27.4139  -29.7272   25.4444 H   0  0  0  0  0  0
  -27.8603  -30.4357   23.9093 H   0  0  0  0  0  0
  -27.2695  -33.3583   26.2049 H   0  0  0  0  0  0
  -28.3867  -32.6821   25.0282 H   0  0  0  0  0  0
  -28.0711  -31.8384   26.5363 H   0  0  0  0  0  0
  -28.2607  -38.0099   24.7507 H   0  0  0  0  0  0
  -28.1068  -36.2638   24.6309 H   0  0  0  0  0  0
  -27.2307  -37.1481   25.8869 H   0  0  0  0  0  0
  -20.9297  -29.8734   21.6945 H   0  0  0  0  0  0
  -26.0199  -38.2871   24.1395 H   0  0  0  0  0  0
  -29.8423  -19.2968   20.9671 H   0  0  0  0  0  0
  -28.2397  -20.0389   24.9289 H   0  0  0  0  0  0
  -30.0618  -16.2762   24.0050 H   0  0  0  0  0  0
  -30.6121  -22.3996   19.4176 H   0  0  0  0  0  0
  -29.4133  -22.2935   18.1576 H   0  0  0  0  0  0
  -28.5799  -24.4176   18.5835 H   0  0  0  0  0  0
  -30.1771  -24.6470   19.2344 H   0  0  0  0  0  0
  -28.8537  -20.6582   19.8754 H   0  0  0  0  0  0
  -27.6405  -21.8778   19.9108 H   0  0  0  0  0  0
  -28.7939  -23.7589   22.8024 H   0  0  0  0  0  0
  -30.2610  -23.5891   21.8914 H   0  0  0  0  0  0
  -27.5463  -24.2287   20.6726 H   0  0  0  0  0  0
  -31.7527  -16.6799   21.7659 H   0  0  0  0  0  0
  -30.7834  -17.2127   20.4106 H   0  0  0  0  0  0
  -29.8264  -26.1167   21.3422 H   0  0  0  0  0  0
  -28.2146  -26.1508   22.0035 H   0  0  0  0  0  0
  -29.2413  -15.2446   21.6890 H   0  0  0  0  0  0
  1 25  1  0  0  0
  1 30  2  0  0  0
  1 86  1  0  0  0
  2  3  1  0  0  0
  2 25  1  0  0  0
  2 89  1  0  0  0
  2 90  1  0  0  0
  3  4  1  0  0  0
  3 91  1  0  0  0
  3 92  1  0  0  0
  4  5  1  0  0  0
  4 93  1  0  0  0
  4 94  1  0  0  0
  5  6  1  0  0  0
  5 26  1  0  0  0
  5 95  1  0  0  0
  6 25  1  0  0  0
  6 96  1  0  0  0
  6 97  1  0  0  0
  7  8  2  0  0  0
  7 26  1  0  0  0
  7 29  1  0  0  0
  8  9  1  0  0  0
  8 22  1  0  0  0
  9 10  1  0  0  0
  9 27  2  0  0  0
 10 11  2  0  0  0
 10 15  1  0  0  0
 11 12  1  0  0  0
 11 98  1  0  0  0
 12 13  2  0  0  0
 12 99  1  0  0  0
 13 14  1  0  0  0
 13 31  1  0  0  0
 14 15  2  0  0  0
 14100  1  0  0  0
 15101  1  0  0  0
 16 17  2  0  0  0
 16 21  1  0  0  0
 16 31  1  0  0  0
 17 18  1  0  0  0
 17102  1  0  0  0
 18 19  2  0  0  0
 18103  1  0  0  0
 19 20  1  0  0  0
 19 24  1  0  0  0
 20 21  2  0  0  0
 20104  1  0  0  0
 21 23  1  0  0  0
 22 28  1  0  0  0
 22 32  2  0  0  0
 26 27  1  0  0  0
 28105  1  0  0  0
 28106  1  0  0  0
 29107  1  0  0  0
 29108  1  0  0  0
 33 34  1  0  0  0
 33 66  1  0  0  0
 33 70  2  0  0  0
 34 36  1  0  0  0
 34 59  1  0  0  0
 34109  1  0  0  0
 35 44  2  0  0  0
 35 45  1  0  0  0
 35 68  1  0  0  0
 36 56  1  0  0  0
 36110  1  0  0  0
 37 39  1  0  0  0
 37 47  1  0  0  0
 37 66  1  0  0  0
 37111  1  0  0  0
 38 43  2  0  0  0
 38 46  1  0  0  0
 38 47  1  0  0  0
 39 64  1  0  0  0
 39 67  2  0  0  0
 40 52  1  0  0  0
 40 53  2  0  0  0
 40 58  1  0  0  0
 41112  1  0  0  0
 41113  1  0  0  0
 41114  1  0  0  0
 41 48  1  0  0  0
 42 43  1  0  0  0
 42 66  1  0  0  0
 42115  1  0  0  0
 42116  1  0  0  0
 43 44  1  0  0  0
 44117  1  0  0  0
 45 46  2  0  0  0
 45118  1  0  0  0
 46119  1  0  0  0
 47120  1  0  0  0
 47121  1  0  0  0
 48 56  1  0  0  0
 48 65  1  0  0  0
 48122  1  0  0  0
 49 50  1  0  0  0
 49 53  1  0  0  0
 49 64  1  0  0  0
 49123  1  0  0  0
 50 51  1  0  0  0
 50124  1  0  0  0
 50125  1  0  0  0
 51 52  1  0  0  0
 51126  1  0  0  0
 51127  1  0  0  0
 52128  1  0  0  0
 52129  1  0  0  0
 53 54  1  0  0  0
 54 55  2  0  0  0
 54130  1  0  0  0
 55 57  1  0  0  0
 55131  1  0  0  0
 56 69  2  0  0  0
 57 58  2  0  0  0
 57132  1  0  0  0
 58133  1  0  0  0
 59 60  1  0  0  0
 59 61  1  0  0  0
 59 62  1  0  0  0
 60134  1  0  0  0
 60135  1  0  0  0
 60136  1  0  0  0
 61137  1  0  0  0
 61138  1  0  0  0
 61139  1  0  0  0
 62140  1  0  0  0
 62141  1  0  0  0
 62142  1  0  0  0
 63 65  1  0  0  0
 63143  1  0  0  0
 63144  1  0  0  0
 63145  1  0  0  0
 64146  1  0  0  0
 65147  1  0  0  0
 68 84  1  0  0  0
 71 74  2  0  0  0
 71 75  1  0  0  0
 71148  1  0  0  0
 72 74  1  0  0  0
 72 76  2  0  0  0
 72149  1  0  0  0
 73 75  2  0  0  0
 73 76  1  0  0  0
 73150  1  0  0  0
 74 77  1  0  0  0
 75 83  1  0  0  0
 76 88  1  0  0  0
 77 85  1  0  0  0
 77 87  2  0  0  0
 78 79  1  0  0  0
 78 80  1  0  0  0
 78151  1  0  0  0
 78152  1  0  0  0
 79 82  1  0  0  0
 79153  1  0  0  0
 79154  1  0  0  0
 80 85  1  0  0  0
 80155  1  0  0  0
 80156  1  0  0  0
 81 82  1  0  0  0
 81 85  1  0  0  0
 81157  1  0  0  0
 81158  1  0  0  0
 82 84  1  0  0  0
 82159  1  0  0  0
 83 86  1  0  0  0
 83160  1  0  0  0
 83161  1  0  0  0
 84162  1  0  0  0
 84163  1  0  0  0
 86164  1  0  0  0
M  ISO  4   1 100  68 101  84 101  86 100
M  END
> <chiral flag>
0

> <version>
0

> <s_m_source_file>
/data/baiqing/PycharmProjects/Reinvent-master-3.2/result/LINK_invent/BTK/process_docking_weight1_custom_product_contain_oxygen_bond_distance_aromatic_linkinvent_7_9_3/rearranged_h_0107.sdf

> <i_m_source_file_index>
33

> <r_mmod_Potential_Energy-OPLS-2005>
63.5936393737793

> <r_mmod_Stretch_Energy-OPLS-2005>
41.9479904174805

> <r_mmod_Bend_Energy-OPLS-2005>
105.971496582031

> <r_mmod_Torsional_Energy-OPLS-2005>
359.96533203125

> <r_mmod_Improper_Torsional_Energy-OPLS-2005>
7.38543748855591

> <r_mmod_Van_der_Waal_Energy-OPLS-2005>
166.706039428711

> <r_mmod_Electrostatic_Energy-OPLS-2005>
-410.269989013672

> <r_mmod_Solvation_Energy-OPLS-2005>
-216.69352722168

> <b_mmod_Minimization_Converged-OPLS-2005>
0

> <r_mmod_RMS_Derivative-OPLS-2005>
3.68214559555054

$$$$
33
                    3D
 Structure written by MMmdl.
161170  0  0  1  0            999 V2000
  -30.5985  -14.6536   20.4920 C   0  0  0  0  0  0
  -30.4448  -12.4007   19.4483 C   0  0  0  0  0  0
  -29.5075  -12.5062   18.2238 C   0  0  0  0  0  0
  -28.0301  -12.3409   18.6359 C   0  0  0  0  0  0
  -27.6535  -13.2080   19.8662 C   0  0  2  0  0  0
  -28.7004  -13.0583   20.9926 C   0  0  0  0  0  0
  -25.2572  -13.8150   20.5716 C   0  0  0  0  0  0
  -24.1820  -13.0419   20.9180 C   0  0  0  0  0  0
  -24.6379  -11.6892   20.8733 C   0  0  0  0  0  0
  -23.9045  -10.4283   21.0406 C   0  0  0  0  0  0
  -24.3601   -9.4206   21.9188 C   0  0  0  0  0  0
  -23.6278   -8.2243   22.0761 C   0  0  0  0  0  0
  -22.4264   -8.0278   21.3546 C   0  0  0  0  0  0
  -21.9889   -9.0254   20.4653 C   0  0  0  0  0  0
  -22.7216  -10.2133   20.3059 C   0  0  0  0  0  0
  -21.6855   -6.0726   22.5278 C   0  0  0  0  0  0
  -21.4015   -6.5633   23.8208 C   0  0  0  0  0  0
  -21.3658   -5.6790   24.9170 C   0  0  0  0  0  0
  -21.6046   -4.3053   24.7227 C   0  0  0  0  0  0
  -21.8822   -3.8140   23.4348 C   0  0  0  0  0  0
  -21.9193   -4.6954   22.3400 C   0  0  0  0  0  0
  -22.7848  -13.5233   21.1840 C   0  0  0  0  0  0
  -22.1668   -4.2140   21.0978 F   0  0  0  0  0  0
  -21.5623   -3.4538   25.7739 F   0  0  0  0  0  0
  -30.0140  -13.4142   20.4309 N   0  0  0  0  0  0
  -26.2989  -12.9312   20.3346 N   0  0  0  0  0  0
  -25.9309  -11.6476   20.5769 N   0  0  0  0  0  0
  -22.0484  -12.8231   22.0398 N   0  0  0  0  0  0
  -25.4293  -15.1875   20.4205 N   0  0  0  0  0  0
  -31.7550  -14.8421   20.1025 O   0  0  0  0  0  0
  -21.6636   -6.8870   21.4240 O   0  0  0  0  0  0
  -22.3545  -14.5554   20.6704 O   0  0  0  0  0  0
  -24.6246  -31.8595   23.2016 C   0  0  0  0  0  0
  -25.9106  -32.4763   23.8346 C   0  0  1  0  0  0
  -27.2309  -27.3230   20.1152 C   0  0  0  0  0  0
  -25.5926  -33.8566   24.2278 N   0  0  0  0  0  0
  -23.4172  -30.4820   21.5435 C   0  0  2  0  0  0
  -24.8632  -28.9301   20.1130 C   0  0  0  0  0  0
  -22.7462  -29.4628   22.4941 C   0  0  0  0  0  0
  -18.0300  -28.1363   22.8478 C   0  0  0  0  0  0
  -24.1495  -36.7286   23.2640 C   0  0  0  0  0  0
  -25.9564  -30.7903   21.3718 C   0  0  0  0  0  0
  -26.0292  -29.4169   20.7151 C   0  0  0  0  0  0
  -27.2114  -28.6229   20.7088 C   0  0  0  0  0  0
  -26.0407  -26.8806   19.4961 C   0  0  0  0  0  0
  -24.8692  -27.6655   19.5001 C   0  0  0  0  0  0
  -23.6314  -29.8118   20.1600 C   0  0  0  0  0  0
  -25.4116  -36.3069   24.0328 C   0  0  1  0  0  0
  -20.5893  -28.3674   23.1278 C   0  0  2  0  0  0
  -20.6796  -26.9399   22.5393 C   0  0  0  0  0  0
  -19.5773  -26.6387   21.5191 C   0  0  0  0  0  0
  -18.1948  -26.7915   22.1597 C   0  0  0  0  0  0
  -19.1546  -28.8832   23.2879 C   0  0  0  0  0  0
  -18.9468  -30.1430   23.8903 C   0  0  0  0  0  0
  -17.6464  -30.6565   24.0553 C   0  0  0  0  0  0
  -25.9055  -34.9439   23.5103 C   0  0  0  0  0  0
  -16.5361  -29.9061   23.6304 C   0  0  0  0  0  0
  -16.7283  -28.6475   23.0337 C   0  0  0  0  0  0
  -26.4505  -31.6562   25.0708 C   0  0  0  0  0  0
  -25.3754  -31.3695   26.1447 C   0  0  0  0  0  0
  -27.0359  -30.2986   24.6160 C   0  0  0  0  0  0
  -27.6067  -32.4296   25.7473 C   0  0  0  0  0  0
  -27.5576  -37.1794   24.8469 C   0  0  0  0  0  0
  -21.4180  -29.3039   22.3678 N   0  0  0  0  0  0
  -26.4291  -37.3763   23.9404 N   0  0  0  0  0  0
  -24.6847  -31.0615   22.0954 N   0  0  0  0  0  0
  -23.4191  -28.8178   23.3025 O   0  0  0  0  0  0
  -28.3842  -26.5286   20.1807 O   0  0  0  0  0  0
  -26.5634  -34.8911   22.4677 O   0  0  0  0  0  0
  -23.5415  -32.1411   23.7341 O   0  0  0  0  0  0
  -29.8492  -19.4523   21.4353 C   0  0  0  0  0  0
  -30.1853  -18.0636   21.5297 C   0  0  0  0  0  0
  -28.6305  -19.0052   19.4125 C   0  0  0  0  0  0
  -28.9778  -17.6223   19.4875 C   0  0  0  0  0  0
  -29.0188  -19.9535   20.3962 C   0  0  0  0  0  0
  -29.7310  -17.1042   20.5826 C   0  0  0  0  0  0
  -28.9747  -22.5131   20.2725 C   0  0  0  0  0  0
  -26.3052  -22.3681   21.3754 C   0  0  0  0  0  0
  -26.6646  -23.6781   20.6812 C   0  0  0  0  0  0
  -26.9116  -21.1991   20.5942 C   0  0  0  0  0  0
  -28.1863  -23.8817   20.5555 C   0  0  2  0  0  0
  -28.4554  -16.7096   18.3917 C   0  0  0  0  0  0
  -28.4908  -25.1549   19.6349 C   0  0  0  0  0  0
  -28.3740  -21.2757   20.4527 N   0  0  0  0  0  0
  -29.7667  -15.6709   20.8785 N   0  0  0  0  0  0
  -30.1610  -22.5913   19.9377 O   0  0  0  0  0  0
  -31.4817  -12.5451   19.1398 H   0  0  0  0  0  0
  -30.4001  -11.4036   19.8886 H   0  0  0  0  0  0
  -29.7725  -11.7534   17.4799 H   0  0  0  0  0  0
  -29.6449  -13.4735   17.7393 H   0  0  0  0  0  0
  -27.8651  -11.2874   18.8647 H   0  0  0  0  0  0
  -27.3760  -12.5735   17.7945 H   0  0  0  0  0  0
  -27.6695  -14.2411   19.5275 H   0  0  0  0  0  0
  -28.7167  -12.0335   21.3657 H   0  0  0  0  0  0
  -28.4424  -13.6788   21.8518 H   0  0  0  0  0  0
  -25.2752   -9.5684   22.4749 H   0  0  0  0  0  0
  -23.9994   -7.4636   22.7479 H   0  0  0  0  0  0
  -21.0821   -8.8770   19.8959 H   0  0  0  0  0  0
  -22.3679  -10.9667   19.6162 H   0  0  0  0  0  0
  -21.2013   -7.6142   23.9710 H   0  0  0  0  0  0
  -21.1478   -6.0519   25.9073 H   0  0  0  0  0  0
  -22.0602   -2.7600   23.2853 H   0  0  0  0  0  0
  -22.4091  -11.9885   22.4777 H   0  0  0  0  0  0
  -21.1120  -13.1287   22.2641 H   0  0  0  0  0  0
  -24.6678  -15.8445   20.5525 H   0  0  0  0  0  0
  -26.2941  -15.6354   20.1499 H   0  0  0  0  0  0
  -26.7164  -32.5437   23.1087 H   0  0  0  0  0  0
  -25.0072  -33.9713   25.0421 H   0  0  0  0  0  0
  -22.7103  -31.3025   21.3995 H   0  0  0  0  0  0
  -23.3752  -35.9625   23.3310 H   0  0  0  0  0  0
  -24.3600  -36.8898   22.2056 H   0  0  0  0  0  0
  -23.7253  -37.6488   23.6668 H   0  0  0  0  0  0
  -26.0953  -31.5546   20.6064 H   0  0  0  0  0  0
  -26.8335  -30.8342   22.0054 H   0  0  0  0  0  0
  -28.1084  -28.9953   21.1843 H   0  0  0  0  0  0
  -25.9844  -25.9135   19.0225 H   0  0  0  0  0  0
  -23.9699  -27.2808   19.0387 H   0  0  0  0  0  0
  -23.7520  -30.5882   19.4041 H   0  0  0  0  0  0
  -22.7513  -29.2431   19.8543 H   0  0  0  0  0  0
  -25.1295  -36.1917   25.0818 H   0  0  0  0  0  0
  -20.9982  -28.3250   24.1399 H   0  0  0  0  0  0
  -20.5720  -26.2274   23.3584 H   0  0  0  0  0  0
  -21.6661  -26.7440   22.1167 H   0  0  0  0  0  0
  -19.6949  -25.6313   21.1180 H   0  0  0  0  0  0
  -19.6705  -27.3226   20.6746 H   0  0  0  0  0  0
  -17.4232  -26.6672   21.3986 H   0  0  0  0  0  0
  -18.0347  -26.0049   22.8980 H   0  0  0  0  0  0
  -19.7946  -30.7240   24.2262 H   0  0  0  0  0  0
  -17.5029  -31.6247   24.5150 H   0  0  0  0  0  0
  -15.5364  -30.2963   23.7615 H   0  0  0  0  0  0
  -15.8693  -28.0782   22.7052 H   0  0  0  0  0  0
  -24.5940  -30.7019   25.7793 H   0  0  0  0  0  0
  -24.8943  -32.2859   26.4871 H   0  0  0  0  0  0
  -25.8105  -30.8887   27.0218 H   0  0  0  0  0  0
  -26.2925  -29.6713   24.1225 H   0  0  0  0  0  0
  -27.4110  -29.7254   25.4651 H   0  0  0  0  0  0
  -27.8779  -30.4276   23.9356 H   0  0  0  0  0  0
  -27.2676  -33.3597   26.2047 H   0  0  0  0  0  0
  -28.3878  -32.6838   25.0295 H   0  0  0  0  0  0
  -28.0742  -31.8422   26.5385 H   0  0  0  0  0  0
  -28.2593  -38.0089   24.7501 H   0  0  0  0  0  0
  -28.1063  -36.2616   24.6304 H   0  0  0  0  0  0
  -27.2308  -37.1458   25.8877 H   0  0  0  0  0  0
  -20.9359  -29.8739   21.6863 H   0  0  0  0  0  0
  -26.0172  -38.2838   24.1393 H   0  0  0  0  0  0
  -30.1551  -20.1144   22.2329 H   0  0  0  0  0  0
  -30.7347  -17.7255   22.3969 H   0  0  0  0  0  0
  -27.9853  -19.3305   18.6080 H   0  0  0  0  0  0
  -25.2215  -22.2577   21.4256 H   0  0  0  0  0  0
  -26.6664  -22.3650   22.4056 H   0  0  0  0  0  0
  -26.2255  -24.5119   21.2301 H   0  0  0  0  0  0
  -26.2088  -23.6883   19.6901 H   0  0  0  0  0  0
  -26.4709  -21.1549   19.5969 H   0  0  0  0  0  0
  -26.6344  -20.2671   21.0898 H   0  0  0  0  0  0
  -28.5455  -24.1497   21.5492 H   0  0  0  0  0  0
  -28.4714  -17.2237   17.4305 H   0  0  0  0  0  0
  -27.4260  -16.4166   18.5927 H   0  0  0  0  0  0
  -29.0634  -15.8134   18.2815 H   0  0  0  0  0  0
  -29.5343  -25.0820   19.3299 H   0  0  0  0  0  0
  -27.9516  -25.0759   18.6914 H   0  0  0  0  0  0
  -28.8861  -15.3109   21.2118 H   0  0  0  0  0  0
  1 25  1  0  0  0
  1 30  2  0  0  0
  1 85  1  0  0  0
  2  3  1  0  0  0
  2 25  1  0  0  0
  2 87  1  0  0  0
  2 88  1  0  0  0
  3  4  1  0  0  0
  3 89  1  0  0  0
  3 90  1  0  0  0
  4  5  1  0  0  0
  4 91  1  0  0  0
  4 92  1  0  0  0
  5  6  1  0  0  0
  5 26  1  0  0  0
  5 93  1  0  0  0
  6 25  1  0  0  0
  6 94  1  0  0  0
  6 95  1  0  0  0
  7  8  2  0  0  0
  7 26  1  0  0  0
  7 29  1  0  0  0
  8  9  1  0  0  0
  8 22  1  0  0  0
  9 10  1  0  0  0
  9 27  2  0  0  0
 10 11  2  0  0  0
 10 15  1  0  0  0
 11 12  1  0  0  0
 11 96  1  0  0  0
 12 13  2  0  0  0
 12 97  1  0  0  0
 13 14  1  0  0  0
 13 31  1  0  0  0
 14 15  2  0  0  0
 14 98  1  0  0  0
 15 99  1  0  0  0
 16 17  2  0  0  0
 16 21  1  0  0  0
 16 31  1  0  0  0
 17 18  1  0  0  0
 17100  1  0  0  0
 18 19  2  0  0  0
 18101  1  0  0  0
 19 20  1  0  0  0
 19 24  1  0  0  0
 20 21  2  0  0  0
 20102  1  0  0  0
 21 23  1  0  0  0
 22 28  1  0  0  0
 22 32  2  0  0  0
 26 27  1  0  0  0
 28103  1  0  0  0
 28104  1  0  0  0
 29105  1  0  0  0
 29106  1  0  0  0
 33 34  1  0  0  0
 33 66  1  0  0  0
 33 70  2  0  0  0
 34 36  1  0  0  0
 34 59  1  0  0  0
 34107  1  0  0  0
 35 44  2  0  0  0
 35 45  1  0  0  0
 35 68  1  0  0  0
 36 56  1  0  0  0
 36108  1  0  0  0
 37 39  1  0  0  0
 37 47  1  0  0  0
 37 66  1  0  0  0
 37109  1  0  0  0
 38 43  2  0  0  0
 38 46  1  0  0  0
 38 47  1  0  0  0
 39 64  1  0  0  0
 39 67  2  0  0  0
 40 52  1  0  0  0
 40 53  2  0  0  0
 40 58  1  0  0  0
 41110  1  0  0  0
 41111  1  0  0  0
 41112  1  0  0  0
 41 48  1  0  0  0
 42 43  1  0  0  0
 42 66  1  0  0  0
 42113  1  0  0  0
 42114  1  0  0  0
 43 44  1  0  0  0
 44115  1  0  0  0
 45 46  2  0  0  0
 45116  1  0  0  0
 46117  1  0  0  0
 47118  1  0  0  0
 47119  1  0  0  0
 48 56  1  0  0  0
 48 65  1  0  0  0
 48120  1  0  0  0
 49 50  1  0  0  0
 49 53  1  0  0  0
 49 64  1  0  0  0
 49121  1  0  0  0
 50 51  1  0  0  0
 50122  1  0  0  0
 50123  1  0  0  0
 51 52  1  0  0  0
 51124  1  0  0  0
 51125  1  0  0  0
 52126  1  0  0  0
 52127  1  0  0  0
 53 54  1  0  0  0
 54 55  2  0  0  0
 54128  1  0  0  0
 55 57  1  0  0  0
 55129  1  0  0  0
 56 69  2  0  0  0
 57 58  2  0  0  0
 57130  1  0  0  0
 58131  1  0  0  0
 59 60  1  0  0  0
 59 61  1  0  0  0
 59 62  1  0  0  0
 60132  1  0  0  0
 60133  1  0  0  0
 60134  1  0  0  0
 61135  1  0  0  0
 61136  1  0  0  0
 61137  1  0  0  0
 62138  1  0  0  0
 62139  1  0  0  0
 62140  1  0  0  0
 63 65  1  0  0  0
 63141  1  0  0  0
 63142  1  0  0  0
 63143  1  0  0  0
 64144  1  0  0  0
 65145  1  0  0  0
 68 83  1  0  0  0
 71 72  2  0  0  0
 71 75  1  0  0  0
 71146  1  0  0  0
 72 76  1  0  0  0
 72147  1  0  0  0
 73 74  1  0  0  0
 73 75  2  0  0  0
 73148  1  0  0  0
 74 76  2  0  0  0
 74 82  1  0  0  0
 75 84  1  0  0  0
 76 85  1  0  0  0
 77 81  1  0  0  0
 77 84  1  0  0  0
 77 86  2  0  0  0
 78 79  1  0  0  0
 78 80  1  0  0  0
 78149  1  0  0  0
 78150  1  0  0  0
 79 81  1  0  0  0
 79151  1  0  0  0
 79152  1  0  0  0
 80 84  1  0  0  0
 80153  1  0  0  0
 80154  1  0  0  0
 81 83  1  0  0  0
 81155  1  0  0  0
 82156  1  0  0  0
 82157  1  0  0  0
 82158  1  0  0  0
 83159  1  0  0  0
 83160  1  0  0  0
 85161  1  0  0  0
M  ISO  4   1 100  68 101  83 101  85 100
M  END
> <chiral flag>
0

> <version>
0

> <s_m_source_file>
/data/baiqing/PycharmProjects/Reinvent-master-3.2/result/LINK_invent/BTK/process_docking_weight1_custom_product_contain_oxygen_bond_distance_aromatic_linkinvent_7_9_3/rearranged_h_0107.sdf

> <i_m_source_file_index>
34

> <r_mmod_Potential_Energy-OPLS-2005>
190.303970336914

> <r_mmod_Stretch_Energy-OPLS-2005>
87.8313751220703

> <r_mmod_Bend_Energy-OPLS-2005>
156.572494506836

> <r_mmod_Torsional_Energy-OPLS-2005>
318.694396972656

> <r_mmod_Improper_Torsional_Energy-OPLS-2005>
8.36099529266357

> <r_mmod_Van_der_Waal_Energy-OPLS-2005>
139.362106323242

> <r_mmod_Electrostatic_Energy-OPLS-2005>
-343.435577392578

> <r_mmod_Solvation_Energy-OPLS-2005>
-225.705017089844

> <b_mmod_Minimization_Converged-OPLS-2005>
0

> <r_mmod_RMS_Derivative-OPLS-2005>
1.33602046966553

$$$$
34
                    3D
 Structure written by MMmdl.
162170  0  0  1  0            999 V2000
  -30.6397  -14.5641   20.5266 C   0  0  0  0  0  0
  -30.4350  -12.3467   19.4484 C   0  0  0  0  0  0
  -29.5046  -12.5114   18.2252 C   0  0  0  0  0  0
  -28.0260  -12.3574   18.6334 C   0  0  0  0  0  0
  -27.6607  -13.2077   19.8788 C   0  0  2  0  0  0
  -28.7028  -13.0165   21.0065 C   0  0  0  0  0  0
  -25.2582  -13.8155   20.5692 C   0  0  0  0  0  0
  -24.1828  -13.0432   20.9178 C   0  0  0  0  0  0
  -24.6388  -11.6899   20.8739 C   0  0  0  0  0  0
  -23.9053  -10.4285   21.0400 C   0  0  0  0  0  0
  -24.3604   -9.4202   21.9180 C   0  0  0  0  0  0
  -23.6279   -8.2241   22.0754 C   0  0  0  0  0  0
  -22.4267   -8.0276   21.3541 C   0  0  0  0  0  0
  -21.9900   -9.0248   20.4647 C   0  0  0  0  0  0
  -22.7225  -10.2124   20.3051 C   0  0  0  0  0  0
  -21.6851   -6.0734   22.5277 C   0  0  0  0  0  0
  -21.4013   -6.5638   23.8208 C   0  0  0  0  0  0
  -21.3659   -5.6791   24.9171 C   0  0  0  0  0  0
  -21.6046   -4.3054   24.7225 C   0  0  0  0  0  0
  -21.8816   -3.8145   23.4347 C   0  0  0  0  0  0
  -21.9191   -4.6961   22.3401 C   0  0  0  0  0  0
  -22.7853  -13.5225   21.1844 C   0  0  0  0  0  0
  -22.1656   -4.2144   21.0981 F   0  0  0  0  0  0
  -21.5633   -3.4537   25.7740 F   0  0  0  0  0  0
  -30.0310  -13.3429   20.4580 N   0  0  0  0  0  0
  -26.3018  -12.9326   20.3386 N   0  0  0  0  0  0
  -25.9324  -11.6485   20.5788 N   0  0  0  0  0  0
  -22.0506  -12.8209   22.0403 N   0  0  0  0  0  0
  -25.4306  -15.1871   20.4092 N   0  0  0  0  0  0
  -31.7623  -14.7729   20.0591 O   0  0  0  0  0  0
  -21.6635   -6.8872   21.4237 O   0  0  0  0  0  0
  -22.3537  -14.5535   20.6697 O   0  0  0  0  0  0
  -24.6209  -31.8625   23.2051 C   0  0  0  0  0  0
  -25.9083  -32.4791   23.8364 C   0  0  1  0  0  0
  -27.2380  -27.3746   20.0964 C   0  0  0  0  0  0
  -25.5926  -33.8592   24.2299 N   0  0  0  0  0  0
  -23.4105  -30.4858   21.5468 C   0  0  2  0  0  0
  -24.8550  -28.9414   20.1152 C   0  0  0  0  0  0
  -22.7431  -29.4646   22.4971 C   0  0  0  0  0  0
  -18.0274  -28.1382   22.8482 C   0  0  0  0  0  0
  -24.1490  -36.7299   23.2637 C   0  0  0  0  0  0
  -25.9449  -30.8101   21.3645 C   0  0  0  0  0  0
  -26.0190  -29.4399   20.7107 C   0  0  0  0  0  0
  -27.2077  -28.6648   20.6952 C   0  0  0  0  0  0
  -26.0422  -26.8994   19.5076 C   0  0  0  0  0  0
  -24.8644  -27.6727   19.5129 C   0  0  0  0  0  0
  -23.6203  -29.8158   20.1628 C   0  0  0  0  0  0
  -25.4111  -36.3087   24.0333 C   0  0  1  0  0  0
  -20.5865  -28.3676   23.1298 C   0  0  2  0  0  0
  -20.6766  -26.9408   22.5409 C   0  0  0  0  0  0
  -19.5752  -26.6384   21.5202 C   0  0  0  0  0  0
  -18.1929  -26.7929   22.1609 C   0  0  0  0  0  0
  -19.1523  -28.8845   23.2887 C   0  0  0  0  0  0
  -18.9451  -30.1451   23.8902 C   0  0  0  0  0  0
  -17.6451  -30.6587   24.0562 C   0  0  0  0  0  0
  -25.9046  -34.9457   23.5113 C   0  0  0  0  0  0
  -16.5342  -29.9084   23.6332 C   0  0  0  0  0  0
  -16.7261  -28.6502   23.0350 C   0  0  0  0  0  0
  -26.4488  -31.6589   25.0720 C   0  0  0  0  0  0
  -25.3741  -31.3699   26.1457 C   0  0  0  0  0  0
  -27.0336  -30.3029   24.6139 C   0  0  0  0  0  0
  -27.6065  -32.4309   25.7484 C   0  0  0  0  0  0
  -27.5579  -37.1802   24.8461 C   0  0  0  0  0  0
  -21.4149  -29.3039   22.3706 N   0  0  0  0  0  0
  -26.4288  -37.3781   23.9412 N   0  0  0  0  0  0
  -24.6778  -31.0690   22.0966 N   0  0  0  0  0  0
  -23.4177  -28.8196   23.3042 O   0  0  0  0  0  0
  -28.4206  -26.6368   20.1303 O   0  0  0  0  0  0
  -26.5604  -34.8917   22.4671 O   0  0  0  0  0  0
  -23.5393  -32.1398   23.7418 O   0  0  0  0  0  0
  -28.3763  -21.7725   22.2403 C   0  0  0  0  0  0
  -29.6694  -20.5682   20.5858 C   0  0  0  0  0  0
  -28.4086  -20.6447   23.0871 C   0  0  0  0  0  0
  -29.7189  -19.4020   21.4176 C   0  0  0  0  0  0
  -29.0831  -19.4571   22.6910 C   0  0  0  0  0  0
  -29.0145  -21.7787   20.9780 C   0  0  0  0  0  0
  -28.6008  -24.1034   20.4438 C   0  0  0  0  0  0
  -27.7033  -20.7550   24.4337 C   0  0  0  0  0  0
  -30.5207  -18.1307   20.9922 C   0  0  0  0  0  0
  -29.1489  -18.2638   23.6520 C   0  0  0  0  0  0
  -28.5648  -25.3298   19.4926 C   0  0  0  0  0  0
  -29.7133  -16.9494   20.3498 C   0  0  0  0  0  0
  -29.0071  -22.9154   20.1100 N   0  0  0  0  0  0
  -29.8399  -15.5815   20.9364 N   0  0  0  0  0  0
  -30.3298  -18.3513   24.5238 N   0  3  0  0  0  0
  -31.4783  -12.4606   19.1497 H   0  0  0  0  0  0
  -30.3518  -11.3397   19.8608 H   0  0  0  0  0  0
  -29.7579  -11.7798   17.4572 H   0  0  0  0  0  0
  -29.6583  -13.4930   17.7745 H   0  0  0  0  0  0
  -27.8491  -11.3016   18.8423 H   0  0  0  0  0  0
  -27.3734  -12.6132   17.7980 H   0  0  0  0  0  0
  -27.6946  -14.2511   19.5654 H   0  0  0  0  0  0
  -28.6933  -11.9854   21.3631 H   0  0  0  0  0  0
  -28.4542  -13.6271   21.8760 H   0  0  0  0  0  0
  -25.2754   -9.5672   22.4749 H   0  0  0  0  0  0
  -23.9991   -7.4630   22.7470 H   0  0  0  0  0  0
  -21.0835   -8.8756   19.8947 H   0  0  0  0  0  0
  -22.3684  -10.9660   19.6151 H   0  0  0  0  0  0
  -21.2004   -7.6146   23.9705 H   0  0  0  0  0  0
  -21.1484   -6.0528   25.9070 H   0  0  0  0  0  0
  -22.0598   -2.7609   23.2849 H   0  0  0  0  0  0
  -22.4123  -11.9846   22.4748 H   0  0  0  0  0  0
  -21.1130  -13.1227   22.2640 H   0  0  0  0  0  0
  -24.6617  -15.8413   20.5074 H   0  0  0  0  0  0
  -26.2796  -15.6224   20.0719 H   0  0  0  0  0  0
  -26.7157  -32.5470   23.1124 H   0  0  0  0  0  0
  -25.0103  -33.9752   25.0463 H   0  0  0  0  0  0
  -22.7019  -31.3042   21.4043 H   0  0  0  0  0  0
  -23.3752  -35.9634   23.3294 H   0  0  0  0  0  0
  -24.3588  -36.8922   22.2054 H   0  0  0  0  0  0
  -23.7244  -37.6502   23.6658 H   0  0  0  0  0  0
  -26.0658  -31.5744   20.5955 H   0  0  0  0  0  0
  -26.8295  -30.8609   21.9876 H   0  0  0  0  0  0
  -28.1055  -29.0509   21.1566 H   0  0  0  0  0  0
  -25.9756  -25.9247   19.0516 H   0  0  0  0  0  0
  -23.9652  -27.2780   19.0595 H   0  0  0  0  0  0
  -23.7320  -30.5886   19.4015 H   0  0  0  0  0  0
  -22.7423  -29.2385   19.8676 H   0  0  0  0  0  0
  -25.1290  -36.1941   25.0827 H   0  0  0  0  0  0
  -20.9954  -28.3243   24.1417 H   0  0  0  0  0  0
  -20.5653  -26.2285   23.3597 H   0  0  0  0  0  0
  -21.6639  -26.7443   22.1209 H   0  0  0  0  0  0
  -19.6915  -25.6291   21.1243 H   0  0  0  0  0  0
  -19.6708  -27.3183   20.6725 H   0  0  0  0  0  0
  -17.4200  -26.6665   21.4014 H   0  0  0  0  0  0
  -18.0339  -26.0066   22.9000 H   0  0  0  0  0  0
  -19.7925  -30.7264   24.2274 H   0  0  0  0  0  0
  -17.5007  -31.6269   24.5156 H   0  0  0  0  0  0
  -15.5343  -30.2988   23.7665 H   0  0  0  0  0  0
  -15.8651  -28.0826   22.7068 H   0  0  0  0  0  0
  -24.5933  -30.7029   25.7784 H   0  0  0  0  0  0
  -24.8909  -32.2848   26.4898 H   0  0  0  0  0  0
  -25.8083  -30.8872   27.0221 H   0  0  0  0  0  0
  -26.2895  -29.6773   24.1197 H   0  0  0  0  0  0
  -27.4094  -29.7296   25.4624 H   0  0  0  0  0  0
  -27.8734  -30.4346   23.9312 H   0  0  0  0  0  0
  -27.2705  -33.3618   26.2066 H   0  0  0  0  0  0
  -28.3877  -32.6848   25.0306 H   0  0  0  0  0  0
  -28.0732  -31.8421   26.5395 H   0  0  0  0  0  0
  -28.2586  -38.0111   24.7520 H   0  0  0  0  0  0
  -28.1085  -36.2642   24.6264 H   0  0  0  0  0  0
  -27.2300  -37.1418   25.8864 H   0  0  0  0  0  0
  -20.9314  -29.8758   21.6920 H   0  0  0  0  0  0
  -26.0169  -38.2856   24.1412 H   0  0  0  0  0  0
  -27.8420  -22.6406   22.5957 H   0  0  0  0  0  0
  -30.1656  -20.5398   19.6256 H   0  0  0  0  0  0
  -28.2494  -24.3476   21.4483 H   0  0  0  0  0  0
  -27.3223  -21.7620   24.6092 H   0  0  0  0  0  0
  -28.3799  -20.5249   25.2560 H   0  0  0  0  0  0
  -26.8516  -20.0761   24.4815 H   0  0  0  0  0  0
  -31.1157  -17.7646   21.8278 H   0  0  0  0  0  0
  -31.2705  -18.4509   20.2673 H   0  0  0  0  0  0
  -29.1644  -17.3210   23.1072 H   0  0  0  0  0  0
  -28.2518  -18.2070   24.2673 H   0  0  0  0  0  0
  -27.8518  -25.1505   18.6914 H   0  0  0  0  0  0
  -29.5280  -25.3609   18.9830 H   0  0  0  0  0  0
  -29.9540  -16.8960   19.2864 H   0  0  0  0  0  0
  -28.6525  -17.2018   20.3768 H   0  0  0  0  0  0
  -28.9969  -15.2486   21.3814 H   0  0  0  0  0  0
  -31.1743  -18.3360   23.9826 H   0  0  0  0  0  0
  -30.3435  -17.5763   25.1619 H   0  0  0  0  0  0
  -30.3102  -19.2015   25.0552 H   0  0  0  0  0  0
  1 25  1  0  0  0
  1 30  2  0  0  0
  1 84  1  0  0  0
  2  3  1  0  0  0
  2 25  1  0  0  0
  2 86  1  0  0  0
  2 87  1  0  0  0
  3  4  1  0  0  0
  3 88  1  0  0  0
  3 89  1  0  0  0
  4  5  1  0  0  0
  4 90  1  0  0  0
  4 91  1  0  0  0
  5  6  1  0  0  0
  5 26  1  0  0  0
  5 92  1  0  0  0
  6 25  1  0  0  0
  6 93  1  0  0  0
  6 94  1  0  0  0
  7  8  2  0  0  0
  7 26  1  0  0  0
  7 29  1  0  0  0
  8  9  1  0  0  0
  8 22  1  0  0  0
  9 10  1  0  0  0
  9 27  2  0  0  0
 10 11  2  0  0  0
 10 15  1  0  0  0
 11 12  1  0  0  0
 11 95  1  0  0  0
 12 13  2  0  0  0
 12 96  1  0  0  0
 13 14  1  0  0  0
 13 31  1  0  0  0
 14 15  2  0  0  0
 14 97  1  0  0  0
 15 98  1  0  0  0
 16 17  2  0  0  0
 16 21  1  0  0  0
 16 31  1  0  0  0
 17 18  1  0  0  0
 17 99  1  0  0  0
 18 19  2  0  0  0
 18100  1  0  0  0
 19 20  1  0  0  0
 19 24  1  0  0  0
 20 21  2  0  0  0
 20101  1  0  0  0
 21 23  1  0  0  0
 22 28  1  0  0  0
 22 32  2  0  0  0
 26 27  1  0  0  0
 28102  1  0  0  0
 28103  1  0  0  0
 29104  1  0  0  0
 29105  1  0  0  0
 33 34  1  0  0  0
 33 66  1  0  0  0
 33 70  2  0  0  0
 34 36  1  0  0  0
 34 59  1  0  0  0
 34106  1  0  0  0
 35 44  2  0  0  0
 35 45  1  0  0  0
 35 68  1  0  0  0
 36 56  1  0  0  0
 36107  1  0  0  0
 37 39  1  0  0  0
 37 47  1  0  0  0
 37 66  1  0  0  0
 37108  1  0  0  0
 38 43  2  0  0  0
 38 46  1  0  0  0
 38 47  1  0  0  0
 39 64  1  0  0  0
 39 67  2  0  0  0
 40 52  1  0  0  0
 40 53  2  0  0  0
 40 58  1  0  0  0
 41109  1  0  0  0
 41110  1  0  0  0
 41111  1  0  0  0
 41 48  1  0  0  0
 42 43  1  0  0  0
 42 66  1  0  0  0
 42112  1  0  0  0
 42113  1  0  0  0
 43 44  1  0  0  0
 44114  1  0  0  0
 45 46  2  0  0  0
 45115  1  0  0  0
 46116  1  0  0  0
 47117  1  0  0  0
 47118  1  0  0  0
 48 56  1  0  0  0
 48 65  1  0  0  0
 48119  1  0  0  0
 49 50  1  0  0  0
 49 53  1  0  0  0
 49 64  1  0  0  0
 49120  1  0  0  0
 50 51  1  0  0  0
 50121  1  0  0  0
 50122  1  0  0  0
 51 52  1  0  0  0
 51123  1  0  0  0
 51124  1  0  0  0
 52125  1  0  0  0
 52126  1  0  0  0
 53 54  1  0  0  0
 54 55  2  0  0  0
 54127  1  0  0  0
 55 57  1  0  0  0
 55128  1  0  0  0
 56 69  2  0  0  0
 57 58  2  0  0  0
 57129  1  0  0  0
 58130  1  0  0  0
 59 60  1  0  0  0
 59 61  1  0  0  0
 59 62  1  0  0  0
 60131  1  0  0  0
 60132  1  0  0  0
 60133  1  0  0  0
 61134  1  0  0  0
 61135  1  0  0  0
 61136  1  0  0  0
 62137  1  0  0  0
 62138  1  0  0  0
 62139  1  0  0  0
 63 65  1  0  0  0
 63140  1  0  0  0
 63141  1  0  0  0
 63142  1  0  0  0
 64143  1  0  0  0
 65144  1  0  0  0
 68 81  1  0  0  0
 71 73  2  0  0  0
 71 76  1  0  0  0
 71145  1  0  0  0
 72 74  1  0  0  0
 72 76  2  0  0  0
 72146  1  0  0  0
 73 75  1  0  0  0
 73 78  1  0  0  0
 74 75  2  0  0  0
 74 79  1  0  0  0
 75 80  1  0  0  0
 76 83  1  0  0  0
 77 81  1  0  0  0
 77 83  2  0  0  0
 77147  1  0  0  0
 78148  1  0  0  0
 78149  1  0  0  0
 78150  1  0  0  0
 79 82  1  0  0  0
 79151  1  0  0  0
 79152  1  0  0  0
 80 85  1  0  0  0
 80153  1  0  0  0
 80154  1  0  0  0
 81155  1  0  0  0
 81156  1  0  0  0
 82 84  1  0  0  0
 82157  1  0  0  0
 82158  1  0  0  0
 84159  1  0  0  0
 85160  1  0  0  0
 85161  1  0  0  0
 85162  1  0  0  0
M  CHG  1  85   1
M  ISO  4   1 100  68 101  81 101  84 100
M  END
> <chiral flag>
0

> <version>
0

> <s_m_source_file>
/data/baiqing/PycharmProjects/Reinvent-master-3.2/result/LINK_invent/BTK/process_docking_weight1_custom_product_contain_oxygen_bond_distance_aromatic_linkinvent_7_9_3/rearranged_h_0107.sdf

> <i_m_source_file_index>
35

> <r_mmod_Potential_Energy-OPLS-2005>
-272.289611816406

> <r_mmod_Stretch_Energy-OPLS-2005>
63.290283203125

> <r_mmod_Bend_Energy-OPLS-2005>
132.866088867188

> <r_mmod_Torsional_Energy-OPLS-2005>
214.642700195312

> <r_mmod_Improper_Torsional_Energy-OPLS-2005>
7.43292856216431

> <r_mmod_Van_der_Waal_Energy-OPLS-2005>
154.164611816406

> <r_mmod_Electrostatic_Energy-OPLS-2005>
-359.938018798828

> <r_mmod_Solvation_Energy-OPLS-2005>
-510.512420654297

> <b_mmod_Minimization_Converged-OPLS-2005>
0

> <r_mmod_RMS_Derivative-OPLS-2005>
1.04440641403198

$$$$
35
                    3D
 Structure written by MMmdl.
164173  0  0  1  0            999 V2000
  -30.6472  -14.7170   20.3470 C   0  0  0  0  0  0
  -30.4389  -12.4061   19.4591 C   0  0  0  0  0  0
  -29.5081  -12.3643   18.2279 C   0  0  0  0  0  0
  -28.0220  -12.2908   18.6463 C   0  0  0  0  0  0
  -27.6349  -13.2173   19.8361 C   0  0  2  0  0  0
  -28.6995  -13.2024   20.9527 C   0  0  0  0  0  0
  -25.2548  -13.8162   20.5731 C   0  0  0  0  0  0
  -24.1802  -13.0434   20.9198 C   0  0  0  0  0  0
  -24.6354  -11.6905   20.8771 C   0  0  0  0  0  0
  -23.9008  -10.4300   21.0421 C   0  0  0  0  0  0
  -24.3586   -9.4220   21.9193 C   0  0  0  0  0  0
  -23.6283   -8.2255   22.0743 C   0  0  0  0  0  0
  -22.4268   -8.0267   21.3540 C   0  0  0  0  0  0
  -21.9882   -9.0233   20.4638 C   0  0  0  0  0  0
  -22.7183  -10.2124   20.3069 C   0  0  0  0  0  0
  -21.6867   -6.0719   22.5294 C   0  0  0  0  0  0
  -21.4010   -6.5628   23.8224 C   0  0  0  0  0  0
  -21.3669   -5.6794   24.9190 C   0  0  0  0  0  0
  -21.6056   -4.3067   24.7235 C   0  0  0  0  0  0
  -21.8823   -3.8133   23.4361 C   0  0  0  0  0  0
  -21.9194   -4.6946   22.3408 C   0  0  0  0  0  0
  -22.7827  -13.5235   21.1878 C   0  0  0  0  0  0
  -22.1651   -4.2138   21.0980 F   0  0  0  0  0  0
  -21.5642   -3.4542   25.7745 F   0  0  0  0  0  0
  -29.9879  -13.5127   20.3228 N   0  0  0  0  0  0
  -26.2942  -12.9316   20.3340 N   0  0  0  0  0  0
  -25.9281  -11.6470   20.5825 N   0  0  0  0  0  0
  -22.0453  -12.8216   22.0419 N   0  0  0  0  0  0
  -25.4325  -15.1875   20.4189 N   0  0  0  0  0  0
  -31.8772  -14.7458   20.2777 O   0  0  0  0  0  0
  -21.6652   -6.8843   21.4241 O   0  0  0  0  0  0
  -22.3516  -14.5546   20.6733 O   0  0  0  0  0  0
  -24.6262  -31.8588   23.2016 C   0  0  0  0  0  0
  -25.9111  -32.4772   23.8338 C   0  0  1  0  0  0
  -27.2433  -27.3317   20.1124 C   0  0  0  0  0  0
  -25.5921  -33.8573   24.2268 N   0  0  0  0  0  0
  -23.4193  -30.4795   21.5448 C   0  0  2  0  0  0
  -24.8684  -28.9321   20.1143 C   0  0  0  0  0  0
  -22.7480  -29.4609   22.4964 C   0  0  0  0  0  0
  -18.0285  -28.1393   22.8493 C   0  0  0  0  0  0
  -24.1481  -36.7299   23.2640 C   0  0  0  0  0  0
  -25.9581  -30.7918   21.3687 C   0  0  0  0  0  0
  -26.0364  -29.4194   20.7131 C   0  0  0  0  0  0
  -27.2257  -28.6331   20.6984 C   0  0  0  0  0  0
  -26.0453  -26.8872   19.5037 C   0  0  0  0  0  0
  -24.8744  -27.6702   19.5009 C   0  0  0  0  0  0
  -23.6333  -29.8093   20.1616 C   0  0  0  0  0  0
  -25.4108  -36.3081   24.0328 C   0  0  1  0  0  0
  -20.5876  -28.3686   23.1299 C   0  0  2  0  0  0
  -20.6769  -26.9413   22.5419 C   0  0  0  0  0  0
  -19.5743  -26.6385   21.5226 C   0  0  0  0  0  0
  -18.1921  -26.7941   22.1637 C   0  0  0  0  0  0
  -19.1538  -28.8864   23.2883 C   0  0  0  0  0  0
  -18.9459  -30.1471   23.8890 C   0  0  0  0  0  0
  -17.6455  -30.6588   24.0572 C   0  0  0  0  0  0
  -25.9055  -34.9446   23.5102 C   0  0  0  0  0  0
  -16.5346  -29.9088   23.6332 C   0  0  0  0  0  0
  -16.7269  -28.6508   23.0350 C   0  0  0  0  0  0
  -26.4508  -31.6573   25.0700 C   0  0  0  0  0  0
  -25.3756  -31.3708   26.1441 C   0  0  0  0  0  0
  -27.0350  -30.2990   24.6142 C   0  0  0  0  0  0
  -27.6049  -32.4330   25.7486 C   0  0  0  0  0  0
  -27.5584  -37.1801   24.8466 C   0  0  0  0  0  0
  -21.4196  -29.3032   22.3702 N   0  0  0  0  0  0
  -26.4284  -37.3776   23.9419 N   0  0  0  0  0  0
  -24.6869  -31.0604   22.0961 N   0  0  0  0  0  0
  -23.4204  -28.8175   23.3061 O   0  0  0  0  0  0
  -28.3847  -26.5142   20.1512 O   0  0  0  0  0  0
  -26.5633  -34.8921   22.4677 O   0  0  0  0  0  0
  -23.5426  -32.1386   23.7342 O   0  0  0  0  0  0
  -31.1818  -19.3977   20.4721 C   0  0  0  0  0  0
  -31.1934  -17.9815   20.3190 C   0  0  0  0  0  0
  -28.8200  -19.3466   20.9073 C   0  0  0  0  0  0
  -29.9966  -20.1402   20.7672 C   0  0  0  0  0  0
  -30.0128  -17.2017   20.4271 C   0  0  0  0  0  0
  -28.8263  -17.9274   20.7300 C   0  0  0  0  0  0
  -30.9070  -22.0698   21.9275 C   0  0  0  0  0  0
  -29.2659  -22.5215   20.2525 C   0  0  0  0  0  0
  -31.1990  -17.0395   16.8295 C   0  0  0  0  0  0
  -30.8585  -15.9747   17.5729 C   0  0  0  0  0  0
  -31.2513  -23.5626   22.0540 C   0  0  0  0  0  0
  -30.0681  -24.4705   21.7223 C   0  0  0  0  0  0
  -29.4646  -24.1038   20.3635 C   0  0  2  0  0  0
  -29.6239  -15.8989   18.4624 C   0  0  0  0  0  0
  -28.2215  -25.0475   20.0273 C   0  0  0  0  0  0
  -30.0376  -21.6142   20.9735 N   0  0  0  0  0  0
  -29.9358  -15.8313   19.9109 N   0  0  0  0  0  0
  -31.4533  -21.3156   22.7441 O   0  0  0  0  0  0
  -28.3926  -22.1219   19.4735 O   0  0  0  0  0  0
  -27.6499  -17.2556   20.7844 F   0  0  0  0  0  0
  -31.4757  -12.5308   19.1420 H   0  0  0  0  0  0
  -30.4034  -11.4633   20.0057 H   0  0  0  0  0  0
  -29.7545  -11.4908   17.6212 H   0  0  0  0  0  0
  -29.7000  -13.2071   17.5717 H   0  0  0  0  0  0
  -27.8337  -11.2545   18.9314 H   0  0  0  0  0  0
  -27.3774  -12.4811   17.7871 H   0  0  0  0  0  0
  -27.5899  -14.2278   19.4416 H   0  0  0  0  0  0
  -28.7425  -12.2333   21.4499 H   0  0  0  0  0  0
  -28.4679  -13.9461   21.7175 H   0  0  0  0  0  0
  -25.2743   -9.5699   22.4765 H   0  0  0  0  0  0
  -24.0003   -7.4654   22.7456 H   0  0  0  0  0  0
  -21.0824   -8.8709   19.8947 H   0  0  0  0  0  0
  -22.3633  -10.9638   19.6179 H   0  0  0  0  0  0
  -21.1982   -7.6131   23.9703 H   0  0  0  0  0  0
  -21.1498   -6.0531   25.9091 H   0  0  0  0  0  0
  -22.0594   -2.7572   23.2875 H   0  0  0  0  0  0
  -22.4036  -11.9846   22.4774 H   0  0  0  0  0  0
  -21.1088  -13.1262   22.2664 H   0  0  0  0  0  0
  -24.6821  -15.8552   20.5524 H   0  0  0  0  0  0
  -26.3252  -15.6346   20.2317 H   0  0  0  0  0  0
  -26.7179  -32.5440   23.1088 H   0  0  0  0  0  0
  -25.0058  -33.9709   25.0408 H   0  0  0  0  0  0
  -22.7097  -31.2962   21.3997 H   0  0  0  0  0  0
  -23.3737  -35.9634   23.3282 H   0  0  0  0  0  0
  -24.3579  -36.8950   22.2060 H   0  0  0  0  0  0
  -23.7225  -37.6492   23.6673 H   0  0  0  0  0  0
  -26.0792  -31.5510   20.5949 H   0  0  0  0  0  0
  -26.8436  -30.8478   21.9903 H   0  0  0  0  0  0
  -28.1246  -29.0077   21.1664 H   0  0  0  0  0  0
  -25.9883  -25.9182   19.0288 H   0  0  0  0  0  0
  -23.9815  -27.2835   19.0292 H   0  0  0  0  0  0
  -23.7478  -30.5827   19.4015 H   0  0  0  0  0  0
  -22.7541  -29.2344   19.8656 H   0  0  0  0  0  0
  -25.1284  -36.1932   25.0816 H   0  0  0  0  0  0
  -20.9961  -28.3254   24.1426 H   0  0  0  0  0  0
  -20.5686  -26.2300   23.3623 H   0  0  0  0  0  0
  -21.6633  -26.7463   22.1195 H   0  0  0  0  0  0
  -19.6901  -25.6295   21.1257 H   0  0  0  0  0  0
  -19.6679  -27.3199   20.6758 H   0  0  0  0  0  0
  -17.4203  -26.6710   21.4019 H   0  0  0  0  0  0
  -18.0301  -26.0066   22.9020 H   0  0  0  0  0  0
  -19.7927  -30.7308   24.2229 H   0  0  0  0  0  0
  -17.5001  -31.6271   24.5186 H   0  0  0  0  0  0
  -15.5342  -30.2999   23.7652 H   0  0  0  0  0  0
  -15.8669  -28.0839   22.7050 H   0  0  0  0  0  0
  -24.5895  -30.7104   25.7772 H   0  0  0  0  0  0
  -24.9003  -32.2883   26.4910 H   0  0  0  0  0  0
  -25.8093  -30.8839   27.0183 H   0  0  0  0  0  0
  -26.2912  -29.6737   24.1190 H   0  0  0  0  0  0
  -27.4084  -29.7244   25.4630 H   0  0  0  0  0  0
  -27.8761  -30.4275   23.9326 H   0  0  0  0  0  0
  -27.2611  -33.3606   26.2067 H   0  0  0  0  0  0
  -28.3852  -32.6945   25.0328 H   0  0  0  0  0  0
  -28.0718  -31.8468   26.5408 H   0  0  0  0  0  0
  -28.2587  -38.0115   24.7533 H   0  0  0  0  0  0
  -28.1105  -36.2654   24.6256 H   0  0  0  0  0  0
  -27.2320  -37.1401   25.8875 H   0  0  0  0  0  0
  -20.9386  -29.8757   21.6909 H   0  0  0  0  0  0
  -26.0171  -38.2850   24.1426 H   0  0  0  0  0  0
  -32.1217  -19.9196   20.3505 H   0  0  0  0  0  0
  -32.1186  -17.4998   20.0323 H   0  0  0  0  0  0
  -27.8816  -19.8321   21.1329 H   0  0  0  0  0  0
  -32.0915  -17.0179   16.2158 H   0  0  0  0  0  0
  -30.6084  -17.9440   16.8183 H   0  0  0  0  0  0
  -31.4919  -15.0968   17.5485 H   0  0  0  0  0  0
  -32.0875  -23.7738   21.3847 H   0  0  0  0  0  0
  -31.6088  -23.7758   23.0633 H   0  0  0  0  0  0
  -30.4151  -25.5045   21.6983 H   0  0  0  0  0  0
  -29.3133  -24.4170   22.5086 H   0  0  0  0  0  0
  -30.2233  -24.3255   19.6091 H   0  0  0  0  0  0
  -29.0026  -15.0760   18.1390 H   0  0  0  0  0  0
  -29.0034  -16.7714   18.2473 H   0  0  0  0  0  0
  -27.3848  -24.7417   20.6555 H   0  0  0  0  0  0
  -27.9264  -24.8416   18.9985 H   0  0  0  0  0  0
  1 25  1  0  0  0
  1 30  2  0  0  0
  1 87  1  0  0  0
  2  3  1  0  0  0
  2 25  1  0  0  0
  2 91  1  0  0  0
  2 92  1  0  0  0
  3  4  1  0  0  0
  3 93  1  0  0  0
  3 94  1  0  0  0
  4  5  1  0  0  0
  4 95  1  0  0  0
  4 96  1  0  0  0
  5  6  1  0  0  0
  5 26  1  0  0  0
  5 97  1  0  0  0
  6 25  1  0  0  0
  6 98  1  0  0  0
  6 99  1  0  0  0
  7  8  2  0  0  0
  7 26  1  0  0  0
  7 29  1  0  0  0
  8  9  1  0  0  0
  8 22  1  0  0  0
  9 10  1  0  0  0
  9 27  2  0  0  0
 10 11  2  0  0  0
 10 15  1  0  0  0
 11 12  1  0  0  0
 11100  1  0  0  0
 12 13  2  0  0  0
 12101  1  0  0  0
 13 14  1  0  0  0
 13 31  1  0  0  0
 14 15  2  0  0  0
 14102  1  0  0  0
 15103  1  0  0  0
 16 17  2  0  0  0
 16 21  1  0  0  0
 16 31  1  0  0  0
 17 18  1  0  0  0
 17104  1  0  0  0
 18 19  2  0  0  0
 18105  1  0  0  0
 19 20  1  0  0  0
 19 24  1  0  0  0
 20 21  2  0  0  0
 20106  1  0  0  0
 21 23  1  0  0  0
 22 28  1  0  0  0
 22 32  2  0  0  0
 26 27  1  0  0  0
 28107  1  0  0  0
 28108  1  0  0  0
 29109  1  0  0  0
 29110  1  0  0  0
 33 34  1  0  0  0
 33 66  1  0  0  0
 33 70  2  0  0  0
 34 36  1  0  0  0
 34 59  1  0  0  0
 34111  1  0  0  0
 35 44  2  0  0  0
 35 45  1  0  0  0
 35 68  1  0  0  0
 36 56  1  0  0  0
 36112  1  0  0  0
 37 39  1  0  0  0
 37 47  1  0  0  0
 37 66  1  0  0  0
 37113  1  0  0  0
 38 43  2  0  0  0
 38 46  1  0  0  0
 38 47  1  0  0  0
 39 64  1  0  0  0
 39 67  2  0  0  0
 40 52  1  0  0  0
 40 53  2  0  0  0
 40 58  1  0  0  0
 41114  1  0  0  0
 41115  1  0  0  0
 41116  1  0  0  0
 41 48  1  0  0  0
 42 43  1  0  0  0
 42 66  1  0  0  0
 42117  1  0  0  0
 42118  1  0  0  0
 43 44  1  0  0  0
 44119  1  0  0  0
 45 46  2  0  0  0
 45120  1  0  0  0
 46121  1  0  0  0
 47122  1  0  0  0
 47123  1  0  0  0
 48 56  1  0  0  0
 48 65  1  0  0  0
 48124  1  0  0  0
 49 50  1  0  0  0
 49 53  1  0  0  0
 49 64  1  0  0  0
 49125  1  0  0  0
 50 51  1  0  0  0
 50126  1  0  0  0
 50127  1  0  0  0
 51 52  1  0  0  0
 51128  1  0  0  0
 51129  1  0  0  0
 52130  1  0  0  0
 52131  1  0  0  0
 53 54  1  0  0  0
 54 55  2  0  0  0
 54132  1  0  0  0
 55 57  1  0  0  0
 55133  1  0  0  0
 56 69  2  0  0  0
 57 58  2  0  0  0
 57134  1  0  0  0
 58135  1  0  0  0
 59 60  1  0  0  0
 59 61  1  0  0  0
 59 62  1  0  0  0
 60136  1  0  0  0
 60137  1  0  0  0
 60138  1  0  0  0
 61139  1  0  0  0
 61140  1  0  0  0
 61141  1  0  0  0
 62142  1  0  0  0
 62143  1  0  0  0
 62144  1  0  0  0
 63 65  1  0  0  0
 63145  1  0  0  0
 63146  1  0  0  0
 63147  1  0  0  0
 64148  1  0  0  0
 65149  1  0  0  0
 68 85  1  0  0  0
 71 72  2  0  0  0
 71 74  1  0  0  0
 71150  1  0  0  0
 72 75  1  0  0  0
 72151  1  0  0  0
 73 74  2  0  0  0
 73 76  1  0  0  0
 73152  1  0  0  0
 74 86  1  0  0  0
 75 76  2  0  0  0
 75 87  1  0  0  0
 76 90  1  0  0  0
 77 81  1  0  0  0
 77 86  1  0  0  0
 77 88  2  0  0  0
 78 83  1  0  0  0
 78 86  1  0  0  0
 78 89  2  0  0  0
 79 80  2  0  0  0
 79153  1  0  0  0
 79154  1  0  0  0
 80 84  1  0  0  0
 80155  1  0  0  0
 81 82  1  0  0  0
 81156  1  0  0  0
 81157  1  0  0  0
 82 83  1  0  0  0
 82158  1  0  0  0
 82159  1  0  0  0
 83 85  1  0  0  0
 83160  1  0  0  0
 84 87  1  0  0  0
 84161  1  0  0  0
 84162  1  0  0  0
 85163  1  0  0  0
 85164  1  0  0  0
M  ISO  4   1 100  68 101  85 101  87 100
M  END
> <chiral flag>
0

> <version>
0

> <s_m_source_file>
/data/baiqing/PycharmProjects/Reinvent-master-3.2/result/LINK_invent/BTK/process_docking_weight1_custom_product_contain_oxygen_bond_distance_aromatic_linkinvent_7_9_3/rearranged_h_0107.sdf

> <i_m_source_file_index>
36

> <r_mmod_Potential_Energy-OPLS-2005>
393.002075195312

> <r_mmod_Stretch_Energy-OPLS-2005>
100.204231262207

> <r_mmod_Bend_Energy-OPLS-2005>
151.527740478516

> <r_mmod_Torsional_Energy-OPLS-2005>
380.868041992188

> <r_mmod_Improper_Torsional_Energy-OPLS-2005>
22.7752475738525

> <r_mmod_Van_der_Waal_Energy-OPLS-2005>
160.511169433594

> <r_mmod_Electrostatic_Energy-OPLS-2005>
-292.292999267578

> <r_mmod_Solvation_Energy-OPLS-2005>
-207.939956665039

> <b_mmod_Minimization_Converged-OPLS-2005>
0

> <r_mmod_RMS_Derivative-OPLS-2005>
3.72237992286682

$$$$
36
                    3D
 Structure written by MMmdl.
174183  0  0  1  0            999 V2000
  -30.6824  -14.6898   20.3830 C   0  0  0  0  0  0
  -30.4301  -12.4139   19.4476 C   0  0  0  0  0  0
  -29.5016  -12.4652   18.2175 C   0  0  0  0  0  0
  -28.0300  -12.3173   18.6480 C   0  0  0  0  0  0
  -27.6437  -13.2293   19.8429 C   0  0  2  0  0  0
  -28.7038  -13.2018   20.9608 C   0  0  0  0  0  0
  -25.2555  -13.8177   20.5708 C   0  0  0  0  0  0
  -24.1827  -13.0431   20.9207 C   0  0  0  0  0  0
  -24.6415  -11.6901   20.8753 C   0  0  0  0  0  0
  -23.9071  -10.4285   21.0401 C   0  0  0  0  0  0
  -24.3624   -9.4195   21.9186 C   0  0  0  0  0  0
  -23.6308   -8.2234   22.0745 C   0  0  0  0  0  0
  -22.4275   -8.0291   21.3533 C   0  0  0  0  0  0
  -21.9908   -9.0262   20.4642 C   0  0  0  0  0  0
  -22.7242  -10.2130   20.3053 C   0  0  0  0  0  0
  -21.6849   -6.0754   22.5272 C   0  0  0  0  0  0
  -21.4009   -6.5650   23.8209 C   0  0  0  0  0  0
  -21.3657   -5.6791   24.9158 C   0  0  0  0  0  0
  -21.6043   -4.3063   24.7205 C   0  0  0  0  0  0
  -21.8823   -3.8155   23.4326 C   0  0  0  0  0  0
  -21.9193   -4.6982   22.3386 C   0  0  0  0  0  0
  -22.7847  -13.5210   21.1875 C   0  0  0  0  0  0
  -22.1666   -4.2164   21.0962 F   0  0  0  0  0  0
  -21.5632   -3.4544   25.7722 F   0  0  0  0  0  0
  -29.9948  -13.5067   20.3334 N   0  0  0  0  0  0
  -26.2984  -12.9388   20.3309 N   0  0  0  0  0  0
  -25.9345  -11.6531   20.5773 N   0  0  0  0  0  0
  -22.0491  -12.8223   22.0444 N   0  0  0  0  0  0
  -25.4263  -15.1908   20.4134 N   0  0  0  0  0  0
  -31.9129  -14.6708   20.4677 O   0  0  0  0  0  0
  -21.6624   -6.8903   21.4248 O   0  0  0  0  0  0
  -22.3521  -14.5521   20.6742 O   0  0  0  0  0  0
  -24.6259  -31.8557   23.1991 C   0  0  0  0  0  0
  -25.9108  -32.4760   23.8311 C   0  0  1  0  0  0
  -27.2306  -27.3068   20.1447 C   0  0  0  0  0  0
  -25.5927  -33.8554   24.2252 N   0  0  0  0  0  0
  -23.4196  -30.4745   21.5409 C   0  0  2  0  0  0
  -24.8692  -28.9152   20.1192 C   0  0  0  0  0  0
  -22.7456  -29.4592   22.4940 C   0  0  0  0  0  0
  -18.0272  -28.1373   22.8458 C   0  0  0  0  0  0
  -24.1492  -36.7282   23.2637 C   0  0  0  0  0  0
  -25.9580  -30.7854   21.3686 C   0  0  0  0  0  0
  -26.0356  -29.4077   20.7190 C   0  0  0  0  0  0
  -27.2207  -28.6164   20.7156 C   0  0  0  0  0  0
  -26.0446  -26.8545   19.5318 C   0  0  0  0  0  0
  -24.8750  -27.6450   19.5156 C   0  0  0  0  0  0
  -23.6377  -29.7978   20.1596 C   0  0  0  0  0  0
  -25.4122  -36.3069   24.0328 C   0  0  1  0  0  0
  -20.5865  -28.3669   23.1278 C   0  0  2  0  0  0
  -20.6765  -26.9397   22.5402 C   0  0  0  0  0  0
  -19.5767  -26.6371   21.5180 C   0  0  0  0  0  0
  -18.1937  -26.7914   22.1587 C   0  0  0  0  0  0
  -19.1524  -28.8841   23.2855 C   0  0  0  0  0  0
  -18.9461  -30.1440   23.8878 C   0  0  0  0  0  0
  -17.6470  -30.6583   24.0547 C   0  0  0  0  0  0
  -25.9056  -34.9443   23.5096 C   0  0  0  0  0  0
  -16.5353  -29.9081   23.6332 C   0  0  0  0  0  0
  -16.7261  -28.6493   23.0356 C   0  0  0  0  0  0
  -26.4513  -31.6572   25.0680 C   0  0  0  0  0  0
  -25.3771  -31.3702   26.1427 C   0  0  0  0  0  0
  -27.0358  -30.2999   24.6130 C   0  0  0  0  0  0
  -27.6069  -32.4304   25.7465 C   0  0  0  0  0  0
  -27.5582  -37.1795   24.8468 C   0  0  0  0  0  0
  -21.4176  -29.3022   22.3678 N   0  0  0  0  0  0
  -26.4292  -37.3773   23.9412 N   0  0  0  0  0  0
  -24.6859  -31.0567   22.0930 N   0  0  0  0  0  0
  -23.4180  -28.8143   23.3030 O   0  0  0  0  0  0
  -28.3697  -26.4926   20.1331 O   0  0  0  0  0  0
  -26.5617  -34.8919   22.4656 O   0  0  0  0  0  0
  -23.5427  -32.1344   23.7337 O   0  0  0  0  0  0
  -28.3300  -19.0674   19.3696 C   0  0  0  0  0  0
  -30.0597  -17.7848   21.1325 C   0  0  0  0  0  0
  -28.6485  -17.6933   19.1730 C   0  0  0  0  0  0
  -28.8201  -19.8434   20.4437 C   0  0  0  0  0  0
  -29.5891  -17.0225   20.0207 C   0  0  0  0  0  0
  -29.6603  -19.1545   21.3713 C   0  0  0  0  0  0
  -27.4494  -17.5697   16.9576 C   0  0  0  0  0  0
  -28.0106  -16.9951   18.0368 C   0  0  0  0  0  0
  -29.6261  -23.0896   17.5937 C   0  0  0  0  0  0
  -30.4298  -21.9965   18.3210 C   0  0  0  0  0  0
  -29.3228  -24.2803   18.5144 C   0  0  0  0  0  0
  -30.4965  -22.2289   19.8449 C   0  0  0  0  0  0
  -28.5370  -23.8391   19.7779 C   0  0  2  0  0  0
  -30.9163  -15.8559   18.3408 C   0  0  0  0  0  0
  -30.7904  -19.1984   23.4985 C   0  0  0  0  0  0
  -28.2806  -21.3310   20.6125 C   0  0  0  0  0  0
  -28.3232  -25.1242   20.7150 C   0  0  0  0  0  0
  -30.1584  -15.7186   19.6125 N   0  0  0  0  0  0
  -29.1646  -22.5661   20.4182 N   0  3  1  0  0  0
  -30.0591  -19.8735   22.4779 O   0  0  0  0  0  0
  -31.4726  -12.5202   19.1430 H   0  0  0  0  0  0
  -30.3557  -11.4522   19.9580 H   0  0  0  0  0  0
  -29.7651  -11.6762   17.5115 H   0  0  0  0  0  0
  -29.6371  -13.4078   17.6868 H   0  0  0  0  0  0
  -27.8848  -11.2734   18.9290 H   0  0  0  0  0  0
  -27.3626  -12.5026   17.8054 H   0  0  0  0  0  0
  -27.6324  -14.2457   19.4579 H   0  0  0  0  0  0
  -28.7335  -12.2289   21.4521 H   0  0  0  0  0  0
  -28.4665  -13.9403   21.7293 H   0  0  0  0  0  0
  -25.2760   -9.5666   22.4771 H   0  0  0  0  0  0
  -24.0008   -7.4610   22.7454 H   0  0  0  0  0  0
  -21.0829   -8.8775   19.8959 H   0  0  0  0  0  0
  -22.3701  -10.9671   19.6159 H   0  0  0  0  0  0
  -21.2014   -7.6154   23.9716 H   0  0  0  0  0  0
  -21.1483   -6.0511   25.9064 H   0  0  0  0  0  0
  -22.0607   -2.7625   23.2798 H   0  0  0  0  0  0
  -22.4085  -11.9871   22.4826 H   0  0  0  0  0  0
  -21.1127  -13.1282   22.2648 H   0  0  0  0  0  0
  -24.6621  -15.8437   20.5408 H   0  0  0  0  0  0
  -26.2733  -15.6357   20.0836 H   0  0  0  0  0  0
  -26.7162  -32.5437   23.1040 H   0  0  0  0  0  0
  -25.0111  -33.9686   25.0426 H   0  0  0  0  0  0
  -22.7140  -31.2939   21.3911 H   0  0  0  0  0  0
  -23.3759  -35.9609   23.3304 H   0  0  0  0  0  0
  -24.3569  -36.8896   22.2046 H   0  0  0  0  0  0
  -23.7252  -37.6485   23.6659 H   0  0  0  0  0  0
  -26.0902  -31.5451   20.5969 H   0  0  0  0  0  0
  -26.8372  -30.8358   22.0000 H   0  0  0  0  0  0
  -28.1208  -28.9942   21.1802 H   0  0  0  0  0  0
  -26.0195  -25.8799   19.0649 H   0  0  0  0  0  0
  -23.9804  -27.2614   19.0470 H   0  0  0  0  0  0
  -23.7674  -30.5671   19.3975 H   0  0  0  0  0  0
  -22.7579  -29.2270   19.8558 H   0  0  0  0  0  0
  -25.1318  -36.1896   25.0821 H   0  0  0  0  0  0
  -20.9939  -28.3238   24.1406 H   0  0  0  0  0  0
  -20.5624  -26.2284   23.3595 H   0  0  0  0  0  0
  -21.6647  -26.7418   22.1231 H   0  0  0  0  0  0
  -19.6944  -25.6273   21.1233 H   0  0  0  0  0  0
  -19.6729  -27.3157   20.6691 H   0  0  0  0  0  0
  -17.4206  -26.6612   21.3996 H   0  0  0  0  0  0
  -18.0369  -26.0058   22.8990 H   0  0  0  0  0  0
  -19.7951  -30.7232   24.2254 H   0  0  0  0  0  0
  -17.5048  -31.6271   24.5140 H   0  0  0  0  0  0
  -15.5363  -30.2996   23.7690 H   0  0  0  0  0  0
  -15.8641  -28.0818   22.7115 H   0  0  0  0  0  0
  -24.5952  -30.7039   25.7773 H   0  0  0  0  0  0
  -24.8970  -32.2864   26.4864 H   0  0  0  0  0  0
  -25.8129  -30.8882   27.0186 H   0  0  0  0  0  0
  -26.2907  -29.6725   24.1224 H   0  0  0  0  0  0
  -27.4135  -29.7286   25.4619 H   0  0  0  0  0  0
  -27.8750  -30.4291   23.9293 H   0  0  0  0  0  0
  -27.2675  -33.3604   26.2037 H   0  0  0  0  0  0
  -28.3897  -32.6845   25.0309 H   0  0  0  0  0  0
  -28.0715  -31.8424   26.5390 H   0  0  0  0  0  0
  -28.2611  -38.0082   24.7516 H   0  0  0  0  0  0
  -28.1067  -36.2616   24.6302 H   0  0  0  0  0  0
  -27.2291  -37.1455   25.8865 H   0  0  0  0  0  0
  -20.9360  -29.8731   21.6875 H   0  0  0  0  0  0
  -26.0172  -38.2845   24.1410 H   0  0  0  0  0  0
  -27.6426  -19.5490   18.6916 H   0  0  0  0  0  0
  -30.7758  -17.3106   21.7868 H   0  0  0  0  0  0
  -26.9882  -16.9639   16.1923 H   0  0  0  0  0  0
  -27.4377  -18.6389   16.8029 H   0  0  0  0  0  0
  -27.9839  -15.9180   18.0913 H   0  0  0  0  0  0
  -28.6807  -22.6725   17.2466 H   0  0  0  0  0  0
  -30.1589  -23.4183   16.7004 H   0  0  0  0  0  0
  -31.4439  -21.9468   17.9222 H   0  0  0  0  0  0
  -29.9821  -21.0254   18.1084 H   0  0  0  0  0  0
  -28.7466  -25.0248   17.9632 H   0  0  0  0  0  0
  -30.2546  -24.7757   18.7959 H   0  0  0  0  0  0
  -31.1788  -23.0519   20.0572 H   0  0  0  0  0  0
  -30.9444  -21.3718   20.3448 H   0  0  0  0  0  0
  -27.5455  -23.5629   19.4191 H   0  0  0  0  0  0
  -31.3772  -14.9261   17.9979 H   0  0  0  0  0  0
  -31.7303  -16.5727   18.4738 H   0  0  0  0  0  0
  -30.3195  -16.2010   17.5026 H   0  0  0  0  0  0
  -30.8782  -19.8413   24.3735 H   0  0  0  0  0  0
  -31.8034  -18.9658   23.1671 H   0  0  0  0  0  0
  -30.2985  -18.2795   23.8246 H   0  0  0  0  0  0
  -27.8301  -21.4072   21.6020 H   0  0  0  0  0  0
  -27.4435  -21.4239   19.9212 H   0  0  0  0  0  0
  -29.1129  -25.1187   21.4671 H   0  0  0  0  0  0
  -27.4025  -24.9983   21.2852 H   0  0  0  0  0  0
  -29.3863  -22.8184   21.3705 H   0  0  0  0  0  0
  1 25  1  0  0  0
  1 30  2  0  0  0
  1 88  1  0  0  0
  2  3  1  0  0  0
  2 25  1  0  0  0
  2 91  1  0  0  0
  2 92  1  0  0  0
  3  4  1  0  0  0
  3 93  1  0  0  0
  3 94  1  0  0  0
  4  5  1  0  0  0
  4 95  1  0  0  0
  4 96  1  0  0  0
  5  6  1  0  0  0
  5 26  1  0  0  0
  5 97  1  0  0  0
  6 25  1  0  0  0
  6 98  1  0  0  0
  6 99  1  0  0  0
  7  8  2  0  0  0
  7 26  1  0  0  0
  7 29  1  0  0  0
  8  9  1  0  0  0
  8 22  1  0  0  0
  9 10  1  0  0  0
  9 27  2  0  0  0
 10 11  2  0  0  0
 10 15  1  0  0  0
 11 12  1  0  0  0
 11100  1  0  0  0
 12 13  2  0  0  0
 12101  1  0  0  0
 13 14  1  0  0  0
 13 31  1  0  0  0
 14 15  2  0  0  0
 14102  1  0  0  0
 15103  1  0  0  0
 16 17  2  0  0  0
 16 21  1  0  0  0
 16 31  1  0  0  0
 17 18  1  0  0  0
 17104  1  0  0  0
 18 19  2  0  0  0
 18105  1  0  0  0
 19 20  1  0  0  0
 19 24  1  0  0  0
 20 21  2  0  0  0
 20106  1  0  0  0
 21 23  1  0  0  0
 22 28  1  0  0  0
 22 32  2  0  0  0
 26 27  1  0  0  0
 28107  1  0  0  0
 28108  1  0  0  0
 29109  1  0  0  0
 29110  1  0  0  0
 33 34  1  0  0  0
 33 66  1  0  0  0
 33 70  2  0  0  0
 34 36  1  0  0  0
 34 59  1  0  0  0
 34111  1  0  0  0
 35 44  2  0  0  0
 35 45  1  0  0  0
 35 68  1  0  0  0
 36 56  1  0  0  0
 36112  1  0  0  0
 37 39  1  0  0  0
 37 47  1  0  0  0
 37 66  1  0  0  0
 37113  1  0  0  0
 38 43  2  0  0  0
 38 46  1  0  0  0
 38 47  1  0  0  0
 39 64  1  0  0  0
 39 67  2  0  0  0
 40 52  1  0  0  0
 40 53  2  0  0  0
 40 58  1  0  0  0
 41114  1  0  0  0
 41115  1  0  0  0
 41116  1  0  0  0
 41 48  1  0  0  0
 42 43  1  0  0  0
 42 66  1  0  0  0
 42117  1  0  0  0
 42118  1  0  0  0
 43 44  1  0  0  0
 44119  1  0  0  0
 45 46  2  0  0  0
 45120  1  0  0  0
 46121  1  0  0  0
 47122  1  0  0  0
 47123  1  0  0  0
 48 56  1  0  0  0
 48 65  1  0  0  0
 48124  1  0  0  0
 49 50  1  0  0  0
 49 53  1  0  0  0
 49 64  1  0  0  0
 49125  1  0  0  0
 50 51  1  0  0  0
 50126  1  0  0  0
 50127  1  0  0  0
 51 52  1  0  0  0
 51128  1  0  0  0
 51129  1  0  0  0
 52130  1  0  0  0
 52131  1  0  0  0
 53 54  1  0  0  0
 54 55  2  0  0  0
 54132  1  0  0  0
 55 57  1  0  0  0
 55133  1  0  0  0
 56 69  2  0  0  0
 57 58  2  0  0  0
 57134  1  0  0  0
 58135  1  0  0  0
 59 60  1  0  0  0
 59 61  1  0  0  0
 59 62  1  0  0  0
 60136  1  0  0  0
 60137  1  0  0  0
 60138  1  0  0  0
 61139  1  0  0  0
 61140  1  0  0  0
 61141  1  0  0  0
 62142  1  0  0  0
 62143  1  0  0  0
 62144  1  0  0  0
 63 65  1  0  0  0
 63145  1  0  0  0
 63146  1  0  0  0
 63147  1  0  0  0
 64148  1  0  0  0
 65149  1  0  0  0
 68 87  1  0  0  0
 71 73  2  0  0  0
 71 74  1  0  0  0
 71150  1  0  0  0
 72 75  2  0  0  0
 72 76  1  0  0  0
 72151  1  0  0  0
 73 75  1  0  0  0
 73 78  1  0  0  0
 74 76  2  0  0  0
 74 86  1  0  0  0
 75 88  1  0  0  0
 76 90  1  0  0  0
 77 78  2  0  0  0
 77152  1  0  0  0
 77153  1  0  0  0
 78154  1  0  0  0
 79 80  1  0  0  0
 79 81  1  0  0  0
 79155  1  0  0  0
 79156  1  0  0  0
 80 82  1  0  0  0
 80157  1  0  0  0
 80158  1  0  0  0
 81 83  1  0  0  0
 81159  1  0  0  0
 81160  1  0  0  0
 82 89  1  0  0  0
 82161  1  0  0  0
 82162  1  0  0  0
 83 87  1  0  0  0
 83 89  1  0  0  0
 83163  1  0  0  0
 84 88  1  0  0  0
 84164  1  0  0  0
 84165  1  0  0  0
 84166  1  0  0  0
 85 90  1  0  0  0
 85167  1  0  0  0
 85168  1  0  0  0
 85169  1  0  0  0
 86170  1  0  0  0
 86171  1  0  0  0
 86 89  1  0  0  0
 87172  1  0  0  0
 87173  1  0  0  0
 89174  1  0  0  0
M  CHG  1  89   1
M  ISO  4   1 100  68 101  87 101  88 100
M  END
> <chiral flag>
0

> <version>
0

> <s_m_source_file>
/data/baiqing/PycharmProjects/Reinvent-master-3.2/result/LINK_invent/BTK/process_docking_weight1_custom_product_contain_oxygen_bond_distance_aromatic_linkinvent_7_9_3/rearranged_h_0107.sdf

> <i_m_source_file_index>
37

> <r_mmod_Potential_Energy-OPLS-2005>
382.93359375

> <r_mmod_Stretch_Energy-OPLS-2005>
106.493255615234

> <r_mmod_Bend_Energy-OPLS-2005>
188.663497924805

> <r_mmod_Torsional_Energy-OPLS-2005>
404.172454833984

> <r_mmod_Improper_Torsional_Energy-OPLS-2005>
34.043758392334

> <r_mmod_Van_der_Waal_Energy-OPLS-2005>
162.204956054688

> <r_mmod_Electrostatic_Energy-OPLS-2005>
-203.433380126953

> <r_mmod_Solvation_Energy-OPLS-2005>
-393.71533203125

> <b_mmod_Minimization_Converged-OPLS-2005>
0

> <r_mmod_RMS_Derivative-OPLS-2005>
3.179447889328

$$$$
37
                    3D
 Structure written by MMmdl.
161169  0  0  1  0            999 V2000
  -30.7312  -14.4765   20.5930 C   0  0  0  0  0  0
  -30.4127  -12.3258   19.4155 C   0  0  0  0  0  0
  -29.4826  -12.5063   18.2000 C   0  0  0  0  0  0
  -28.0086  -12.3475   18.6186 C   0  0  0  0  0  0
  -27.6499  -13.1995   19.8632 C   0  0  2  0  0  0
  -28.6960  -13.0196   20.9868 C   0  0  0  0  0  0
  -25.2555  -13.8132   20.5677 C   0  0  0  0  0  0
  -24.1810  -13.0417   20.9192 C   0  0  0  0  0  0
  -24.6359  -11.6883   20.8746 C   0  0  0  0  0  0
  -23.9026  -10.4276   21.0413 C   0  0  0  0  0  0
  -24.3588   -9.4194   21.9191 C   0  0  0  0  0  0
  -23.6274   -8.2227   22.0754 C   0  0  0  0  0  0
  -22.4259   -8.0263   21.3540 C   0  0  0  0  0  0
  -21.9888   -9.0227   20.4639 C   0  0  0  0  0  0
  -22.7208  -10.2113   20.3052 C   0  0  0  0  0  0
  -21.6845   -6.0726   22.5280 C   0  0  0  0  0  0
  -21.4000   -6.5629   23.8212 C   0  0  0  0  0  0
  -21.3650   -5.6786   24.9176 C   0  0  0  0  0  0
  -21.6043   -4.3050   24.7223 C   0  0  0  0  0  0
  -21.8821   -3.8144   23.4345 C   0  0  0  0  0  0
  -21.9192   -4.6959   22.3402 C   0  0  0  0  0  0
  -22.7839  -13.5227   21.1858 C   0  0  0  0  0  0
  -22.1664   -4.2149   21.0975 F   0  0  0  0  0  0
  -21.5630   -3.4537   25.7734 F   0  0  0  0  0  0
  -30.0236  -13.3218   20.4284 N   0  0  0  0  0  0
  -26.2964  -12.9280   20.3331 N   0  0  0  0  0  0
  -25.9277  -11.6451   20.5773 N   0  0  0  0  0  0
  -22.0470  -12.8215   22.0408 N   0  0  0  0  0  0
  -25.4267  -15.1842   20.4061 N   0  0  0  0  0  0
  -31.8608  -14.6263   20.1175 O   0  0  0  0  0  0
  -21.6622   -6.8861   21.4240 O   0  0  0  0  0  0
  -22.3538  -14.5543   20.6717 O   0  0  0  0  0  0
  -24.6169  -31.8676   23.2103 C   0  0  0  0  0  0
  -25.9064  -32.4816   23.8391 C   0  0  1  0  0  0
  -27.2314  -27.4221   20.0884 C   0  0  0  0  0  0
  -25.5918  -33.8614   24.2327 N   0  0  0  0  0  0
  -23.4035  -30.4933   21.5521 C   0  0  2  0  0  0
  -24.8477  -28.9606   20.1152 C   0  0  0  0  0  0
  -22.7408  -29.4672   22.4995 C   0  0  0  0  0  0
  -18.0267  -28.1383   22.8495 C   0  0  0  0  0  0
  -24.1472  -36.7285   23.2637 C   0  0  0  0  0  0
  -25.9358  -30.8286   21.3661 C   0  0  0  0  0  0
  -26.0116  -29.4646   20.7080 C   0  0  0  0  0  0
  -27.2068  -28.7045   20.6885 C   0  0  0  0  0  0
  -26.0420  -26.9407   19.4877 C   0  0  0  0  0  0
  -24.8588  -27.6979   19.5029 C   0  0  0  0  0  0
  -23.6105  -29.8273   20.1667 C   0  0  0  0  0  0
  -25.4100  -36.3103   24.0338 C   0  0  1  0  0  0
  -20.5860  -28.3670   23.1317 C   0  0  2  0  0  0
  -20.6765  -26.9402   22.5422 C   0  0  0  0  0  0
  -19.5743  -26.6386   21.5221 C   0  0  0  0  0  0
  -18.1912  -26.7932   22.1612 C   0  0  0  0  0  0
  -19.1519  -28.8840   23.2906 C   0  0  0  0  0  0
  -18.9452  -30.1447   23.8916 C   0  0  0  0  0  0
  -17.6454  -30.6590   24.0575 C   0  0  0  0  0  0
  -25.9039  -34.9473   23.5127 C   0  0  0  0  0  0
  -16.5343  -29.9094   23.6342 C   0  0  0  0  0  0
  -16.7257  -28.6512   23.0358 C   0  0  0  0  0  0
  -26.4480  -31.6595   25.0727 C   0  0  0  0  0  0
  -25.3744  -31.3701   26.1472 C   0  0  0  0  0  0
  -27.0308  -30.3029   24.6120 C   0  0  0  0  0  0
  -27.6048  -32.4316   25.7498 C   0  0  0  0  0  0
  -27.5581  -37.1785   24.8458 C   0  0  0  0  0  0
  -21.4136  -29.3039   22.3727 N   0  0  0  0  0  0
  -26.4272  -37.3804   23.9435 N   0  0  0  0  0  0
  -24.6703  -31.0771   22.1008 N   0  0  0  0  0  0
  -23.4172  -28.8217   23.3043 O   0  0  0  0  0  0
  -28.3955  -26.6717   20.1091 O   0  0  0  0  0  0
  -26.5602  -34.8930   22.4690 O   0  0  0  0  0  0
  -23.5365  -32.1438   23.7500 O   0  0  0  0  0  0
  -30.3712  -19.8423   19.5917 C   0  0  0  0  0  0
  -29.1534  -20.1050   21.6686 C   0  0  0  0  0  0
  -30.1277  -18.4479   19.6054 C   0  0  0  0  0  0
  -29.4094  -17.8601   20.6832 C   0  0  0  0  0  0
  -29.8901  -20.6875   20.6128 C   0  0  0  0  0  0
  -28.9154  -18.7126   21.7023 C   0  0  0  0  0  0
  -29.3097  -22.9258   20.3414 C   0  0  0  0  0  0
  -29.4893  -24.4385   20.2768 C   0  0  0  0  0  0
  -29.5859  -17.5954   17.2876 C   0  0  0  0  0  0
  -30.9587  -16.0807   22.3956 C   0  0  0  0  0  0
  -30.6213  -17.6339   18.4184 C   0  0  0  0  0  0
  -29.1163  -16.3443   20.7502 C   0  0  0  0  0  0
  -28.2393  -25.2515   19.8930 C   0  0  0  0  0  0
  -30.2162  -22.0540   20.5907 N   0  0  0  0  0  0
  -30.1625  -15.4648   21.3299 N   0  0  0  0  0  0
  -30.5727  -24.9984   20.4986 O   0  0  0  0  0  0
  -28.2013  -18.1936   22.7303 F   0  0  0  0  0  0
  -31.4555  -12.4202   19.1070 H   0  0  0  0  0  0
  -30.3169  -11.3188   19.8247 H   0  0  0  0  0  0
  -29.7292  -11.7784   17.4258 H   0  0  0  0  0  0
  -29.6367  -13.4911   17.7557 H   0  0  0  0  0  0
  -27.8355  -11.2916   18.8318 H   0  0  0  0  0  0
  -27.3502  -12.6006   17.7865 H   0  0  0  0  0  0
  -27.6692  -14.2340   19.5327 H   0  0  0  0  0  0
  -28.6805  -11.9933   21.3564 H   0  0  0  0  0  0
  -28.4507  -13.6439   21.8472 H   0  0  0  0  0  0
  -25.2732   -9.5677   22.4769 H   0  0  0  0  0  0
  -23.9984   -7.4616   22.7475 H   0  0  0  0  0  0
  -21.0822   -8.8734   19.8940 H   0  0  0  0  0  0
  -22.3666  -10.9648   19.6156 H   0  0  0  0  0  0
  -21.1979   -7.6135   23.9716 H   0  0  0  0  0  0
  -21.1470   -6.0511   25.9076 H   0  0  0  0  0  0
  -22.0609   -2.7609   23.2844 H   0  0  0  0  0  0
  -22.4073  -11.9862   22.4783 H   0  0  0  0  0  0
  -21.1084  -13.1233   22.2603 H   0  0  0  0  0  0
  -24.6588  -15.8368   20.5187 H   0  0  0  0  0  0
  -26.2690  -15.6233   20.0611 H   0  0  0  0  0  0
  -26.7134  -32.5514   23.1149 H   0  0  0  0  0  0
  -25.0089  -33.9772   25.0488 H   0  0  0  0  0  0
  -22.6934  -31.3109   21.4127 H   0  0  0  0  0  0
  -23.3766  -35.9580   23.3262 H   0  0  0  0  0  0
  -24.3576  -36.8945   22.2060 H   0  0  0  0  0  0
  -23.7168  -37.6452   23.6678 H   0  0  0  0  0  0
  -26.0547  -31.5978   20.6017 H   0  0  0  0  0  0
  -26.8217  -30.8758   21.9879 H   0  0  0  0  0  0
  -28.1059  -29.0920   21.1466 H   0  0  0  0  0  0
  -25.9992  -25.9798   18.9969 H   0  0  0  0  0  0
  -23.9637  -27.3033   19.0422 H   0  0  0  0  0  0
  -23.7173  -30.6028   19.4073 H   0  0  0  0  0  0
  -22.7337  -29.2478   19.8712 H   0  0  0  0  0  0
  -25.1275  -36.1951   25.0826 H   0  0  0  0  0  0
  -20.9944  -28.3236   24.1441 H   0  0  0  0  0  0
  -20.5669  -26.2277   23.3616 H   0  0  0  0  0  0
  -21.6636  -26.7452   22.1205 H   0  0  0  0  0  0
  -19.6906  -25.6298   21.1241 H   0  0  0  0  0  0
  -19.6693  -27.3215   20.6767 H   0  0  0  0  0  0
  -17.4191  -26.6711   21.3997 H   0  0  0  0  0  0
  -18.0284  -26.0056   22.8982 H   0  0  0  0  0  0
  -19.7928  -30.7265   24.2282 H   0  0  0  0  0  0
  -17.5012  -31.6276   24.5169 H   0  0  0  0  0  0
  -15.5347  -30.3009   23.7669 H   0  0  0  0  0  0
  -15.8646  -28.0850   22.7069 H   0  0  0  0  0  0
  -24.5935  -30.7018   25.7818 H   0  0  0  0  0  0
  -24.8912  -32.2853   26.4908 H   0  0  0  0  0  0
  -25.8104  -30.8890   27.0236 H   0  0  0  0  0  0
  -26.2855  -29.6784   24.1176 H   0  0  0  0  0  0
  -27.4068  -29.7272   25.4589 H   0  0  0  0  0  0
  -27.8697  -30.4330   23.9277 H   0  0  0  0  0  0
  -27.2666  -33.3627   26.2060 H   0  0  0  0  0  0
  -28.3878  -32.6856   25.0339 H   0  0  0  0  0  0
  -28.0684  -31.8440   26.5434 H   0  0  0  0  0  0
  -28.2559  -38.0127   24.7594 H   0  0  0  0  0  0
  -28.1118  -36.2665   24.6163 H   0  0  0  0  0  0
  -27.2314  -37.1289   25.8863 H   0  0  0  0  0  0
  -20.9294  -29.8749   21.6939 H   0  0  0  0  0  0
  -26.0149  -38.2861   24.1513 H   0  0  0  0  0  0
  -30.9357  -20.2716   18.7744 H   0  0  0  0  0  0
  -28.7782  -20.7182   22.4747 H   0  0  0  0  0  0
  -28.2898  -22.5828   20.1444 H   0  0  0  0  0  0
  -29.9575  -17.0240   16.4369 H   0  0  0  0  0  0
  -29.3538  -18.6006   16.9346 H   0  0  0  0  0  0
  -28.6526  -17.1359   17.6136 H   0  0  0  0  0  0
  -30.3119  -16.5269   23.1515 H   0  0  0  0  0  0
  -31.6131  -16.8582   21.9981 H   0  0  0  0  0  0
  -31.5867  -15.3456   22.9014 H   0  0  0  0  0  0
  -30.8834  -16.6229   18.7179 H   0  0  0  0  0  0
  -31.5501  -18.0693   18.0470 H   0  0  0  0  0  0
  -28.8687  -16.0219   19.7404 H   0  0  0  0  0  0
  -28.2022  -16.1876   21.3235 H   0  0  0  0  0  0
  -27.4012  -24.8763   20.4820 H   0  0  0  0  0  0
  -28.0204  -25.0627   18.8414 H   0  0  0  0  0  0
  1 25  1  0  0  0
  1 30  2  0  0  0
  1 85  1  0  0  0
  2  3  1  0  0  0
  2 25  1  0  0  0
  2 88  1  0  0  0
  2 89  1  0  0  0
  3  4  1  0  0  0
  3 90  1  0  0  0
  3 91  1  0  0  0
  4  5  1  0  0  0
  4 92  1  0  0  0
  4 93  1  0  0  0
  5  6  1  0  0  0
  5 26  1  0  0  0
  5 94  1  0  0  0
  6 25  1  0  0  0
  6 95  1  0  0  0
  6 96  1  0  0  0
  7  8  2  0  0  0
  7 26  1  0  0  0
  7 29  1  0  0  0
  8  9  1  0  0  0
  8 22  1  0  0  0
  9 10  1  0  0  0
  9 27  2  0  0  0
 10 11  2  0  0  0
 10 15  1  0  0  0
 11 12  1  0  0  0
 11 97  1  0  0  0
 12 13  2  0  0  0
 12 98  1  0  0  0
 13 14  1  0  0  0
 13 31  1  0  0  0
 14 15  2  0  0  0
 14 99  1  0  0  0
 15100  1  0  0  0
 16 17  2  0  0  0
 16 21  1  0  0  0
 16 31  1  0  0  0
 17 18  1  0  0  0
 17101  1  0  0  0
 18 19  2  0  0  0
 18102  1  0  0  0
 19 20  1  0  0  0
 19 24  1  0  0  0
 20 21  2  0  0  0
 20103  1  0  0  0
 21 23  1  0  0  0
 22 28  1  0  0  0
 22 32  2  0  0  0
 26 27  1  0  0  0
 28104  1  0  0  0
 28105  1  0  0  0
 29106  1  0  0  0
 29107  1  0  0  0
 33 34  1  0  0  0
 33 66  1  0  0  0
 33 70  2  0  0  0
 34 36  1  0  0  0
 34 59  1  0  0  0
 34108  1  0  0  0
 35 44  2  0  0  0
 35 45  1  0  0  0
 35 68  1  0  0  0
 36 56  1  0  0  0
 36109  1  0  0  0
 37 39  1  0  0  0
 37 47  1  0  0  0
 37 66  1  0  0  0
 37110  1  0  0  0
 38 43  2  0  0  0
 38 46  1  0  0  0
 38 47  1  0  0  0
 39 64  1  0  0  0
 39 67  2  0  0  0
 40 52  1  0  0  0
 40 53  2  0  0  0
 40 58  1  0  0  0
 41111  1  0  0  0
 41112  1  0  0  0
 41113  1  0  0  0
 41 48  1  0  0  0
 42 43  1  0  0  0
 42 66  1  0  0  0
 42114  1  0  0  0
 42115  1  0  0  0
 43 44  1  0  0  0
 44116  1  0  0  0
 45 46  2  0  0  0
 45117  1  0  0  0
 46118  1  0  0  0
 47119  1  0  0  0
 47120  1  0  0  0
 48 56  1  0  0  0
 48 65  1  0  0  0
 48121  1  0  0  0
 49 50  1  0  0  0
 49 53  1  0  0  0
 49 64  1  0  0  0
 49122  1  0  0  0
 50 51  1  0  0  0
 50123  1  0  0  0
 50124  1  0  0  0
 51 52  1  0  0  0
 51125  1  0  0  0
 51126  1  0  0  0
 52127  1  0  0  0
 52128  1  0  0  0
 53 54  1  0  0  0
 54 55  2  0  0  0
 54129  1  0  0  0
 55 57  1  0  0  0
 55130  1  0  0  0
 56 69  2  0  0  0
 57 58  2  0  0  0
 57131  1  0  0  0
 58132  1  0  0  0
 59 60  1  0  0  0
 59 61  1  0  0  0
 59 62  1  0  0  0
 60133  1  0  0  0
 60134  1  0  0  0
 60135  1  0  0  0
 61136  1  0  0  0
 61137  1  0  0  0
 61138  1  0  0  0
 62139  1  0  0  0
 62140  1  0  0  0
 62141  1  0  0  0
 63 65  1  0  0  0
 63142  1  0  0  0
 63143  1  0  0  0
 63144  1  0  0  0
 64145  1  0  0  0
 65146  1  0  0  0
 68 83  1  0  0  0
 71 73  2  0  0  0
 71 75  1  0  0  0
 71147  1  0  0  0
 72 75  2  0  0  0
 72 76  1  0  0  0
 72148  1  0  0  0
 73 74  1  0  0  0
 73 81  1  0  0  0
 74 76  2  0  0  0
 74 82  1  0  0  0
 75 84  1  0  0  0
 76 87  1  0  0  0
 77 78  1  0  0  0
 77 84  2  0  0  0
 77149  1  0  0  0
 78 83  1  0  0  0
 78 86  2  0  0  0
 79 81  1  0  0  0
 79150  1  0  0  0
 79151  1  0  0  0
 79152  1  0  0  0
 80 85  1  0  0  0
 80153  1  0  0  0
 80154  1  0  0  0
 80155  1  0  0  0
 81156  1  0  0  0
 81157  1  0  0  0
 82 85  1  0  0  0
 82158  1  0  0  0
 82159  1  0  0  0
 83160  1  0  0  0
 83161  1  0  0  0
M  ISO  4   1 100  68 101  83 101  85 100
M  END
> <chiral flag>
0

> <version>
0

> <s_m_source_file>
/data/baiqing/PycharmProjects/Reinvent-master-3.2/result/LINK_invent/BTK/process_docking_weight1_custom_product_contain_oxygen_bond_distance_aromatic_linkinvent_7_9_3/rearranged_h_0107.sdf

> <i_m_source_file_index>
38

> <r_mmod_Potential_Energy-OPLS-2005>
127.378898620605

> <r_mmod_Stretch_Energy-OPLS-2005>
43.587230682373

> <r_mmod_Bend_Energy-OPLS-2005>
98.9041213989258

> <r_mmod_Torsional_Energy-OPLS-2005>
284.205932617188

> <r_mmod_Improper_Torsional_Energy-OPLS-2005>
3.92202043533325

> <r_mmod_Van_der_Waal_Energy-OPLS-2005>
151.416580200195

> <r_mmod_Electrostatic_Energy-OPLS-2005>
-242.391784667969

> <r_mmod_Solvation_Energy-OPLS-2005>
-227.674118041992

> <b_mmod_Minimization_Converged-OPLS-2005>
0

> <r_mmod_RMS_Derivative-OPLS-2005>
1.14414489269257

$$$$
38
                    3D
 Structure written by MMmdl.
160168  0  0  1  0            999 V2000
  -30.6977  -14.4500   20.5980 C   0  0  0  0  0  0
  -30.4307  -12.2992   19.4259 C   0  0  0  0  0  0
  -29.5057  -12.5293   18.2132 C   0  0  0  0  0  0
  -28.0247  -12.3852   18.6162 C   0  0  0  0  0  0
  -27.6715  -13.2053   19.8858 C   0  0  2  0  0  0
  -28.7092  -12.9535   21.0046 C   0  0  0  0  0  0
  -25.2625  -13.8162   20.5647 C   0  0  0  0  0  0
  -24.1867  -13.0444   20.9147 C   0  0  0  0  0  0
  -24.6419  -11.6911   20.8724 C   0  0  0  0  0  0
  -23.9066  -10.4296   21.0386 C   0  0  0  0  0  0
  -24.3622   -9.4214   21.9161 C   0  0  0  0  0  0
  -23.6302   -8.2251   22.0739 C   0  0  0  0  0  0
  -22.4281   -8.0286   21.3540 C   0  0  0  0  0  0
  -21.9909   -9.0257   20.4642 C   0  0  0  0  0  0
  -22.7235  -10.2133   20.3042 C   0  0  0  0  0  0
  -21.6852   -6.0735   22.5278 C   0  0  0  0  0  0
  -21.4012   -6.5635   23.8213 C   0  0  0  0  0  0
  -21.3665   -5.6787   24.9170 C   0  0  0  0  0  0
  -21.6047   -4.3053   24.7211 C   0  0  0  0  0  0
  -21.8825   -3.8144   23.4333 C   0  0  0  0  0  0
  -21.9195   -4.6963   22.3394 C   0  0  0  0  0  0
  -22.7882  -13.5239   21.1809 C   0  0  0  0  0  0
  -22.1661   -4.2151   21.0971 F   0  0  0  0  0  0
  -21.5628   -3.4538   25.7721 F   0  0  0  0  0  0
  -30.0495  -13.2599   20.4733 N   0  0  0  0  0  0
  -26.3080  -12.9327   20.3395 N   0  0  0  0  0  0
  -25.9352  -11.6486   20.5770 N   0  0  0  0  0  0
  -22.0522  -12.8261   22.0382 N   0  0  0  0  0  0
  -25.4342  -15.1870   20.4017 N   0  0  0  0  0  0
  -31.7807  -14.6891   20.0536 O   0  0  0  0  0  0
  -21.6644   -6.8882   21.4242 O   0  0  0  0  0  0
  -22.3573  -14.5535   20.6633 O   0  0  0  0  0  0
  -24.6131  -31.8679   23.2100 C   0  0  0  0  0  0
  -25.9025  -32.4824   23.8390 C   0  0  1  0  0  0
  -27.2452  -27.4441   20.0837 C   0  0  0  0  0  0
  -25.5887  -33.8623   24.2319 N   0  0  0  0  0  0
  -23.4001  -30.4907   21.5491 C   0  0  2  0  0  0
  -24.8475  -28.9567   20.1143 C   0  0  0  0  0  0
  -22.7398  -29.4659   22.4991 C   0  0  0  0  0  0
  -18.0269  -28.1377   22.8492 C   0  0  0  0  0  0
  -24.1481  -36.7317   23.2640 C   0  0  0  0  0  0
  -25.9272  -30.8356   21.3618 C   0  0  0  0  0  0
  -26.0048  -29.4697   20.7097 C   0  0  0  0  0  0
  -27.1999  -28.7166   20.6995 C   0  0  0  0  0  0
  -26.0601  -26.9348   19.5020 C   0  0  0  0  0  0
  -24.8690  -27.6863   19.5124 C   0  0  0  0  0  0
  -23.6081  -29.8206   20.1644 C   0  0  0  0  0  0
  -25.4102  -36.3108   24.0337 C   0  0  1  0  0  0
  -20.5856  -28.3664   23.1331 C   0  0  2  0  0  0
  -20.6760  -26.9407   22.5420 C   0  0  0  0  0  0
  -19.5738  -26.6387   21.5217 C   0  0  0  0  0  0
  -18.1916  -26.7924   22.1628 C   0  0  0  0  0  0
  -19.1516  -28.8837   23.2907 C   0  0  0  0  0  0
  -18.9443  -30.1441   23.8922 C   0  0  0  0  0  0
  -17.6445  -30.6589   24.0562 C   0  0  0  0  0  0
  -25.9026  -34.9477   23.5122 C   0  0  0  0  0  0
  -16.5339  -29.9088   23.6322 C   0  0  0  0  0  0
  -16.7257  -28.6501   23.0352 C   0  0  0  0  0  0
  -26.4468  -31.6608   25.0721 C   0  0  0  0  0  0
  -25.3752  -31.3721   26.1485 C   0  0  0  0  0  0
  -27.0301  -30.3047   24.6106 C   0  0  0  0  0  0
  -27.6032  -32.4350   25.7481 C   0  0  0  0  0  0
  -27.5579  -37.1808   24.8462 C   0  0  0  0  0  0
  -21.4129  -29.3030   22.3733 N   0  0  0  0  0  0
  -26.4290  -37.3793   23.9409 N   0  0  0  0  0  0
  -24.6644  -31.0793   22.0989 N   0  0  0  0  0  0
  -23.4174  -28.8209   23.3043 O   0  0  0  0  0  0
  -28.4385  -26.7489   20.1307 O   0  0  0  0  0  0
  -26.5589  -34.8926   22.4685 O   0  0  0  0  0  0
  -23.5331  -32.1423   23.7509 O   0  0  0  0  0  0
  -29.6579  -17.7015   22.0054 C   0  0  0  0  0  0
  -29.8207  -17.1954   19.6350 C   0  0  0  0  0  0
  -29.3646  -19.0533   21.7063 C   0  0  0  0  0  0
  -29.5135  -18.5370   19.3201 C   0  0  0  0  0  0
  -29.8855  -16.7600   20.9785 C   0  0  0  0  0  0
  -29.2874  -19.4803   20.3549 C   0  0  0  0  0  0
  -29.4629  -21.9640   20.2171 C   0  0  0  0  0  0
  -29.0843  -20.0142   22.8525 C   0  0  0  0  0  0
  -29.3956  -18.9411   17.8586 C   0  0  0  0  0  0
  -28.6788  -23.2217   19.8015 C   0  0  0  0  0  0
  -29.4830  -24.5447   19.8336 C   0  0  0  0  0  0
  -28.7507  -25.7355   19.1689 C   0  0  0  0  0  0
  -28.8386  -20.7907   20.0152 N   0  0  0  0  0  0
  -30.0530  -15.3843   21.3206 N   0  0  0  0  0  0
  -30.5966  -22.0556   20.6963 O   0  0  0  0  0  0
  -31.4790  -12.3974   19.1345 H   0  0  0  0  0  0
  -30.3261  -11.2803   19.8003 H   0  0  0  0  0  0
  -29.7498  -11.8287   17.4137 H   0  0  0  0  0  0
  -29.6771  -13.5273   17.8072 H   0  0  0  0  0  0
  -27.8301  -11.3271   18.7923 H   0  0  0  0  0  0
  -27.3789  -12.6789   17.7872 H   0  0  0  0  0  0
  -27.7263  -14.2588   19.6104 H   0  0  0  0  0  0
  -28.6823  -11.9087   21.3181 H   0  0  0  0  0  0
  -28.4646  -13.5279   21.8981 H   0  0  0  0  0  0
  -25.2767   -9.5698   22.4729 H   0  0  0  0  0  0
  -24.0012   -7.4644   22.7467 H   0  0  0  0  0  0
  -21.0830   -8.8784   19.8961 H   0  0  0  0  0  0
  -22.3692  -10.9670   19.6155 H   0  0  0  0  0  0
  -21.2010   -7.6145   23.9721 H   0  0  0  0  0  0
  -21.1477   -6.0508   25.9077 H   0  0  0  0  0  0
  -22.0601   -2.7608   23.2829 H   0  0  0  0  0  0
  -22.4115  -11.9942   22.4815 H   0  0  0  0  0  0
  -21.1140  -13.1306   22.2546 H   0  0  0  0  0  0
  -24.6686  -15.8447   20.4979 H   0  0  0  0  0  0
  -26.2931  -15.6229   20.0893 H   0  0  0  0  0  0
  -26.7094  -32.5544   23.1155 H   0  0  0  0  0  0
  -25.0055  -33.9786   25.0473 H   0  0  0  0  0  0
  -22.6871  -31.3065   21.4101 H   0  0  0  0  0  0
  -23.3735  -35.9658   23.3309 H   0  0  0  0  0  0
  -24.3576  -36.8930   22.2053 H   0  0  0  0  0  0
  -23.7244  -37.6529   23.6647 H   0  0  0  0  0  0
  -26.0380  -31.6028   20.5935 H   0  0  0  0  0  0
  -26.8138  -30.8890   21.9813 H   0  0  0  0  0  0
  -28.0924  -29.1133   21.1618 H   0  0  0  0  0  0
  -26.0136  -25.9520   19.0590 H   0  0  0  0  0  0
  -23.9744  -27.2777   19.0628 H   0  0  0  0  0  0
  -23.7143  -30.5926   19.4017 H   0  0  0  0  0  0
  -22.7334  -29.2379   19.8716 H   0  0  0  0  0  0
  -25.1282  -36.1968   25.0834 H   0  0  0  0  0  0
  -20.9946  -28.3221   24.1450 H   0  0  0  0  0  0
  -20.5671  -26.2271   23.3599 H   0  0  0  0  0  0
  -21.6626  -26.7462   22.1200 H   0  0  0  0  0  0
  -19.6893  -25.6301   21.1234 H   0  0  0  0  0  0
  -19.6673  -27.3205   20.6750 H   0  0  0  0  0  0
  -17.4188  -26.6688   21.4022 H   0  0  0  0  0  0
  -18.0309  -26.0063   22.9022 H   0  0  0  0  0  0
  -19.7924  -30.7250   24.2299 H   0  0  0  0  0  0
  -17.5007  -31.6269   24.5162 H   0  0  0  0  0  0
  -15.5338  -30.3000   23.7632 H   0  0  0  0  0  0
  -15.8657  -28.0824   22.7059 H   0  0  0  0  0  0
  -24.5892  -30.7103   25.7829 H   0  0  0  0  0  0
  -24.8992  -32.2895   26.4967 H   0  0  0  0  0  0
  -25.8130  -30.8863   27.0217 H   0  0  0  0  0  0
  -26.2841  -29.6805   24.1173 H   0  0  0  0  0  0
  -27.4074  -29.7296   25.4574 H   0  0  0  0  0  0
  -27.8676  -30.4354   23.9248 H   0  0  0  0  0  0
  -27.2605  -33.3614   26.2106 H   0  0  0  0  0  0
  -28.3805  -32.6986   25.0294 H   0  0  0  0  0  0
  -28.0741  -31.8465   26.5366 H   0  0  0  0  0  0
  -28.2598  -38.0101   24.7504 H   0  0  0  0  0  0
  -28.1074  -36.2637   24.6285 H   0  0  0  0  0  0
  -27.2308  -37.1462   25.8869 H   0  0  0  0  0  0
  -20.9277  -29.8749   21.6960 H   0  0  0  0  0  0
  -26.0178  -38.2874   24.1411 H   0  0  0  0  0  0
  -29.6848  -17.3786   23.0365 H   0  0  0  0  0  0
  -29.9613  -16.4868   18.8305 H   0  0  0  0  0  0
  -28.1704  -20.5812   22.6692 H   0  0  0  0  0  0
  -28.9577  -19.4876   23.7983 H   0  0  0  0  0  0
  -29.9093  -20.7169   22.9708 H   0  0  0  0  0  0
  -29.6847  -18.1279   17.1907 H   0  0  0  0  0  0
  -30.0381  -19.7952   17.6437 H   0  0  0  0  0  0
  -28.3687  -19.2186   17.6207 H   0  0  0  0  0  0
  -27.8054  -23.3145   20.4485 H   0  0  0  0  0  0
  -28.3038  -23.0559   18.7910 H   0  0  0  0  0  0
  -30.4298  -24.3922   19.3140 H   0  0  0  0  0  0
  -29.7522  -24.7923   20.8614 H   0  0  0  0  0  0
  -27.9179  -25.3788   18.5700 H   0  0  0  0  0  0
  -29.4259  -26.2058   18.4525 H   0  0  0  0  0  0
  -27.9552  -20.8420   19.5264 H   0  0  0  0  0  0
  -29.3757  -15.0188   21.9733 H   0  0  0  0  0  0
  1 25  1  0  0  0
  1 30  2  0  0  0
  1 84  1  0  0  0
  2  3  1  0  0  0
  2 25  1  0  0  0
  2 86  1  0  0  0
  2 87  1  0  0  0
  3  4  1  0  0  0
  3 88  1  0  0  0
  3 89  1  0  0  0
  4  5  1  0  0  0
  4 90  1  0  0  0
  4 91  1  0  0  0
  5  6  1  0  0  0
  5 26  1  0  0  0
  5 92  1  0  0  0
  6 25  1  0  0  0
  6 93  1  0  0  0
  6 94  1  0  0  0
  7  8  2  0  0  0
  7 26  1  0  0  0
  7 29  1  0  0  0
  8  9  1  0  0  0
  8 22  1  0  0  0
  9 10  1  0  0  0
  9 27  2  0  0  0
 10 11  2  0  0  0
 10 15  1  0  0  0
 11 12  1  0  0  0
 11 95  1  0  0  0
 12 13  2  0  0  0
 12 96  1  0  0  0
 13 14  1  0  0  0
 13 31  1  0  0  0
 14 15  2  0  0  0
 14 97  1  0  0  0
 15 98  1  0  0  0
 16 17  2  0  0  0
 16 21  1  0  0  0
 16 31  1  0  0  0
 17 18  1  0  0  0
 17 99  1  0  0  0
 18 19  2  0  0  0
 18100  1  0  0  0
 19 20  1  0  0  0
 19 24  1  0  0  0
 20 21  2  0  0  0
 20101  1  0  0  0
 21 23  1  0  0  0
 22 28  1  0  0  0
 22 32  2  0  0  0
 26 27  1  0  0  0
 28102  1  0  0  0
 28103  1  0  0  0
 29104  1  0  0  0
 29105  1  0  0  0
 33 34  1  0  0  0
 33 66  1  0  0  0
 33 70  2  0  0  0
 34 36  1  0  0  0
 34 59  1  0  0  0
 34106  1  0  0  0
 35 44  2  0  0  0
 35 45  1  0  0  0
 35 68  1  0  0  0
 36 56  1  0  0  0
 36107  1  0  0  0
 37 39  1  0  0  0
 37 47  1  0  0  0
 37 66  1  0  0  0
 37108  1  0  0  0
 38 43  2  0  0  0
 38 46  1  0  0  0
 38 47  1  0  0  0
 39 64  1  0  0  0
 39 67  2  0  0  0
 40 52  1  0  0  0
 40 53  2  0  0  0
 40 58  1  0  0  0
 41109  1  0  0  0
 41110  1  0  0  0
 41111  1  0  0  0
 41 48  1  0  0  0
 42 43  1  0  0  0
 42 66  1  0  0  0
 42112  1  0  0  0
 42113  1  0  0  0
 43 44  1  0  0  0
 44114  1  0  0  0
 45 46  2  0  0  0
 45115  1  0  0  0
 46116  1  0  0  0
 47117  1  0  0  0
 47118  1  0  0  0
 48 56  1  0  0  0
 48 65  1  0  0  0
 48119  1  0  0  0
 49 50  1  0  0  0
 49 53  1  0  0  0
 49 64  1  0  0  0
 49120  1  0  0  0
 50 51  1  0  0  0
 50121  1  0  0  0
 50122  1  0  0  0
 51 52  1  0  0  0
 51123  1  0  0  0
 51124  1  0  0  0
 52125  1  0  0  0
 52126  1  0  0  0
 53 54  1  0  0  0
 54 55  2  0  0  0
 54127  1  0  0  0
 55 57  1  0  0  0
 55128  1  0  0  0
 56 69  2  0  0  0
 57 58  2  0  0  0
 57129  1  0  0  0
 58130  1  0  0  0
 59 60  1  0  0  0
 59 61  1  0  0  0
 59 62  1  0  0  0
 60131  1  0  0  0
 60132  1  0  0  0
 60133  1  0  0  0
 61134  1  0  0  0
 61135  1  0  0  0
 61136  1  0  0  0
 62137  1  0  0  0
 62138  1  0  0  0
 62139  1  0  0  0
 63 65  1  0  0  0
 63140  1  0  0  0
 63141  1  0  0  0
 63142  1  0  0  0
 64143  1  0  0  0
 65144  1  0  0  0
 68 82  1  0  0  0
 71 73  2  0  0  0
 71 75  1  0  0  0
 71145  1  0  0  0
 72 74  1  0  0  0
 72 75  2  0  0  0
 72146  1  0  0  0
 73 76  1  0  0  0
 73 78  1  0  0  0
 74 76  2  0  0  0
 74 79  1  0  0  0
 75 84  1  0  0  0
 76 83  1  0  0  0
 77 80  1  0  0  0
 77 83  1  0  0  0
 77 85  2  0  0  0
 78147  1  0  0  0
 78148  1  0  0  0
 78149  1  0  0  0
 79150  1  0  0  0
 79151  1  0  0  0
 79152  1  0  0  0
 80 81  1  0  0  0
 80153  1  0  0  0
 80154  1  0  0  0
 81 82  1  0  0  0
 81155  1  0  0  0
 81156  1  0  0  0
 82157  1  0  0  0
 82158  1  0  0  0
 83159  1  0  0  0
 84160  1  0  0  0
M  ISO  4   1 100  68 101  82 101  84 100
M  END
> <chiral flag>
0

> <version>
0

> <s_m_source_file>
/data/baiqing/PycharmProjects/Reinvent-master-3.2/result/LINK_invent/BTK/process_docking_weight1_custom_product_contain_oxygen_bond_distance_aromatic_linkinvent_7_9_3/rearranged_h_0107.sdf

> <i_m_source_file_index>
39

> <r_mmod_Potential_Energy-OPLS-2005>
-104.608367919922

> <r_mmod_Stretch_Energy-OPLS-2005>
37.1790390014648

> <r_mmod_Bend_Energy-OPLS-2005>
105.263793945312

> <r_mmod_Torsional_Energy-OPLS-2005>
273.868499755859

> <r_mmod_Improper_Torsional_Energy-OPLS-2005>
4.63644123077393

> <r_mmod_Van_der_Waal_Energy-OPLS-2005>
156.195022583008

> <r_mmod_Electrostatic_Energy-OPLS-2005>
-457.848297119141

> <r_mmod_Solvation_Energy-OPLS-2005>
-234.85595703125

> <b_mmod_Minimization_Converged-OPLS-2005>
0

> <r_mmod_RMS_Derivative-OPLS-2005>
2.04461193084717

$$$$
39
                    3D
 Structure written by MMmdl.
156164  0  0  1  0            999 V2000
  -30.8198  -14.5206   20.5548 C   0  0  0  0  0  0
  -30.3853  -12.3504   19.4608 C   0  0  0  0  0  0
  -29.5104  -12.4902   18.1929 C   0  0  0  0  0  0
  -28.0236  -12.7979   18.4931 C   0  0  0  0  0  0
  -27.7065  -12.7429   19.9882 C   0  0  2  0  0  0
  -28.6934  -13.2905   21.0122 C   0  0  0  0  0  0
  -25.3097  -13.7505   20.5543 C   0  0  0  0  0  0
  -24.1857  -13.0376   20.9087 C   0  0  0  0  0  0
  -24.5724  -11.6681   20.8881 C   0  0  0  0  0  0
  -23.8411  -10.4241   21.0619 C   0  0  0  0  0  0
  -24.3189   -9.4185   21.9301 C   0  0  0  0  0  0
  -23.6057   -8.2133   22.0767 C   0  0  0  0  0  0
  -22.4075   -8.0138   21.3530 C   0  0  0  0  0  0
  -21.9585   -9.0064   20.4654 C   0  0  0  0  0  0
  -22.6722  -10.2037   20.3146 C   0  0  0  0  0  0
  -21.6774   -6.0631   22.5279 C   0  0  0  0  0  0
  -21.3956   -6.5575   23.8200 C   0  0  0  0  0  0
  -21.3649   -5.6762   24.9185 C   0  0  0  0  0  0
  -21.6046   -4.3022   24.7255 C   0  0  0  0  0  0
  -21.8829   -3.8089   23.4387 C   0  0  0  0  0  0
  -21.9178   -4.6878   22.3429 C   0  0  0  0  0  0
  -22.8010  -13.5534   21.1756 C   0  0  0  0  0  0
  -22.1662   -4.2068   21.1007 F   0  0  0  0  0  0
  -21.5652   -3.4523   25.7776 F   0  0  0  0  0  0
  -30.0318  -13.4235   20.4130 N   0  0  0  0  0  0
  -26.3025  -12.7803   20.3682 N   0  0  0  0  0  0
  -25.8349  -11.5478   20.5990 N   0  0  0  0  0  0
  -22.0507  -12.8634   22.0311 N   0  0  0  0  0  0
  -25.5527  -15.1097   20.3776 N   0  0  0  0  0  0
  -31.9402  -14.5959   20.0567 O   0  0  0  0  0  0
  -21.6530   -6.8703   21.4213 O   0  0  0  0  0  0
  -22.3877  -14.5896   20.6599 O   0  0  0  0  0  0
  -24.6146  -31.8682   23.2078 C   0  0  0  0  0  0
  -25.9032  -32.4822   23.8381 C   0  0  1  0  0  0
  -27.2326  -27.4305   20.0971 C   0  0  0  0  0  0
  -25.5886  -33.8619   24.2296 N   0  0  0  0  0  0
  -23.4016  -30.4896   21.5509 C   0  0  2  0  0  0
  -24.8454  -28.9551   20.1170 C   0  0  0  0  0  0
  -22.7417  -29.4645   22.5016 C   0  0  0  0  0  0
  -18.0267  -28.1372   22.8483 C   0  0  0  0  0  0
  -24.1486  -36.7319   23.2641 C   0  0  0  0  0  0
  -25.9289  -30.8369   21.3548 C   0  0  0  0  0  0
  -26.0074  -29.4689   20.7052 C   0  0  0  0  0  0
  -27.2049  -28.7169   20.6849 C   0  0  0  0  0  0
  -26.0482  -26.9305   19.5097 C   0  0  0  0  0  0
  -24.8609  -27.6846   19.5171 C   0  0  0  0  0  0
  -23.6078  -29.8208   20.1664 C   0  0  0  0  0  0
  -25.4108  -36.3113   24.0338 C   0  0  1  0  0  0
  -20.5859  -28.3655   23.1331 C   0  0  2  0  0  0
  -20.6756  -26.9397   22.5425 C   0  0  0  0  0  0
  -19.5733  -26.6387   21.5216 C   0  0  0  0  0  0
  -18.1912  -26.7913   22.1626 C   0  0  0  0  0  0
  -19.1520  -28.8830   23.2892 C   0  0  0  0  0  0
  -18.9451  -30.1434   23.8898 C   0  0  0  0  0  0
  -17.6462  -30.6575   24.0579 C   0  0  0  0  0  0
  -25.9046  -34.9480   23.5118 C   0  0  0  0  0  0
  -16.5347  -29.9089   23.6330 C   0  0  0  0  0  0
  -16.7265  -28.6511   23.0335 C   0  0  0  0  0  0
  -26.4457  -31.6590   25.0701 C   0  0  0  0  0  0
  -25.3725  -31.3703   26.1454 C   0  0  0  0  0  0
  -27.0277  -30.3042   24.6031 C   0  0  0  0  0  0
  -27.6030  -32.4309   25.7466 C   0  0  0  0  0  0
  -27.5573  -37.1810   24.8468 C   0  0  0  0  0  0
  -21.4147  -29.3029   22.3753 N   0  0  0  0  0  0
  -26.4291  -37.3797   23.9410 N   0  0  0  0  0  0
  -24.6672  -31.0790   22.0975 N   0  0  0  0  0  0
  -23.4195  -28.8197   23.3062 O   0  0  0  0  0  0
  -28.4081  -26.7039   20.1030 O   0  0  0  0  0  0
  -26.5629  -34.8940   22.4692 O   0  0  0  0  0  0
  -23.5339  -32.1435   23.7469 O   0  0  0  0  0  0
  -30.5951  -19.9424   19.4918 C   0  0  0  0  0  0
  -29.6167  -20.3362   21.6674 C   0  0  0  0  0  0
  -30.8917  -18.6035   19.8488 C   0  0  0  0  0  0
  -30.5748  -18.1284   21.1496 C   0  0  0  0  0  0
  -29.9930  -20.8449   20.3978 C   0  0  0  0  0  0
  -29.9058  -19.0053   22.0361 C   0  0  0  0  0  0
  -29.6767  -23.1552   20.8012 C   0  0  0  0  0  0
  -31.5819  -17.7161   18.8253 C   0  0  0  0  0  0
  -31.0453  -16.7559   21.6645 C   0  0  0  0  0  0
  -29.6880  -24.6333   20.4110 C   0  0  0  0  0  0
  -28.2954  -25.2731   20.2247 C   0  0  0  0  0  0
  -29.8399  -22.1879   19.9780 N   0  0  0  0  0  0
  -30.3006  -15.5684   21.2178 N   0  0  0  0  0  0
  -29.5649  -18.5846   23.2779 F   0  0  0  0  0  0
  -31.4421  -12.3501   19.1893 H   0  0  0  0  0  0
  -30.2197  -11.3854   19.9422 H   0  0  0  0  0  0
  -29.5895  -11.5758   17.6046 H   0  0  0  0  0  0
  -29.9143  -13.2824   17.5609 H   0  0  0  0  0  0
  -27.3771  -12.1168   17.9381 H   0  0  0  0  0  0
  -27.7870  -13.7973   18.1279 H   0  0  0  0  0  0
  -27.9771  -11.6906   20.1172 H   0  0  0  0  0  0
  -28.7510  -12.6389   21.8849 H   0  0  0  0  0  0
  -28.2867  -14.2331   21.3765 H   0  0  0  0  0  0
  -25.2334   -9.5730   22.4844 H   0  0  0  0  0  0
  -23.9843   -7.4519   22.7428 H   0  0  0  0  0  0
  -21.0548   -8.8481   19.8934 H   0  0  0  0  0  0
  -22.3158  -10.9566   19.6259 H   0  0  0  0  0  0
  -21.1914   -7.6082   23.9669 H   0  0  0  0  0  0
  -21.1480   -6.0512   25.9081 H   0  0  0  0  0  0
  -22.0629   -2.7550   23.2920 H   0  0  0  0  0  0
  -22.3937  -12.0237   22.4731 H   0  0  0  0  0  0
  -21.1178  -13.1840   22.2484 H   0  0  0  0  0  0
  -24.8278  -15.8134   20.4640 H   0  0  0  0  0  0
  -26.4386  -15.4846   20.0596 H   0  0  0  0  0  0
  -26.7105  -32.5544   23.1154 H   0  0  0  0  0  0
  -25.0011  -33.9779   25.0423 H   0  0  0  0  0  0
  -22.6894  -31.3057   21.4109 H   0  0  0  0  0  0
  -23.3734  -35.9662   23.3325 H   0  0  0  0  0  0
  -24.3585  -36.8913   22.2049 H   0  0  0  0  0  0
  -23.7245  -37.6538   23.6645 H   0  0  0  0  0  0
  -26.0279  -31.5982   20.5803 H   0  0  0  0  0  0
  -26.8229  -30.9001   21.9634 H   0  0  0  0  0  0
  -28.1053  -29.1121   21.1332 H   0  0  0  0  0  0
  -26.0205  -25.9635   19.0311 H   0  0  0  0  0  0
  -23.9668  -27.2802   19.0617 H   0  0  0  0  0  0
  -23.7154  -30.5936   19.4052 H   0  0  0  0  0  0
  -22.7314  -29.2402   19.8735 H   0  0  0  0  0  0
  -25.1272  -36.1980   25.0828 H   0  0  0  0  0  0
  -20.9928  -28.3210   24.1466 H   0  0  0  0  0  0
  -20.5669  -26.2266   23.3612 H   0  0  0  0  0  0
  -21.6625  -26.7458   22.1214 H   0  0  0  0  0  0
  -19.6912  -25.6313   21.1215 H   0  0  0  0  0  0
  -19.6655  -27.3225   20.6767 H   0  0  0  0  0  0
  -17.4192  -26.6664   21.4030 H   0  0  0  0  0  0
  -18.0307  -26.0043   22.9008 H   0  0  0  0  0  0
  -19.7936  -30.7237   24.2262 H   0  0  0  0  0  0
  -17.5033  -31.6258   24.5179 H   0  0  0  0  0  0
  -15.5351  -30.3009   23.7641 H   0  0  0  0  0  0
  -15.8659  -28.0855   22.7021 H   0  0  0  0  0  0
  -24.5900  -30.7036   25.7814 H   0  0  0  0  0  0
  -24.8912  -32.2861   26.4893 H   0  0  0  0  0  0
  -25.8085  -30.8898   27.0218 H   0  0  0  0  0  0
  -26.2811  -29.6821   24.1081 H   0  0  0  0  0  0
  -27.4080  -29.7242   25.4450 H   0  0  0  0  0  0
  -27.8623  -30.4382   23.9139 H   0  0  0  0  0  0
  -27.2640  -33.3601   26.2058 H   0  0  0  0  0  0
  -28.3833  -32.6880   25.0288 H   0  0  0  0  0  0
  -28.0699  -31.8424   26.5372 H   0  0  0  0  0  0
  -28.2601  -38.0098   24.7511 H   0  0  0  0  0  0
  -28.1051  -36.2629   24.6288 H   0  0  0  0  0  0
  -27.2304  -37.1463   25.8878 H   0  0  0  0  0  0
  -20.9313  -29.8773   21.6985 H   0  0  0  0  0  0
  -26.0175  -38.2875   24.1415 H   0  0  0  0  0  0
  -30.8741  -20.2972   18.5082 H   0  0  0  0  0  0
  -29.1217  -20.9529   22.4018 H   0  0  0  0  0  0
  -29.5662  -23.0044   21.8783 H   0  0  0  0  0  0
  -30.9172  -16.9112   18.5105 H   0  0  0  0  0  0
  -32.4922  -17.2748   19.2303 H   0  0  0  0  0  0
  -31.8637  -18.2762   17.9329 H   0  0  0  0  0  0
  -31.0018  -16.7506   22.7536 H   0  0  0  0  0  0
  -32.1106  -16.6642   21.4436 H   0  0  0  0  0  0
  -30.2812  -24.7610   19.5055 H   0  0  0  0  0  0
  -30.2180  -25.1706   21.1973 H   0  0  0  0  0  0
  -27.6608  -25.0342   21.0803 H   0  0  0  0  0  0
  -27.8312  -24.8394   19.3395 H   0  0  0  0  0  0
  -29.3533  -15.4699   21.5491 H   0  0  0  0  0  0
  1 25  1  0  0  0
  1 30  2  0  0  0
  1 83  1  0  0  0
  2  3  1  0  0  0
  2 25  1  0  0  0
  2 85  1  0  0  0
  2 86  1  0  0  0
  3  4  1  0  0  0
  3 87  1  0  0  0
  3 88  1  0  0  0
  4  5  1  0  0  0
  4 89  1  0  0  0
  4 90  1  0  0  0
  5  6  1  0  0  0
  5 26  1  0  0  0
  5 91  1  0  0  0
  6 25  1  0  0  0
  6 92  1  0  0  0
  6 93  1  0  0  0
  7  8  2  0  0  0
  7 26  1  0  0  0
  7 29  1  0  0  0
  8  9  1  0  0  0
  8 22  1  0  0  0
  9 10  1  0  0  0
  9 27  2  0  0  0
 10 11  2  0  0  0
 10 15  1  0  0  0
 11 12  1  0  0  0
 11 94  1  0  0  0
 12 13  2  0  0  0
 12 95  1  0  0  0
 13 14  1  0  0  0
 13 31  1  0  0  0
 14 15  2  0  0  0
 14 96  1  0  0  0
 15 97  1  0  0  0
 16 17  2  0  0  0
 16 21  1  0  0  0
 16 31  1  0  0  0
 17 18  1  0  0  0
 17 98  1  0  0  0
 18 19  2  0  0  0
 18 99  1  0  0  0
 19 20  1  0  0  0
 19 24  1  0  0  0
 20 21  2  0  0  0
 20100  1  0  0  0
 21 23  1  0  0  0
 22 28  1  0  0  0
 22 32  2  0  0  0
 26 27  1  0  0  0
 28101  1  0  0  0
 28102  1  0  0  0
 29103  1  0  0  0
 29104  1  0  0  0
 33 34  1  0  0  0
 33 66  1  0  0  0
 33 70  2  0  0  0
 34 36  1  0  0  0
 34 59  1  0  0  0
 34105  1  0  0  0
 35 44  2  0  0  0
 35 45  1  0  0  0
 35 68  1  0  0  0
 36 56  1  0  0  0
 36106  1  0  0  0
 37 39  1  0  0  0
 37 47  1  0  0  0
 37 66  1  0  0  0
 37107  1  0  0  0
 38 43  2  0  0  0
 38 46  1  0  0  0
 38 47  1  0  0  0
 39 64  1  0  0  0
 39 67  2  0  0  0
 40 52  1  0  0  0
 40 53  2  0  0  0
 40 58  1  0  0  0
 41108  1  0  0  0
 41109  1  0  0  0
 41110  1  0  0  0
 41 48  1  0  0  0
 42 43  1  0  0  0
 42 66  1  0  0  0
 42111  1  0  0  0
 42112  1  0  0  0
 43 44  1  0  0  0
 44113  1  0  0  0
 45 46  2  0  0  0
 45114  1  0  0  0
 46115  1  0  0  0
 47116  1  0  0  0
 47117  1  0  0  0
 48 56  1  0  0  0
 48 65  1  0  0  0
 48118  1  0  0  0
 49 50  1  0  0  0
 49 53  1  0  0  0
 49 64  1  0  0  0
 49119  1  0  0  0
 50 51  1  0  0  0
 50120  1  0  0  0
 50121  1  0  0  0
 51 52  1  0  0  0
 51122  1  0  0  0
 51123  1  0  0  0
 52124  1  0  0  0
 52125  1  0  0  0
 53 54  1  0  0  0
 54 55  2  0  0  0
 54126  1  0  0  0
 55 57  1  0  0  0
 55127  1  0  0  0
 56 69  2  0  0  0
 57 58  2  0  0  0
 57128  1  0  0  0
 58129  1  0  0  0
 59 60  1  0  0  0
 59 61  1  0  0  0
 59 62  1  0  0  0
 60130  1  0  0  0
 60131  1  0  0  0
 60132  1  0  0  0
 61133  1  0  0  0
 61134  1  0  0  0
 61135  1  0  0  0
 62136  1  0  0  0
 62137  1  0  0  0
 62138  1  0  0  0
 63 65  1  0  0  0
 63139  1  0  0  0
 63140  1  0  0  0
 63141  1  0  0  0
 64142  1  0  0  0
 65143  1  0  0  0
 68 81  1  0  0  0
 71 73  2  0  0  0
 71 75  1  0  0  0
 71144  1  0  0  0
 72 75  2  0  0  0
 72 76  1  0  0  0
 72145  1  0  0  0
 73 74  1  0  0  0
 73 78  1  0  0  0
 74 76  2  0  0  0
 74 79  1  0  0  0
 75 82  1  0  0  0
 76 84  1  0  0  0
 77 80  1  0  0  0
 77 82  2  0  0  0
 77146  1  0  0  0
 78147  1  0  0  0
 78148  1  0  0  0
 78149  1  0  0  0
 79 83  1  0  0  0
 79150  1  0  0  0
 79151  1  0  0  0
 80 81  1  0  0  0
 80152  1  0  0  0
 80153  1  0  0  0
 81154  1  0  0  0
 81155  1  0  0  0
 83156  1  0  0  0
M  ISO  4   1 100  68 101  81 101  83 100
M  END
> <chiral flag>
0

> <version>
0

> <s_m_source_file>
/data/baiqing/PycharmProjects/Reinvent-master-3.2/result/LINK_invent/BTK/process_docking_weight1_custom_product_contain_oxygen_bond_distance_aromatic_linkinvent_7_9_3/rearranged_h_0107.sdf

> <i_m_source_file_index>
40

> <r_mmod_Potential_Energy-OPLS-2005>
81.5660705566406

> <r_mmod_Stretch_Energy-OPLS-2005>
39.1908378601074

> <r_mmod_Bend_Energy-OPLS-2005>
151.104827880859

> <r_mmod_Torsional_Energy-OPLS-2005>
229.526290893555

> <r_mmod_Improper_Torsional_Energy-OPLS-2005>
2.439612865448

> <r_mmod_Van_der_Waal_Energy-OPLS-2005>
174.200317382812

> <r_mmod_Electrostatic_Energy-OPLS-2005>
-397.251800537109

> <r_mmod_Solvation_Energy-OPLS-2005>
-202.616546630859

> <b_mmod_Minimization_Converged-OPLS-2005>
0

> <r_mmod_RMS_Derivative-OPLS-2005>
2.08517956733704

$$$$
40
                    3D
 Structure written by MMmdl.
163171  0  0  1  0            999 V2000
  -30.7524  -14.4846   20.5816 C   0  0  0  0  0  0
  -30.4160  -12.3277   19.4213 C   0  0  0  0  0  0
  -29.4889  -12.4886   18.2019 C   0  0  0  0  0  0
  -28.0140  -12.3118   18.6144 C   0  0  0  0  0  0
  -27.6425  -13.1744   19.8452 C   0  0  2  0  0  0
  -28.6958  -13.0400   20.9757 C   0  0  0  0  0  0
  -25.2562  -13.8079   20.5674 C   0  0  0  0  0  0
  -24.1812  -13.0386   20.9232 C   0  0  0  0  0  0
  -24.6347  -11.6851   20.8801 C   0  0  0  0  0  0
  -23.9040  -10.4247   21.0451 C   0  0  0  0  0  0
  -24.3614   -9.4160   21.9204 C   0  0  0  0  0  0
  -23.6284   -8.2197   22.0752 C   0  0  0  0  0  0
  -22.4248   -8.0263   21.3547 C   0  0  0  0  0  0
  -21.9891   -9.0238   20.4637 C   0  0  0  0  0  0
  -22.7236  -10.2110   20.3071 C   0  0  0  0  0  0
  -21.6842   -6.0715   22.5284 C   0  0  0  0  0  0
  -21.3988   -6.5614   23.8221 C   0  0  0  0  0  0
  -21.3673   -5.6762   24.9181 C   0  0  0  0  0  0
  -21.6061   -4.3028   24.7205 C   0  0  0  0  0  0
  -21.8843   -3.8123   23.4325 C   0  0  0  0  0  0
  -21.9195   -4.6946   22.3388 C   0  0  0  0  0  0
  -22.7848  -13.5211   21.1877 C   0  0  0  0  0  0
  -22.1661   -4.2137   21.0960 F   0  0  0  0  0  0
  -21.5652   -3.4523   25.7722 F   0  0  0  0  0  0
  -30.0269  -13.3387   20.4197 N   0  0  0  0  0  0
  -26.2923  -12.9157   20.3262 N   0  0  0  0  0  0
  -25.9238  -11.6373   20.5763 N   0  0  0  0  0  0
  -22.0459  -12.8214   22.0415 N   0  0  0  0  0  0
  -25.4284  -15.1799   20.4035 N   0  0  0  0  0  0
  -31.8888  -14.6072   20.1130 O   0  0  0  0  0  0
  -21.6619   -6.8856   21.4241 O   0  0  0  0  0  0
  -22.3559  -14.5504   20.6698 O   0  0  0  0  0  0
  -24.6163  -31.8693   23.2088 C   0  0  0  0  0  0
  -25.9049  -32.4840   23.8389 C   0  0  1  0  0  0
  -27.2532  -27.4556   20.0920 C   0  0  0  0  0  0
  -25.5874  -33.8635   24.2321 N   0  0  0  0  0  0
  -23.4025  -30.4927   21.5496 C   0  0  2  0  0  0
  -24.8512  -28.9556   20.1185 C   0  0  0  0  0  0
  -22.7409  -29.4686   22.4984 C   0  0  0  0  0  0
  -18.0270  -28.1385   22.8476 C   0  0  0  0  0  0
  -24.1478  -36.7353   23.2646 C   0  0  0  0  0  0
  -25.9260  -30.8474   21.3489 C   0  0  0  0  0  0
  -26.0086  -29.4775   20.7062 C   0  0  0  0  0  0
  -27.2103  -28.7345   20.6904 C   0  0  0  0  0  0
  -26.0705  -26.9408   19.5092 C   0  0  0  0  0  0
  -24.8756  -27.6838   19.5192 C   0  0  0  0  0  0
  -23.6104  -29.8187   20.1660 C   0  0  0  0  0  0
  -25.4088  -36.3133   24.0353 C   0  0  1  0  0  0
  -20.5858  -28.3675   23.1311 C   0  0  2  0  0  0
  -20.6753  -26.9406   22.5423 C   0  0  0  0  0  0
  -19.5735  -26.6384   21.5212 C   0  0  0  0  0  0
  -18.1912  -26.7928   22.1612 C   0  0  0  0  0  0
  -19.1517  -28.8838   23.2896 C   0  0  0  0  0  0
  -18.9445  -30.1431   23.8919 C   0  0  0  0  0  0
  -17.6448  -30.6582   24.0555 C   0  0  0  0  0  0
  -25.9011  -34.9496   23.5136 C   0  0  0  0  0  0
  -16.5341  -29.9087   23.6312 C   0  0  0  0  0  0
  -16.7259  -28.6513   23.0324 C   0  0  0  0  0  0
  -26.4479  -31.6617   25.0710 C   0  0  0  0  0  0
  -25.3741  -31.3708   26.1448 C   0  0  0  0  0  0
  -27.0312  -30.3068   24.6078 C   0  0  0  0  0  0
  -27.6061  -32.4335   25.7468 C   0  0  0  0  0  0
  -27.5569  -37.1831   24.8461 C   0  0  0  0  0  0
  -21.4129  -29.3065   22.3740 N   0  0  0  0  0  0
  -26.4269  -37.3811   23.9417 N   0  0  0  0  0  0
  -24.6684  -31.0808   22.0968 N   0  0  0  0  0  0
  -23.4192  -28.8203   23.3003 O   0  0  0  0  0  0
  -28.4548  -26.7706   20.1064 O   0  0  0  0  0  0
  -26.5575  -34.8951   22.4696 O   0  0  0  0  0  0
  -23.5367  -32.1432   23.7497 O   0  0  0  0  0  0
  -28.6068  -18.6741   21.4061 C   0  0  0  0  0  0
  -28.4513  -20.0236   21.0308 C   0  0  0  0  0  0
  -29.5309  -19.5493   18.9033 C   0  0  0  0  0  0
  -29.1656  -17.7331   20.5132 C   0  0  0  0  0  0
  -29.6636  -18.1892   19.2625 C   0  0  0  0  0  0
  -28.8840  -20.4654   19.7646 C   0  0  0  0  0  0
  -29.0895  -22.5633   18.4340 C   0  0  0  0  0  0
  -30.2578  -17.2351   18.2408 C   0  0  0  0  0  0
  -31.0706  -16.2252   22.2543 C   0  0  0  0  0  0
  -29.0324  -16.2405   20.8490 C   0  0  0  0  0  0
  -28.2271  -23.6985   17.8701 C   0  0  0  0  0  0
  -28.6347  -25.1118   18.3238 C   0  0  0  0  0  0
  -28.4640  -25.3683   19.8331 C   0  0  0  0  0  0
  -28.5025  -21.7677   19.3410 N   0  0  0  0  0  0
  -30.2161  -15.4918   21.3162 N   0  0  0  0  0  0
  -30.2583  -22.4388   18.0621 O   0  0  0  0  0  0
  -31.4578  -12.4246   19.1122 H   0  0  0  0  0  0
  -30.3251  -11.3257   19.8468 H   0  0  0  0  0  0
  -29.7503  -11.7583   17.4360 H   0  0  0  0  0  0
  -29.6349  -13.4718   17.7503 H   0  0  0  0  0  0
  -27.8517  -11.2559   18.8338 H   0  0  0  0  0  0
  -27.3604  -12.5456   17.7728 H   0  0  0  0  0  0
  -27.6255  -14.1815   19.4543 H   0  0  0  0  0  0
  -28.6949  -12.0258   21.3766 H   0  0  0  0  0  0
  -28.4387  -13.6840   21.8162 H   0  0  0  0  0  0
  -25.2767   -9.5631   22.4773 H   0  0  0  0  0  0
  -24.0015   -7.4566   22.7443 H   0  0  0  0  0  0
  -21.0839   -8.8779   19.8902 H   0  0  0  0  0  0
  -22.3740  -10.9673   19.6184 H   0  0  0  0  0  0
  -21.1948   -7.6117   23.9738 H   0  0  0  0  0  0
  -21.1495   -6.0466   25.9102 H   0  0  0  0  0  0
  -22.0609   -2.7582   23.2825 H   0  0  0  0  0  0
  -22.4013  -11.9888   22.4884 H   0  0  0  0  0  0
  -21.1094  -13.1296   22.2572 H   0  0  0  0  0  0
  -24.6619  -15.8348   20.5165 H   0  0  0  0  0  0
  -26.2731  -15.6186   20.0644 H   0  0  0  0  0  0
  -26.7132  -32.5579   23.1176 H   0  0  0  0  0  0
  -24.9976  -33.9799   25.0439 H   0  0  0  0  0  0
  -22.6941  -31.3115   21.4078 H   0  0  0  0  0  0
  -23.3718  -35.9707   23.3307 H   0  0  0  0  0  0
  -24.3597  -36.8965   22.2062 H   0  0  0  0  0  0
  -23.7259  -37.6575   23.6661 H   0  0  0  0  0  0
  -26.0127  -31.6044   20.5687 H   0  0  0  0  0  0
  -26.8285  -30.9258   21.9438 H   0  0  0  0  0  0
  -28.1042  -29.1423   21.1441 H   0  0  0  0  0  0
  -26.0505  -25.9704   19.0377 H   0  0  0  0  0  0
  -23.9857  -27.2710   19.0664 H   0  0  0  0  0  0
  -23.7180  -30.5921   19.4050 H   0  0  0  0  0  0
  -22.7368  -29.2355   19.8686 H   0  0  0  0  0  0
  -25.1265  -36.2011   25.0849 H   0  0  0  0  0  0
  -20.9946  -28.3250   24.1430 H   0  0  0  0  0  0
  -20.5613  -26.2294   23.3618 H   0  0  0  0  0  0
  -21.6633  -26.7428   22.1243 H   0  0  0  0  0  0
  -19.6879  -25.6297   21.1229 H   0  0  0  0  0  0
  -19.6672  -27.3203   20.6752 H   0  0  0  0  0  0
  -17.4179  -26.6660   21.4017 H   0  0  0  0  0  0
  -18.0304  -26.0095   22.9029 H   0  0  0  0  0  0
  -19.7935  -30.7220   24.2322 H   0  0  0  0  0  0
  -17.5022  -31.6271   24.5146 H   0  0  0  0  0  0
  -15.5339  -30.2980   23.7657 H   0  0  0  0  0  0
  -15.8663  -28.0841   22.7009 H   0  0  0  0  0  0
  -24.5916  -30.7063   25.7757 H   0  0  0  0  0  0
  -24.8919  -32.2843   26.4928 H   0  0  0  0  0  0
  -25.8085  -30.8840   27.0183 H   0  0  0  0  0  0
  -26.2837  -29.6796   24.1191 H   0  0  0  0  0  0
  -27.4135  -29.7360   25.4552 H   0  0  0  0  0  0
  -27.8649  -30.4389   23.9176 H   0  0  0  0  0  0
  -27.2696  -33.3627   26.2083 H   0  0  0  0  0  0
  -28.3848  -32.6904   25.0272 H   0  0  0  0  0  0
  -28.0752  -31.8423   26.5344 H   0  0  0  0  0  0
  -28.2586  -38.0124   24.7485 H   0  0  0  0  0  0
  -28.1051  -36.2652   24.6292 H   0  0  0  0  0  0
  -27.2294  -37.1502   25.8866 H   0  0  0  0  0  0
  -20.9277  -29.8872   21.7041 H   0  0  0  0  0  0
  -26.0162  -38.2886   24.1436 H   0  0  0  0  0  0
  -28.2186  -18.3455   22.3605 H   0  0  0  0  0  0
  -27.9475  -20.7046   21.7040 H   0  0  0  0  0  0
  -29.8497  -19.8638   17.9183 H   0  0  0  0  0  0
  -30.6633  -17.7691   17.3810 H   0  0  0  0  0  0
  -29.4978  -16.5482   17.8690 H   0  0  0  0  0  0
  -31.0759  -16.6624   18.6709 H   0  0  0  0  0  0
  -30.4819  -16.8290   22.9466 H   0  0  0  0  0  0
  -31.7460  -16.8943   21.7204 H   0  0  0  0  0  0
  -31.6740  -15.5404   22.8552 H   0  0  0  0  0  0
  -28.6668  -15.8159   19.9246 H   0  0  0  0  0  0
  -28.2298  -16.0950   21.5735 H   0  0  0  0  0  0
  -27.1743  -23.5274   18.0994 H   0  0  0  0  0  0
  -28.2997  -23.6471   16.7826 H   0  0  0  0  0  0
  -28.0223  -25.8199   17.7671 H   0  0  0  0  0  0
  -29.6628  -25.3226   18.0285 H   0  0  0  0  0  0
  -29.3002  -24.9207   20.3721 H   0  0  0  0  0  0
  -27.5759  -24.8790   20.2340 H   0  0  0  0  0  0
  -27.6035  -22.0824   19.6789 H   0  0  0  0  0  0
  1 25  1  0  0  0
  1 30  2  0  0  0
  1 85  1  0  0  0
  2  3  1  0  0  0
  2 25  1  0  0  0
  2 87  1  0  0  0
  2 88  1  0  0  0
  3  4  1  0  0  0
  3 89  1  0  0  0
  3 90  1  0  0  0
  4  5  1  0  0  0
  4 91  1  0  0  0
  4 92  1  0  0  0
  5  6  1  0  0  0
  5 26  1  0  0  0
  5 93  1  0  0  0
  6 25  1  0  0  0
  6 94  1  0  0  0
  6 95  1  0  0  0
  7  8  2  0  0  0
  7 26  1  0  0  0
  7 29  1  0  0  0
  8  9  1  0  0  0
  8 22  1  0  0  0
  9 10  1  0  0  0
  9 27  2  0  0  0
 10 11  2  0  0  0
 10 15  1  0  0  0
 11 12  1  0  0  0
 11 96  1  0  0  0
 12 13  2  0  0  0
 12 97  1  0  0  0
 13 14  1  0  0  0
 13 31  1  0  0  0
 14 15  2  0  0  0
 14 98  1  0  0  0
 15 99  1  0  0  0
 16 17  2  0  0  0
 16 21  1  0  0  0
 16 31  1  0  0  0
 17 18  1  0  0  0
 17100  1  0  0  0
 18 19  2  0  0  0
 18101  1  0  0  0
 19 20  1  0  0  0
 19 24  1  0  0  0
 20 21  2  0  0  0
 20102  1  0  0  0
 21 23  1  0  0  0
 22 28  1  0  0  0
 22 32  2  0  0  0
 26 27  1  0  0  0
 28103  1  0  0  0
 28104  1  0  0  0
 29105  1  0  0  0
 29106  1  0  0  0
 33 34  1  0  0  0
 33 66  1  0  0  0
 33 70  2  0  0  0
 34 36  1  0  0  0
 34 59  1  0  0  0
 34107  1  0  0  0
 35 44  2  0  0  0
 35 45  1  0  0  0
 35 68  1  0  0  0
 36 56  1  0  0  0
 36108  1  0  0  0
 37 39  1  0  0  0
 37 47  1  0  0  0
 37 66  1  0  0  0
 37109  1  0  0  0
 38 43  2  0  0  0
 38 46  1  0  0  0
 38 47  1  0  0  0
 39 64  1  0  0  0
 39 67  2  0  0  0
 40 52  1  0  0  0
 40 53  2  0  0  0
 40 58  1  0  0  0
 41110  1  0  0  0
 41111  1  0  0  0
 41112  1  0  0  0
 41 48  1  0  0  0
 42 43  1  0  0  0
 42 66  1  0  0  0
 42113  1  0  0  0
 42114  1  0  0  0
 43 44  1  0  0  0
 44115  1  0  0  0
 45 46  2  0  0  0
 45116  1  0  0  0
 46117  1  0  0  0
 47118  1  0  0  0
 47119  1  0  0  0
 48 56  1  0  0  0
 48 65  1  0  0  0
 48120  1  0  0  0
 49 50  1  0  0  0
 49 53  1  0  0  0
 49 64  1  0  0  0
 49121  1  0  0  0
 50 51  1  0  0  0
 50122  1  0  0  0
 50123  1  0  0  0
 51 52  1  0  0  0
 51124  1  0  0  0
 51125  1  0  0  0
 52126  1  0  0  0
 52127  1  0  0  0
 53 54  1  0  0  0
 54 55  2  0  0  0
 54128  1  0  0  0
 55 57  1  0  0  0
 55129  1  0  0  0
 56 69  2  0  0  0
 57 58  2  0  0  0
 57130  1  0  0  0
 58131  1  0  0  0
 59 60  1  0  0  0
 59 61  1  0  0  0
 59 62  1  0  0  0
 60132  1  0  0  0
 60133  1  0  0  0
 60134  1  0  0  0
 61135  1  0  0  0
 61136  1  0  0  0
 61137  1  0  0  0
 62138  1  0  0  0
 62139  1  0  0  0
 62140  1  0  0  0
 63 65  1  0  0  0
 63141  1  0  0  0
 63142  1  0  0  0
 63143  1  0  0  0
 64144  1  0  0  0
 65145  1  0  0  0
 68 83  1  0  0  0
 71 72  2  0  0  0
 71 74  1  0  0  0
 71146  1  0  0  0
 72 76  1  0  0  0
 72147  1  0  0  0
 73 75  1  0  0  0
 73 76  2  0  0  0
 73148  1  0  0  0
 74 75  2  0  0  0
 74 80  1  0  0  0
 75 78  1  0  0  0
 76 84  1  0  0  0
 77 81  1  0  0  0
 77 84  1  0  0  0
 77 86  2  0  0  0
 78149  1  0  0  0
 78150  1  0  0  0
 78151  1  0  0  0
 79 85  1  0  0  0
 79152  1  0  0  0
 79153  1  0  0  0
 79154  1  0  0  0
 80 85  1  0  0  0
 80155  1  0  0  0
 80156  1  0  0  0
 81 82  1  0  0  0
 81157  1  0  0  0
 81158  1  0  0  0
 82 83  1  0  0  0
 82159  1  0  0  0
 82160  1  0  0  0
 83161  1  0  0  0
 83162  1  0  0  0
 84163  1  0  0  0
M  ISO  4   1 100  68 101  83 101  85 100
M  END
> <chiral flag>
0

> <version>
0

> <s_m_source_file>
/data/baiqing/PycharmProjects/Reinvent-master-3.2/result/LINK_invent/BTK/process_docking_weight1_custom_product_contain_oxygen_bond_distance_aromatic_linkinvent_7_9_3/rearranged_h_0107.sdf

> <i_m_source_file_index>
41

> <r_mmod_Potential_Energy-OPLS-2005>
14.2058515548706

> <r_mmod_Stretch_Energy-OPLS-2005>
37.587532043457

> <r_mmod_Bend_Energy-OPLS-2005>
114.246170043945

> <r_mmod_Torsional_Energy-OPLS-2005>
284.352478027344

> <r_mmod_Improper_Torsional_Energy-OPLS-2005>
5.3954062461853

> <r_mmod_Van_der_Waal_Energy-OPLS-2005>
155.251617431641

> <r_mmod_Electrostatic_Energy-OPLS-2005>
-375.891387939453

> <r_mmod_Solvation_Energy-OPLS-2005>
-223.262725830078

> <b_mmod_Minimization_Converged-OPLS-2005>
0

> <r_mmod_RMS_Derivative-OPLS-2005>
2.99699521064758

$$$$
41
                    3D
 Structure written by MMmdl.
162171  0  0  1  0            999 V2000
  -30.6921  -14.6234   20.4477 C   0  0  0  0  0  0
  -30.4028  -12.3709   19.4665 C   0  0  0  0  0  0
  -29.4941  -12.4813   18.2269 C   0  0  0  0  0  0
  -28.0163  -12.3348   18.6350 C   0  0  0  0  0  0
  -27.6363  -13.2328   19.8447 C   0  0  2  0  0  0
  -28.6810  -13.1544   20.9797 C   0  0  0  0  0  0
  -25.2470  -13.8228   20.5678 C   0  0  0  0  0  0
  -24.1771  -13.0458   20.9224 C   0  0  0  0  0  0
  -24.6350  -11.6931   20.8739 C   0  0  0  0  0  0
  -23.9024  -10.4302   21.0397 C   0  0  0  0  0  0
  -24.3597   -9.4219   21.9171 C   0  0  0  0  0  0
  -23.6295   -8.2241   22.0724 C   0  0  0  0  0  0
  -22.4265   -8.0267   21.3530 C   0  0  0  0  0  0
  -21.9897   -9.0223   20.4612 C   0  0  0  0  0  0
  -22.7204  -10.2122   20.3030 C   0  0  0  0  0  0
  -21.6852   -6.0719   22.5280 C   0  0  0  0  0  0
  -21.4010   -6.5627   23.8212 C   0  0  0  0  0  0
  -21.3667   -5.6792   24.9184 C   0  0  0  0  0  0
  -21.6061   -4.3046   24.7236 C   0  0  0  0  0  0
  -21.8823   -3.8128   23.4357 C   0  0  0  0  0  0
  -21.9185   -4.6941   22.3407 C   0  0  0  0  0  0
  -22.7785  -13.5210   21.1890 C   0  0  0  0  0  0
  -22.1651   -4.2142   21.0987 F   0  0  0  0  0  0
  -21.5642   -3.4531   25.7739 F   0  0  0  0  0  0
  -29.9959  -13.4448   20.3971 N   0  0  0  0  0  0
  -26.2893  -12.9420   20.3251 N   0  0  0  0  0  0
  -25.9282  -11.6569   20.5753 N   0  0  0  0  0  0
  -22.0422  -12.8195   22.0444 N   0  0  0  0  0  0
  -25.4161  -15.1956   20.4094 N   0  0  0  0  0  0
  -31.8830  -14.6569   20.1354 O   0  0  0  0  0  0
  -21.6638   -6.8858   21.4236 O   0  0  0  0  0  0
  -22.3452  -14.5488   20.6699 O   0  0  0  0  0  0
  -24.6241  -31.8599   23.2015 C   0  0  0  0  0  0
  -25.9083  -32.4790   23.8343 C   0  0  1  0  0  0
  -27.2221  -27.3140   20.1267 C   0  0  0  0  0  0
  -25.5897  -33.8596   24.2265 N   0  0  0  0  0  0
  -23.4169  -30.4830   21.5467 C   0  0  2  0  0  0
  -24.8628  -28.9359   20.1129 C   0  0  0  0  0  0
  -22.7458  -29.4615   22.4953 C   0  0  0  0  0  0
  -18.0275  -28.1382   22.8483 C   0  0  0  0  0  0
  -24.1495  -36.7296   23.2637 C   0  0  0  0  0  0
  -25.9580  -30.7920   21.3697 C   0  0  0  0  0  0
  -26.0323  -29.4175   20.7144 C   0  0  0  0  0  0
  -27.2162  -28.6213   20.7050 C   0  0  0  0  0  0
  -26.0269  -26.8807   19.5083 C   0  0  0  0  0  0
  -24.8630  -27.6733   19.4994 C   0  0  0  0  0  0
  -23.6294  -29.8164   20.1622 C   0  0  0  0  0  0
  -25.4124  -36.3096   24.0324 C   0  0  1  0  0  0
  -20.5874  -28.3676   23.1298 C   0  0  2  0  0  0
  -20.6778  -26.9406   22.5414 C   0  0  0  0  0  0
  -19.5754  -26.6380   21.5219 C   0  0  0  0  0  0
  -18.1925  -26.7924   22.1620 C   0  0  0  0  0  0
  -19.1527  -28.8843   23.2890 C   0  0  0  0  0  0
  -18.9456  -30.1453   23.8898 C   0  0  0  0  0  0
  -17.6455  -30.6594   24.0550 C   0  0  0  0  0  0
  -25.9054  -34.9464   23.5108 C   0  0  0  0  0  0
  -16.5344  -29.9092   23.6328 C   0  0  0  0  0  0
  -16.7259  -28.6508   23.0347 C   0  0  0  0  0  0
  -26.4460  -31.6586   25.0701 C   0  0  0  0  0  0
  -25.3692  -31.3701   26.1419 C   0  0  0  0  0  0
  -27.0266  -30.3007   24.6122 C   0  0  0  0  0  0
  -27.6024  -32.4306   25.7470 C   0  0  0  0  0  0
  -27.5590  -37.1806   24.8461 C   0  0  0  0  0  0
  -21.4172  -29.3030   22.3694 N   0  0  0  0  0  0
  -26.4302  -37.3794   23.9406 N   0  0  0  0  0  0
  -24.6857  -31.0616   22.0970 N   0  0  0  0  0  0
  -23.4191  -28.8152   23.3035 O   0  0  0  0  0  0
  -28.3428  -26.4690   20.1774 O   0  0  0  0  0  0
  -26.5645  -34.8928   22.4685 O   0  0  0  0  0  0
  -23.5403  -32.1389   23.7352 O   0  0  0  0  0  0
  -30.7964  -19.3864   21.3397 C   0  0  0  0  0  0
  -30.4835  -20.7507   21.5607 C   0  0  0  0  0  0
  -28.6212  -20.5559   20.0622 C   0  0  0  0  0  0
  -28.9299  -19.1711   19.8142 C   0  0  0  0  0  0
  -30.0474  -18.5465   20.4735 C   0  0  0  0  0  0
  -29.3743  -21.3805   20.9416 C   0  0  0  0  0  0
  -28.8429  -22.9907   22.6567 C   0  0  0  0  0  0
  -28.1887  -17.3658   18.1427 C   0  0  0  0  0  0
  -28.0483  -18.5224   18.8137 C   0  0  0  0  0  0
  -29.3959  -24.3509   23.0416 C   0  0  0  0  0  0
  -30.1462  -24.7469   21.7751 C   0  0  0  0  0  0
  -29.3466  -24.0488   20.6647 C   0  0  2  0  0  0
  -30.6518  -17.1172   20.1931 C   0  0  0  0  0  0
  -28.1195  -25.0022   20.2685 C   0  0  0  0  0  0
  -28.9775  -22.7426   21.3344 N   0  0  0  0  0  0
  -30.0117  -15.8077   20.5785 N   0  0  0  0  0  0
  -28.3590  -22.2268   23.4996 O   0  0  0  0  0  0
  -31.4505  -12.4354   19.1715 H   0  0  0  0  0  0
  -30.2897  -11.3932   19.9384 H   0  0  0  0  0  0
  -29.7544  -11.7144   17.4955 H   0  0  0  0  0  0
  -29.6528  -13.4425   17.7356 H   0  0  0  0  0  0
  -27.8472  -11.2845   18.8818 H   0  0  0  0  0  0
  -27.3658  -12.5525   17.7871 H   0  0  0  0  0  0
  -27.6326  -14.2592   19.4734 H   0  0  0  0  0  0
  -28.6790  -12.1632   21.4354 H   0  0  0  0  0  0
  -28.4394  -13.8612   21.7744 H   0  0  0  0  0  0
  -25.2744   -9.5727   22.4755 H   0  0  0  0  0  0
  -24.0023   -7.4625   22.7424 H   0  0  0  0  0  0
  -21.0839   -8.8701   19.8909 H   0  0  0  0  0  0
  -22.3627  -10.9648   19.6136 H   0  0  0  0  0  0
  -21.1997   -7.6129   23.9722 H   0  0  0  0  0  0
  -21.1497   -6.0510   25.9097 H   0  0  0  0  0  0
  -22.0594   -2.7584   23.2851 H   0  0  0  0  0  0
  -22.4038  -11.9898   22.4914 H   0  0  0  0  0  0
  -21.1006  -13.1175   22.2565 H   0  0  0  0  0  0
  -24.6525  -15.8528   20.5211 H   0  0  0  0  0  0
  -26.2671  -15.6331   20.0791 H   0  0  0  0  0  0
  -26.7132  -32.5462   23.1072 H   0  0  0  0  0  0
  -24.9973  -33.9738   25.0358 H   0  0  0  0  0  0
  -22.7103  -31.3042   21.4068 H   0  0  0  0  0  0
  -23.3773  -35.9617   23.3308 H   0  0  0  0  0  0
  -24.3581  -36.8912   22.2051 H   0  0  0  0  0  0
  -23.7238  -37.6495   23.6653 H   0  0  0  0  0  0
  -26.0824  -31.5564   20.6014 H   0  0  0  0  0  0
  -26.8418  -30.8451   21.9941 H   0  0  0  0  0  0
  -28.1162  -28.9872   21.1793 H   0  0  0  0  0  0
  -25.9691  -25.9128   19.0338 H   0  0  0  0  0  0
  -23.9658  -27.2986   19.0258 H   0  0  0  0  0  0
  -23.7409  -30.5944   19.4062 H   0  0  0  0  0  0
  -22.7483  -29.2447   19.8638 H   0  0  0  0  0  0
  -25.1313  -36.1948   25.0821 H   0  0  0  0  0  0
  -20.9960  -28.3259   24.1423 H   0  0  0  0  0  0
  -20.5700  -26.2286   23.3608 H   0  0  0  0  0  0
  -21.6647  -26.7461   22.1195 H   0  0  0  0  0  0
  -19.6925  -25.6296   21.1245 H   0  0  0  0  0  0
  -19.6701  -27.3194   20.6756 H   0  0  0  0  0  0
  -17.4200  -26.6657   21.4021 H   0  0  0  0  0  0
  -18.0334  -26.0070   22.9027 H   0  0  0  0  0  0
  -19.7935  -30.7267   24.2268 H   0  0  0  0  0  0
  -17.5013  -31.6282   24.5137 H   0  0  0  0  0  0
  -15.5346  -30.2990   23.7666 H   0  0  0  0  0  0
  -15.8656  -28.0829   22.7064 H   0  0  0  0  0  0
  -24.5879  -30.7042   25.7729 H   0  0  0  0  0  0
  -24.8855  -32.2850   26.4858 H   0  0  0  0  0  0
  -25.8014  -30.8858   27.0183 H   0  0  0  0  0  0
  -26.2803  -29.6804   24.1136 H   0  0  0  0  0  0
  -27.3942  -29.7222   25.4607 H   0  0  0  0  0  0
  -27.8697  -30.4290   23.9330 H   0  0  0  0  0  0
  -27.2639  -33.3603   26.2059 H   0  0  0  0  0  0
  -28.3827  -32.6872   25.0292 H   0  0  0  0  0  0
  -28.0689  -31.8411   26.5371 H   0  0  0  0  0  0
  -28.2600  -38.0109   24.7536 H   0  0  0  0  0  0
  -28.1089  -36.2646   24.6262 H   0  0  0  0  0  0
  -27.2297  -37.1425   25.8857 H   0  0  0  0  0  0
  -20.9341  -29.8742   21.6891 H   0  0  0  0  0  0
  -26.0185  -38.2864   24.1434 H   0  0  0  0  0  0
  -31.6665  -18.9887   21.8441 H   0  0  0  0  0  0
  -31.1066  -21.3094   22.2476 H   0  0  0  0  0  0
  -27.7667  -21.0010   19.5706 H   0  0  0  0  0  0
  -27.4182  -17.0589   17.4480 H   0  0  0  0  0  0
  -29.0280  -16.7003   18.2343 H   0  0  0  0  0  0
  -27.1409  -19.0683   18.5967 H   0  0  0  0  0  0
  -30.0539  -24.2920   23.9088 H   0  0  0  0  0  0
  -28.5736  -25.0316   23.2591 H   0  0  0  0  0  0
  -31.1632  -24.3523   21.8063 H   0  0  0  0  0  0
  -30.2315  -25.8262   21.6510 H   0  0  0  0  0  0
  -29.9827  -23.8729   19.7964 H   0  0  0  0  0  0
  -31.6355  -17.1130   20.6666 H   0  0  0  0  0  0
  -30.9012  -17.0768   19.1317 H   0  0  0  0  0  0
  -27.3188  -24.8453   20.9942 H   0  0  0  0  0  0
  -27.7280  -24.6416   19.3174 H   0  0  0  0  0  0
  -29.0190  -15.7899   20.7579 H   0  0  0  0  0  0
  1 25  1  0  0  0
  1 30  2  0  0  0
  1 86  1  0  0  0
  2  3  1  0  0  0
  2 25  1  0  0  0
  2 88  1  0  0  0
  2 89  1  0  0  0
  3  4  1  0  0  0
  3 90  1  0  0  0
  3 91  1  0  0  0
  4  5  1  0  0  0
  4 92  1  0  0  0
  4 93  1  0  0  0
  5  6  1  0  0  0
  5 26  1  0  0  0
  5 94  1  0  0  0
  6 25  1  0  0  0
  6 95  1  0  0  0
  6 96  1  0  0  0
  7  8  2  0  0  0
  7 26  1  0  0  0
  7 29  1  0  0  0
  8  9  1  0  0  0
  8 22  1  0  0  0
  9 10  1  0  0  0
  9 27  2  0  0  0
 10 11  2  0  0  0
 10 15  1  0  0  0
 11 12  1  0  0  0
 11 97  1  0  0  0
 12 13  2  0  0  0
 12 98  1  0  0  0
 13 14  1  0  0  0
 13 31  1  0  0  0
 14 15  2  0  0  0
 14 99  1  0  0  0
 15100  1  0  0  0
 16 17  2  0  0  0
 16 21  1  0  0  0
 16 31  1  0  0  0
 17 18  1  0  0  0
 17101  1  0  0  0
 18 19  2  0  0  0
 18102  1  0  0  0
 19 20  1  0  0  0
 19 24  1  0  0  0
 20 21  2  0  0  0
 20103  1  0  0  0
 21 23  1  0  0  0
 22 28  1  0  0  0
 22 32  2  0  0  0
 26 27  1  0  0  0
 28104  1  0  0  0
 28105  1  0  0  0
 29106  1  0  0  0
 29107  1  0  0  0
 33 34  1  0  0  0
 33 66  1  0  0  0
 33 70  2  0  0  0
 34 36  1  0  0  0
 34 59  1  0  0  0
 34108  1  0  0  0
 35 44  2  0  0  0
 35 45  1  0  0  0
 35 68  1  0  0  0
 36 56  1  0  0  0
 36109  1  0  0  0
 37 39  1  0  0  0
 37 47  1  0  0  0
 37 66  1  0  0  0
 37110  1  0  0  0
 38 43  2  0  0  0
 38 46  1  0  0  0
 38 47  1  0  0  0
 39 64  1  0  0  0
 39 67  2  0  0  0
 40 52  1  0  0  0
 40 53  2  0  0  0
 40 58  1  0  0  0
 41111  1  0  0  0
 41112  1  0  0  0
 41113  1  0  0  0
 41 48  1  0  0  0
 42 43  1  0  0  0
 42 66  1  0  0  0
 42114  1  0  0  0
 42115  1  0  0  0
 43 44  1  0  0  0
 44116  1  0  0  0
 45 46  2  0  0  0
 45117  1  0  0  0
 46118  1  0  0  0
 47119  1  0  0  0
 47120  1  0  0  0
 48 56  1  0  0  0
 48 65  1  0  0  0
 48121  1  0  0  0
 49 50  1  0  0  0
 49 53  1  0  0  0
 49 64  1  0  0  0
 49122  1  0  0  0
 50 51  1  0  0  0
 50123  1  0  0  0
 50124  1  0  0  0
 51 52  1  0  0  0
 51125  1  0  0  0
 51126  1  0  0  0
 52127  1  0  0  0
 52128  1  0  0  0
 53 54  1  0  0  0
 54 55  2  0  0  0
 54129  1  0  0  0
 55 57  1  0  0  0
 55130  1  0  0  0
 56 69  2  0  0  0
 57 58  2  0  0  0
 57131  1  0  0  0
 58132  1  0  0  0
 59 60  1  0  0  0
 59 61  1  0  0  0
 59 62  1  0  0  0
 60133  1  0  0  0
 60134  1  0  0  0
 60135  1  0  0  0
 61136  1  0  0  0
 61137  1  0  0  0
 61138  1  0  0  0
 62139  1  0  0  0
 62140  1  0  0  0
 62141  1  0  0  0
 63 65  1  0  0  0
 63142  1  0  0  0
 63143  1  0  0  0
 63144  1  0  0  0
 64145  1  0  0  0
 65146  1  0  0  0
 68 84  1  0  0  0
 71 72  2  0  0  0
 71 75  1  0  0  0
 71147  1  0  0  0
 72 76  1  0  0  0
 72148  1  0  0  0
 73 74  1  0  0  0
 73 76  2  0  0  0
 73149  1  0  0  0
 74 75  2  0  0  0
 74 79  1  0  0  0
 75 83  1  0  0  0
 76 85  1  0  0  0
 77 80  1  0  0  0
 77 85  1  0  0  0
 77 87  2  0  0  0
 78 79  2  0  0  0
 78150  1  0  0  0
 78151  1  0  0  0
 79152  1  0  0  0
 80 81  1  0  0  0
 80153  1  0  0  0
 80154  1  0  0  0
 81 82  1  0  0  0
 81155  1  0  0  0
 81156  1  0  0  0
 82 84  1  0  0  0
 82 85  1  0  0  0
 82157  1  0  0  0
 83 86  1  0  0  0
 83158  1  0  0  0
 83159  1  0  0  0
 84160  1  0  0  0
 84161  1  0  0  0
 86162  1  0  0  0
M  ISO  4   1 100  68 101  84 101  86 100
M  END
> <chiral flag>
0

> <version>
0

> <s_m_source_file>
/data/baiqing/PycharmProjects/Reinvent-master-3.2/result/LINK_invent/BTK/process_docking_weight1_custom_product_contain_oxygen_bond_distance_aromatic_linkinvent_7_9_3/rearranged_h_0107.sdf

> <i_m_source_file_index>
42

> <r_mmod_Potential_Energy-OPLS-2005>
198.082550048828

> <r_mmod_Stretch_Energy-OPLS-2005>
88.7005767822266

> <r_mmod_Bend_Energy-OPLS-2005>
197.420043945312

> <r_mmod_Torsional_Energy-OPLS-2005>
318.757934570312

> <r_mmod_Improper_Torsional_Energy-OPLS-2005>
10.0001745223999

> <r_mmod_Van_der_Waal_Energy-OPLS-2005>
148.148651123047

> <r_mmod_Electrostatic_Energy-OPLS-2005>
-397.652709960938

> <r_mmod_Solvation_Energy-OPLS-2005>
-220.449111938477

> <b_mmod_Minimization_Converged-OPLS-2005>
0

> <r_mmod_RMS_Derivative-OPLS-2005>
2.84067869186401

$$$$
42
                    3D
 Structure written by MMmdl.
164172  0  0  1  0            999 V2000
  -30.7273  -14.4435   20.5875 C   0  0  0  0  0  0
  -30.4166  -12.3041   19.4019 C   0  0  0  0  0  0
  -29.4834  -12.4966   18.1916 C   0  0  0  0  0  0
  -28.0088  -12.3498   18.6152 C   0  0  0  0  0  0
  -27.6550  -13.2031   19.8627 C   0  0  2  0  0  0
  -28.6996  -13.0015   20.9824 C   0  0  0  0  0  0
  -25.2594  -13.8159   20.5700 C   0  0  0  0  0  0
  -24.1841  -13.0435   20.9192 C   0  0  0  0  0  0
  -24.6384  -11.6903   20.8733 C   0  0  0  0  0  0
  -23.9055  -10.4294   21.0406 C   0  0  0  0  0  0
  -24.3615   -9.4209   21.9177 C   0  0  0  0  0  0
  -23.6292   -8.2245   22.0753 C   0  0  0  0  0  0
  -22.4270   -8.0284   21.3546 C   0  0  0  0  0  0
  -21.9904   -9.0258   20.4650 C   0  0  0  0  0  0
  -22.7234  -10.2136   20.3055 C   0  0  0  0  0  0
  -21.6855   -6.0741   22.5281 C   0  0  0  0  0  0
  -21.4020   -6.5641   23.8214 C   0  0  0  0  0  0
  -21.3651   -5.6791   24.9173 C   0  0  0  0  0  0
  -21.6044   -4.3057   24.7225 C   0  0  0  0  0  0
  -21.8821   -3.8150   23.4343 C   0  0  0  0  0  0
  -21.9195   -4.6968   22.3402 C   0  0  0  0  0  0
  -22.7869  -13.5248   21.1847 C   0  0  0  0  0  0
  -22.1663   -4.2156   21.0982 F   0  0  0  0  0  0
  -21.5622   -3.4540   25.7737 F   0  0  0  0  0  0
  -30.0236  -13.2952   20.4135 N   0  0  0  0  0  0
  -26.2992  -12.9310   20.3318 N   0  0  0  0  0  0
  -25.9297  -11.6477   20.5741 N   0  0  0  0  0  0
  -22.0505  -12.8240   22.0399 N   0  0  0  0  0  0
  -25.4350  -15.1881   20.4181 N   0  0  0  0  0  0
  -31.8905  -14.5662   20.1912 O   0  0  0  0  0  0
  -21.6639   -6.8878   21.4238 O   0  0  0  0  0  0
  -22.3558  -14.5559   20.6707 O   0  0  0  0  0  0
  -24.6129  -31.8680   23.2119 C   0  0  0  0  0  0
  -25.9027  -32.4830   23.8405 C   0  0  1  0  0  0
  -27.2353  -27.4540   20.0936 C   0  0  0  0  0  0
  -25.5895  -33.8630   24.2342 N   0  0  0  0  0  0
  -23.3995  -30.4910   21.5526 C   0  0  2  0  0  0
  -24.8469  -28.9571   20.1188 C   0  0  0  0  0  0
  -22.7389  -29.4657   22.5018 C   0  0  0  0  0  0
  -18.0262  -28.1371   22.8497 C   0  0  0  0  0  0
  -24.1485  -36.7307   23.2639 C   0  0  0  0  0  0
  -25.9261  -30.8439   21.3578 C   0  0  0  0  0  0
  -26.0068  -29.4778   20.7073 C   0  0  0  0  0  0
  -27.2080  -28.7356   20.6853 C   0  0  0  0  0  0
  -26.0596  -26.9370   19.5113 C   0  0  0  0  0  0
  -24.8666  -27.6852   19.5189 C   0  0  0  0  0  0
  -23.6060  -29.8194   20.1687 C   0  0  0  0  0  0
  -25.4108  -36.3102   24.0329 C   0  0  1  0  0  0
  -20.5849  -28.3649   23.1336 C   0  0  2  0  0  0
  -20.6756  -26.9389   22.5424 C   0  0  0  0  0  0
  -19.5739  -26.6384   21.5213 C   0  0  0  0  0  0
  -18.1910  -26.7931   22.1607 C   0  0  0  0  0  0
  -19.1507  -28.8826   23.2919 C   0  0  0  0  0  0
  -18.9436  -30.1444   23.8915 C   0  0  0  0  0  0
  -17.6441  -30.6586   24.0559 C   0  0  0  0  0  0
  -25.9023  -34.9471   23.5126 C   0  0  0  0  0  0
  -16.5332  -29.9081   23.6340 C   0  0  0  0  0  0
  -16.7255  -28.6497   23.0364 C   0  0  0  0  0  0
  -26.4483  -31.6599   25.0719 C   0  0  0  0  0  0
  -25.3765  -31.3670   26.1481 C   0  0  0  0  0  0
  -27.0330  -30.3049   24.6076 C   0  0  0  0  0  0
  -27.6072  -32.4324   25.7459 C   0  0  0  0  0  0
  -27.5581  -37.1800   24.8462 C   0  0  0  0  0  0
  -21.4119  -29.3018   22.3750 N   0  0  0  0  0  0
  -26.4294  -37.3783   23.9401 N   0  0  0  0  0  0
  -24.6641  -31.0802   22.1002 N   0  0  0  0  0  0
  -23.4175  -28.8202   23.3049 O   0  0  0  0  0  0
  -28.4012  -26.7277   20.0684 O   0  0  0  0  0  0
  -26.5578  -34.8910   22.4681 O   0  0  0  0  0  0
  -23.5322  -32.1426   23.7522 O   0  0  0  0  0  0
  -28.7561  -20.1141   21.5849 C   0  0  0  0  0  0
  -29.7074  -17.9280   20.9774 C   0  0  0  0  0  0
  -29.2830  -18.8609   21.9701 C   0  0  0  0  0  0
  -28.9392  -19.5157   19.2359 C   0  0  0  0  0  0
  -28.6119  -20.4729   20.2295 C   0  0  0  0  0  0
  -29.4932  -18.2582   19.6031 C   0  0  0  0  0  0
  -30.4999  -16.6940   21.3678 C   0  0  0  0  0  0
  -28.3418  -24.2522   19.9861 C   0  0  0  0  0  0
  -28.7449  -19.8311   17.7515 C   0  0  0  0  0  0
  -29.3540  -18.5764   23.4720 C   0  0  0  0  0  0
  -28.4563  -22.9044   20.7235 C   0  0  0  0  0  0
  -28.3683  -25.5251   20.8515 C   0  0  0  0  0  0
  -29.8496  -17.3859   18.5623 N   0  0  0  0  0  0
  -28.1450  -21.7518   19.8698 N   0  0  0  0  0  0
  -30.0016  -15.4999   21.0002 N   0  0  0  0  0  0
  -28.0993  -17.9838   23.9607 N   0  3  0  0  0  0
  -31.5612  -16.8342   21.9876 O   0  0  0  0  0  0
  -28.2447  -24.2929   18.7526 O   0  0  0  0  0  0
  -31.4578  -12.4035   19.0897 H   0  0  0  0  0  0
  -30.3213  -11.2951   19.8079 H   0  0  0  0  0  0
  -29.7220  -11.7709   17.4132 H   0  0  0  0  0  0
  -29.6449  -13.4813   17.7522 H   0  0  0  0  0  0
  -27.8310  -11.2945   18.8270 H   0  0  0  0  0  0
  -27.3502  -12.6049   17.7838 H   0  0  0  0  0  0
  -27.6920  -14.2464   19.5485 H   0  0  0  0  0  0
  -28.6772  -11.9728   21.3455 H   0  0  0  0  0  0
  -28.4686  -13.6243   21.8481 H   0  0  0  0  0  0
  -25.2764   -9.5686   22.4744 H   0  0  0  0  0  0
  -24.0006   -7.4637   22.7468 H   0  0  0  0  0  0
  -21.0834   -8.8779   19.8957 H   0  0  0  0  0  0
  -22.3690  -10.9677   19.6169 H   0  0  0  0  0  0
  -21.2020   -7.6149   23.9720 H   0  0  0  0  0  0
  -21.1464   -6.0522   25.9075 H   0  0  0  0  0  0
  -22.0607   -2.7614   23.2848 H   0  0  0  0  0  0
  -22.4113  -11.9891   22.4774 H   0  0  0  0  0  0
  -21.1130  -13.1276   22.2609 H   0  0  0  0  0  0
  -24.6663  -15.8414   20.5229 H   0  0  0  0  0  0
  -26.2774  -15.6256   20.0669 H   0  0  0  0  0  0
  -26.7097  -32.5552   23.1173 H   0  0  0  0  0  0
  -25.0079  -33.9805   25.0511 H   0  0  0  0  0  0
  -22.6868  -31.3062   21.4143 H   0  0  0  0  0  0
  -23.3738  -35.9650   23.3322 H   0  0  0  0  0  0
  -24.3570  -36.8916   22.2046 H   0  0  0  0  0  0
  -23.7247  -37.6521   23.6655 H   0  0  0  0  0  0
  -26.0287  -31.6109   20.5898 H   0  0  0  0  0  0
  -26.8169  -30.9034   21.9709 H   0  0  0  0  0  0
  -28.1084  -29.1385   21.1274 H   0  0  0  0  0  0
  -26.0689  -25.9615   19.0456 H   0  0  0  0  0  0
  -23.9731  -27.2800   19.0656 H   0  0  0  0  0  0
  -23.7040  -30.5911   19.4049 H   0  0  0  0  0  0
  -22.7315  -29.2329   19.8829 H   0  0  0  0  0  0
  -25.1289  -36.1964   25.0821 H   0  0  0  0  0  0
  -20.9939  -28.3217   24.1458 H   0  0  0  0  0  0
  -20.5641  -26.2254   23.3603 H   0  0  0  0  0  0
  -21.6630  -26.7433   22.1213 H   0  0  0  0  0  0
  -19.6888  -25.6299   21.1236 H   0  0  0  0  0  0
  -19.6691  -27.3203   20.6753 H   0  0  0  0  0  0
  -17.4185  -26.6701   21.4002 H   0  0  0  0  0  0
  -18.0279  -26.0073   22.8992 H   0  0  0  0  0  0
  -19.7917  -30.7260   24.2288 H   0  0  0  0  0  0
  -17.4999  -31.6273   24.5149 H   0  0  0  0  0  0
  -15.5333  -30.2977   23.7681 H   0  0  0  0  0  0
  -15.8650  -28.0826   22.7069 H   0  0  0  0  0  0
  -24.5956  -30.6993   25.7834 H   0  0  0  0  0  0
  -24.8922  -32.2798   26.4956 H   0  0  0  0  0  0
  -25.8141  -30.8837   27.0221 H   0  0  0  0  0  0
  -26.2862  -29.6766   24.1215 H   0  0  0  0  0  0
  -27.4217  -29.7329   25.4512 H   0  0  0  0  0  0
  -27.8633  -30.4404   23.9143 H   0  0  0  0  0  0
  -27.2726  -33.3622   26.2071 H   0  0  0  0  0  0
  -28.3859  -32.6894   25.0266 H   0  0  0  0  0  0
  -28.0778  -31.8430   26.5342 H   0  0  0  0  0  0
  -28.2616  -38.0085   24.7511 H   0  0  0  0  0  0
  -28.1060  -36.2614   24.6300 H   0  0  0  0  0  0
  -27.2288  -37.1476   25.8865 H   0  0  0  0  0  0
  -20.9265  -29.8728   21.6967 H   0  0  0  0  0  0
  -26.0176  -38.2853   24.1434 H   0  0  0  0  0  0
  -28.4666  -20.8137   22.3574 H   0  0  0  0  0  0
  -28.1706  -20.7347   17.5588 H   0  0  0  0  0  0
  -28.2063  -19.0190   17.2629 H   0  0  0  0  0  0
  -29.7142  -19.9416   17.2630 H   0  0  0  0  0  0
  -29.5163  -19.5151   24.0042 H   0  0  0  0  0  0
  -30.1944  -17.9454   23.7560 H   0  0  0  0  0  0
  -27.7884  -22.9213   21.5860 H   0  0  0  0  0  0
  -29.4757  -22.8186   21.1033 H   0  0  0  0  0  0
  -29.2621  -25.4963   21.4743 H   0  0  0  0  0  0
  -27.5116  -25.5155   21.5266 H   0  0  0  0  0  0
  -30.5700  -16.6879   18.7032 H   0  0  0  0  0  0
  -29.8590  -17.7582   17.6186 H   0  0  0  0  0  0
  -28.1787  -21.9885   18.8817 H   0  0  0  0  0  0
  -29.0129  -15.4464   20.8257 H   0  0  0  0  0  0
  -27.3286  -18.6019   23.7847 H   0  0  0  0  0  0
  -28.1620  -17.8421   24.9529 H   0  0  0  0  0  0
  -27.9086  -17.0993   23.5292 H   0  0  0  0  0  0
  1 25  1  0  0  0
  1 30  2  0  0  0
  1 85  1  0  0  0
  2  3  1  0  0  0
  2 25  1  0  0  0
  2 89  1  0  0  0
  2 90  1  0  0  0
  3  4  1  0  0  0
  3 91  1  0  0  0
  3 92  1  0  0  0
  4  5  1  0  0  0
  4 93  1  0  0  0
  4 94  1  0  0  0
  5  6  1  0  0  0
  5 26  1  0  0  0
  5 95  1  0  0  0
  6 25  1  0  0  0
  6 96  1  0  0  0
  6 97  1  0  0  0
  7  8  2  0  0  0
  7 26  1  0  0  0
  7 29  1  0  0  0
  8  9  1  0  0  0
  8 22  1  0  0  0
  9 10  1  0  0  0
  9 27  2  0  0  0
 10 11  2  0  0  0
 10 15  1  0  0  0
 11 12  1  0  0  0
 11 98  1  0  0  0
 12 13  2  0  0  0
 12 99  1  0  0  0
 13 14  1  0  0  0
 13 31  1  0  0  0
 14 15  2  0  0  0
 14100  1  0  0  0
 15101  1  0  0  0
 16 17  2  0  0  0
 16 21  1  0  0  0
 16 31  1  0  0  0
 17 18  1  0  0  0
 17102  1  0  0  0
 18 19  2  0  0  0
 18103  1  0  0  0
 19 20  1  0  0  0
 19 24  1  0  0  0
 20 21  2  0  0  0
 20104  1  0  0  0
 21 23  1  0  0  0
 22 28  1  0  0  0
 22 32  2  0  0  0
 26 27  1  0  0  0
 28105  1  0  0  0
 28106  1  0  0  0
 29107  1  0  0  0
 29108  1  0  0  0
 33 34  1  0  0  0
 33 66  1  0  0  0
 33 70  2  0  0  0
 34 36  1  0  0  0
 34 59  1  0  0  0
 34109  1  0  0  0
 35 44  2  0  0  0
 35 45  1  0  0  0
 35 68  1  0  0  0
 36 56  1  0  0  0
 36110  1  0  0  0
 37 39  1  0  0  0
 37 47  1  0  0  0
 37 66  1  0  0  0
 37111  1  0  0  0
 38 43  2  0  0  0
 38 46  1  0  0  0
 38 47  1  0  0  0
 39 64  1  0  0  0
 39 67  2  0  0  0
 40 52  1  0  0  0
 40 53  2  0  0  0
 40 58  1  0  0  0
 41112  1  0  0  0
 41113  1  0  0  0
 41114  1  0  0  0
 41 48  1  0  0  0
 42 43  1  0  0  0
 42 66  1  0  0  0
 42115  1  0  0  0
 42116  1  0  0  0
 43 44  1  0  0  0
 44117  1  0  0  0
 45 46  2  0  0  0
 45118  1  0  0  0
 46119  1  0  0  0
 47120  1  0  0  0
 47121  1  0  0  0
 48 56  1  0  0  0
 48 65  1  0  0  0
 48122  1  0  0  0
 49 50  1  0  0  0
 49 53  1  0  0  0
 49 64  1  0  0  0
 49123  1  0  0  0
 50 51  1  0  0  0
 50124  1  0  0  0
 50125  1  0  0  0
 51 52  1  0  0  0
 51126  1  0  0  0
 51127  1  0  0  0
 52128  1  0  0  0
 52129  1  0  0  0
 53 54  1  0  0  0
 54 55  2  0  0  0
 54130  1  0  0  0
 55 57  1  0  0  0
 55131  1  0  0  0
 56 69  2  0  0  0
 57 58  2  0  0  0
 57132  1  0  0  0
 58133  1  0  0  0
 59 60  1  0  0  0
 59 61  1  0  0  0
 59 62  1  0  0  0
 60134  1  0  0  0
 60135  1  0  0  0
 60136  1  0  0  0
 61137  1  0  0  0
 61138  1  0  0  0
 61139  1  0  0  0
 62140  1  0  0  0
 62141  1  0  0  0
 62142  1  0  0  0
 63 65  1  0  0  0
 63143  1  0  0  0
 63144  1  0  0  0
 63145  1  0  0  0
 64146  1  0  0  0
 65147  1  0  0  0
 68 82  1  0  0  0
 71 73  2  0  0  0
 71 75  1  0  0  0
 71148  1  0  0  0
 72 73  1  0  0  0
 72 76  2  0  0  0
 72 77  1  0  0  0
 73 80  1  0  0  0
 74 75  2  0  0  0
 74 76  1  0  0  0
 74 79  1  0  0  0
 75 84  1  0  0  0
 76 83  1  0  0  0
 77 85  1  0  0  0
 77 87  2  0  0  0
 78 81  1  0  0  0
 78 82  1  0  0  0
 78 88  2  0  0  0
 79149  1  0  0  0
 79150  1  0  0  0
 79151  1  0  0  0
 80 86  1  0  0  0
 80152  1  0  0  0
 80153  1  0  0  0
 81 84  1  0  0  0
 81154  1  0  0  0
 81155  1  0  0  0
 82156  1  0  0  0
 82157  1  0  0  0
 83158  1  0  0  0
 83159  1  0  0  0
 84160  1  0  0  0
 85161  1  0  0  0
 86162  1  0  0  0
 86163  1  0  0  0
 86164  1  0  0  0
M  CHG  1  86   1
M  ISO  4   1 100  68 101  82 101  85 100
M  END
> <chiral flag>
0

> <version>
0

> <s_m_source_file>
/data/baiqing/PycharmProjects/Reinvent-master-3.2/result/LINK_invent/BTK/process_docking_weight1_custom_product_contain_oxygen_bond_distance_aromatic_linkinvent_7_9_3/rearranged_h_0107.sdf

> <i_m_source_file_index>
43

> <r_mmod_Potential_Energy-OPLS-2005>
-293.017700195312

> <r_mmod_Stretch_Energy-OPLS-2005>
40.2552223205566

> <r_mmod_Bend_Energy-OPLS-2005>
99.9397354125977

> <r_mmod_Torsional_Energy-OPLS-2005>
268.635375976562

> <r_mmod_Improper_Torsional_Energy-OPLS-2005>
12.5448846817017

> <r_mmod_Van_der_Waal_Energy-OPLS-2005>
170.20866394043

> <r_mmod_Electrostatic_Energy-OPLS-2005>
-339.852630615234

> <r_mmod_Solvation_Energy-OPLS-2005>
-558.809143066406

> <b_mmod_Minimization_Converged-OPLS-2005>
0

> <r_mmod_RMS_Derivative-OPLS-2005>
1.8658287525177

$$$$
43
                    3D
 Structure written by MMmdl.
159167  0  0  1  0            999 V2000
  -30.7387  -14.4284   20.6114 C   0  0  0  0  0  0
  -30.4146  -12.2918   19.4132 C   0  0  0  0  0  0
  -29.4904  -12.5140   18.1996 C   0  0  0  0  0  0
  -28.0120  -12.3777   18.6127 C   0  0  0  0  0  0
  -27.6649  -13.2066   19.8785 C   0  0  2  0  0  0
  -28.7057  -12.9708   20.9966 C   0  0  0  0  0  0
  -25.2601  -13.8162   20.5678 C   0  0  0  0  0  0
  -24.1847  -13.0444   20.9161 C   0  0  0  0  0  0
  -24.6396  -11.6906   20.8726 C   0  0  0  0  0  0
  -23.9054  -10.4295   21.0393 C   0  0  0  0  0  0
  -24.3604   -9.4217   21.9181 C   0  0  0  0  0  0
  -23.6283   -8.2253   22.0760 C   0  0  0  0  0  0
  -22.4271   -8.0278   21.3542 C   0  0  0  0  0  0
  -21.9904   -9.0248   20.4641 C   0  0  0  0  0  0
  -22.7227  -10.2127   20.3044 C   0  0  0  0  0  0
  -21.6846   -6.0727   22.5275 C   0  0  0  0  0  0
  -21.4005   -6.5637   23.8211 C   0  0  0  0  0  0
  -21.3665   -5.6790   24.9177 C   0  0  0  0  0  0
  -21.6048   -4.3051   24.7232 C   0  0  0  0  0  0
  -21.8820   -3.8142   23.4353 C   0  0  0  0  0  0
  -21.9194   -4.6955   22.3403 C   0  0  0  0  0  0
  -22.7871  -13.5237   21.1822 C   0  0  0  0  0  0
  -22.1663   -4.2139   21.0981 F   0  0  0  0  0  0
  -21.5637   -3.4543   25.7749 F   0  0  0  0  0  0
  -30.0413  -13.2691   20.4493 N   0  0  0  0  0  0
  -26.3045  -12.9332   20.3380 N   0  0  0  0  0  0
  -25.9323  -11.6490   20.5762 N   0  0  0  0  0  0
  -22.0499  -12.8220   22.0361 N   0  0  0  0  0  0
  -25.4343  -15.1880   20.4077 N   0  0  0  0  0  0
  -31.8289  -14.6088   20.0601 O   0  0  0  0  0  0
  -21.6633   -6.8872   21.4237 O   0  0  0  0  0  0
  -22.3575  -14.5562   20.6697 O   0  0  0  0  0  0
  -24.6126  -31.8678   23.2117 C   0  0  0  0  0  0
  -25.9024  -32.4824   23.8406 C   0  0  1  0  0  0
  -27.2397  -27.4427   20.1026 C   0  0  0  0  0  0
  -25.5899  -33.8622   24.2334 N   0  0  0  0  0  0
  -23.4027  -30.4892   21.5515 C   0  0  2  0  0  0
  -24.8538  -28.9517   20.1215 C   0  0  0  0  0  0
  -22.7403  -29.4647   22.5007 C   0  0  0  0  0  0
  -18.0271  -28.1367   22.8485 C   0  0  0  0  0  0
  -24.1487  -36.7303   23.2637 C   0  0  0  0  0  0
  -25.9308  -30.8337   21.3676 C   0  0  0  0  0  0
  -26.0120  -29.4661   20.7204 C   0  0  0  0  0  0
  -27.2109  -28.7164   20.7128 C   0  0  0  0  0  0
  -26.0713  -26.9372   19.5004 C   0  0  0  0  0  0
  -24.8762  -27.6842   19.5119 C   0  0  0  0  0  0
  -23.6142  -29.8181   20.1679 C   0  0  0  0  0  0
  -25.4109  -36.3108   24.0336 C   0  0  1  0  0  0
  -20.5854  -28.3656   23.1327 C   0  0  2  0  0  0
  -20.6758  -26.9392   22.5442 C   0  0  0  0  0  0
  -19.5763  -26.6391   21.5206 C   0  0  0  0  0  0
  -18.1916  -26.7937   22.1565 C   0  0  0  0  0  0
  -19.1517  -28.8829   23.2908 C   0  0  0  0  0  0
  -18.9450  -30.1430   23.8928 C   0  0  0  0  0  0
  -17.6452  -30.6577   24.0569 C   0  0  0  0  0  0
  -25.9035  -34.9469   23.5133 C   0  0  0  0  0  0
  -16.5344  -29.9078   23.6329 C   0  0  0  0  0  0
  -16.7263  -28.6490   23.0356 C   0  0  0  0  0  0
  -26.4456  -31.6596   25.0723 C   0  0  0  0  0  0
  -25.3681  -31.3660   26.1424 C   0  0  0  0  0  0
  -27.0300  -30.3046   24.6085 C   0  0  0  0  0  0
  -27.6058  -32.4296   25.7479 C   0  0  0  0  0  0
  -27.5584  -37.1799   24.8449 C   0  0  0  0  0  0
  -21.4132  -29.3012   22.3721 N   0  0  0  0  0  0
  -26.4287  -37.3798   23.9404 N   0  0  0  0  0  0
  -24.6665  -31.0771   22.1026 N   0  0  0  0  0  0
  -23.4164  -28.8188   23.3061 O   0  0  0  0  0  0
  -28.3941  -26.6970   20.0592 O   0  0  0  0  0  0
  -26.5606  -34.8916   22.4696 O   0  0  0  0  0  0
  -23.5319  -32.1445   23.7501 O   0  0  0  0  0  0
  -29.4250  -18.8114   22.1693 C   0  0  0  0  0  0
  -28.0689  -19.1383   24.1539 C   0  0  0  0  0  0
  -29.6322  -17.4462   22.5140 C   0  0  0  0  0  0
  -29.0661  -16.9422   23.7241 C   0  0  0  0  0  0
  -28.6609  -19.6737   22.9949 C   0  0  0  0  0  0
  -28.2624  -17.7935   24.5109 C   0  0  0  0  0  0
  -30.5357  -16.6214   21.6289 C   0  0  0  0  0  0
  -28.7173  -21.8643   21.7197 C   0  0  0  0  0  0
  -29.3165  -15.5320   24.2598 C   0  0  0  0  0  0
  -28.6417  -23.3801   21.9955 C   0  0  0  0  0  0
  -28.4439  -24.3109   20.7712 C   0  0  0  0  0  0
  -28.5763  -25.8036   21.1630 C   0  0  0  0  0  0
  -28.5143  -21.0821   22.7969 N   0  0  0  0  0  0
  -30.1184  -15.3685   21.3523 N   0  0  0  0  0  0
  -31.5634  -17.1456   21.1845 O   0  0  0  0  0  0
  -28.9310  -21.4362   20.5831 O   0  0  0  0  0  0
  -27.6902  -17.3280   25.6477 F   0  0  0  0  0  0
  -31.4615  -12.3671   19.1140 H   0  0  0  0  0  0
  -30.2945  -11.2773   19.7976 H   0  0  0  0  0  0
  -29.7244  -11.7978   17.4112 H   0  0  0  0  0  0
  -29.6654  -13.5039   17.7748 H   0  0  0  0  0  0
  -27.8179  -11.3211   18.7977 H   0  0  0  0  0  0
  -27.3610  -12.6630   17.7856 H   0  0  0  0  0  0
  -27.7150  -14.2584   19.5948 H   0  0  0  0  0  0
  -28.6752  -11.9305   21.3254 H   0  0  0  0  0  0
  -28.4620  -13.5552   21.8832 H   0  0  0  0  0  0
  -25.2746   -9.5700   22.4761 H   0  0  0  0  0  0
  -23.9992   -7.4652   22.7490 H   0  0  0  0  0  0
  -21.0841   -8.8752   19.8949 H   0  0  0  0  0  0
  -22.3680  -10.9658   19.6148 H   0  0  0  0  0  0
  -21.1983   -7.6142   23.9705 H   0  0  0  0  0  0
  -21.1489   -6.0525   25.9079 H   0  0  0  0  0  0
  -22.0595   -2.7602   23.2855 H   0  0  0  0  0  0
  -22.4088  -11.9843   22.4693 H   0  0  0  0  0  0
  -21.1116  -13.1247   22.2553 H   0  0  0  0  0  0
  -24.6668  -15.8438   20.5041 H   0  0  0  0  0  0
  -26.2878  -15.6236   20.0824 H   0  0  0  0  0  0
  -26.7094  -32.5544   23.1177 H   0  0  0  0  0  0
  -25.0049  -33.9804   25.0476 H   0  0  0  0  0  0
  -22.6914  -31.3052   21.4088 H   0  0  0  0  0  0
  -23.3755  -35.9622   23.3297 H   0  0  0  0  0  0
  -24.3585  -36.8930   22.2048 H   0  0  0  0  0  0
  -23.7219  -37.6496   23.6661 H   0  0  0  0  0  0
  -26.0395  -31.5956   20.5955 H   0  0  0  0  0  0
  -26.8209  -30.8944   21.9829 H   0  0  0  0  0  0
  -28.1084  -29.1084   21.1711 H   0  0  0  0  0  0
  -26.0899  -25.9672   19.0227 H   0  0  0  0  0  0
  -23.9864  -27.2809   19.0490 H   0  0  0  0  0  0
  -23.7217  -30.5916   19.4072 H   0  0  0  0  0  0
  -22.7392  -29.2355   19.8739 H   0  0  0  0  0  0
  -25.1276  -36.1987   25.0830 H   0  0  0  0  0  0
  -20.9961  -28.3250   24.1445 H   0  0  0  0  0  0
  -20.5630  -26.2270   23.3627 H   0  0  0  0  0  0
  -21.6640  -26.7408   22.1272 H   0  0  0  0  0  0
  -19.6939  -25.6314   21.1218 H   0  0  0  0  0  0
  -19.6751  -27.3217   20.6752 H   0  0  0  0  0  0
  -17.4232  -26.6763   21.3917 H   0  0  0  0  0  0
  -18.0246  -26.0030   22.8898 H   0  0  0  0  0  0
  -19.7928  -30.7222   24.2338 H   0  0  0  0  0  0
  -17.5011  -31.6267   24.5154 H   0  0  0  0  0  0
  -15.5346  -30.2983   23.7646 H   0  0  0  0  0  0
  -15.8659  -28.0815   22.7064 H   0  0  0  0  0  0
  -24.6197  -30.6585   25.7838 H   0  0  0  0  0  0
  -24.8406  -32.2698   26.4479 H   0  0  0  0  0  0
  -25.8046  -30.9288   27.0410 H   0  0  0  0  0  0
  -26.2868  -29.6825   24.1078 H   0  0  0  0  0  0
  -27.4031  -29.7260   25.4546 H   0  0  0  0  0  0
  -27.8709  -30.4393   23.9273 H   0  0  0  0  0  0
  -27.2782  -33.3681   26.1966 H   0  0  0  0  0  0
  -28.3921  -32.6697   25.0307 H   0  0  0  0  0  0
  -28.0652  -31.8430   26.5449 H   0  0  0  0  0  0
  -28.2593  -38.0107   24.7526 H   0  0  0  0  0  0
  -28.1099  -36.2640   24.6247 H   0  0  0  0  0  0
  -27.2311  -37.1422   25.8857 H   0  0  0  0  0  0
  -20.9299  -29.8710   21.6918 H   0  0  0  0  0  0
  -26.0183  -38.2872   24.1438 H   0  0  0  0  0  0
  -29.8993  -19.1968   21.2781 H   0  0  0  0  0  0
  -27.4762  -19.7624   24.8066 H   0  0  0  0  0  0
  -30.2926  -15.1336   23.9847 H   0  0  0  0  0  0
  -28.5428  -14.8468   23.9162 H   0  0  0  0  0  0
  -29.2917  -15.5250   25.3507 H   0  0  0  0  0  0
  -29.5678  -23.6528   22.5027 H   0  0  0  0  0  0
  -27.8389  -23.5680   22.7094 H   0  0  0  0  0  0
  -27.4631  -24.1274   20.3318 H   0  0  0  0  0  0
  -29.1785  -24.0732   20.0003 H   0  0  0  0  0  0
  -29.5797  -25.9791   21.5513 H   0  0  0  0  0  0
  -27.8937  -26.0368   21.9831 H   0  0  0  0  0  0
  -28.2366  -21.5963   23.6222 H   0  0  0  0  0  0
  -29.2316  -15.1069   21.7449 H   0  0  0  0  0  0
  1 25  1  0  0  0
  1 30  2  0  0  0
  1 84  1  0  0  0
  2  3  1  0  0  0
  2 25  1  0  0  0
  2 88  1  0  0  0
  2 89  1  0  0  0
  3  4  1  0  0  0
  3 90  1  0  0  0
  3 91  1  0  0  0
  4  5  1  0  0  0
  4 92  1  0  0  0
  4 93  1  0  0  0
  5  6  1  0  0  0
  5 26  1  0  0  0
  5 94  1  0  0  0
  6 25  1  0  0  0
  6 95  1  0  0  0
  6 96  1  0  0  0
  7  8  2  0  0  0
  7 26  1  0  0  0
  7 29  1  0  0  0
  8  9  1  0  0  0
  8 22  1  0  0  0
  9 10  1  0  0  0
  9 27  2  0  0  0
 10 11  2  0  0  0
 10 15  1  0  0  0
 11 12  1  0  0  0
 11 97  1  0  0  0
 12 13  2  0  0  0
 12 98  1  0  0  0
 13 14  1  0  0  0
 13 31  1  0  0  0
 14 15  2  0  0  0
 14 99  1  0  0  0
 15100  1  0  0  0
 16 17  2  0  0  0
 16 21  1  0  0  0
 16 31  1  0  0  0
 17 18  1  0  0  0
 17101  1  0  0  0
 18 19  2  0  0  0
 18102  1  0  0  0
 19 20  1  0  0  0
 19 24  1  0  0  0
 20 21  2  0  0  0
 20103  1  0  0  0
 21 23  1  0  0  0
 22 28  1  0  0  0
 22 32  2  0  0  0
 26 27  1  0  0  0
 28104  1  0  0  0
 28105  1  0  0  0
 29106  1  0  0  0
 29107  1  0  0  0
 33 34  1  0  0  0
 33 66  1  0  0  0
 33 70  2  0  0  0
 34 36  1  0  0  0
 34 59  1  0  0  0
 34108  1  0  0  0
 35 44  2  0  0  0
 35 45  1  0  0  0
 35 68  1  0  0  0
 36 56  1  0  0  0
 36109  1  0  0  0
 37 39  1  0  0  0
 37 47  1  0  0  0
 37 66  1  0  0  0
 37110  1  0  0  0
 38 43  2  0  0  0
 38 46  1  0  0  0
 38 47  1  0  0  0
 39 64  1  0  0  0
 39 67  2  0  0  0
 40 52  1  0  0  0
 40 53  2  0  0  0
 40 58  1  0  0  0
 41111  1  0  0  0
 41112  1  0  0  0
 41113  1  0  0  0
 41 48  1  0  0  0
 42 43  1  0  0  0
 42 66  1  0  0  0
 42114  1  0  0  0
 42115  1  0  0  0
 43 44  1  0  0  0
 44116  1  0  0  0
 45 46  2  0  0  0
 45117  1  0  0  0
 46118  1  0  0  0
 47119  1  0  0  0
 47120  1  0  0  0
 48 56  1  0  0  0
 48 65  1  0  0  0
 48121  1  0  0  0
 49 50  1  0  0  0
 49 53  1  0  0  0
 49 64  1  0  0  0
 49122  1  0  0  0
 50 51  1  0  0  0
 50123  1  0  0  0
 50124  1  0  0  0
 51 52  1  0  0  0
 51125  1  0  0  0
 51126  1  0  0  0
 52127  1  0  0  0
 52128  1  0  0  0
 53 54  1  0  0  0
 54 55  2  0  0  0
 54129  1  0  0  0
 55 57  1  0  0  0
 55130  1  0  0  0
 56 69  2  0  0  0
 57 58  2  0  0  0
 57131  1  0  0  0
 58132  1  0  0  0
 59 60  1  0  0  0
 59 61  1  0  0  0
 59 62  1  0  0  0
 60133  1  0  0  0
 60134  1  0  0  0
 60135  1  0  0  0
 61136  1  0  0  0
 61137  1  0  0  0
 61138  1  0  0  0
 62139  1  0  0  0
 62140  1  0  0  0
 62141  1  0  0  0
 63 65  1  0  0  0
 63142  1  0  0  0
 63143  1  0  0  0
 63144  1  0  0  0
 64145  1  0  0  0
 65146  1  0  0  0
 68 82  1  0  0  0
 71 73  2  0  0  0
 71 75  1  0  0  0
 71147  1  0  0  0
 72 75  2  0  0  0
 72 76  1  0  0  0
 72148  1  0  0  0
 73 74  1  0  0  0
 73 77  1  0  0  0
 74 76  2  0  0  0
 74 79  1  0  0  0
 75 83  1  0  0  0
 76 87  1  0  0  0
 77 84  1  0  0  0
 77 85  2  0  0  0
 78 80  1  0  0  0
 78 83  1  0  0  0
 78 86  2  0  0  0
 79149  1  0  0  0
 79150  1  0  0  0
 79151  1  0  0  0
 80 81  1  0  0  0
 80152  1  0  0  0
 80153  1  0  0  0
 81 82  1  0  0  0
 81154  1  0  0  0
 81155  1  0  0  0
 82156  1  0  0  0
 82157  1  0  0  0
 83158  1  0  0  0
 84159  1  0  0  0
M  ISO  4   1 100  68 101  82 101  84 100
M  END
> <chiral flag>
0

> <version>
0

> <s_m_source_file>
/data/baiqing/PycharmProjects/Reinvent-master-3.2/result/LINK_invent/BTK/process_docking_weight1_custom_product_contain_oxygen_bond_distance_aromatic_linkinvent_7_9_3/rearranged_h_0107.sdf

> <i_m_source_file_index>
44

> <r_mmod_Potential_Energy-OPLS-2005>
-192.986190795898

> <r_mmod_Stretch_Energy-OPLS-2005>
38.7091674804688

> <r_mmod_Bend_Energy-OPLS-2005>
110.744094848633

> <r_mmod_Torsional_Energy-OPLS-2005>
245.66162109375

> <r_mmod_Improper_Torsional_Energy-OPLS-2005>
2.888840675354

> <r_mmod_Van_der_Waal_Energy-OPLS-2005>
159.456604003906

> <r_mmod_Electrostatic_Energy-OPLS-2005>
-516.740905761719

> <r_mmod_Solvation_Energy-OPLS-2005>
-242.757415771484

> <b_mmod_Minimization_Converged-OPLS-2005>
0

> <r_mmod_RMS_Derivative-OPLS-2005>
1.88029253482819

$$$$
44
                    3D
 Structure written by MMmdl.
156164  0  0  1  0            999 V2000
  -30.8431  -14.7753   20.3563 C   0  0  0  0  0  0
  -30.3793  -12.5180   19.4308 C   0  0  0  0  0  0
  -29.4490  -12.4043   18.2181 C   0  0  0  0  0  0
  -28.0108  -12.2145   18.7085 C   0  0  0  0  0  0
  -27.6060  -13.2303   19.8083 C   0  0  2  0  0  0
  -28.6909  -13.4177   20.8997 C   0  0  0  0  0  0
  -25.2409  -13.8158   20.5781 C   0  0  0  0  0  0
  -24.1739  -13.0389   20.9307 C   0  0  0  0  0  0
  -24.6352  -11.6868   20.8890 C   0  0  0  0  0  0
  -23.9031  -10.4242   21.0423 C   0  0  0  0  0  0
  -24.3587   -9.4136   21.9155 C   0  0  0  0  0  0
  -23.6244   -8.2199   22.0715 C   0  0  0  0  0  0
  -22.4244   -8.0247   21.3499 C   0  0  0  0  0  0
  -21.9869   -9.0223   20.4625 C   0  0  0  0  0  0
  -22.7221  -10.2083   20.3047 C   0  0  0  0  0  0
  -21.6835   -6.0708   22.5274 C   0  0  0  0  0  0
  -21.4022   -6.5630   23.8205 C   0  0  0  0  0  0
  -21.3651   -5.6802   24.9183 C   0  0  0  0  0  0
  -21.6017   -4.3060   24.7236 C   0  0  0  0  0  0
  -21.8830   -3.8141   23.4382 C   0  0  0  0  0  0
  -21.9165   -4.6931   22.3423 C   0  0  0  0  0  0
  -22.7785  -13.5153   21.1887 C   0  0  0  0  0  0
  -22.1667   -4.2136   21.1000 F   0  0  0  0  0  0
  -21.5570   -3.4543   25.7751 F   0  0  0  0  0  0
  -29.9505  -13.7246   20.1978 N   0  0  0  0  0  0
  -26.2822  -12.9366   20.3410 N   0  0  0  0  0  0
  -25.9294  -11.6521   20.6086 N   0  0  0  0  0  0
  -22.0431  -12.8166   22.0462 N   0  0  0  0  0  0
  -25.4022  -15.1867   20.4000 N   0  0  0  0  0  0
  -32.0201  -14.4123   20.3684 O   0  0  0  0  0  0
  -21.6607   -6.8837   21.4223 O   0  0  0  0  0  0
  -22.3485  -14.5457   20.6728 O   0  0  0  0  0  0
  -24.6324  -31.8588   23.1997 C   0  0  0  0  0  0
  -25.9118  -32.4791   23.8348 C   0  0  1  0  0  0
  -27.2096  -27.2608   20.1235 C   0  0  0  0  0  0
  -25.5922  -33.8594   24.2296 N   0  0  0  0  0  0
  -23.4267  -30.4787   21.5470 C   0  0  2  0  0  0
  -24.8672  -28.9168   20.1144 C   0  0  0  0  0  0
  -22.7507  -29.4611   22.4966 C   0  0  0  0  0  0
  -18.0293  -28.1383   22.8500 C   0  0  0  0  0  0
  -24.1482  -36.7290   23.2641 C   0  0  0  0  0  0
  -25.9689  -30.7616   21.3778 C   0  0  0  0  0  0
  -26.0360  -29.3800   20.7301 C   0  0  0  0  0  0
  -27.2056  -28.5600   20.7328 C   0  0  0  0  0  0
  -26.0182  -26.8589   19.4786 C   0  0  0  0  0  0
  -24.8608  -27.6604   19.4868 C   0  0  0  0  0  0
  -23.6422  -29.8078   20.1637 C   0  0  0  0  0  0
  -25.4104  -36.3114   24.0353 C   0  0  1  0  0  0
  -20.5893  -28.3669   23.1308 C   0  0  2  0  0  0
  -20.6764  -26.9393   22.5418 C   0  0  0  0  0  0
  -19.5740  -26.6384   21.5220 C   0  0  0  0  0  0
  -18.1930  -26.7925   22.1643 C   0  0  0  0  0  0
  -19.1550  -28.8840   23.2896 C   0  0  0  0  0  0
  -18.9459  -30.1435   23.8912 C   0  0  0  0  0  0
  -17.6462  -30.6575   24.0563 C   0  0  0  0  0  0
  -25.9038  -34.9476   23.5128 C   0  0  0  0  0  0
  -16.5355  -29.9064   23.6343 C   0  0  0  0  0  0
  -16.7274  -28.6488   23.0356 C   0  0  0  0  0  0
  -26.4495  -31.6611   25.0721 C   0  0  0  0  0  0
  -25.3744  -31.3697   26.1470 C   0  0  0  0  0  0
  -27.0317  -30.3061   24.6116 C   0  0  0  0  0  0
  -27.6100  -32.4321   25.7417 C   0  0  0  0  0  0
  -27.5598  -37.1786   24.8480 C   0  0  0  0  0  0
  -21.4214  -29.3036   22.3718 N   0  0  0  0  0  0
  -26.4299  -37.3799   23.9441 N   0  0  0  0  0  0
  -24.6956  -31.0528   22.0985 N   0  0  0  0  0  0
  -23.4223  -28.8171   23.3067 O   0  0  0  0  0  0
  -28.3406  -26.4180   20.1257 O   0  0  0  0  0  0
  -26.5627  -34.8958   22.4706 O   0  0  0  0  0  0
  -23.5483  -32.1408   23.7298 O   0  0  0  0  0  0
  -28.2928  -23.8183   19.9564 C   0  0  0  0  0  0
  -28.2655  -25.0559   20.0935 C   0  0  0  0  0  0
  -27.8620  -19.2779   18.8859 C   0  0  0  0  0  0
  -27.8213  -17.9704   18.3542 C   0  0  0  0  0  0
  -29.5862  -18.5388   20.3947 C   0  0  0  0  0  0
  -28.8025  -19.6442   19.8707 C   0  0  0  0  0  0
  -28.7153  -16.9573   18.7732 C   0  0  0  0  0  0
  -29.5872  -17.1692   19.8699 C   0  0  0  0  0  0
  -28.9179  -21.1433   20.3194 C   0  0  0  0  0  0
  -28.7574  -22.3548   18.0136 C   0  0  0  0  0  0
  -31.9730  -16.9187   20.2833 C   0  0  0  0  0  0
  -28.2607  -22.3526   19.4828 C   0  0  2  0  0  0
  -28.7941  -15.8146   17.9911 N   0  0  0  0  0  0
  -30.6589  -16.1896   20.2442 N   0  0  0  0  0  0
  -29.5406  -21.4362   21.3454 O   0  0  0  0  0  0
  -31.4051  -12.5658   19.0658 H   0  0  0  0  0  0
  -30.3345  -11.6230   20.0533 H   0  0  0  0  0  0
  -29.7508  -11.5630   17.5949 H   0  0  0  0  0  0
  -29.5202  -13.2881   17.5862 H   0  0  0  0  0  0
  -27.9513  -11.2074   19.1230 H   0  0  0  0  0  0
  -27.3111  -12.2379   17.8702 H   0  0  0  0  0  0
  -27.5038  -14.1780   19.2914 H   0  0  0  0  0  0
  -28.7881  -12.5471   21.5474 H   0  0  0  0  0  0
  -28.4233  -14.2581   21.5420 H   0  0  0  0  0  0
  -25.2694   -9.5637   22.4779 H   0  0  0  0  0  0
  -23.9910   -7.4598   22.7476 H   0  0  0  0  0  0
  -21.0770   -8.8771   19.8949 H   0  0  0  0  0  0
  -22.3643  -10.9648   19.6229 H   0  0  0  0  0  0
  -21.2099   -7.6155   23.9717 H   0  0  0  0  0  0
  -21.1435   -6.0533   25.9076 H   0  0  0  0  0  0
  -22.0611   -2.7597   23.2889 H   0  0  0  0  0  0
  -22.4149  -11.9931   22.4993 H   0  0  0  0  0  0
  -21.1045  -13.1173   22.2624 H   0  0  0  0  0  0
  -24.6128  -15.8234   20.4281 H   0  0  0  0  0  0
  -26.2390  -15.5925   19.9941 H   0  0  0  0  0  0
  -26.7163  -32.5447   23.1076 H   0  0  0  0  0  0
  -25.0102  -33.9695   25.0474 H   0  0  0  0  0  0
  -22.7232  -31.3007   21.4028 H   0  0  0  0  0  0
  -23.3778  -35.9586   23.3312 H   0  0  0  0  0  0
  -24.3582  -36.8898   22.2055 H   0  0  0  0  0  0
  -23.7180  -37.6482   23.6630 H   0  0  0  0  0  0
  -26.0975  -31.5045   20.5905 H   0  0  0  0  0  0
  -26.8530  -30.8281   21.9996 H   0  0  0  0  0  0
  -28.0996  -28.9099   21.2305 H   0  0  0  0  0  0
  -25.9560  -25.9038   18.9754 H   0  0  0  0  0  0
  -23.9628  -27.2974   19.0072 H   0  0  0  0  0  0
  -23.7692  -30.5827   19.4065 H   0  0  0  0  0  0
  -22.7573  -29.2444   19.8627 H   0  0  0  0  0  0
  -25.1275  -36.1983   25.0845 H   0  0  0  0  0  0
  -20.9983  -28.3206   24.1428 H   0  0  0  0  0  0
  -20.5671  -26.2270   23.3606 H   0  0  0  0  0  0
  -21.6628  -26.7407   22.1214 H   0  0  0  0  0  0
  -19.6888  -25.6297   21.1236 H   0  0  0  0  0  0
  -19.6677  -27.3212   20.6766 H   0  0  0  0  0  0
  -17.4202  -26.6701   21.4036 H   0  0  0  0  0  0
  -18.0312  -26.0042   22.9019 H   0  0  0  0  0  0
  -19.7912  -30.7260   24.2305 H   0  0  0  0  0  0
  -17.4986  -31.6264   24.5156 H   0  0  0  0  0  0
  -15.5340  -30.2965   23.7616 H   0  0  0  0  0  0
  -15.8681  -28.0780   22.7075 H   0  0  0  0  0  0
  -24.5894  -30.7077   25.7795 H   0  0  0  0  0  0
  -24.8945  -32.2831   26.4996 H   0  0  0  0  0  0
  -25.8095  -30.8804   27.0198 H   0  0  0  0  0  0
  -26.2855  -29.6813   24.1202 H   0  0  0  0  0  0
  -27.4150  -29.7298   25.4547 H   0  0  0  0  0  0
  -27.8676  -30.4413   23.9243 H   0  0  0  0  0  0
  -27.2785  -33.3635   26.2010 H   0  0  0  0  0  0
  -28.3840  -32.6873   25.0160 H   0  0  0  0  0  0
  -28.0856  -31.8448   26.5287 H   0  0  0  0  0  0
  -28.2635  -38.0069   24.7581 H   0  0  0  0  0  0
  -28.1088  -36.2632   24.6246 H   0  0  0  0  0  0
  -27.2348  -37.1368   25.8888 H   0  0  0  0  0  0
  -20.9418  -29.8752   21.6913 H   0  0  0  0  0  0
  -26.0223  -38.2891   24.1453 H   0  0  0  0  0  0
  -27.1817  -20.0160   18.4895 H   0  0  0  0  0  0
  -27.1229  -17.7792   17.5490 H   0  0  0  0  0  0
  -30.2809  -18.7823   21.1837 H   0  0  0  0  0  0
  -28.1419  -23.0114   17.3978 H   0  0  0  0  0  0
  -28.7346  -21.3771   17.5341 H   0  0  0  0  0  0
  -29.7852  -22.7150   17.9493 H   0  0  0  0  0  0
  -31.9546  -17.9617   19.9629 H   0  0  0  0  0  0
  -32.7132  -16.5069   19.5880 H   0  0  0  0  0  0
  -32.4127  -16.8993   21.2815 H   0  0  0  0  0  0
  -27.1979  -22.1184   19.4700 H   0  0  0  0  0  0
  -28.2540  -15.8057   17.1313 H   0  0  0  0  0  0
  -29.7089  -15.4063   17.8576 H   0  0  0  0  0  0
  1 25  1  0  0  0
  1 30  2  0  0  0
  1 84  1  0  0  0
  2  3  1  0  0  0
  2 25  1  0  0  0
  2 86  1  0  0  0
  2 87  1  0  0  0
  3  4  1  0  0  0
  3 88  1  0  0  0
  3 89  1  0  0  0
  4  5  1  0  0  0
  4 90  1  0  0  0
  4 91  1  0  0  0
  5  6  1  0  0  0
  5 26  1  0  0  0
  5 92  1  0  0  0
  6 25  1  0  0  0
  6 93  1  0  0  0
  6 94  1  0  0  0
  7  8  2  0  0  0
  7 26  1  0  0  0
  7 29  1  0  0  0
  8  9  1  0  0  0
  8 22  1  0  0  0
  9 10  1  0  0  0
  9 27  2  0  0  0
 10 11  2  0  0  0
 10 15  1  0  0  0
 11 12  1  0  0  0
 11 95  1  0  0  0
 12 13  2  0  0  0
 12 96  1  0  0  0
 13 14  1  0  0  0
 13 31  1  0  0  0
 14 15  2  0  0  0
 14 97  1  0  0  0
 15 98  1  0  0  0
 16 17  2  0  0  0
 16 21  1  0  0  0
 16 31  1  0  0  0
 17 18  1  0  0  0
 17 99  1  0  0  0
 18 19  2  0  0  0
 18100  1  0  0  0
 19 20  1  0  0  0
 19 24  1  0  0  0
 20 21  2  0  0  0
 20101  1  0  0  0
 21 23  1  0  0  0
 22 28  1  0  0  0
 22 32  2  0  0  0
 26 27  1  0  0  0
 28102  1  0  0  0
 28103  1  0  0  0
 29104  1  0  0  0
 29105  1  0  0  0
 33 34  1  0  0  0
 33 66  1  0  0  0
 33 70  2  0  0  0
 34 36  1  0  0  0
 34 59  1  0  0  0
 34106  1  0  0  0
 35 44  2  0  0  0
 35 45  1  0  0  0
 35 68  1  0  0  0
 36 56  1  0  0  0
 36107  1  0  0  0
 37 39  1  0  0  0
 37 47  1  0  0  0
 37 66  1  0  0  0
 37108  1  0  0  0
 38 43  2  0  0  0
 38 46  1  0  0  0
 38 47  1  0  0  0
 39 64  1  0  0  0
 39 67  2  0  0  0
 40 52  1  0  0  0
 40 53  2  0  0  0
 40 58  1  0  0  0
 41109  1  0  0  0
 41110  1  0  0  0
 41111  1  0  0  0
 41 48  1  0  0  0
 42 43  1  0  0  0
 42 66  1  0  0  0
 42112  1  0  0  0
 42113  1  0  0  0
 43 44  1  0  0  0
 44114  1  0  0  0
 45 46  2  0  0  0
 45115  1  0  0  0
 46116  1  0  0  0
 47117  1  0  0  0
 47118  1  0  0  0
 48 56  1  0  0  0
 48 65  1  0  0  0
 48119  1  0  0  0
 49 50  1  0  0  0
 49 53  1  0  0  0
 49 64  1  0  0  0
 49120  1  0  0  0
 50 51  1  0  0  0
 50121  1  0  0  0
 50122  1  0  0  0
 51 52  1  0  0  0
 51123  1  0  0  0
 51124  1  0  0  0
 52125  1  0  0  0
 52126  1  0  0  0
 53 54  1  0  0  0
 54 55  2  0  0  0
 54127  1  0  0  0
 55 57  1  0  0  0
 55128  1  0  0  0
 56 69  2  0  0  0
 57 58  2  0  0  0
 57129  1  0  0  0
 58130  1  0  0  0
 59 60  1  0  0  0
 59 61  1  0  0  0
 59 62  1  0  0  0
 60131  1  0  0  0
 60132  1  0  0  0
 60133  1  0  0  0
 61134  1  0  0  0
 61135  1  0  0  0
 61136  1  0  0  0
 62137  1  0  0  0
 62138  1  0  0  0
 62139  1  0  0  0
 63 65  1  0  0  0
 63140  1  0  0  0
 63141  1  0  0  0
 63142  1  0  0  0
 64143  1  0  0  0
 65144  1  0  0  0
 68 72  1  0  0  0
 71 72  3  0  0  0
 71 82  1  0  0  0
 73 74  2  0  0  0
 73 76  1  0  0  0
 73145  1  0  0  0
 74 77  1  0  0  0
 74146  1  0  0  0
 75 76  2  0  0  0
 75 78  1  0  0  0
 75147  1  0  0  0
 76 79  1  0  0  0
 77 78  2  0  0  0
 77 83  1  0  0  0
 78 84  1  0  0  0
 79 82  1  0  0  0
 79 85  2  0  0  0
 80148  1  0  0  0
 80149  1  0  0  0
 80150  1  0  0  0
 80 82  1  0  0  0
 81 84  1  0  0  0
 81151  1  0  0  0
 81152  1  0  0  0
 81153  1  0  0  0
 82154  1  0  0  0
 83155  1  0  0  0
 83156  1  0  0  0
M  ISO  4   1 100  68 101  72 101  84 100
M  END
> <chiral flag>
0

> <version>
0

> <s_m_source_file>
/data/baiqing/PycharmProjects/Reinvent-master-3.2/result/LINK_invent/BTK/process_docking_weight1_custom_product_contain_oxygen_bond_distance_aromatic_linkinvent_7_9_3/rearranged_h_0107.sdf

> <i_m_source_file_index>
45

> <r_mmod_Potential_Energy-OPLS-2005>
450.350799560547

> <r_mmod_Stretch_Energy-OPLS-2005>
137.693786621094

> <r_mmod_Bend_Energy-OPLS-2005>
258.769866943359

> <r_mmod_Torsional_Energy-OPLS-2005>
283.227661132812

> <r_mmod_Improper_Torsional_Energy-OPLS-2005>
15.1655321121216

> <r_mmod_Van_der_Waal_Energy-OPLS-2005>
178.322830200195

> <r_mmod_Electrostatic_Energy-OPLS-2005>
-379.554992675781

> <r_mmod_Solvation_Energy-OPLS-2005>
-199.912139892578

> <b_mmod_Minimization_Converged-OPLS-2005>
0

> <r_mmod_RMS_Derivative-OPLS-2005>
7.35390615463257

$$$$
45
                    3D
 Structure written by MMmdl.
160169  0  0  1  0            999 V2000
  -30.6770  -14.5295   20.5398 C   0  0  0  0  0  0
  -30.4250  -12.3315   19.4332 C   0  0  0  0  0  0
  -29.4985  -12.5037   18.2111 C   0  0  0  0  0  0
  -28.0182  -12.3646   18.6213 C   0  0  0  0  0  0
  -27.6577  -13.2116   19.8717 C   0  0  2  0  0  0
  -28.7017  -13.0184   20.9947 C   0  0  0  0  0  0
  -25.2573  -13.8163   20.5694 C   0  0  0  0  0  0
  -24.1830  -13.0431   20.9175 C   0  0  0  0  0  0
  -24.6395  -11.6901   20.8726 C   0  0  0  0  0  0
  -23.9063  -10.4289   21.0398 C   0  0  0  0  0  0
  -24.3614   -9.4209   21.9183 C   0  0  0  0  0  0
  -23.6292   -8.2244   22.0755 C   0  0  0  0  0  0
  -22.4275   -8.0280   21.3544 C   0  0  0  0  0  0
  -21.9914   -9.0245   20.4637 C   0  0  0  0  0  0
  -22.7239  -10.2126   20.3045 C   0  0  0  0  0  0
  -21.6851   -6.0740   22.5281 C   0  0  0  0  0  0
  -21.4010   -6.5641   23.8214 C   0  0  0  0  0  0
  -21.3660   -5.6792   24.9174 C   0  0  0  0  0  0
  -21.6045   -4.3056   24.7223 C   0  0  0  0  0  0
  -21.8820   -3.8150   23.4342 C   0  0  0  0  0  0
  -21.9193   -4.6969   22.3400 C   0  0  0  0  0  0
  -22.7854  -13.5227   21.1844 C   0  0  0  0  0  0
  -22.1663   -4.2156   21.0978 F   0  0  0  0  0  0
  -21.5631   -3.4539   25.7734 F   0  0  0  0  0  0
  -30.0263  -13.3346   20.4357 N   0  0  0  0  0  0
  -26.3010  -12.9343   20.3363 N   0  0  0  0  0  0
  -25.9326  -11.6498   20.5762 N   0  0  0  0  0  0
  -22.0490  -12.8203   22.0382 N   0  0  0  0  0  0
  -25.4279  -15.1886   20.4154 N   0  0  0  0  0  0
  -31.8258  -14.6800   20.1163 O   0  0  0  0  0  0
  -21.6637   -6.8880   21.4240 O   0  0  0  0  0  0
  -22.3543  -14.5548   20.6717 O   0  0  0  0  0  0
  -24.6190  -31.8651   23.2059 C   0  0  0  0  0  0
  -25.9064  -32.4807   23.8375 C   0  0  1  0  0  0
  -27.2314  -27.3872   20.1058 C   0  0  0  0  0  0
  -25.5904  -33.8606   24.2312 N   0  0  0  0  0  0
  -23.4092  -30.4899   21.5466 C   0  0  2  0  0  0
  -24.8557  -28.9515   20.1111 C   0  0  0  0  0  0
  -22.7441  -29.4654   22.4955 C   0  0  0  0  0  0
  -18.0289  -28.1364   22.8486 C   0  0  0  0  0  0
  -24.1484  -36.7290   23.2642 C   0  0  0  0  0  0
  -25.9438  -30.8174   21.3660 C   0  0  0  0  0  0
  -26.0200  -29.4499   20.7092 C   0  0  0  0  0  0
  -27.2108  -28.6779   20.6974 C   0  0  0  0  0  0
  -26.0456  -26.9217   19.4910 C   0  0  0  0  0  0
  -24.8667  -27.6899   19.4959 C   0  0  0  0  0  0
  -23.6194  -29.8228   20.1617 C   0  0  0  0  0  0
  -25.4104  -36.3095   24.0346 C   0  0  1  0  0  0
  -20.5886  -28.3661   23.1290 C   0  0  2  0  0  0
  -20.6772  -26.9398   22.5385 C   0  0  0  0  0  0
  -19.5743  -26.6389   21.5185 C   0  0  0  0  0  0
  -18.1930  -26.7918   22.1611 C   0  0  0  0  0  0
  -19.1544  -28.8829   23.2888 C   0  0  0  0  0  0
  -18.9470  -30.1431   23.8906 C   0  0  0  0  0  0
  -17.6472  -30.6572   24.0562 C   0  0  0  0  0  0
  -25.9037  -34.9469   23.5126 C   0  0  0  0  0  0
  -16.5361  -29.9072   23.6332 C   0  0  0  0  0  0
  -16.7279  -28.6488   23.0352 C   0  0  0  0  0  0
  -26.4468  -31.6595   25.0722 C   0  0  0  0  0  0
  -25.3709  -31.3703   26.1449 C   0  0  0  0  0  0
  -27.0314  -30.3046   24.6102 C   0  0  0  0  0  0
  -27.6038  -32.4321   25.7492 C   0  0  0  0  0  0
  -27.5573  -37.1811   24.8471 C   0  0  0  0  0  0
  -21.4163  -29.3038   22.3703 N   0  0  0  0  0  0
  -26.4288  -37.3780   23.9410 N   0  0  0  0  0  0
  -24.6758  -31.0724   22.0974 N   0  0  0  0  0  0
  -23.4199  -28.8197   23.3004 O   0  0  0  0  0  0
  -28.3813  -26.6044   20.1468 O   0  0  0  0  0  0
  -26.5599  -34.8927   22.4686 O   0  0  0  0  0  0
  -23.5371  -32.1419   23.7428 O   0  0  0  0  0  0
  -31.6322  -18.9767   20.9638 C   0  0  0  0  0  0
  -31.4403  -17.5880   20.7687 C   0  0  0  0  0  0
  -29.3050  -19.2384   21.5865 C   0  0  0  0  0  0
  -30.5843  -19.8163   21.4209 C   0  0  0  0  0  0
  -30.1835  -16.9858   21.0250 C   0  0  0  0  0  0
  -29.1162  -17.8428   21.3983 C   0  0  0  0  0  0
  -30.9317  -21.1585   21.9560 C   0  0  0  0  0  0
  -29.8432  -24.7179   22.0369 C   0  0  0  0  0  0
  -30.8113  -23.6023   22.4290 C   0  0  0  0  0  0
  -29.3362  -22.7898   20.7069 C   0  0  0  0  0  0
  -29.4463  -24.3522   20.6119 C   0  0  1  0  0  0
  -28.2125  -25.1579   20.0972 C   0  0  0  0  0  0
  -30.3785  -22.3864   21.6942 N   0  0  0  0  0  0
  -29.9204  -15.5662   20.9735 N   0  0  0  0  0  0
  -31.9325  -21.1350   22.8371 N   0  3  0  0  0  0
  -27.8950  -17.3015   21.6280 F   0  0  0  0  0  0
  -31.4699  -12.4303   19.1339 H   0  0  0  0  0  0
  -30.3295  -11.3263   19.8474 H   0  0  0  0  0  0
  -29.7429  -11.7656   17.4461 H   0  0  0  0  0  0
  -29.6637  -13.4813   17.7557 H   0  0  0  0  0  0
  -27.8301  -11.3094   18.8222 H   0  0  0  0  0  0
  -27.3698  -12.6338   17.7864 H   0  0  0  0  0  0
  -27.6910  -14.2559   19.5608 H   0  0  0  0  0  0
  -28.6893  -11.9871   21.3511 H   0  0  0  0  0  0
  -28.4629  -13.6316   21.8649 H   0  0  0  0  0  0
  -25.2759   -9.5691   22.4757 H   0  0  0  0  0  0
  -24.0003   -7.4639   22.7479 H   0  0  0  0  0  0
  -21.0851   -8.8755   19.8935 H   0  0  0  0  0  0
  -22.3702  -10.9660   19.6145 H   0  0  0  0  0  0
  -21.1996   -7.6149   23.9719 H   0  0  0  0  0  0
  -21.1484   -6.0522   25.9078 H   0  0  0  0  0  0
  -22.0598   -2.7614   23.2838 H   0  0  0  0  0  0
  -22.4098  -11.9845   22.4739 H   0  0  0  0  0  0
  -21.1100  -13.1209   22.2572 H   0  0  0  0  0  0
  -24.6658  -15.8431   20.5534 H   0  0  0  0  0  0
  -26.2934  -15.6433   20.1539 H   0  0  0  0  0  0
  -26.7142  -32.5509   23.1144 H   0  0  0  0  0  0
  -25.0080  -33.9765   25.0475 H   0  0  0  0  0  0
  -22.6991  -31.3076   21.4051 H   0  0  0  0  0  0
  -23.3756  -35.9612   23.3311 H   0  0  0  0  0  0
  -24.3580  -36.8888   22.2053 H   0  0  0  0  0  0
  -23.7233  -37.6498   23.6647 H   0  0  0  0  0  0
  -26.0632  -31.5843   20.5994 H   0  0  0  0  0  0
  -26.8293  -30.8672   21.9885 H   0  0  0  0  0  0
  -28.1075  -29.0569   21.1675 H   0  0  0  0  0  0
  -26.0095  -25.9591   19.0034 H   0  0  0  0  0  0
  -23.9742  -27.3014   19.0253 H   0  0  0  0  0  0
  -23.7297  -30.5976   19.4021 H   0  0  0  0  0  0
  -22.7424  -29.2441   19.8656 H   0  0  0  0  0  0
  -25.1283  -36.1954   25.0841 H   0  0  0  0  0  0
  -20.9987  -28.3215   24.1404 H   0  0  0  0  0  0
  -20.5657  -26.2271   23.3566 H   0  0  0  0  0  0
  -21.6641  -26.7417   22.1181 H   0  0  0  0  0  0
  -19.6901  -25.6307   21.1189 H   0  0  0  0  0  0
  -19.6676  -27.3222   20.6733 H   0  0  0  0  0  0
  -17.4192  -26.6683   21.4017 H   0  0  0  0  0  0
  -18.0332  -26.0040   22.8990 H   0  0  0  0  0  0
  -19.7948  -30.7238   24.2282 H   0  0  0  0  0  0
  -17.5030  -31.6256   24.5154 H   0  0  0  0  0  0
  -15.5362  -30.2971   23.7645 H   0  0  0  0  0  0
  -15.8682  -28.0802   22.7064 H   0  0  0  0  0  0
  -24.5916  -30.7012   25.7778 H   0  0  0  0  0  0
  -24.8853  -32.2851   26.4858 H   0  0  0  0  0  0
  -25.8041  -30.8908   27.0235 H   0  0  0  0  0  0
  -26.2874  -29.6818   24.1121 H   0  0  0  0  0  0
  -27.4065  -29.7267   25.4556 H   0  0  0  0  0  0
  -27.8709  -30.4390   23.9278 H   0  0  0  0  0  0
  -27.2669  -33.3641   26.2043 H   0  0  0  0  0  0
  -28.3864  -32.6840   25.0326 H   0  0  0  0  0  0
  -28.0678  -31.8452   26.5427 H   0  0  0  0  0  0
  -28.2586  -38.0110   24.7510 H   0  0  0  0  0  0
  -28.1076  -36.2642   24.6310 H   0  0  0  0  0  0
  -27.2294  -37.1472   25.8875 H   0  0  0  0  0  0
  -20.9321  -29.8778   21.6945 H   0  0  0  0  0  0
  -26.0174  -38.2861   24.1390 H   0  0  0  0  0  0
  -32.6259  -19.3840   20.8318 H   0  0  0  0  0  0
  -32.2955  -17.0006   20.4732 H   0  0  0  0  0  0
  -28.4851  -19.8373   21.9546 H   0  0  0  0  0  0
  -30.3136  -25.7002   22.0877 H   0  0  0  0  0  0
  -28.9793  -24.7243   22.7027 H   0  0  0  0  0  0
  -30.8105  -23.4590   23.5114 H   0  0  0  0  0  0
  -31.8272  -23.8646   22.1257 H   0  0  0  0  0  0
  -29.4966  -22.3197   19.7354 H   0  0  0  0  0  0
  -28.3525  -22.4877   21.0703 H   0  0  0  0  0  0
  -30.2834  -24.5819   19.9505 H   0  0  0  0  0  0
  -27.3478  -24.8689   20.6974 H   0  0  0  0  0  0
  -28.0048  -24.8581   19.0691 H   0  0  0  0  0  0
  -28.9859  -15.3140   21.2557 H   0  0  0  0  0  0
  -32.3302  -20.2433   23.0915 H   0  0  0  0  0  0
  -32.3080  -21.9651   23.2593 H   0  0  0  0  0  0
  1 25  1  0  0  0
  1 30  2  0  0  0
  1 84  1  0  0  0
  2  3  1  0  0  0
  2 25  1  0  0  0
  2 87  1  0  0  0
  2 88  1  0  0  0
  3  4  1  0  0  0
  3 89  1  0  0  0
  3 90  1  0  0  0
  4  5  1  0  0  0
  4 91  1  0  0  0
  4 92  1  0  0  0
  5  6  1  0  0  0
  5 26  1  0  0  0
  5 93  1  0  0  0
  6 25  1  0  0  0
  6 94  1  0  0  0
  6 95  1  0  0  0
  7  8  2  0  0  0
  7 26  1  0  0  0
  7 29  1  0  0  0
  8  9  1  0  0  0
  8 22  1  0  0  0
  9 10  1  0  0  0
  9 27  2  0  0  0
 10 11  2  0  0  0
 10 15  1  0  0  0
 11 12  1  0  0  0
 11 96  1  0  0  0
 12 13  2  0  0  0
 12 97  1  0  0  0
 13 14  1  0  0  0
 13 31  1  0  0  0
 14 15  2  0  0  0
 14 98  1  0  0  0
 15 99  1  0  0  0
 16 17  2  0  0  0
 16 21  1  0  0  0
 16 31  1  0  0  0
 17 18  1  0  0  0
 17100  1  0  0  0
 18 19  2  0  0  0
 18101  1  0  0  0
 19 20  1  0  0  0
 19 24  1  0  0  0
 20 21  2  0  0  0
 20102  1  0  0  0
 21 23  1  0  0  0
 22 28  1  0  0  0
 22 32  2  0  0  0
 26 27  1  0  0  0
 28103  1  0  0  0
 28104  1  0  0  0
 29105  1  0  0  0
 29106  1  0  0  0
 33 34  1  0  0  0
 33 66  1  0  0  0
 33 70  2  0  0  0
 34 36  1  0  0  0
 34 59  1  0  0  0
 34107  1  0  0  0
 35 44  2  0  0  0
 35 45  1  0  0  0
 35 68  1  0  0  0
 36 56  1  0  0  0
 36108  1  0  0  0
 37 39  1  0  0  0
 37 47  1  0  0  0
 37 66  1  0  0  0
 37109  1  0  0  0
 38 43  2  0  0  0
 38 46  1  0  0  0
 38 47  1  0  0  0
 39 64  1  0  0  0
 39 67  2  0  0  0
 40 52  1  0  0  0
 40 53  2  0  0  0
 40 58  1  0  0  0
 41110  1  0  0  0
 41111  1  0  0  0
 41112  1  0  0  0
 41 48  1  0  0  0
 42 43  1  0  0  0
 42 66  1  0  0  0
 42113  1  0  0  0
 42114  1  0  0  0
 43 44  1  0  0  0
 44115  1  0  0  0
 45 46  2  0  0  0
 45116  1  0  0  0
 46117  1  0  0  0
 47118  1  0  0  0
 47119  1  0  0  0
 48 56  1  0  0  0
 48 65  1  0  0  0
 48120  1  0  0  0
 49 50  1  0  0  0
 49 53  1  0  0  0
 49 64  1  0  0  0
 49121  1  0  0  0
 50 51  1  0  0  0
 50122  1  0  0  0
 50123  1  0  0  0
 51 52  1  0  0  0
 51124  1  0  0  0
 51125  1  0  0  0
 52126  1  0  0  0
 52127  1  0  0  0
 53 54  1  0  0  0
 54 55  2  0  0  0
 54128  1  0  0  0
 55 57  1  0  0  0
 55129  1  0  0  0
 56 69  2  0  0  0
 57 58  2  0  0  0
 57130  1  0  0  0
 58131  1  0  0  0
 59 60  1  0  0  0
 59 61  1  0  0  0
 59 62  1  0  0  0
 60132  1  0  0  0
 60133  1  0  0  0
 60134  1  0  0  0
 61135  1  0  0  0
 61136  1  0  0  0
 61137  1  0  0  0
 62138  1  0  0  0
 62139  1  0  0  0
 62140  1  0  0  0
 63 65  1  0  0  0
 63141  1  0  0  0
 63142  1  0  0  0
 63143  1  0  0  0
 64144  1  0  0  0
 65145  1  0  0  0
 68 82  1  0  0  0
 71 72  2  0  0  0
 71 74  1  0  0  0
 71146  1  0  0  0
 72 75  1  0  0  0
 72147  1  0  0  0
 73 74  2  0  0  0
 73 76  1  0  0  0
 73148  1  0  0  0
 74 77  1  0  0  0
 75 76  2  0  0  0
 75 84  1  0  0  0
 76 86  1  0  0  0
 77 83  1  0  0  0
 77 85  2  0  0  0
 78 79  1  0  0  0
 78 81  1  0  0  0
 78149  1  0  0  0
 78150  1  0  0  0
 79 83  1  0  0  0
 79151  1  0  0  0
 79152  1  0  0  0
 80 81  1  0  0  0
 80 83  1  0  0  0
 80153  1  0  0  0
 80154  1  0  0  0
 81 82  1  0  0  0
 81155  1  0  0  0
 82156  1  0  0  0
 82157  1  0  0  0
 84158  1  0  0  0
 85159  1  0  0  0
 85160  1  0  0  0
M  CHG  1  85   1
M  ISO  4   1 100  68 101  82 101  84 100
M  END
> <chiral flag>
0

> <version>
0

> <s_m_source_file>
/data/baiqing/PycharmProjects/Reinvent-master-3.2/result/LINK_invent/BTK/process_docking_weight1_custom_product_contain_oxygen_bond_distance_aromatic_linkinvent_7_9_3/rearranged_h_0107.sdf

> <i_m_source_file_index>
46

> <r_mmod_Potential_Energy-OPLS-2005>
-174.911575317383

> <r_mmod_Stretch_Energy-OPLS-2005>
50.9358711242676

> <r_mmod_Bend_Energy-OPLS-2005>
157.744033813477

> <r_mmod_Torsional_Energy-OPLS-2005>
282.208740234375

> <r_mmod_Improper_Torsional_Energy-OPLS-2005>
5.61440229415894

> <r_mmod_Van_der_Waal_Energy-OPLS-2005>
157.432510375977

> <r_mmod_Electrostatic_Energy-OPLS-2005>
-444.87890625

> <r_mmod_Solvation_Energy-OPLS-2005>
-405.987152099609

> <b_mmod_Minimization_Converged-OPLS-2005>
0

> <r_mmod_RMS_Derivative-OPLS-2005>
1.01374578475952

$$$$
46
                    3D
 Structure written by MMmdl.
156164  0  0  1  0            999 V2000
  -30.5976  -14.6873   20.3654 C   0  0  0  0  0  0
  -30.4530  -12.3780   19.4865 C   0  0  0  0  0  0
  -29.5246  -12.4391   18.2457 C   0  0  0  0  0  0
  -28.0383  -12.2919   18.6441 C   0  0  0  0  0  0
  -27.6400  -13.1886   19.8442 C   0  0  2  0  0  0
  -28.6955  -13.1147   20.9750 C   0  0  0  0  0  0
  -25.2546  -13.8063   20.5707 C   0  0  0  0  0  0
  -24.1809  -13.0367   20.9241 C   0  0  0  0  0  0
  -24.6359  -11.6837   20.8793 C   0  0  0  0  0  0
  -23.9031  -10.4241   21.0440 C   0  0  0  0  0  0
  -24.3596   -9.4155   21.9204 C   0  0  0  0  0  0
  -23.6269   -8.2195   22.0764 C   0  0  0  0  0  0
  -22.4252   -8.0252   21.3553 C   0  0  0  0  0  0
  -21.9892   -9.0229   20.4654 C   0  0  0  0  0  0
  -22.7220  -10.2106   20.3072 C   0  0  0  0  0  0
  -21.6836   -6.0721   22.5282 C   0  0  0  0  0  0
  -21.4002   -6.5637   23.8213 C   0  0  0  0  0  0
  -21.3650   -5.6797   24.9183 C   0  0  0  0  0  0
  -21.6041   -4.3060   24.7234 C   0  0  0  0  0  0
  -21.8823   -3.8140   23.4359 C   0  0  0  0  0  0
  -21.9187   -4.6952   22.3412 C   0  0  0  0  0  0
  -22.7843  -13.5200   21.1886 C   0  0  0  0  0  0
  -22.1662   -4.2140   21.0992 F   0  0  0  0  0  0
  -21.5621   -3.4545   25.7745 F   0  0  0  0  0  0
  -30.0248  -13.4368   20.4232 N   0  0  0  0  0  0
  -26.2924  -12.9178   20.3273 N   0  0  0  0  0  0
  -25.9272  -11.6380   20.5786 N   0  0  0  0  0  0
  -22.0471  -12.8198   22.0433 N   0  0  0  0  0  0
  -25.4211  -15.1791   20.4103 N   0  0  0  0  0  0
  -31.8070  -14.8147   20.1617 O   0  0  0  0  0  0
  -21.6613   -6.8855   21.4242 O   0  0  0  0  0  0
  -22.3556  -14.5515   20.6727 O   0  0  0  0  0  0
  -24.6234  -31.8619   23.2039 C   0  0  0  0  0  0
  -25.9089  -32.4795   23.8364 C   0  0  1  0  0  0
  -27.2361  -27.3448   20.1165 C   0  0  0  0  0  0
  -25.5909  -33.8591   24.2290 N   0  0  0  0  0  0
  -23.4165  -30.4842   21.5462 C   0  0  2  0  0  0
  -24.8653  -28.9410   20.1131 C   0  0  0  0  0  0
  -22.7469  -29.4625   22.4952 C   0  0  0  0  0  0
  -18.0287  -28.1392   22.8490 C   0  0  0  0  0  0
  -24.1483  -36.7296   23.2640 C   0  0  0  0  0  0
  -25.9547  -30.8017   21.3698 C   0  0  0  0  0  0
  -26.0323  -29.4304   20.7131 C   0  0  0  0  0  0
  -27.2202  -28.6451   20.7024 C   0  0  0  0  0  0
  -26.0428  -26.8980   19.5003 C   0  0  0  0  0  0
  -24.8714  -27.6792   19.4983 C   0  0  0  0  0  0
  -23.6304  -29.8171   20.1619 C   0  0  0  0  0  0
  -25.4108  -36.3091   24.0332 C   0  0  1  0  0  0
  -20.5884  -28.3687   23.1300 C   0  0  2  0  0  0
  -20.6769  -26.9410   22.5422 C   0  0  0  0  0  0
  -19.5753  -26.6386   21.5218 C   0  0  0  0  0  0
  -18.1930  -26.7938   22.1626 C   0  0  0  0  0  0
  -19.1538  -28.8854   23.2890 C   0  0  0  0  0  0
  -18.9461  -30.1458   23.8903 C   0  0  0  0  0  0
  -17.6460  -30.6592   24.0565 C   0  0  0  0  0  0
  -25.9046  -34.9462   23.5112 C   0  0  0  0  0  0
  -16.5352  -29.9088   23.6330 C   0  0  0  0  0  0
  -16.7273  -28.6507   23.0347 C   0  0  0  0  0  0
  -26.4485  -31.6592   25.0721 C   0  0  0  0  0  0
  -25.3728  -31.3722   26.1455 C   0  0  0  0  0  0
  -27.0319  -30.3022   24.6142 C   0  0  0  0  0  0
  -27.6051  -32.4320   25.7488 C   0  0  0  0  0  0
  -27.5581  -37.1800   24.8462 C   0  0  0  0  0  0
  -21.4184  -29.3039   22.3692 N   0  0  0  0  0  0
  -26.4289  -37.3785   23.9415 N   0  0  0  0  0  0
  -24.6834  -31.0648   22.0977 N   0  0  0  0  0  0
  -23.4205  -28.8166   23.3026 O   0  0  0  0  0  0
  -28.3731  -26.5287   20.1606 O   0  0  0  0  0  0
  -26.5618  -34.8926   22.4681 O   0  0  0  0  0  0
  -23.5401  -32.1405   23.7382 O   0  0  0  0  0  0
  -29.2740  -19.6243   21.3203 C   0  0  0  0  0  0
  -31.0728  -19.5470   19.7480 C   0  0  0  0  0  0
  -29.2024  -18.1961   21.3052 C   0  0  0  0  0  0
  -30.0157  -17.3868   20.4406 C   0  0  0  0  0  0
  -30.1827  -20.3445   20.5091 C   0  0  0  0  0  0
  -30.9880  -18.1254   19.7046 C   0  0  0  0  0  0
  -29.3294  -22.6285   20.3993 C   0  0  0  0  0  0
  -29.4374  -24.1906   20.3809 C   0  0  0  0  0  0
  -28.1618  -17.5553   22.2114 C   0  0  0  0  0  0
  -28.1663  -25.0672   20.0969 C   0  0  0  0  0  0
  -29.6320  -15.9233   20.0726 C   0  0  1  0  0  0
  -30.3074  -21.7723   20.4904 N   0  0  0  0  0  0
  -29.3821  -15.9431   18.6188 N   0  3  0  0  0  0
  -30.5231  -24.7548   20.5763 O   0  0  0  0  0  0
  -31.7784  -17.4661   18.8233 F   0  0  0  0  0  0
  -31.4965  -12.4889   19.1864 H   0  0  0  0  0  0
  -30.3839  -11.4012   19.9683 H   0  0  0  0  0  0
  -29.7931  -11.6435   17.5493 H   0  0  0  0  0  0
  -29.6800  -13.3683   17.7003 H   0  0  0  0  0  0
  -27.8731  -11.2444   18.9004 H   0  0  0  0  0  0
  -27.3935  -12.4935   17.7877 H   0  0  0  0  0  0
  -27.6005  -14.1941   19.4434 H   0  0  0  0  0  0
  -28.7115  -12.1149   21.4120 H   0  0  0  0  0  0
  -28.4391  -13.7867   21.7964 H   0  0  0  0  0  0
  -25.2745   -9.5625   22.4779 H   0  0  0  0  0  0
  -23.9973   -7.4585   22.7478 H   0  0  0  0  0  0
  -21.0828   -8.8754   19.8958 H   0  0  0  0  0  0
  -22.3690  -10.9654   19.6187 H   0  0  0  0  0  0
  -21.1998   -7.6145   23.9711 H   0  0  0  0  0  0
  -21.1474   -6.0532   25.9084 H   0  0  0  0  0  0
  -22.0615   -2.7605   23.2865 H   0  0  0  0  0  0
  -22.4078  -11.9851   22.4818 H   0  0  0  0  0  0
  -21.1093  -13.1237   22.2644 H   0  0  0  0  0  0
  -24.6362  -15.8125   20.5212 H   0  0  0  0  0  0
  -26.2342  -15.6360   20.0278 H   0  0  0  0  0  0
  -26.7156  -32.5475   23.1116 H   0  0  0  0  0  0
  -25.0049  -33.9741   25.0425 H   0  0  0  0  0  0
  -22.7081  -31.3030   21.4036 H   0  0  0  0  0  0
  -23.3757  -35.9616   23.3298 H   0  0  0  0  0  0
  -24.3577  -36.8924   22.2057 H   0  0  0  0  0  0
  -23.7224  -37.6487   23.6672 H   0  0  0  0  0  0
  -26.0791  -31.5663   20.6018 H   0  0  0  0  0  0
  -26.8376  -30.8536   21.9953 H   0  0  0  0  0  0
  -28.1168  -29.0198   21.1763 H   0  0  0  0  0  0
  -25.9884  -25.9345   19.0160 H   0  0  0  0  0  0
  -23.9765  -27.2985   19.0261 H   0  0  0  0  0  0
  -23.7462  -30.5926   19.4038 H   0  0  0  0  0  0
  -22.7517  -29.2428   19.8627 H   0  0  0  0  0  0
  -25.1283  -36.1948   25.0824 H   0  0  0  0  0  0
  -20.9975  -28.3260   24.1423 H   0  0  0  0  0  0
  -20.5671  -26.2289   23.3618 H   0  0  0  0  0  0
  -21.6637  -26.7446   22.1218 H   0  0  0  0  0  0
  -19.6910  -25.6301   21.1237 H   0  0  0  0  0  0
  -19.6690  -27.3196   20.6750 H   0  0  0  0  0  0
  -17.4202  -26.6702   21.4022 H   0  0  0  0  0  0
  -18.0317  -26.0076   22.9019 H   0  0  0  0  0  0
  -19.7934  -30.7274   24.2273 H   0  0  0  0  0  0
  -17.5016  -31.6274   24.5173 H   0  0  0  0  0  0
  -15.5352  -30.2991   23.7655 H   0  0  0  0  0  0
  -15.8676  -28.0828   22.7057 H   0  0  0  0  0  0
  -24.5886  -30.7091   25.7784 H   0  0  0  0  0  0
  -24.8937  -32.2887   26.4909 H   0  0  0  0  0  0
  -25.8059  -30.8876   27.0212 H   0  0  0  0  0  0
  -26.2876  -29.6783   24.1178 H   0  0  0  0  0  0
  -27.4046  -29.7268   25.4626 H   0  0  0  0  0  0
  -27.8735  -30.4326   23.9334 H   0  0  0  0  0  0
  -27.2668  -33.3624   26.2066 H   0  0  0  0  0  0
  -28.3859  -32.6876   25.0311 H   0  0  0  0  0  0
  -28.0718  -31.8441   26.5402 H   0  0  0  0  0  0
  -28.2589  -38.0107   24.7529 H   0  0  0  0  0  0
  -28.1089  -36.2641   24.6263 H   0  0  0  0  0  0
  -27.2309  -37.1416   25.8867 H   0  0  0  0  0  0
  -20.9358  -29.8759   21.6900 H   0  0  0  0  0  0
  -26.0175  -38.2858   24.1432 H   0  0  0  0  0  0
  -28.6050  -20.1748   21.9676 H   0  0  0  0  0  0
  -31.8149  -20.0323   19.1301 H   0  0  0  0  0  0
  -28.3090  -22.2455   20.3106 H   0  0  0  0  0  0
  -27.8609  -18.2357   23.0085 H   0  0  0  0  0  0
  -28.5563  -16.6593   22.6922 H   0  0  0  0  0  0
  -27.2664  -17.2892   21.6488 H   0  0  0  0  0  0
  -27.3961  -24.7845   20.8146 H   0  0  0  0  0  0
  -27.8033  -24.7964   19.1056 H   0  0  0  0  0  0
  -28.6844  -15.7005   20.5493 H   0  0  0  0  0  0
  -30.2373  -16.2531   18.1813 H   0  0  0  0  0  0
  -28.6471  -16.5869   18.3854 H   0  0  0  0  0  0
  -29.1628  -15.0312   18.2634 H   0  0  0  0  0  0
  1 25  1  0  0  0
  1 30  2  0  0  0
  1 81  1  0  0  0
  2  3  1  0  0  0
  2 25  1  0  0  0
  2 86  1  0  0  0
  2 87  1  0  0  0
  3  4  1  0  0  0
  3 88  1  0  0  0
  3 89  1  0  0  0
  4  5  1  0  0  0
  4 90  1  0  0  0
  4 91  1  0  0  0
  5  6  1  0  0  0
  5 26  1  0  0  0
  5 92  1  0  0  0
  6 25  1  0  0  0
  6 93  1  0  0  0
  6 94  1  0  0  0
  7  8  2  0  0  0
  7 26  1  0  0  0
  7 29  1  0  0  0
  8  9  1  0  0  0
  8 22  1  0  0  0
  9 10  1  0  0  0
  9 27  2  0  0  0
 10 11  2  0  0  0
 10 15  1  0  0  0
 11 12  1  0  0  0
 11 95  1  0  0  0
 12 13  2  0  0  0
 12 96  1  0  0  0
 13 14  1  0  0  0
 13 31  1  0  0  0
 14 15  2  0  0  0
 14 97  1  0  0  0
 15 98  1  0  0  0
 16 17  2  0  0  0
 16 21  1  0  0  0
 16 31  1  0  0  0
 17 18  1  0  0  0
 17 99  1  0  0  0
 18 19  2  0  0  0
 18100  1  0  0  0
 19 20  1  0  0  0
 19 24  1  0  0  0
 20 21  2  0  0  0
 20101  1  0  0  0
 21 23  1  0  0  0
 22 28  1  0  0  0
 22 32  2  0  0  0
 26 27  1  0  0  0
 28102  1  0  0  0
 28103  1  0  0  0
 29104  1  0  0  0
 29105  1  0  0  0
 33 34  1  0  0  0
 33 66  1  0  0  0
 33 70  2  0  0  0
 34 36  1  0  0  0
 34 59  1  0  0  0
 34106  1  0  0  0
 35 44  2  0  0  0
 35 45  1  0  0  0
 35 68  1  0  0  0
 36 56  1  0  0  0
 36107  1  0  0  0
 37 39  1  0  0  0
 37 47  1  0  0  0
 37 66  1  0  0  0
 37108  1  0  0  0
 38 43  2  0  0  0
 38 46  1  0  0  0
 38 47  1  0  0  0
 39 64  1  0  0  0
 39 67  2  0  0  0
 40 52  1  0  0  0
 40 53  2  0  0  0
 40 58  1  0  0  0
 41109  1  0  0  0
 41110  1  0  0  0
 41111  1  0  0  0
 41 48  1  0  0  0
 42 43  1  0  0  0
 42 66  1  0  0  0
 42112  1  0  0  0
 42113  1  0  0  0
 43 44  1  0  0  0
 44114  1  0  0  0
 45 46  2  0  0  0
 45115  1  0  0  0
 46116  1  0  0  0
 47117  1  0  0  0
 47118  1  0  0  0
 48 56  1  0  0  0
 48 65  1  0  0  0
 48119  1  0  0  0
 49 50  1  0  0  0
 49 53  1  0  0  0
 49 64  1  0  0  0
 49120  1  0  0  0
 50 51  1  0  0  0
 50121  1  0  0  0
 50122  1  0  0  0
 51 52  1  0  0  0
 51123  1  0  0  0
 51124  1  0  0  0
 52125  1  0  0  0
 52126  1  0  0  0
 53 54  1  0  0  0
 54 55  2  0  0  0
 54127  1  0  0  0
 55 57  1  0  0  0
 55128  1  0  0  0
 56 69  2  0  0  0
 57 58  2  0  0  0
 57129  1  0  0  0
 58130  1  0  0  0
 59 60  1  0  0  0
 59 61  1  0  0  0
 59 62  1  0  0  0
 60131  1  0  0  0
 60132  1  0  0  0
 60133  1  0  0  0
 61134  1  0  0  0
 61135  1  0  0  0
 61136  1  0  0  0
 62137  1  0  0  0
 62138  1  0  0  0
 62139  1  0  0  0
 63 65  1  0  0  0
 63140  1  0  0  0
 63141  1  0  0  0
 63142  1  0  0  0
 64143  1  0  0  0
 65144  1  0  0  0
 68 80  1  0  0  0
 71 73  2  0  0  0
 71 75  1  0  0  0
 71145  1  0  0  0
 72 75  2  0  0  0
 72 76  1  0  0  0
 72146  1  0  0  0
 73 74  1  0  0  0
 73 79  1  0  0  0
 74 76  2  0  0  0
 74 81  1  0  0  0
 75 82  1  0  0  0
 76 85  1  0  0  0
 77 78  1  0  0  0
 77 82  2  0  0  0
 77147  1  0  0  0
 78 80  1  0  0  0
 78 84  2  0  0  0
 79148  1  0  0  0
 79149  1  0  0  0
 79150  1  0  0  0
 80151  1  0  0  0
 80152  1  0  0  0
 81 83  1  0  0  0
 81153  1  0  0  0
 83154  1  0  0  0
 83155  1  0  0  0
 83156  1  0  0  0
M  CHG  1  83   1
M  ISO  4   1 100  68 101  80 101  81 100
M  END
> <chiral flag>
0

> <version>
0

> <s_m_source_file>
/data/baiqing/PycharmProjects/Reinvent-master-3.2/result/LINK_invent/BTK/process_docking_weight1_custom_product_contain_oxygen_bond_distance_aromatic_linkinvent_7_9_3/rearranged_h_0107.sdf

> <i_m_source_file_index>
47

> <r_mmod_Potential_Energy-OPLS-2005>
-87.9326629638672

> <r_mmod_Stretch_Energy-OPLS-2005>
83.7658309936523

> <r_mmod_Bend_Energy-OPLS-2005>
159.037399291992

> <r_mmod_Torsional_Energy-OPLS-2005>
233.944107055664

> <r_mmod_Improper_Torsional_Energy-OPLS-2005>
16.3820056915283

> <r_mmod_Van_der_Waal_Energy-OPLS-2005>
144.978424072266

> <r_mmod_Electrostatic_Energy-OPLS-2005>
-266.140319824219

> <r_mmod_Solvation_Energy-OPLS-2005>
-518.838500976562

> <b_mmod_Minimization_Converged-OPLS-2005>
0

> <r_mmod_RMS_Derivative-OPLS-2005>
1.28314697742462

$$$$
47
                    3D
 Structure written by MMmdl.
157165  0  0  1  0            999 V2000
  -30.6060  -14.7828   20.3472 C   0  0  0  0  0  0
  -30.4423  -12.4663   19.4301 C   0  0  0  0  0  0
  -29.4944  -12.4174   18.2110 C   0  0  0  0  0  0
  -28.0204  -12.2912   18.6490 C   0  0  0  0  0  0
  -27.6366  -13.2198   19.8319 C   0  0  2  0  0  0
  -28.7047  -13.1937   20.9439 C   0  0  0  0  0  0
  -25.2579  -13.8185   20.5713 C   0  0  0  0  0  0
  -24.1838  -13.0415   20.9232 C   0  0  0  0  0  0
  -24.6414  -11.6897   20.8819 C   0  0  0  0  0  0
  -23.9074  -10.4273   21.0423 C   0  0  0  0  0  0
  -24.3624   -9.4192   21.9189 C   0  0  0  0  0  0
  -23.6294   -8.2234   22.0757 C   0  0  0  0  0  0
  -22.4291   -8.0273   21.3522 C   0  0  0  0  0  0
  -21.9912   -9.0255   20.4648 C   0  0  0  0  0  0
  -22.7250  -10.2132   20.3062 C   0  0  0  0  0  0
  -21.6861   -6.0735   22.5283 C   0  0  0  0  0  0
  -21.3996   -6.5647   23.8213 C   0  0  0  0  0  0
  -21.3645   -5.6804   24.9181 C   0  0  0  0  0  0
  -21.6064   -4.3070   24.7243 C   0  0  0  0  0  0
  -21.8831   -3.8145   23.4375 C   0  0  0  0  0  0
  -21.9197   -4.6956   22.3420 C   0  0  0  0  0  0
  -22.7878  -13.5222   21.1850 C   0  0  0  0  0  0
  -22.1668   -4.2142   21.0993 F   0  0  0  0  0  0
  -21.5620   -3.4554   25.7751 F   0  0  0  0  0  0
  -29.9759  -13.5569   20.3132 N   0  0  0  0  0  0
  -26.2978  -12.9336   20.3337 N   0  0  0  0  0  0
  -25.9352  -11.6515   20.5906 N   0  0  0  0  0  0
  -22.0527  -12.8156   22.0391 N   0  0  0  0  0  0
  -25.4275  -15.1891   20.4027 N   0  0  0  0  0  0
  -31.8363  -14.8227   20.2553 O   0  0  0  0  0  0
  -21.6647   -6.8873   21.4235 O   0  0  0  0  0  0
  -22.3572  -14.5537   20.6749 O   0  0  0  0  0  0
  -24.6296  -31.8557   23.1826 C   0  0  0  0  0  0
  -25.9111  -32.4755   23.8140 C   0  0  1  0  0  0
  -27.2119  -27.2447   20.1460 C   0  0  0  0  0  0
  -25.5927  -33.8538   24.2127 N   0  0  0  0  0  0
  -23.4244  -30.4701   21.5369 C   0  0  2  0  0  0
  -24.8709  -28.9119   20.1110 C   0  0  0  0  0  0
  -22.7513  -29.4574   22.4955 C   0  0  0  0  0  0
  -18.0291  -28.1381   22.8484 C   0  0  0  0  0  0
  -24.1536  -36.7283   23.2637 C   0  0  0  0  0  0
  -25.9671  -30.7674   21.3546 C   0  0  0  0  0  0
  -26.0430  -29.3809   20.7171 C   0  0  0  0  0  0
  -27.2184  -28.5606   20.7238 C   0  0  0  0  0  0
  -26.0148  -26.8481   19.5083 C   0  0  0  0  0  0
  -24.8639  -27.6546   19.4969 C   0  0  0  0  0  0
  -23.6342  -29.7881   20.1580 C   0  0  0  0  0  0
  -25.4169  -36.3078   24.0300 C   0  0  1  0  0  0
  -20.5887  -28.3653   23.1352 C   0  0  2  0  0  0
  -20.6798  -26.9377   22.5458 C   0  0  0  0  0  0
  -19.5786  -26.6371   21.5260 C   0  0  0  0  0  0
  -18.1940  -26.7917   22.1618 C   0  0  0  0  0  0
  -19.1543  -28.8835   23.2889 C   0  0  0  0  0  0
  -18.9457  -30.1449   23.8873 C   0  0  0  0  0  0
  -17.6464  -30.6590   24.0554 C   0  0  0  0  0  0
  -25.9103  -34.9449   23.5040 C   0  0  0  0  0  0
  -16.5356  -29.9073   23.6356 C   0  0  0  0  0  0
  -16.7273  -28.6512   23.0333 C   0  0  0  0  0  0
  -26.4430  -31.6538   25.0523 C   0  0  0  0  0  0
  -25.3577  -31.3683   26.1190 C   0  0  0  0  0  0
  -27.0205  -30.2984   24.5870 C   0  0  0  0  0  0
  -27.6024  -32.4196   25.7280 C   0  0  0  0  0  0
  -27.5601  -37.1791   24.8477 C   0  0  0  0  0  0
  -21.4216  -29.3001   22.3738 N   0  0  0  0  0  0
  -26.4340  -37.3775   23.9402 N   0  0  0  0  0  0
  -24.6936  -31.0488   22.0832 N   0  0  0  0  0  0
  -23.4246  -28.8134   23.3044 O   0  0  0  0  0  0
  -28.3010  -26.3422   20.2054 O   0  0  0  0  0  0
  -26.5713  -34.8956   22.4638 O   0  0  0  0  0  0
  -23.5475  -32.1364   23.7170 O   0  0  0  0  0  0
  -29.0123  -18.2756   22.7579 C   0  0  0  0  0  0
  -29.0480  -19.5716   22.1972 C   0  0  0  0  0  0
  -29.2952  -17.1207   21.9975 C   0  0  0  0  0  0
  -29.4055  -19.7820   20.8458 C   0  0  0  0  0  0
  -29.6805  -17.2047   20.6431 C   0  0  0  0  0  0
  -29.7775  -18.5754   20.1095 C   0  0  0  0  0  0
  -28.8565  -22.2151   20.6826 C   0  0  0  0  0  0
  -29.7491  -15.9309   18.4374 C   0  0  0  0  0  0
  -31.7850  -18.6781   18.9628 C   0  0  0  0  0  0
  -29.1888  -23.7542   20.3549 C   0  0  0  0  0  0
  -28.0160  -24.8613   20.3136 C   0  0  0  0  0  0
  -29.5522  -21.1448   20.3317 N   0  0  0  0  0  0
  -29.8906  -15.9091   19.9113 N   0  0  0  0  0  0
  -30.3693  -18.7971   18.8967 O   0  0  0  0  0  0
  -31.4656  -12.6286   19.0888 H   0  0  0  0  0  0
  -30.4500  -11.5122   19.9573 H   0  0  0  0  0  0
  -29.7527  -11.5693   17.5762 H   0  0  0  0  0  0
  -29.6409  -13.2890   17.5774 H   0  0  0  0  0  0
  -27.8742  -11.2536   18.9488 H   0  0  0  0  0  0
  -27.3527  -12.4564   17.8018 H   0  0  0  0  0  0
  -27.6006  -14.2320   19.4371 H   0  0  0  0  0  0
  -28.7743  -12.2031   21.3976 H   0  0  0  0  0  0
  -28.4614  -13.8954   21.7420 H   0  0  0  0  0  0
  -25.2780   -9.5685   22.4734 H   0  0  0  0  0  0
  -24.0028   -7.4642   22.7473 H   0  0  0  0  0  0
  -21.0852   -8.8782   19.8940 H   0  0  0  0  0  0
  -22.3725  -10.9667   19.6164 H   0  0  0  0  0  0
  -21.1967   -7.6151   23.9718 H   0  0  0  0  0  0
  -21.1447   -6.0524   25.9085 H   0  0  0  0  0  0
  -22.0622   -2.7609   23.2878 H   0  0  0  0  0  0
  -22.4137  -11.9728   22.4605 H   0  0  0  0  0  0
  -21.1148  -13.1138   22.2625 H   0  0  0  0  0  0
  -24.6546  -15.8412   20.4840 H   0  0  0  0  0  0
  -26.2972  -15.6329   20.1282 H   0  0  0  0  0  0
  -26.7127  -32.5427   23.0801 H   0  0  0  0  0  0
  -25.0006  -33.9569   25.0239 H   0  0  0  0  0  0
  -22.7202  -31.2902   21.3834 H   0  0  0  0  0  0
  -23.3826  -35.9587   23.3314 H   0  0  0  0  0  0
  -24.3670  -36.8907   22.2064 H   0  0  0  0  0  0
  -23.7236  -37.6460   23.6665 H   0  0  0  0  0  0
  -26.0862  -31.5046   20.5581 H   0  0  0  0  0  0
  -26.8566  -30.8491   21.9646 H   0  0  0  0  0  0
  -28.1149  -28.9151   21.2125 H   0  0  0  0  0  0
  -25.9260  -25.8914   19.0217 H   0  0  0  0  0  0
  -23.9628  -27.2814   19.0311 H   0  0  0  0  0  0
  -23.7306  -30.5484   19.3837 H   0  0  0  0  0  0
  -22.7585  -29.1961   19.8773 H   0  0  0  0  0  0
  -25.1326  -36.1906   25.0775 H   0  0  0  0  0  0
  -20.9933  -28.3212   24.1502 H   0  0  0  0  0  0
  -20.5834  -26.2176   23.3605 H   0  0  0  0  0  0
  -21.6630  -26.7491   22.1154 H   0  0  0  0  0  0
  -19.6970  -25.6303   21.1238 H   0  0  0  0  0  0
  -19.6773  -27.3224   20.6839 H   0  0  0  0  0  0
  -17.4227  -26.6693   21.3997 H   0  0  0  0  0  0
  -18.0305  -26.0063   22.9007 H   0  0  0  0  0  0
  -19.7950  -30.7283   24.2196 H   0  0  0  0  0  0
  -17.5029  -31.6282   24.5128 H   0  0  0  0  0  0
  -15.5353  -30.2958   23.7732 H   0  0  0  0  0  0
  -15.8667  -28.0861   22.7000 H   0  0  0  0  0  0
  -24.5871  -30.6909   25.7459 H   0  0  0  0  0  0
  -24.8572  -32.2830   26.4402 H   0  0  0  0  0  0
  -25.7805  -30.9000   27.0083 H   0  0  0  0  0  0
  -26.2671  -29.6773   24.1037 H   0  0  0  0  0  0
  -27.4138  -29.7160   25.4189 H   0  0  0  0  0  0
  -27.8415  -30.4298   23.8844 H   0  0  0  0  0  0
  -27.2737  -33.3634   26.1617 H   0  0  0  0  0  0
  -28.3916  -32.6483   25.0110 H   0  0  0  0  0  0
  -28.0507  -31.8388   26.5338 H   0  0  0  0  0  0
  -28.2583  -38.0118   24.7591 H   0  0  0  0  0  0
  -28.1111  -36.2654   24.6227 H   0  0  0  0  0  0
  -27.2335  -37.1348   25.8877 H   0  0  0  0  0  0
  -20.9423  -29.8703   21.6904 H   0  0  0  0  0  0
  -26.0260  -38.2844   24.1439 H   0  0  0  0  0  0
  -28.7776  -18.1647   23.8068 H   0  0  0  0  0  0
  -28.8637  -20.4149   22.8512 H   0  0  0  0  0  0
  -29.2163  -16.1570   22.4779 H   0  0  0  0  0  0
  -27.9596  -22.1241   21.3000 H   0  0  0  0  0  0
  -28.9754  -15.2466   18.1021 H   0  0  0  0  0  0
  -30.6734  -15.6266   17.9400 H   0  0  0  0  0  0
  -29.4491  -16.8810   18.0091 H   0  0  0  0  0  0
  -32.1563  -18.3904   19.9521 H   0  0  0  0  0  0
  -32.2398  -19.6326   18.6998 H   0  0  0  0  0  0
  -32.1262  -17.9335   18.2460 H   0  0  0  0  0  0
  -29.7135  -23.7942   19.4038 H   0  0  0  0  0  0
  -29.9079  -24.0802   21.1073 H   0  0  0  0  0  0
  -27.3936  -24.5492   19.4793 H   0  0  0  0  0  0
  -27.4030  -24.7284   21.2063 H   0  0  0  0  0  0
  1 25  1  0  0  0
  1 30  2  0  0  0
  1 83  1  0  0  0
  2  3  1  0  0  0
  2 25  1  0  0  0
  2 85  1  0  0  0
  2 86  1  0  0  0
  3  4  1  0  0  0
  3 87  1  0  0  0
  3 88  1  0  0  0
  4  5  1  0  0  0
  4 89  1  0  0  0
  4 90  1  0  0  0
  5  6  1  0  0  0
  5 26  1  0  0  0
  5 91  1  0  0  0
  6 25  1  0  0  0
  6 92  1  0  0  0
  6 93  1  0  0  0
  7  8  2  0  0  0
  7 26  1  0  0  0
  7 29  1  0  0  0
  8  9  1  0  0  0
  8 22  1  0  0  0
  9 10  1  0  0  0
  9 27  2  0  0  0
 10 11  2  0  0  0
 10 15  1  0  0  0
 11 12  1  0  0  0
 11 94  1  0  0  0
 12 13  2  0  0  0
 12 95  1  0  0  0
 13 14  1  0  0  0
 13 31  1  0  0  0
 14 15  2  0  0  0
 14 96  1  0  0  0
 15 97  1  0  0  0
 16 17  2  0  0  0
 16 21  1  0  0  0
 16 31  1  0  0  0
 17 18  1  0  0  0
 17 98  1  0  0  0
 18 19  2  0  0  0
 18 99  1  0  0  0
 19 20  1  0  0  0
 19 24  1  0  0  0
 20 21  2  0  0  0
 20100  1  0  0  0
 21 23  1  0  0  0
 22 28  1  0  0  0
 22 32  2  0  0  0
 26 27  1  0  0  0
 28101  1  0  0  0
 28102  1  0  0  0
 29103  1  0  0  0
 29104  1  0  0  0
 33 34  1  0  0  0
 33 66  1  0  0  0
 33 70  2  0  0  0
 34 36  1  0  0  0
 34 59  1  0  0  0
 34105  1  0  0  0
 35 44  2  0  0  0
 35 45  1  0  0  0
 35 68  1  0  0  0
 36 56  1  0  0  0
 36106  1  0  0  0
 37 39  1  0  0  0
 37 47  1  0  0  0
 37 66  1  0  0  0
 37107  1  0  0  0
 38 43  2  0  0  0
 38 46  1  0  0  0
 38 47  1  0  0  0
 39 64  1  0  0  0
 39 67  2  0  0  0
 40 52  1  0  0  0
 40 53  2  0  0  0
 40 58  1  0  0  0
 41108  1  0  0  0
 41109  1  0  0  0
 41110  1  0  0  0
 41 48  1  0  0  0
 42 43  1  0  0  0
 42 66  1  0  0  0
 42111  1  0  0  0
 42112  1  0  0  0
 43 44  1  0  0  0
 44113  1  0  0  0
 45 46  2  0  0  0
 45114  1  0  0  0
 46115  1  0  0  0
 47116  1  0  0  0
 47117  1  0  0  0
 48 56  1  0  0  0
 48 65  1  0  0  0
 48118  1  0  0  0
 49 50  1  0  0  0
 49 53  1  0  0  0
 49 64  1  0  0  0
 49119  1  0  0  0
 50 51  1  0  0  0
 50120  1  0  0  0
 50121  1  0  0  0
 51 52  1  0  0  0
 51122  1  0  0  0
 51123  1  0  0  0
 52124  1  0  0  0
 52125  1  0  0  0
 53 54  1  0  0  0
 54 55  2  0  0  0
 54126  1  0  0  0
 55 57  1  0  0  0
 55127  1  0  0  0
 56 69  2  0  0  0
 57 58  2  0  0  0
 57128  1  0  0  0
 58129  1  0  0  0
 59 60  1  0  0  0
 59 61  1  0  0  0
 59 62  1  0  0  0
 60130  1  0  0  0
 60131  1  0  0  0
 60132  1  0  0  0
 61133  1  0  0  0
 61134  1  0  0  0
 61135  1  0  0  0
 62136  1  0  0  0
 62137  1  0  0  0
 62138  1  0  0  0
 63 65  1  0  0  0
 63139  1  0  0  0
 63140  1  0  0  0
 63141  1  0  0  0
 64142  1  0  0  0
 65143  1  0  0  0
 68 81  1  0  0  0
 71 72  2  0  0  0
 71 73  1  0  0  0
 71144  1  0  0  0
 72 74  1  0  0  0
 72145  1  0  0  0
 73 75  2  0  0  0
 73146  1  0  0  0
 74 76  2  0  0  0
 74 82  1  0  0  0
 75 76  1  0  0  0
 75 83  1  0  0  0
 76 84  1  0  0  0
 77 80  1  0  0  0
 77 82  2  0  0  0
 77147  1  0  0  0
 78 83  1  0  0  0
 78148  1  0  0  0
 78149  1  0  0  0
 78150  1  0  0  0
 79 84  1  0  0  0
 79151  1  0  0  0
 79152  1  0  0  0
 79153  1  0  0  0
 80 81  1  0  0  0
 80154  1  0  0  0
 80155  1  0  0  0
 81156  1  0  0  0
 81157  1  0  0  0
M  ISO  4   1 100  68 101  81 101  83 100
M  END
> <chiral flag>
0

> <version>
0

> <s_m_source_file>
/data/baiqing/PycharmProjects/Reinvent-master-3.2/result/LINK_invent/BTK/process_docking_weight1_custom_product_contain_oxygen_bond_distance_aromatic_linkinvent_7_9_3/rearranged_h_0107.sdf

> <i_m_source_file_index>
48

> <r_mmod_Potential_Energy-OPLS-2005>
423.034637451172

> <r_mmod_Stretch_Energy-OPLS-2005>
140.04931640625

> <r_mmod_Bend_Energy-OPLS-2005>
171.307342529297

> <r_mmod_Torsional_Energy-OPLS-2005>
354.064056396484

> <r_mmod_Improper_Torsional_Energy-OPLS-2005>
21.729434967041

> <r_mmod_Van_der_Waal_Energy-OPLS-2005>
149.069290161133

> <r_mmod_Electrostatic_Energy-OPLS-2005>
-315.407531738281

> <r_mmod_Solvation_Energy-OPLS-2005>
-208.149993896484

> <b_mmod_Minimization_Converged-OPLS-2005>
0

> <r_mmod_RMS_Derivative-OPLS-2005>
6.38829565048218

$$$$
48
                    3D
 Structure written by MMmdl.
154162  0  0  1  0            999 V2000
  -30.5616  -15.0135   20.4287 C   0  0  0  0  0  0
  -30.4233  -12.6393   19.5085 C   0  0  0  0  0  0
  -29.5169  -12.5422   18.2621 C   0  0  0  0  0  0
  -28.0545  -12.3160   18.6822 C   0  0  0  0  0  0
  -27.6188  -13.2638   19.8301 C   0  0  2  0  0  0
  -28.6582  -13.3470   20.9671 C   0  0  0  0  0  0
  -25.2410  -13.8246   20.5703 C   0  0  0  0  0  0
  -24.1747  -13.0445   20.9219 C   0  0  0  0  0  0
  -24.6395  -11.6933   20.8752 C   0  0  0  0  0  0
  -23.9096  -10.4293   21.0421 C   0  0  0  0  0  0
  -24.3639   -9.4207   21.9199 C   0  0  0  0  0  0
  -23.6306   -8.2247   22.0767 C   0  0  0  0  0  0
  -22.4291   -8.0284   21.3557 C   0  0  0  0  0  0
  -21.9927   -9.0260   20.4660 C   0  0  0  0  0  0
  -22.7267  -10.2134   20.3069 C   0  0  0  0  0  0
  -21.6848   -6.0745   22.5284 C   0  0  0  0  0  0
  -21.4011   -6.5649   23.8219 C   0  0  0  0  0  0
  -21.3658   -5.6803   24.9181 C   0  0  0  0  0  0
  -21.6034   -4.3063   24.7224 C   0  0  0  0  0  0
  -21.8813   -3.8156   23.4346 C   0  0  0  0  0  0
  -21.9188   -4.6973   22.3405 C   0  0  0  0  0  0
  -22.7769  -13.5200   21.1889 C   0  0  0  0  0  0
  -22.1658   -4.2170   21.0976 F   0  0  0  0  0  0
  -21.5630   -3.4537   25.7730 F   0  0  0  0  0  0
  -29.9226  -13.7678   20.3558 N   0  0  0  0  0  0
  -26.2836  -12.9504   20.3227 N   0  0  0  0  0  0
  -25.9331  -11.6617   20.5733 N   0  0  0  0  0  0
  -22.0419  -12.8190   22.0448 N   0  0  0  0  0  0
  -25.4066  -15.1977   20.4106 N   0  0  0  0  0  0
  -31.7689  -14.9967   20.1490 O   0  0  0  0  0  0
  -21.6651   -6.8886   21.4243 O   0  0  0  0  0  0
  -22.3464  -14.5525   20.6753 O   0  0  0  0  0  0
  -24.6482  -31.8398   23.1849 C   0  0  0  0  0  0
  -25.9237  -32.4677   23.8235 C   0  0  1  0  0  0
  -27.2062  -27.0821   20.1539 C   0  0  0  0  0  0
  -25.5975  -33.8489   24.2161 N   0  0  0  0  0  0
  -23.4533  -30.4595   21.5301 C   0  0  2  0  0  0
  -24.9023  -28.8805   20.1059 C   0  0  0  0  0  0
  -22.7582  -29.4530   22.4823 C   0  0  0  0  0  0
  -18.0309  -28.1396   22.8477 C   0  0  0  0  0  0
  -24.1491  -36.7246   23.2638 C   0  0  0  0  0  0
  -26.0141  -30.6949   21.3916 C   0  0  0  0  0  0
  -26.0821  -29.3023   20.7323 C   0  0  0  0  0  0
  -27.2338  -28.4188   20.7416 C   0  0  0  0  0  0
  -26.0060  -26.7838   19.4717 C   0  0  0  0  0  0
  -24.8814  -27.6372   19.4583 C   0  0  0  0  0  0
  -23.6827  -29.7899   20.1495 C   0  0  0  0  0  0
  -25.4126  -36.3024   24.0303 C   0  0  1  0  0  0
  -20.5927  -28.3730   23.1220 C   0  0  2  0  0  0
  -20.6790  -26.9426   22.5399 C   0  0  0  0  0  0
  -19.5763  -26.6376   21.5211 C   0  0  0  0  0  0
  -18.1948  -26.7936   22.1624 C   0  0  0  0  0  0
  -19.1565  -28.8880   23.2846 C   0  0  0  0  0  0
  -18.9480  -30.1479   23.8869 C   0  0  0  0  0  0
  -17.6477  -30.6593   24.0560 C   0  0  0  0  0  0
  -25.9079  -34.9405   23.5038 C   0  0  0  0  0  0
  -16.5367  -29.9082   23.6342 C   0  0  0  0  0  0
  -16.7292  -28.6501   23.0364 C   0  0  0  0  0  0
  -26.4542  -31.6566   25.0699 C   0  0  0  0  0  0
  -25.3701  -31.3779   26.1374 C   0  0  0  0  0  0
  -27.0412  -30.2952   24.6323 C   0  0  0  0  0  0
  -27.6059  -32.4342   25.7496 C   0  0  0  0  0  0
  -27.5580  -37.1782   24.8463 C   0  0  0  0  0  0
  -21.4269  -29.3058   22.3587 N   0  0  0  0  0  0
  -26.4287  -37.3741   23.9406 N   0  0  0  0  0  0
  -24.7256  -31.0203   22.0902 N   0  0  0  0  0  0
  -23.4209  -28.8065   23.2976 O   0  0  0  0  0  0
  -28.2220  -26.0446   20.2485 O   0  0  0  0  0  0
  -26.5665  -34.8907   22.4615 O   0  0  0  0  0  0
  -23.5591  -32.1295   23.7043 O   0  0  0  0  0  0
  -28.6179  -18.9670   18.4268 C   0  0  0  0  0  0
  -29.1192  -18.8750   19.7043 C   0  0  0  0  0  0
  -29.3998  -17.3400   19.7525 C   0  0  0  0  0  0
  -28.7834  -23.1879   20.4449 C   0  0  0  0  0  0
  -28.1228  -17.4227   16.4767 C   0  0  0  0  0  0
  -30.2170  -16.8108   22.0575 C   0  0  0  0  0  0
  -28.5368  -21.6072   19.9157 C   0  0  0  0  0  0
  -27.9023  -24.5277   19.9313 C   0  0  0  0  0  0
  -29.0394  -16.7749   18.6056 N   0  0  0  0  0  0
  -28.5820  -17.7451   17.8121 N   0  0  0  0  0  0
  -29.1832  -20.2397   20.4329 N   0  0  0  0  0  0
  -29.9212  -16.2798   20.7271 N   0  0  0  0  0  0
  -29.6741  -23.3642   21.2833 O   0  0  0  0  0  0
  -31.4582  -12.7824   19.1942 H   0  0  0  0  0  0
  -30.4129  -11.7037   20.0699 H   0  0  0  0  0  0
  -29.8536  -11.7330   17.6130 H   0  0  0  0  0  0
  -29.5954  -13.4623   17.6787 H   0  0  0  0  0  0
  -27.9636  -11.2788   19.0074 H   0  0  0  0  0  0
  -27.3888  -12.4255   17.8257 H   0  0  0  0  0  0
  -27.5642  -14.2549   19.3792 H   0  0  0  0  0  0
  -28.7628  -12.3906   21.4808 H   0  0  0  0  0  0
  -28.3437  -14.0762   21.7164 H   0  0  0  0  0  0
  -25.2779   -9.5685   22.4783 H   0  0  0  0  0  0
  -24.0017   -7.4627   22.7478 H   0  0  0  0  0  0
  -21.0868   -8.8774   19.8954 H   0  0  0  0  0  0
  -22.3731  -10.9675   19.6180 H   0  0  0  0  0  0
  -21.2007   -7.6159   23.9729 H   0  0  0  0  0  0
  -21.1496   -6.0535   25.9091 H   0  0  0  0  0  0
  -22.0602   -2.7624   23.2837 H   0  0  0  0  0  0
  -22.4033  -11.9862   22.4860 H   0  0  0  0  0  0
  -21.1039  -13.1234   22.2676 H   0  0  0  0  0  0
  -24.6325  -15.8455   20.5118 H   0  0  0  0  0  0
  -26.2562  -15.6387   20.0806 H   0  0  0  0  0  0
  -26.7301  -32.5266   23.0951 H   0  0  0  0  0  0
  -25.0135  -33.9595   25.0320 H   0  0  0  0  0  0
  -22.7590  -31.2883   21.3749 H   0  0  0  0  0  0
  -23.3768  -35.9565   23.3279 H   0  0  0  0  0  0
  -24.3570  -36.8903   22.2058 H   0  0  0  0  0  0
  -23.7229  -37.6425   23.6691 H   0  0  0  0  0  0
  -26.1772  -31.4470   20.6180 H   0  0  0  0  0  0
  -26.8823  -30.7462   22.0372 H   0  0  0  0  0  0
  -28.1265  -28.7335   21.2629 H   0  0  0  0  0  0
  -25.8965  -25.8396   18.9587 H   0  0  0  0  0  0
  -23.9855  -27.3148   18.9455 H   0  0  0  0  0  0
  -23.8221  -30.5651   19.3957 H   0  0  0  0  0  0
  -22.7955  -29.2365   19.8381 H   0  0  0  0  0  0
  -25.1317  -36.1840   25.0794 H   0  0  0  0  0  0
  -21.0034  -28.3324   24.1333 H   0  0  0  0  0  0
  -20.5681  -26.2339   23.3621 H   0  0  0  0  0  0
  -21.6654  -26.7416   22.1197 H   0  0  0  0  0  0
  -19.6917  -25.6275   21.1270 H   0  0  0  0  0  0
  -19.6706  -27.3161   20.6725 H   0  0  0  0  0  0
  -17.4216  -26.6692   21.4032 H   0  0  0  0  0  0
  -18.0342  -26.0078   22.9022 H   0  0  0  0  0  0
  -19.7954  -30.7312   24.2220 H   0  0  0  0  0  0
  -17.5023  -31.6272   24.5163 H   0  0  0  0  0  0
  -15.5368  -30.2975   23.7673 H   0  0  0  0  0  0
  -15.8696  -28.0810   22.7091 H   0  0  0  0  0  0
  -24.5887  -30.7122   25.7682 H   0  0  0  0  0  0
  -24.8879  -32.2974   26.4709 H   0  0  0  0  0  0
  -25.7950  -30.9002   27.0209 H   0  0  0  0  0  0
  -26.3033  -29.6667   24.1322 H   0  0  0  0  0  0
  -27.3993  -29.7269   25.4920 H   0  0  0  0  0  0
  -27.8960  -30.4170   23.9663 H   0  0  0  0  0  0
  -27.2640  -33.3670   26.1992 H   0  0  0  0  0  0
  -28.3915  -32.6863   25.0359 H   0  0  0  0  0  0
  -28.0673  -31.8518   26.5479 H   0  0  0  0  0  0
  -28.2581  -38.0101   24.7526 H   0  0  0  0  0  0
  -28.1094  -36.2624   24.6267 H   0  0  0  0  0  0
  -27.2294  -37.1397   25.8867 H   0  0  0  0  0  0
  -20.9466  -29.8784   21.6791 H   0  0  0  0  0  0
  -26.0151  -38.2803   24.1424 H   0  0  0  0  0  0
  -28.2733  -19.8258   17.8706 H   0  0  0  0  0  0
  -28.2423  -18.2883   15.8237 H   0  0  0  0  0  0
  -27.0696  -17.1456   16.5053 H   0  0  0  0  0  0
  -28.6987  -16.5936   16.0630 H   0  0  0  0  0  0
  -29.3002  -17.1721   22.5273 H   0  0  0  0  0  0
  -30.9113  -17.6511   21.9863 H   0  0  0  0  0  0
  -30.6593  -16.0656   22.7235 H   0  0  0  0  0  0
  -28.7573  -21.6672   18.8500 H   0  0  0  0  0  0
  -27.4568  -21.4670   19.9671 H   0  0  0  0  0  0
  -26.8926  -24.3397   20.2964 H   0  0  0  0  0  0
  -27.8326  -24.4428   18.8468 H   0  0  0  0  0  0
  -29.5202  -20.2686   21.3934 H   0  0  0  0  0  0
  1 25  1  0  0  0
  1 30  2  0  0  0
  1 82  1  0  0  0
  2  3  1  0  0  0
  2 25  1  0  0  0
  2 84  1  0  0  0
  2 85  1  0  0  0
  3  4  1  0  0  0
  3 86  1  0  0  0
  3 87  1  0  0  0
  4  5  1  0  0  0
  4 88  1  0  0  0
  4 89  1  0  0  0
  5  6  1  0  0  0
  5 26  1  0  0  0
  5 90  1  0  0  0
  6 25  1  0  0  0
  6 91  1  0  0  0
  6 92  1  0  0  0
  7  8  2  0  0  0
  7 26  1  0  0  0
  7 29  1  0  0  0
  8  9  1  0  0  0
  8 22  1  0  0  0
  9 10  1  0  0  0
  9 27  2  0  0  0
 10 11  2  0  0  0
 10 15  1  0  0  0
 11 12  1  0  0  0
 11 93  1  0  0  0
 12 13  2  0  0  0
 12 94  1  0  0  0
 13 14  1  0  0  0
 13 31  1  0  0  0
 14 15  2  0  0  0
 14 95  1  0  0  0
 15 96  1  0  0  0
 16 17  2  0  0  0
 16 21  1  0  0  0
 16 31  1  0  0  0
 17 18  1  0  0  0
 17 97  1  0  0  0
 18 19  2  0  0  0
 18 98  1  0  0  0
 19 20  1  0  0  0
 19 24  1  0  0  0
 20 21  2  0  0  0
 20 99  1  0  0  0
 21 23  1  0  0  0
 22 28  1  0  0  0
 22 32  2  0  0  0
 26 27  1  0  0  0
 28100  1  0  0  0
 28101  1  0  0  0
 29102  1  0  0  0
 29103  1  0  0  0
 33 34  1  0  0  0
 33 66  1  0  0  0
 33 70  2  0  0  0
 34 36  1  0  0  0
 34 59  1  0  0  0
 34104  1  0  0  0
 35 44  2  0  0  0
 35 45  1  0  0  0
 35 68  1  0  0  0
 36 56  1  0  0  0
 36105  1  0  0  0
 37 39  1  0  0  0
 37 47  1  0  0  0
 37 66  1  0  0  0
 37106  1  0  0  0
 38 43  2  0  0  0
 38 46  1  0  0  0
 38 47  1  0  0  0
 39 64  1  0  0  0
 39 67  2  0  0  0
 40 52  1  0  0  0
 40 53  2  0  0  0
 40 58  1  0  0  0
 41107  1  0  0  0
 41108  1  0  0  0
 41109  1  0  0  0
 41 48  1  0  0  0
 42 43  1  0  0  0
 42 66  1  0  0  0
 42110  1  0  0  0
 42111  1  0  0  0
 43 44  1  0  0  0
 44112  1  0  0  0
 45 46  2  0  0  0
 45113  1  0  0  0
 46114  1  0  0  0
 47115  1  0  0  0
 47116  1  0  0  0
 48 56  1  0  0  0
 48 65  1  0  0  0
 48117  1  0  0  0
 49 50  1  0  0  0
 49 53  1  0  0  0
 49 64  1  0  0  0
 49118  1  0  0  0
 50 51  1  0  0  0
 50119  1  0  0  0
 50120  1  0  0  0
 51 52  1  0  0  0
 51121  1  0  0  0
 51122  1  0  0  0
 52123  1  0  0  0
 52124  1  0  0  0
 53 54  1  0  0  0
 54 55  2  0  0  0
 54125  1  0  0  0
 55 57  1  0  0  0
 55126  1  0  0  0
 56 69  2  0  0  0
 57 58  2  0  0  0
 57127  1  0  0  0
 58128  1  0  0  0
 59 60  1  0  0  0
 59 61  1  0  0  0
 59 62  1  0  0  0
 60129  1  0  0  0
 60130  1  0  0  0
 60131  1  0  0  0
 61132  1  0  0  0
 61133  1  0  0  0
 61134  1  0  0  0
 62135  1  0  0  0
 62136  1  0  0  0
 62137  1  0  0  0
 63 65  1  0  0  0
 63138  1  0  0  0
 63139  1  0  0  0
 63140  1  0  0  0
 64141  1  0  0  0
 65142  1  0  0  0
 68 78  1  0  0  0
 71 72  2  0  0  0
 71 80  1  0  0  0
 71143  1  0  0  0
 72 73  1  0  0  0
 72 81  1  0  0  0
 73 79  2  0  0  0
 73 82  1  0  0  0
 74 77  1  0  0  0
 74 78  1  0  0  0
 74 83  2  0  0  0
 75 80  1  0  0  0
 75144  1  0  0  0
 75145  1  0  0  0
 75146  1  0  0  0
 76 82  1  0  0  0
 76147  1  0  0  0
 76148  1  0  0  0
 76149  1  0  0  0
 77 81  1  0  0  0
 77150  1  0  0  0
 77151  1  0  0  0
 78152  1  0  0  0
 78153  1  0  0  0
 79 80  1  0  0  0
 81154  1  0  0  0
M  ISO  4   1 100  68 101  78 101  82 100
M  END
> <chiral flag>
0

> <version>
0

> <s_m_source_file>
/data/baiqing/PycharmProjects/Reinvent-master-3.2/result/LINK_invent/BTK/process_docking_weight1_custom_product_contain_oxygen_bond_distance_aromatic_linkinvent_7_9_3/rearranged_h_0107.sdf

> <i_m_source_file_index>
49

> <r_mmod_Potential_Energy-OPLS-2005>
844.283203125

> <r_mmod_Stretch_Energy-OPLS-2005>
340.916809082031

> <r_mmod_Bend_Energy-OPLS-2005>
345.427764892578

> <r_mmod_Torsional_Energy-OPLS-2005>
265.017761230469

> <r_mmod_Improper_Torsional_Energy-OPLS-2005>
3.46598887443542

> <r_mmod_Van_der_Waal_Energy-OPLS-2005>
110.186637878418

> <r_mmod_Electrostatic_Energy-OPLS-2005>
-218.228744506836

> <r_mmod_Solvation_Energy-OPLS-2005>
-247.972473144531

> <b_mmod_Minimization_Converged-OPLS-2005>
0

> <r_mmod_RMS_Derivative-OPLS-2005>
1.78489375114441

$$$$
49
                    3D
 Structure written by MMmdl.
168177  0  0  1  0            999 V2000
  -30.7021  -14.5054   20.5696 C   0  0  0  0  0  0
  -30.4206  -12.3363   19.4184 C   0  0  0  0  0  0
  -29.4890  -12.5015   18.2006 C   0  0  0  0  0  0
  -28.0133  -12.3517   18.6193 C   0  0  0  0  0  0
  -27.6512  -13.2087   19.8606 C   0  0  2  0  0  0
  -28.6961  -13.0349   20.9843 C   0  0  0  0  0  0
  -25.2560  -13.8161   20.5664 C   0  0  0  0  0  0
  -24.1822  -13.0448   20.9176 C   0  0  0  0  0  0
  -24.6384  -11.6912   20.8745 C   0  0  0  0  0  0
  -23.9043  -10.4300   21.0420 C   0  0  0  0  0  0
  -24.3616   -9.4206   21.9185 C   0  0  0  0  0  0
  -23.6295   -8.2239   22.0755 C   0  0  0  0  0  0
  -22.4273   -8.0280   21.3550 C   0  0  0  0  0  0
  -21.9907   -9.0244   20.4645 C   0  0  0  0  0  0
  -22.7226  -10.2127   20.3054 C   0  0  0  0  0  0
  -21.6840   -6.0739   22.5275 C   0  0  0  0  0  0
  -21.4011   -6.5641   23.8214 C   0  0  0  0  0  0
  -21.3656   -5.6787   24.9175 C   0  0  0  0  0  0
  -21.6042   -4.3053   24.7220 C   0  0  0  0  0  0
  -21.8819   -3.8149   23.4343 C   0  0  0  0  0  0
  -21.9202   -4.6971   22.3400 C   0  0  0  0  0  0
  -22.7848  -13.5242   21.1832 C   0  0  0  0  0  0
  -22.1666   -4.2146   21.0980 F   0  0  0  0  0  0
  -21.5630   -3.4541   25.7738 F   0  0  0  0  0  0
  -30.0131  -13.3420   20.4110 N   0  0  0  0  0  0
  -26.2977  -12.9325   20.3308 N   0  0  0  0  0  0
  -25.9308  -11.6488   20.5757 N   0  0  0  0  0  0
  -22.0492  -12.8235   22.0409 N   0  0  0  0  0  0
  -25.4267  -15.1878   20.4020 N   0  0  0  0  0  0
  -31.8748  -14.6144   20.1991 O   0  0  0  0  0  0
  -21.6647   -6.8873   21.4239 O   0  0  0  0  0  0
  -22.3539  -14.5549   20.6693 O   0  0  0  0  0  0
  -24.6190  -31.8648   23.2121 C   0  0  0  0  0  0
  -25.9098  -32.4798   23.8406 C   0  0  1  0  0  0
  -27.2264  -27.4146   20.0974 C   0  0  0  0  0  0
  -25.5998  -33.8609   24.2361 N   0  0  0  0  0  0
  -23.4076  -30.4927   21.5509 C   0  0  2  0  0  0
  -24.8521  -28.9543   20.1188 C   0  0  0  0  0  0
  -22.7427  -29.4645   22.4959 C   0  0  0  0  0  0
  -18.0284  -28.1354   22.8485 C   0  0  0  0  0  0
  -24.1488  -36.7291   23.2634 C   0  0  0  0  0  0
  -25.9394  -30.8215   21.3705 C   0  0  0  0  0  0
  -26.0143  -29.4549   20.7174 C   0  0  0  0  0  0
  -27.2068  -28.6927   20.7061 C   0  0  0  0  0  0
  -26.0526  -26.9372   19.4801 C   0  0  0  0  0  0
  -24.8657  -27.6932   19.4976 C   0  0  0  0  0  0
  -23.6183  -29.8271   20.1658 C   0  0  0  0  0  0
  -25.4105  -36.3105   24.0337 C   0  0  1  0  0  0
  -20.5884  -28.3651   23.1301 C   0  0  2  0  0  0
  -20.6777  -26.9377   22.5416 C   0  0  0  0  0  0
  -19.5767  -26.6371   21.5211 C   0  0  0  0  0  0
  -18.1937  -26.7911   22.1602 C   0  0  0  0  0  0
  -19.1528  -28.8815   23.2901 C   0  0  0  0  0  0
  -18.9465  -30.1436   23.8890 C   0  0  0  0  0  0
  -17.6465  -30.6572   24.0559 C   0  0  0  0  0  0
  -25.9043  -34.9464   23.5119 C   0  0  0  0  0  0
  -16.5356  -29.9065   23.6329 C   0  0  0  0  0  0
  -16.7269  -28.6482   23.0339 C   0  0  0  0  0  0
  -26.4518  -31.6561   25.0724 C   0  0  0  0  0  0
  -25.3802  -31.3651   26.1479 C   0  0  0  0  0  0
  -27.0357  -30.3000   24.6124 C   0  0  0  0  0  0
  -27.6112  -32.4257   25.7471 C   0  0  0  0  0  0
  -27.5576  -37.1792   24.8468 C   0  0  0  0  0  0
  -21.4157  -29.3023   22.3689 N   0  0  0  0  0  0
  -26.4278  -37.3805   23.9422 N   0  0  0  0  0  0
  -24.6734  -31.0750   22.1013 N   0  0  0  0  0  0
  -23.4179  -28.8171   23.3007 O   0  0  0  0  0  0
  -28.3737  -26.6513   20.0388 O   0  0  0  0  0  0
  -26.5565  -34.8927   22.4662 O   0  0  0  0  0  0
  -23.5389  -32.1389   23.7512 O   0  0  0  0  0  0
  -29.2116  -19.8589   19.4084 C   0  0  0  0  0  0
  -28.4017  -20.0280   21.6826 C   0  0  0  0  0  0
  -29.6787  -18.0353   21.0035 C   0  0  0  0  0  0
  -29.7803  -18.5953   19.6964 C   0  0  0  0  0  0
  -28.5335  -20.5935   20.3991 C   0  0  0  0  0  0
  -28.9707  -18.7611   22.0050 C   0  0  0  0  0  0
  -26.4976  -24.1181   21.0524 C   0  0  0  0  0  0
  -27.7910  -24.2777   20.6970 C   0  0  0  0  0  0
  -25.7835  -22.8544   20.8306 C   0  0  0  0  0  0
  -30.4489  -16.7722   21.3513 C   0  0  0  0  0  0
  -26.4645  -21.7956   19.9621 C   0  0  0  0  0  0
  -28.6427  -23.1143   20.1253 C   0  0  2  0  0  0
  -30.5363  -17.8837   18.5800 C   0  0  0  0  0  0
  -29.1743  -23.4575   18.7245 C   0  0  0  0  0  0
  -28.0965  -18.8874   24.2519 C   0  0  0  0  0  0
  -28.5024  -25.6053   21.0245 C   0  0  0  0  0  0
  -27.9190  -21.8259   20.0909 N   0  0  0  0  0  0
  -29.9646  -15.5865   20.9205 N   0  0  0  0  0  0
  -24.6740  -22.6220   21.3168 O   0  0  0  0  0  0
  -31.5101  -16.8893   21.9757 O   0  0  0  0  0  0
  -28.8639  -18.2024   23.2645 O   0  0  0  0  0  0
  -31.4629  -12.4439   19.1100 H   0  0  0  0  0  0
  -30.3356  -11.3331   19.8398 H   0  0  0  0  0  0
  -29.7371  -11.7664   17.4331 H   0  0  0  0  0  0
  -29.6449  -13.4819   17.7461 H   0  0  0  0  0  0
  -27.8347  -11.2976   18.8311 H   0  0  0  0  0  0
  -27.3585  -12.6070   17.7850 H   0  0  0  0  0  0
  -27.6797  -14.2480   19.5352 H   0  0  0  0  0  0
  -28.6876  -12.0119   21.3644 H   0  0  0  0  0  0
  -28.4602  -13.6721   21.8390 H   0  0  0  0  0  0
  -25.2762   -9.5680   22.4760 H   0  0  0  0  0  0
  -23.9996   -7.4631   22.7474 H   0  0  0  0  0  0
  -21.0837   -8.8763   19.8949 H   0  0  0  0  0  0
  -22.3687  -10.9674   19.6164 H   0  0  0  0  0  0
  -21.1995   -7.6149   23.9710 H   0  0  0  0  0  0
  -21.1472   -6.0526   25.9074 H   0  0  0  0  0  0
  -22.0607   -2.7606   23.2846 H   0  0  0  0  0  0
  -22.4127  -11.9893   22.4775 H   0  0  0  0  0  0
  -21.1112  -13.1257   22.2617 H   0  0  0  0  0  0
  -24.6505  -15.8343   20.4849 H   0  0  0  0  0  0
  -26.2598  -15.6211   20.0286 H   0  0  0  0  0  0
  -26.7143  -32.5490   23.1147 H   0  0  0  0  0  0
  -25.0298  -33.9765   25.0608 H   0  0  0  0  0  0
  -22.7014  -31.3140   21.4103 H   0  0  0  0  0  0
  -23.3784  -35.9597   23.3294 H   0  0  0  0  0  0
  -24.3596  -36.8898   22.2055 H   0  0  0  0  0  0
  -23.7178  -37.6469   23.6630 H   0  0  0  0  0  0
  -26.0676  -31.5878   20.6040 H   0  0  0  0  0  0
  -26.8228  -30.8670   21.9948 H   0  0  0  0  0  0
  -28.1069  -29.0778   21.1621 H   0  0  0  0  0  0
  -26.0601  -25.9776   18.9801 H   0  0  0  0  0  0
  -23.9752  -27.3039   19.0231 H   0  0  0  0  0  0
  -23.7388  -30.6035   19.4095 H   0  0  0  0  0  0
  -22.7392  -29.2559   19.8588 H   0  0  0  0  0  0
  -25.1273  -36.1972   25.0825 H   0  0  0  0  0  0
  -20.9991  -28.3224   24.1422 H   0  0  0  0  0  0
  -20.5689  -26.2252   23.3607 H   0  0  0  0  0  0
  -21.6632  -26.7421   22.1183 H   0  0  0  0  0  0
  -19.6915  -25.6298   21.1219 H   0  0  0  0  0  0
  -19.6701  -27.3200   20.6769 H   0  0  0  0  0  0
  -17.4205  -26.6689   21.3997 H   0  0  0  0  0  0
  -18.0315  -26.0035   22.8980 H   0  0  0  0  0  0
  -19.7937  -30.7264   24.2223 H   0  0  0  0  0  0
  -17.5011  -31.6254   24.5170 H   0  0  0  0  0  0
  -15.5349  -30.2959   23.7657 H   0  0  0  0  0  0
  -15.8675  -28.0813   22.7031 H   0  0  0  0  0  0
  -24.6083  -30.6844   25.7862 H   0  0  0  0  0  0
  -24.8871  -32.2771   26.4851 H   0  0  0  0  0  0
  -25.8207  -30.8939   27.0277 H   0  0  0  0  0  0
  -26.2887  -29.6733   24.1222 H   0  0  0  0  0  0
  -27.4168  -29.7256   25.4589 H   0  0  0  0  0  0
  -27.8722  -30.4330   23.9253 H   0  0  0  0  0  0
  -27.2798  -33.3614   26.1988 H   0  0  0  0  0  0
  -28.3952  -32.6700   25.0288 H   0  0  0  0  0  0
  -28.0735  -31.8391   26.5420 H   0  0  0  0  0  0
  -28.2582  -38.0118   24.7574 H   0  0  0  0  0  0
  -28.1081  -36.2639   24.6211 H   0  0  0  0  0  0
  -27.2301  -37.1335   25.8881 H   0  0  0  0  0  0
  -20.9302  -29.8721   21.6893 H   0  0  0  0  0  0
  -26.0175  -38.2871   24.1501 H   0  0  0  0  0  0
  -29.2954  -20.2699   18.4126 H   0  0  0  0  0  0
  -27.8611  -20.6026   22.4190 H   0  0  0  0  0  0
  -25.9482  -24.9242   21.5136 H   0  0  0  0  0  0
  -26.1924  -21.9671   18.9198 H   0  0  0  0  0  0
  -26.0766  -20.8121   20.2329 H   0  0  0  0  0  0
  -29.4948  -22.9934   20.7972 H   0  0  0  0  0  0
  -30.5263  -18.4655   17.6587 H   0  0  0  0  0  0
  -30.0851  -16.9165   18.3554 H   0  0  0  0  0  0
  -31.5805  -17.7259   18.8547 H   0  0  0  0  0  0
  -28.3682  -23.5696   18.0003 H   0  0  0  0  0  0
  -29.8493  -22.6892   18.3488 H   0  0  0  0  0  0
  -29.7376  -24.3906   18.7302 H   0  0  0  0  0  0
  -28.0183  -18.2707   25.1472 H   0  0  0  0  0  0
  -27.0774  -19.0836   23.9123 H   0  0  0  0  0  0
  -28.5654  -19.8308   24.5409 H   0  0  0  0  0  0
  -29.5640  -25.4019   21.1692 H   0  0  0  0  0  0
  -28.1475  -25.9726   21.9912 H   0  0  0  0  0  0
  -28.9742  -15.5316   20.7618 H   0  0  0  0  0  0
  1 25  1  0  0  0
  1 30  2  0  0  0
  1 88  1  0  0  0
  2  3  1  0  0  0
  2 25  1  0  0  0
  2 92  1  0  0  0
  2 93  1  0  0  0
  3  4  1  0  0  0
  3 94  1  0  0  0
  3 95  1  0  0  0
  4  5  1  0  0  0
  4 96  1  0  0  0
  4 97  1  0  0  0
  5  6  1  0  0  0
  5 26  1  0  0  0
  5 98  1  0  0  0
  6 25  1  0  0  0
  6 99  1  0  0  0
  6100  1  0  0  0
  7  8  2  0  0  0
  7 26  1  0  0  0
  7 29  1  0  0  0
  8  9  1  0  0  0
  8 22  1  0  0  0
  9 10  1  0  0  0
  9 27  2  0  0  0
 10 11  2  0  0  0
 10 15  1  0  0  0
 11 12  1  0  0  0
 11101  1  0  0  0
 12 13  2  0  0  0
 12102  1  0  0  0
 13 14  1  0  0  0
 13 31  1  0  0  0
 14 15  2  0  0  0
 14103  1  0  0  0
 15104  1  0  0  0
 16 17  2  0  0  0
 16 21  1  0  0  0
 16 31  1  0  0  0
 17 18  1  0  0  0
 17105  1  0  0  0
 18 19  2  0  0  0
 18106  1  0  0  0
 19 20  1  0  0  0
 19 24  1  0  0  0
 20 21  2  0  0  0
 20107  1  0  0  0
 21 23  1  0  0  0
 22 28  1  0  0  0
 22 32  2  0  0  0
 26 27  1  0  0  0
 28108  1  0  0  0
 28109  1  0  0  0
 29110  1  0  0  0
 29111  1  0  0  0
 33 34  1  0  0  0
 33 66  1  0  0  0
 33 70  2  0  0  0
 34 36  1  0  0  0
 34 59  1  0  0  0
 34112  1  0  0  0
 35 44  2  0  0  0
 35 45  1  0  0  0
 35 68  1  0  0  0
 36 56  1  0  0  0
 36113  1  0  0  0
 37 39  1  0  0  0
 37 47  1  0  0  0
 37 66  1  0  0  0
 37114  1  0  0  0
 38 43  2  0  0  0
 38 46  1  0  0  0
 38 47  1  0  0  0
 39 64  1  0  0  0
 39 67  2  0  0  0
 40 52  1  0  0  0
 40 53  2  0  0  0
 40 58  1  0  0  0
 41115  1  0  0  0
 41116  1  0  0  0
 41117  1  0  0  0
 41 48  1  0  0  0
 42 43  1  0  0  0
 42 66  1  0  0  0
 42118  1  0  0  0
 42119  1  0  0  0
 43 44  1  0  0  0
 44120  1  0  0  0
 45 46  2  0  0  0
 45121  1  0  0  0
 46122  1  0  0  0
 47123  1  0  0  0
 47124  1  0  0  0
 48 56  1  0  0  0
 48 65  1  0  0  0
 48125  1  0  0  0
 49 50  1  0  0  0
 49 53  1  0  0  0
 49 64  1  0  0  0
 49126  1  0  0  0
 50 51  1  0  0  0
 50127  1  0  0  0
 50128  1  0  0  0
 51 52  1  0  0  0
 51129  1  0  0  0
 51130  1  0  0  0
 52131  1  0  0  0
 52132  1  0  0  0
 53 54  1  0  0  0
 54 55  2  0  0  0
 54133  1  0  0  0
 55 57  1  0  0  0
 55134  1  0  0  0
 56 69  2  0  0  0
 57 58  2  0  0  0
 57135  1  0  0  0
 58136  1  0  0  0
 59 60  1  0  0  0
 59 61  1  0  0  0
 59 62  1  0  0  0
 60137  1  0  0  0
 60138  1  0  0  0
 60139  1  0  0  0
 61140  1  0  0  0
 61141  1  0  0  0
 61142  1  0  0  0
 62143  1  0  0  0
 62144  1  0  0  0
 62145  1  0  0  0
 63 65  1  0  0  0
 63146  1  0  0  0
 63147  1  0  0  0
 63148  1  0  0  0
 64149  1  0  0  0
 65150  1  0  0  0
 68 86  1  0  0  0
 71 74  2  0  0  0
 71 75  1  0  0  0
 71151  1  0  0  0
 72 75  2  0  0  0
 72 76  1  0  0  0
 72152  1  0  0  0
 73 74  1  0  0  0
 73 76  2  0  0  0
 73 80  1  0  0  0
 74 83  1  0  0  0
 75 87  1  0  0  0
 76 91  1  0  0  0
 77 78  2  0  0  0
 77 79  1  0  0  0
 77153  1  0  0  0
 78 82  1  0  0  0
 78 86  1  0  0  0
 79 81  1  0  0  0
 79 89  2  0  0  0
 80 88  1  0  0  0
 80 90  2  0  0  0
 81 87  1  0  0  0
 81154  1  0  0  0
 81155  1  0  0  0
 82 84  1  0  0  0
 82 87  1  0  0  0
 82156  1  0  0  0
 83157  1  0  0  0
 83158  1  0  0  0
 83159  1  0  0  0
 84160  1  0  0  0
 84161  1  0  0  0
 84162  1  0  0  0
 85 91  1  0  0  0
 85163  1  0  0  0
 85164  1  0  0  0
 85165  1  0  0  0
 86166  1  0  0  0
 86167  1  0  0  0
 88168  1  0  0  0
M  ISO  4   1 100  68 101  86 101  88 100
M  END
> <chiral flag>
0

> <version>
0

> <s_m_source_file>
/data/baiqing/PycharmProjects/Reinvent-master-3.2/result/LINK_invent/BTK/process_docking_weight1_custom_product_contain_oxygen_bond_distance_aromatic_linkinvent_7_9_3/rearranged_h_0107.sdf

> <i_m_source_file_index>
50

> <r_mmod_Potential_Energy-OPLS-2005>
65.0430755615234

> <r_mmod_Stretch_Energy-OPLS-2005>
46.290096282959

> <r_mmod_Bend_Energy-OPLS-2005>
116.526611328125

> <r_mmod_Torsional_Energy-OPLS-2005>
317.016662597656

> <r_mmod_Improper_Torsional_Energy-OPLS-2005>
6.98953771591187

> <r_mmod_Van_der_Waal_Energy-OPLS-2005>
155.711273193359

> <r_mmod_Electrostatic_Energy-OPLS-2005>
-367.668670654297

> <r_mmod_Solvation_Energy-OPLS-2005>
-229.536590576172

> <b_mmod_Minimization_Converged-OPLS-2005>
0

> <r_mmod_RMS_Derivative-OPLS-2005>
3.23449444770813

$$$$
50
                    3D
 Structure written by MMmdl.
165173  0  0  1  0            999 V2000
  -30.6997  -14.5491   20.6660 C   0  0  0  0  0  0
  -30.4331  -12.3922   19.4532 C   0  0  0  0  0  0
  -29.5088  -12.5757   18.2312 C   0  0  0  0  0  0
  -28.0289  -12.3963   18.6357 C   0  0  0  0  0  0
  -27.6601  -13.2243   19.8922 C   0  0  2  0  0  0
  -28.7008  -13.0104   21.0117 C   0  0  0  0  0  0
  -25.2529  -13.8216   20.5668 C   0  0  0  0  0  0
  -24.1791  -13.0428   20.9132 C   0  0  0  0  0  0
  -24.6386  -11.6910   20.8668 C   0  0  0  0  0  0
  -23.9090  -10.4281   21.0362 C   0  0  0  0  0  0
  -24.3619   -9.4209   21.9165 C   0  0  0  0  0  0
  -23.6308   -8.2231   22.0750 C   0  0  0  0  0  0
  -22.4296   -8.0261   21.3543 C   0  0  0  0  0  0
  -21.9929   -9.0221   20.4650 C   0  0  0  0  0  0
  -22.7266  -10.2097   20.3042 C   0  0  0  0  0  0
  -21.6856   -6.0730   22.5273 C   0  0  0  0  0  0
  -21.4021   -6.5646   23.8194 C   0  0  0  0  0  0
  -21.3680   -5.6797   24.9165 C   0  0  0  0  0  0
  -21.5994   -4.3059   24.7205 C   0  0  0  0  0  0
  -21.8844   -3.8154   23.4340 C   0  0  0  0  0  0
  -21.9189   -4.6955   22.3393 C   0  0  0  0  0  0
  -22.7811  -13.5228   21.1779 C   0  0  0  0  0  0
  -22.1655   -4.2170   21.0962 F   0  0  0  0  0  0
  -21.5613   -3.4531   25.7708 F   0  0  0  0  0  0
  -30.0283  -13.3659   20.4812 N   0  0  0  0  0  0
  -26.3008  -12.9393   20.3436 N   0  0  0  0  0  0
  -25.9356  -11.6526   20.5837 N   0  0  0  0  0  0
  -22.0451  -12.8213   22.0367 N   0  0  0  0  0  0
  -25.4257  -15.1900   20.4063 N   0  0  0  0  0  0
  -31.7184  -14.8264   20.0135 O   0  0  0  0  0  0
  -21.6657   -6.8854   21.4235 O   0  0  0  0  0  0
  -22.3496  -14.5589   20.6732 O   0  0  0  0  0  0
  -24.6204  -31.8564   23.2021 C   0  0  0  0  0  0
  -25.9074  -32.4728   23.8329 C   0  0  1  0  0  0
  -27.2190  -27.3408   20.1401 C   0  0  0  0  0  0
  -25.5923  -33.8537   24.2261 N   0  0  0  0  0  0
  -23.4123  -30.4883   21.5342 C   0  0  2  0  0  0
  -24.8650  -28.9355   20.1143 C   0  0  0  0  0  0
  -22.7329  -29.4788   22.4879 C   0  0  0  0  0  0
  -18.0256  -28.1355   22.8414 C   0  0  0  0  0  0
  -24.1514  -36.7310   23.2648 C   0  0  0  0  0  0
  -25.9497  -30.8031   21.3641 C   0  0  0  0  0  0
  -26.0276  -29.4269   20.7220 C   0  0  0  0  0  0
  -27.2087  -28.6300   20.7352 C   0  0  0  0  0  0
  -26.0428  -26.9013   19.4923 C   0  0  0  0  0  0
  -24.8672  -27.6753   19.5033 C   0  0  0  0  0  0
  -23.6277  -29.8044   20.1564 C   0  0  0  0  0  0
  -25.4120  -36.3050   24.0325 C   0  0  1  0  0  0
  -20.5802  -28.3896   23.1294 C   0  0  2  0  0  0
  -20.6918  -26.9539   22.5539 C   0  0  0  0  0  0
  -19.5863  -26.6318   21.5332 C   0  0  0  0  0  0
  -18.2034  -26.7870   22.1633 C   0  0  0  0  0  0
  -19.1425  -28.8958   23.2765 C   0  0  0  0  0  0
  -18.9228  -30.1582   23.8715 C   0  0  0  0  0  0
  -17.6173  -30.6629   24.0322 C   0  0  0  0  0  0
  -25.9030  -34.9409   23.5092 C   0  0  0  0  0  0
  -16.5153  -29.8978   23.6084 C   0  0  0  0  0  0
  -16.7193  -28.6414   23.0172 C   0  0  0  0  0  0
  -26.4500  -31.6522   25.0656 C   0  0  0  0  0  0
  -25.3809  -31.3625   26.1431 C   0  0  0  0  0  0
  -27.0342  -30.2982   24.6015 C   0  0  0  0  0  0
  -27.6031  -32.4269   25.7483 C   0  0  0  0  0  0
  -27.5579  -37.1807   24.8466 C   0  0  0  0  0  0
  -21.4060  -29.3263   22.3634 N   0  0  0  0  0  0
  -26.4293  -37.3756   23.9402 N   0  0  0  0  0  0
  -24.6807  -31.0603   22.0980 N   0  0  0  0  0  0
  -23.4042  -28.8316   23.2968 O   0  0  0  0  0  0
  -28.3529  -26.5239   20.1770 O   0  0  0  0  0  0
  -26.5614  -34.8934   22.4650 O   0  0  0  0  0  0
  -23.5383  -32.1391   23.7378 O   0  0  0  0  0  0
  -30.0421  -17.8216   20.7158 C   0  0  0  0  0  0
  -28.0024  -18.5129   22.4784 C   0  0  0  0  0  0
  -29.6341  -16.8278   21.6833 C   0  0  0  0  0  0
  -28.6223  -17.2577   22.6086 C   0  0  0  0  0  0
  -29.4358  -19.1288   20.6188 C   0  0  0  0  0  0
  -28.3233  -19.3862   21.4400 C   0  0  0  0  0  0
  -30.3075  -15.4514   21.8619 C   0  0  0  0  0  0
  -28.7420  -16.9071   25.1236 C   0  0  0  0  0  0
  -26.1154  -20.0893   21.0439 C   0  0  0  0  0  0
  -28.0851  -16.4645   23.7999 C   0  0  0  0  0  0
  -29.2900  -24.1042   19.9623 C   0  0  0  0  0  0
  -28.9436  -22.5668   20.1002 C   0  0  0  0  0  0
  -28.1559  -25.0895   20.4548 C   0  0  0  0  0  0
  -30.1012  -21.4834   20.0000 C   0  0  0  0  0  0
  -30.5737  -15.0149   23.0236 N   0  0  0  0  0  0
  -27.4889  -20.4366   21.1792 O   0  0  0  0  0  0
  -29.8185  -20.0769   19.6616 O   0  0  0  0  0  0
  -31.4796  -12.5130   19.1705 H   0  0  0  0  0  0
  -30.3581  -11.3837   19.8623 H   0  0  0  0  0  0
  -29.7844  -11.8749   17.4426 H   0  0  0  0  0  0
  -29.6612  -13.5757   17.8117 H   0  0  0  0  0  0
  -27.8658  -11.3325   18.8268 H   0  0  0  0  0  0
  -27.3807  -12.6873   17.8091 H   0  0  0  0  0  0
  -27.6978  -14.2763   19.6052 H   0  0  0  0  0  0
  -28.7014  -11.9664   21.3216 H   0  0  0  0  0  0
  -28.4308  -13.5887   21.8897 H   0  0  0  0  0  0
  -25.2730   -9.5691   22.4789 H   0  0  0  0  0  0
  -23.9994   -7.4647   22.7507 H   0  0  0  0  0  0
  -21.0842   -8.8751   19.8980 H   0  0  0  0  0  0
  -22.3718  -10.9623   19.6179 H   0  0  0  0  0  0
  -21.2029   -7.6173   23.9696 H   0  0  0  0  0  0
  -21.1497   -6.0544   25.9059 H   0  0  0  0  0  0
  -22.0618   -2.7636   23.2835 H   0  0  0  0  0  0
  -22.4115  -11.9902   22.4750 H   0  0  0  0  0  0
  -21.1071  -13.1256   22.2589 H   0  0  0  0  0  0
  -24.6689  -15.8584   20.4960 H   0  0  0  0  0  0
  -26.2938  -15.6231   20.1109 H   0  0  0  0  0  0
  -26.7126  -32.5485   23.1080 H   0  0  0  0  0  0
  -25.0051  -33.9649   25.0404 H   0  0  0  0  0  0
  -22.7134  -31.3110   21.3765 H   0  0  0  0  0  0
  -23.3723  -35.9697   23.3287 H   0  0  0  0  0  0
  -24.3589  -36.8931   22.2057 H   0  0  0  0  0  0
  -23.7339  -37.6544   23.6674 H   0  0  0  0  0  0
  -26.0609  -31.5578   20.5805 H   0  0  0  0  0  0
  -26.8411  -30.8767   21.9745 H   0  0  0  0  0  0
  -28.1008  -28.9826   21.2372 H   0  0  0  0  0  0
  -25.9955  -25.9562   18.9682 H   0  0  0  0  0  0
  -23.9688  -27.2993   19.0376 H   0  0  0  0  0  0
  -23.7503  -30.5653   19.3893 H   0  0  0  0  0  0
  -22.7528  -29.2242   19.8517 H   0  0  0  0  0  0
  -25.1307  -36.1866   25.0817 H   0  0  0  0  0  0
  -20.9740  -28.3800   24.1479 H   0  0  0  0  0  0
  -21.6881  -26.7482   22.1553 H   0  0  0  0  0  0
  -20.5778  -26.2566   23.3870 H   0  0  0  0  0  0
  -19.6779  -27.2881   20.6696 H   0  0  0  0  0  0
  -19.6963  -25.6106   21.1651 H   0  0  0  0  0  0
  -17.4387  -26.6495   21.4006 H   0  0  0  0  0  0
  -18.0420  -26.0043   22.9024 H   0  0  0  0  0  0
  -19.7641  -30.7540   24.1989 H   0  0  0  0  0  0
  -17.4465  -31.6380   24.4684 H   0  0  0  0  0  0
  -15.5069  -30.2763   23.7210 H   0  0  0  0  0  0
  -15.8631  -28.0702   22.6789 H   0  0  0  0  0  0
  -24.5977  -30.6950   25.7817 H   0  0  0  0  0  0
  -24.9050  -32.2798   26.4913 H   0  0  0  0  0  0
  -25.8243  -30.8795   27.0161 H   0  0  0  0  0  0
  -26.2881  -29.6710   24.1145 H   0  0  0  0  0  0
  -27.4207  -29.7197   25.4408 H   0  0  0  0  0  0
  -27.8661  -30.4245   23.9098 H   0  0  0  0  0  0
  -27.2557  -33.3533   26.2086 H   0  0  0  0  0  0
  -28.3913  -32.6884   25.0405 H   0  0  0  0  0  0
  -28.0664  -31.8392   26.5419 H   0  0  0  0  0  0
  -28.2587  -38.0121   24.7462 H   0  0  0  0  0  0
  -28.1080  -36.2617   24.6327 H   0  0  0  0  0  0
  -27.2278  -37.1518   25.8879 H   0  0  0  0  0  0
  -20.9228  -29.8796   21.6683 H   0  0  0  0  0  0
  -26.0130  -38.2816   24.1422 H   0  0  0  0  0  0
  -30.8560  -17.5953   20.0459 H   0  0  0  0  0  0
  -27.2497  -18.8247   23.1916 H   0  0  0  0  0  0
  -28.2650  -16.4319   25.9849 H   0  0  0  0  0  0
  -28.6544  -17.9853   25.2606 H   0  0  0  0  0  0
  -29.8053  -16.6693   25.1635 H   0  0  0  0  0  0
  -25.9523  -19.0104   20.9410 H   0  0  0  0  0  0
  -25.7092  -20.5425   20.1375 H   0  0  0  0  0  0
  -25.5423  -20.4482   21.8985 H   0  0  0  0  0  0
  -27.0187  -16.6821   23.8675 H   0  0  0  0  0  0
  -28.1249  -15.3910   23.6600 H   0  0  0  0  0  0
  -30.2073  -24.3103   20.5144 H   0  0  0  0  0  0
  -29.5124  -24.3111   18.9129 H   0  0  0  0  0  0
  -28.1629  -22.3276   19.3723 H   0  0  0  0  0  0
  -28.4880  -22.4858   21.0862 H   0  0  0  0  0  0
  -28.0324  -24.9755   21.5390 H   0  0  0  0  0  0
  -27.2241  -24.7062   20.0396 H   0  0  0  0  0  0
  -30.7507  -21.8074   19.1870 H   0  0  0  0  0  0
  -30.7414  -21.5349   20.8812 H   0  0  0  0  0  0
  -30.2437  -15.6822   23.7072 H   0  0  0  0  0  0
  1 25  1  0  0  0
  1 30  2  0  0  0
  1 77  1  0  0  0
  2  3  1  0  0  0
  2 25  1  0  0  0
  2 88  1  0  0  0
  2 89  1  0  0  0
  3  4  1  0  0  0
  3 90  1  0  0  0
  3 91  1  0  0  0
  4  5  1  0  0  0
  4 92  1  0  0  0
  4 93  1  0  0  0
  5  6  1  0  0  0
  5 26  1  0  0  0
  5 94  1  0  0  0
  6 25  1  0  0  0
  6 95  1  0  0  0
  6 96  1  0  0  0
  7  8  2  0  0  0
  7 26  1  0  0  0
  7 29  1  0  0  0
  8  9  1  0  0  0
  8 22  1  0  0  0
  9 10  1  0  0  0
  9 27  2  0  0  0
 10 11  2  0  0  0
 10 15  1  0  0  0
 11 12  1  0  0  0
 11 97  1  0  0  0
 12 13  2  0  0  0
 12 98  1  0  0  0
 13 14  1  0  0  0
 13 31  1  0  0  0
 14 15  2  0  0  0
 14 99  1  0  0  0
 15100  1  0  0  0
 16 17  2  0  0  0
 16 21  1  0  0  0
 16 31  1  0  0  0
 17 18  1  0  0  0
 17101  1  0  0  0
 18 19  2  0  0  0
 18102  1  0  0  0
 19 20  1  0  0  0
 19 24  1  0  0  0
 20 21  2  0  0  0
 20103  1  0  0  0
 21 23  1  0  0  0
 22 28  1  0  0  0
 22 32  2  0  0  0
 26 27  1  0  0  0
 28104  1  0  0  0
 28105  1  0  0  0
 29106  1  0  0  0
 29107  1  0  0  0
 33 34  1  0  0  0
 33 66  1  0  0  0
 33 70  2  0  0  0
 34 36  1  0  0  0
 34 59  1  0  0  0
 34108  1  0  0  0
 35 44  2  0  0  0
 35 45  1  0  0  0
 35 68  1  0  0  0
 36 56  1  0  0  0
 36109  1  0  0  0
 37 39  1  0  0  0
 37 47  1  0  0  0
 37 66  1  0  0  0
 37110  1  0  0  0
 38 43  2  0  0  0
 38 46  1  0  0  0
 38 47  1  0  0  0
 39 64  1  0  0  0
 39 67  2  0  0  0
 40 52  1  0  0  0
 40 53  2  0  0  0
 40 58  1  0  0  0
 41111  1  0  0  0
 41112  1  0  0  0
 41113  1  0  0  0
 41 48  1  0  0  0
 42 43  1  0  0  0
 42 66  1  0  0  0
 42114  1  0  0  0
 42115  1  0  0  0
 43 44  1  0  0  0
 44116  1  0  0  0
 45 46  2  0  0  0
 45117  1  0  0  0
 46118  1  0  0  0
 47119  1  0  0  0
 47120  1  0  0  0
 48 56  1  0  0  0
 48 65  1  0  0  0
 48121  1  0  0  0
 49 50  1  0  0  0
 49 53  1  0  0  0
 49 64  1  0  0  0
 49122  1  0  0  0
 50 51  1  0  0  0
 50123  1  0  0  0
 50124  1  0  0  0
 51 52  1  0  0  0
 51125  1  0  0  0
 51126  1  0  0  0
 52127  1  0  0  0
 52128  1  0  0  0
 53 54  1  0  0  0
 54 55  2  0  0  0
 54129  1  0  0  0
 55 57  1  0  0  0
 55130  1  0  0  0
 56 69  2  0  0  0
 57 58  2  0  0  0
 57131  1  0  0  0
 58132  1  0  0  0
 59 60  1  0  0  0
 59 61  1  0  0  0
 59 62  1  0  0  0
 60133  1  0  0  0
 60134  1  0  0  0
 60135  1  0  0  0
 61136  1  0  0  0
 61137  1  0  0  0
 61138  1  0  0  0
 62139  1  0  0  0
 62140  1  0  0  0
 62141  1  0  0  0
 63 65  1  0  0  0
 63142  1  0  0  0
 63143  1  0  0  0
 63144  1  0  0  0
 64145  1  0  0  0
 65146  1  0  0  0
 68 83  1  0  0  0
 71 73  2  0  0  0
 71 75  1  0  0  0
 71147  1  0  0  0
 72 74  2  0  0  0
 72 76  1  0  0  0
 72148  1  0  0  0
 73 74  1  0  0  0
 73 77  1  0  0  0
 74 80  1  0  0  0
 75 76  2  0  0  0
 75 87  1  0  0  0
 76 86  1  0  0  0
 77 85  2  0  0  0
 78 80  1  0  0  0
 78149  1  0  0  0
 78150  1  0  0  0
 78151  1  0  0  0
 79 86  1  0  0  0
 79152  1  0  0  0
 79153  1  0  0  0
 79154  1  0  0  0
 80155  1  0  0  0
 80156  1  0  0  0
 81 82  1  0  0  0
 81 83  1  0  0  0
 81157  1  0  0  0
 81158  1  0  0  0
 82 84  1  0  0  0
 82159  1  0  0  0
 82160  1  0  0  0
 83161  1  0  0  0
 83162  1  0  0  0
 84 87  1  0  0  0
 84163  1  0  0  0
 84164  1  0  0  0
 85165  1  0  0  0
M  ISO  4   1 100  68 101  77 100  83 101
M  END
> <chiral flag>
0

> <version>
0

> <s_m_source_file>
/data/baiqing/PycharmProjects/Reinvent-master-3.2/result/LINK_invent/BTK/process_docking_weight1_custom_product_contain_oxygen_bond_distance_aromatic_linkinvent_7_9_3/rearranged_h_0107.sdf

> <i_m_source_file_index>
51

> <r_mmod_Potential_Energy-OPLS-2005>
291.697814941406

> <r_mmod_Stretch_Energy-OPLS-2005>
83.5894927978516

> <r_mmod_Bend_Energy-OPLS-2005>
163.634017944336

> <r_mmod_Torsional_Energy-OPLS-2005>
280.376678466797

> <r_mmod_Improper_Torsional_Energy-OPLS-2005>
5.39761161804199

> <r_mmod_Van_der_Waal_Energy-OPLS-2005>
161.048675537109

> <r_mmod_Electrostatic_Energy-OPLS-2005>
-238.933029174805

> <r_mmod_Solvation_Energy-OPLS-2005>
-197.139801025391

> <b_mmod_Minimization_Converged-OPLS-2005>
0

> <r_mmod_RMS_Derivative-OPLS-2005>
10.9114408493042

$$$$
51
                    3D
 Structure written by MMmdl.
166174  0  0  1  0            999 V2000
  -29.6719  -16.6778   20.4617 C   0  0  0  0  0  0
  -30.2325  -13.9085   19.6561 C   0  0  0  0  0  0
  -29.5837  -12.9967   18.5293 C   0  0  0  0  0  0
  -28.2701  -12.3703   18.9982 C   0  0  0  0  0  0
  -27.5618  -13.4087   19.8869 C   0  0  2  0  0  0
  -28.4304  -14.1138   20.9784 C   0  0  0  0  0  0
  -25.2058  -13.8441   20.5990 C   0  0  0  0  0  0
  -24.1546  -13.0476   20.9383 C   0  0  0  0  0  0
  -24.6365  -11.7021   20.8857 C   0  0  0  0  0  0
  -23.9115  -10.4388   21.0493 C   0  0  0  0  0  0
  -24.3659   -9.4338   21.9297 C   0  0  0  0  0  0
  -23.6338   -8.2392   22.0851 C   0  0  0  0  0  0
  -22.4350   -8.0380   21.3566 C   0  0  0  0  0  0
  -21.9974   -9.0396   20.4698 C   0  0  0  0  0  0
  -22.7320  -10.2262   20.3115 C   0  0  0  0  0  0
  -21.6923   -6.0817   22.5261 C   0  0  0  0  0  0
  -21.4094   -6.5705   23.8192 C   0  0  0  0  0  0
  -21.3628   -5.6825   24.9120 C   0  0  0  0  0  0
  -21.6018   -4.3091   24.7166 C   0  0  0  0  0  0
  -21.8852   -3.8212   23.4282 C   0  0  0  0  0  0
  -21.9242   -4.7048   22.3349 C   0  0  0  0  0  0
  -22.7528  -13.5172   21.1857 C   0  0  0  0  0  0
  -22.1714   -4.2202   21.0925 F   0  0  0  0  0  0
  -21.5559   -3.4564   25.7676 F   0  0  0  0  0  0
  -29.3279  -15.1228   20.2841 N   0  0  0  0  0  0
  -26.2599  -12.9901   20.3729 N   0  0  0  0  0  0
  -25.9371  -11.6833   20.5997 N   0  0  0  0  0  0
  -22.0208  -12.8212   22.0434 N   0  0  0  0  0  0
  -25.3528  -15.2206   20.4406 N   0  0  0  0  0  0
  -30.9254  -16.3938   20.3737 O   0  0  0  0  0  0
  -21.6731   -6.8944   21.4229 O   0  0  0  0  0  0
  -22.3308  -14.5530   20.6734 O   0  0  0  0  0  0
  -24.7144  -31.7237   23.1048 C   0  0  0  0  0  0
  -25.9718  -32.3919   23.7697 C   0  0  1  0  0  0
  -26.9716  -26.4209   19.1009 C   0  0  0  0  0  0
  -25.6069  -33.7797   24.1176 N   0  0  0  0  0  0
  -23.6580  -30.0615   21.5238 C   0  0  2  0  0  0
  -25.5185  -27.7926   20.5251 C   0  0  0  0  0  0
  -22.8084  -29.3507   22.5756 C   0  0  0  0  0  0
  -18.0267  -28.1384   22.8661 C   0  0  0  0  0  0
  -24.1497  -36.6926   23.2481 C   0  0  0  0  0  0
  -26.1119  -30.1763   21.5207 C   0  0  0  0  0  0
  -26.1168  -28.5246   21.5755 C   0  0  0  0  0  0
  -26.0489  -27.2511   20.8641 C   0  0  0  0  0  0
  -26.5070  -25.5261   18.1659 C   0  0  0  0  0  0
  -26.4953  -26.6903   18.8121 C   0  0  0  0  0  0
  -24.1005  -28.9286   20.4645 C   0  0  0  0  0  0
  -25.4181  -36.2562   23.9954 C   0  0  1  0  0  0
  -20.5844  -28.3497   23.1181 C   0  0  2  0  0  0
  -20.6592  -26.9323   22.4866 C   0  0  0  0  0  0
  -19.5325  -26.6383   21.5107 C   0  0  0  0  0  0
  -18.1803  -26.7796   22.2101 C   0  0  0  0  0  0
  -19.1567  -28.8865   23.2822 C   0  0  0  0  0  0
  -18.9630  -30.1534   23.8681 C   0  0  0  0  0  0
  -17.6709  -30.6774   24.0345 C   0  0  0  0  0  0
  -25.9242  -34.9006   23.4502 C   0  0  0  0  0  0
  -16.5521  -29.9203   23.6375 C   0  0  0  0  0  0
  -16.7315  -28.6493   23.0594 C   0  0  0  0  0  0
  -26.4194  -31.6817   25.1061 C   0  0  0  0  0  0
  -25.2821  -31.5498   26.1389 C   0  0  0  0  0  0
  -26.9713  -30.2660   24.8784 C   0  0  0  0  0  0
  -27.5175  -32.5139   25.7932 C   0  0  0  0  0  0
  -27.5485  -37.1483   24.8264 C   0  0  0  0  0  0
  -21.4694  -29.3025   22.4134 N   0  0  0  0  0  0
  -26.4186  -37.3364   23.9283 N   0  0  0  0  0  0
  -24.8484  -30.7679   22.1015 N   0  0  0  0  0  0
  -23.3837  -28.7343   23.4661 O   0  0  0  0  0  0
  -28.5528  -26.2524   18.7362 O   0  0  0  0  0  0
  -26.6018  -34.8696   22.4210 O   0  0  0  0  0  0
  -23.5942  -32.0802   23.5542 O   0  0  0  0  0  0
  -24.3645  -27.1470   18.7158 C   0  0  0  0  0  0
  -25.9440  -28.7922   18.5762 C   0  0  0  0  0  0
  -28.1775  -26.5693   20.9599 C   0  0  0  0  0  0
  -24.8828  -25.4038   19.9157 C   0  0  0  0  0  0
  -26.8179  -24.8400   20.7441 C   0  0  0  0  0  0
  -27.7822  -28.4168   19.7305 C   0  0  0  0  0  0
  -29.3998  -28.3151   17.8745 C   0  0  0  0  0  0
  -23.7563  -24.3286   19.8438 C   0  0  0  0  0  0
  -30.2290  -23.7017   20.6031 C   0  0  0  0  0  0
  -30.4002  -19.0576   20.2812 C   0  0  0  0  0  0
  -29.0260  -26.8786   17.5217 C   0  0  0  0  0  0
  -29.0895  -22.9104   19.9362 C   0  0  0  0  0  0
  -27.9676  -20.2654   20.7084 C   0  0  0  0  0  0
  -27.7466  -22.7204   20.6979 C   0  0  2  0  0  0
  -28.9291  -28.9336   19.0079 N   0  0  0  0  0  0
  -29.0940  -18.4264   20.4903 N   0  0  0  0  0  0
  -29.9943  -28.9485   17.0134 O   0  0  0  0  0  0
  -31.1339  -14.3477   19.2188 H   0  0  0  0  0  0
  -30.6438  -13.2908   20.4619 H   0  0  0  0  0  0
  -30.2860  -12.2282   18.1740 H   0  0  0  0  0  0
  -29.3919  -13.6251   17.6575 H   0  0  0  0  0  0
  -28.4996  -11.4923   19.6103 H   0  0  0  0  0  0
  -27.6569  -12.0531   18.1553 H   0  0  0  0  0  0
  -27.3317  -14.2087   19.1876 H   0  0  0  0  0  0
  -28.9149  -13.3942   21.6447 H   0  0  0  0  0  0
  -27.7832  -14.6758   21.6459 H   0  0  0  0  0  0
  -25.2769   -9.5895   22.4862 H   0  0  0  0  0  0
  -24.0065   -7.4825   22.7574 H   0  0  0  0  0  0
  -21.0927   -8.8918   19.8970 H   0  0  0  0  0  0
  -22.3816  -10.9793   19.6222 H   0  0  0  0  0  0
  -21.2173   -7.6222   23.9682 H   0  0  0  0  0  0
  -21.1353   -6.0554   25.8998 H   0  0  0  0  0  0
  -22.0644   -2.7659   23.2756 H   0  0  0  0  0  0
  -22.3919  -11.9891   22.4776 H   0  0  0  0  0  0
  -21.0820  -13.1235   22.2664 H   0  0  0  0  0  0
  -24.5727  -15.8498   20.5865 H   0  0  0  0  0  0
  -26.1852  -15.6823   20.1097 H   0  0  0  0  0  0
  -26.8020  -32.4017   23.0482 H   0  0  0  0  0  0
  -24.9848  -33.8601   24.9069 H   0  0  0  0  0  0
  -22.9849  -30.7730   21.0282 H   0  0  0  0  0  0
  -23.3757  -35.9210   23.2996 H   0  0  0  0  0  0
  -24.3461  -36.8840   22.1920 H   0  0  0  0  0  0
  -23.7357  -37.6012   23.6790 H   0  0  0  0  0  0
  -26.2382  -30.6291   20.5331 H   0  0  0  0  0  0
  -27.0156  -30.5432   22.0429 H   0  0  0  0  0  0
  -25.9825  -26.5024   21.8294 H   0  0  0  0  0  0
  -27.0185  -25.2081   17.2983 H   0  0  0  0  0  0
  -26.1644  -27.0109   17.5654 H   0  0  0  0  0  0
  -23.9276  -29.4289   19.5000 H   0  0  0  0  0  0
  -23.2860  -28.2204   20.4825 H   0  0  0  0  0  0
  -25.1521  -36.0878   25.0348 H   0  0  0  0  0  0
  -20.9771  -28.2549   24.1330 H   0  0  0  0  0  0
  -20.5881  -26.1828   23.2655 H   0  0  0  0  0  0
  -21.6070  -26.7737   21.9722 H   0  0  0  0  0  0
  -19.6378  -25.6303   21.1037 H   0  0  0  0  0  0
  -19.5981  -27.3148   20.6573 H   0  0  0  0  0  0
  -17.3633  -26.5559   21.5136 H   0  0  0  0  0  0
  -18.1150  -26.0181   22.9836 H   0  0  0  0  0  0
  -19.8155  -30.7320   24.1788 H   0  0  0  0  0  0
  -17.5409  -31.6558   24.4722 H   0  0  0  0  0  0
  -15.5542  -30.3200   23.7853 H   0  0  0  0  0  0
  -15.8654  -28.0718   22.7664 H   0  0  0  0  0  0
  -24.4832  -30.8661   25.8358 H   0  0  0  0  0  0
  -24.8015  -32.5157   26.3233 H   0  0  0  0  0  0
  -25.6748  -31.2052   27.0971 H   0  0  0  0  0  0
  -26.1715  -29.5757   24.5975 H   0  0  0  0  0  0
  -27.3821  -29.8361   25.7963 H   0  0  0  0  0  0
  -27.7528  -30.2581   24.1290 H   0  0  0  0  0  0
  -27.1226  -33.4687   26.1464 H   0  0  0  0  0  0
  -28.3527  -32.7407   25.1337 H   0  0  0  0  0  0
  -27.8966  -32.0028   26.6757 H   0  0  0  0  0  0
  -28.2219  -38.0060   24.7626 H   0  0  0  0  0  0
  -28.1337  -36.2581   24.5819 H   0  0  0  0  0  0
  -27.2084  -37.0608   25.8596 H   0  0  0  0  0  0
  -21.0387  -29.9003   21.7118 H   0  0  0  0  0  0
  -25.9973  -38.2279   24.1396 H   0  0  0  0  0  0
  -23.4096  -27.2426   18.1424 H   0  0  0  0  0  0
  -25.8563  -29.5332   17.8061 H   0  0  0  0  0  0
  -29.1950  -26.3326   21.2423 H   0  0  0  0  0  0
  -22.7982  -24.8423   19.9077 H   0  0  0  0  0  0
  -23.8055  -23.5927   20.6676 H   0  0  0  0  0  0
  -23.7434  -23.8101   18.8662 H   0  0  0  0  0  0
  -31.1668  -23.2925   20.2145 H   0  0  0  0  0  0
  -30.2378  -23.6257   21.6930 H   0  0  0  0  0  0
  -30.2380  -24.7342   20.3020 H   0  0  0  0  0  0
  -30.8876  -18.6448   19.3791 H   0  0  0  0  0  0
  -31.0420  -18.8770   21.1372 H   0  0  0  0  0  0
  -30.3571  -20.1264   20.1373 H   0  0  0  0  0  0
  -29.8329  -26.3065   16.9945 H   0  0  0  0  0  0
  -28.2102  -26.9226   16.7910 H   0  0  0  0  0  0
  -29.4437  -21.9005   19.8324 H   0  0  0  0  0  0
  -28.9103  -23.2530   18.9126 H   0  0  0  0  0  0
  -27.0119  -19.9654   20.2655 H   0  0  0  0  0  0
  -27.7796  -20.1355   21.7765 H   0  0  0  0  0  0
  -27.9046  -22.7868   21.7763 H   0  0  0  0  0  0
  -29.1074  -29.9360   19.0739 H   0  0  0  0  0  0
  1 25  1  0  0  0
  1 30  2  0  0  0
  1 86  1  0  0  0
  2  3  1  0  0  0
  2 25  1  0  0  0
  2 88  1  0  0  0
  2 89  1  0  0  0
  3  4  1  0  0  0
  3 90  1  0  0  0
  3 91  1  0  0  0
  4  5  1  0  0  0
  4 92  1  0  0  0
  4 93  1  0  0  0
  5  6  1  0  0  0
  5 26  1  0  0  0
  5 94  1  0  0  0
  6 25  1  0  0  0
  6 95  1  0  0  0
  6 96  1  0  0  0
  7  8  2  0  0  0
  7 26  1  0  0  0
  7 29  1  0  0  0
  8  9  1  0  0  0
  8 22  1  0  0  0
  9 10  1  0  0  0
  9 27  2  0  0  0
 10 11  2  0  0  0
 10 15  1  0  0  0
 11 12  1  0  0  0
 11 97  1  0  0  0
 12 13  2  0  0  0
 12 98  1  0  0  0
 13 14  1  0  0  0
 13 31  1  0  0  0
 14 15  2  0  0  0
 14 99  1  0  0  0
 15100  1  0  0  0
 16 17  2  0  0  0
 16 21  1  0  0  0
 16 31  1  0  0  0
 17 18  1  0  0  0
 17101  1  0  0  0
 18 19  2  0  0  0
 18102  1  0  0  0
 19 20  1  0  0  0
 19 24  1  0  0  0
 20 21  2  0  0  0
 20103  1  0  0  0
 21 23  1  0  0  0
 22 28  1  0  0  0
 22 32  2  0  0  0
 26 27  1  0  0  0
 28104  1  0  0  0
 28105  1  0  0  0
 29106  1  0  0  0
 29107  1  0  0  0
 33 34  1  0  0  0
 33 66  1  0  0  0
 33 70  2  0  0  0
 34 36  1  0  0  0
 34 59  1  0  0  0
 34108  1  0  0  0
 35 44  2  0  0  0
 35 45  1  0  0  0
 35 68  1  0  0  0
 36 56  1  0  0  0
 36109  1  0  0  0
 37 39  1  0  0  0
 37 47  1  0  0  0
 37 66  1  0  0  0
 37110  1  0  0  0
 38 43  2  0  0  0
 38 46  1  0  0  0
 38 47  1  0  0  0
 39 64  1  0  0  0
 39 67  2  0  0  0
 40 52  1  0  0  0
 40 53  2  0  0  0
 40 58  1  0  0  0
 41111  1  0  0  0
 41112  1  0  0  0
 41113  1  0  0  0
 41 48  1  0  0  0
 42 43  1  0  0  0
 42 66  1  0  0  0
 42114  1  0  0  0
 42115  1  0  0  0
 43 44  1  0  0  0
 44116  1  0  0  0
 45 46  2  0  0  0
 45117  1  0  0  0
 46118  1  0  0  0
 47119  1  0  0  0
 47120  1  0  0  0
 48 56  1  0  0  0
 48 65  1  0  0  0
 48121  1  0  0  0
 49 50  1  0  0  0
 49 53  1  0  0  0
 49 64  1  0  0  0
 49122  1  0  0  0
 50 51  1  0  0  0
 50123  1  0  0  0
 50124  1  0  0  0
 51 52  1  0  0  0
 51125  1  0  0  0
 51126  1  0  0  0
 52127  1  0  0  0
 52128  1  0  0  0
 53 54  1  0  0  0
 54 55  2  0  0  0
 54129  1  0  0  0
 55 57  1  0  0  0
 55130  1  0  0  0
 56 69  2  0  0  0
 57 58  2  0  0  0
 57131  1  0  0  0
 58132  1  0  0  0
 59 60  1  0  0  0
 59 61  1  0  0  0
 59 62  1  0  0  0
 60133  1  0  0  0
 60134  1  0  0  0
 60135  1  0  0  0
 61136  1  0  0  0
 61137  1  0  0  0
 61138  1  0  0  0
 62139  1  0  0  0
 62140  1  0  0  0
 62141  1  0  0  0
 63 65  1  0  0  0
 63142  1  0  0  0
 63143  1  0  0  0
 63144  1  0  0  0
 64145  1  0  0  0
 65146  1  0  0  0
 68 81  1  0  0  0
 71 72  2  0  0  0
 71 74  1  0  0  0
 71147  1  0  0  0
 72 76  1  0  0  0
 72148  1  0  0  0
 73 75  1  0  0  0
 73 76  2  0  0  0
 73149  1  0  0  0
 74 75  2  0  0  0
 74 78  1  0  0  0
 75 84  1  0  0  0
 76 85  1  0  0  0
 77 81  1  0  0  0
 77 85  1  0  0  0
 77 87  2  0  0  0
 78150  1  0  0  0
 78151  1  0  0  0
 78152  1  0  0  0
 79 82  1  0  0  0
 79153  1  0  0  0
 79154  1  0  0  0
 79155  1  0  0  0
 80 86  1  0  0  0
 80156  1  0  0  0
 80157  1  0  0  0
 80158  1  0  0  0
 81159  1  0  0  0
 81160  1  0  0  0
 82161  1  0  0  0
 82162  1  0  0  0
 82 84  1  0  0  0
 83 84  1  0  0  0
 83 86  1  0  0  0
 83163  1  0  0  0
 83164  1  0  0  0
 84165  1  0  0  0
 85166  1  0  0  0
M  ISO  4   1 100  68 101  81 101  86 100
M  END
> <chiral flag>
0

> <version>
0

> <s_m_source_file>
/data/baiqing/PycharmProjects/Reinvent-master-3.2/result/LINK_invent/BTK/process_docking_weight1_custom_product_contain_oxygen_bond_distance_aromatic_linkinvent_7_9_3/rearranged_h_0107.sdf

> <i_m_source_file_index>
52

> <r_mmod_Potential_Energy-OPLS-2005>
26433.888671875

> <r_mmod_Stretch_Energy-OPLS-2005>
14283.70703125

> <r_mmod_Bend_Energy-OPLS-2005>
2916.52587890625

> <r_mmod_Torsional_Energy-OPLS-2005>
853.402770996094

> <r_mmod_Improper_Torsional_Energy-OPLS-2005>
70.0089721679688

> <r_mmod_Van_der_Waal_Energy-OPLS-2005>
4688.8515625

> <r_mmod_Electrostatic_Energy-OPLS-2005>
-320.579895019531

> <r_mmod_Solvation_Energy-OPLS-2005>
-224.760223388672

> <b_mmod_Minimization_Converged-OPLS-2005>
0

> <r_mmod_RMS_Derivative-OPLS-2005>
60.8798027038574

$$$$
52
                    3D
 Structure written by MMmdl.
162171  0  0  1  0            999 V2000
  -30.7086  -14.6685   20.4312 C   0  0  0  0  0  0
  -30.4014  -12.4070   19.4628 C   0  0  0  0  0  0
  -29.4911  -12.4883   18.2223 C   0  0  0  0  0  0
  -28.0173  -12.3412   18.6389 C   0  0  0  0  0  0
  -27.6370  -13.2426   19.8448 C   0  0  2  0  0  0
  -28.6871  -13.1974   20.9769 C   0  0  0  0  0  0
  -25.2488  -13.8231   20.5728 C   0  0  0  0  0  0
  -24.1792  -13.0455   20.9225 C   0  0  0  0  0  0
  -24.6399  -11.6939   20.8761 C   0  0  0  0  0  0
  -23.9085  -10.4303   21.0404 C   0  0  0  0  0  0
  -24.3636   -9.4214   21.9180 C   0  0  0  0  0  0
  -23.6311   -8.2248   22.0748 C   0  0  0  0  0  0
  -22.4294   -8.0286   21.3539 C   0  0  0  0  0  0
  -21.9933   -9.0258   20.4638 C   0  0  0  0  0  0
  -22.7259  -10.2139   20.3049 C   0  0  0  0  0  0
  -21.6859   -6.0740   22.5276 C   0  0  0  0  0  0
  -21.4013   -6.5642   23.8209 C   0  0  0  0  0  0
  -21.3661   -5.6793   24.9171 C   0  0  0  0  0  0
  -21.6046   -4.3057   24.7221 C   0  0  0  0  0  0
  -21.8822   -3.8150   23.4345 C   0  0  0  0  0  0
  -21.9198   -4.6966   22.3402 C   0  0  0  0  0  0
  -22.7810  -13.5216   21.1878 C   0  0  0  0  0  0
  -22.1669   -4.2150   21.0980 F   0  0  0  0  0  0
  -21.5631   -3.4544   25.7734 F   0  0  0  0  0  0
  -29.9907  -13.4981   20.3771 N   0  0  0  0  0  0
  -26.2923  -12.9466   20.3303 N   0  0  0  0  0  0
  -25.9337  -11.6598   20.5778 N   0  0  0  0  0  0
  -22.0469  -12.8183   22.0427 N   0  0  0  0  0  0
  -25.4155  -15.1958   20.4150 N   0  0  0  0  0  0
  -31.9111  -14.6033   20.1690 O   0  0  0  0  0  0
  -21.6652   -6.8890   21.4241 O   0  0  0  0  0  0
  -22.3493  -14.5523   20.6728 O   0  0  0  0  0  0
  -24.6280  -31.8593   23.1998 C   0  0  0  0  0  0
  -25.9133  -32.4768   23.8319 C   0  0  1  0  0  0
  -27.2196  -27.3073   20.1055 C   0  0  0  0  0  0
  -25.5972  -33.8563   24.2278 N   0  0  0  0  0  0
  -23.4202  -30.4823   21.5435 C   0  0  2  0  0  0
  -24.8635  -28.9362   20.1053 C   0  0  0  0  0  0
  -22.7482  -29.4607   22.4923 C   0  0  0  0  0  0
  -18.0290  -28.1406   22.8480 C   0  0  0  0  0  0
  -24.1488  -36.7237   23.2635 C   0  0  0  0  0  0
  -25.9606  -30.7869   21.3678 C   0  0  0  0  0  0
  -26.0324  -29.4110   20.7142 C   0  0  0  0  0  0
  -27.2069  -28.6025   20.7144 C   0  0  0  0  0  0
  -26.0274  -26.8869   19.4873 C   0  0  0  0  0  0
  -24.8636  -27.6778   19.4852 C   0  0  0  0  0  0
  -23.6319  -29.8161   20.1578 C   0  0  0  0  0  0
  -25.4115  -36.3052   24.0336 C   0  0  1  0  0  0
  -20.5891  -28.3700   23.1282 C   0  0  2  0  0  0
  -20.6778  -26.9427   22.5407 C   0  0  0  0  0  0
  -19.5756  -26.6407   21.5206 C   0  0  0  0  0  0
  -18.1938  -26.7948   22.1618 C   0  0  0  0  0  0
  -19.1543  -28.8870   23.2876 C   0  0  0  0  0  0
  -18.9464  -30.1472   23.8892 C   0  0  0  0  0  0
  -17.6464  -30.6602   24.0562 C   0  0  0  0  0  0
  -25.9066  -34.9437   23.5095 C   0  0  0  0  0  0
  -16.5354  -29.9104   23.6333 C   0  0  0  0  0  0
  -16.7275  -28.6529   23.0342 C   0  0  0  0  0  0
  -26.4539  -31.6551   25.0662 C   0  0  0  0  0  0
  -25.3780  -31.3665   26.1382 C   0  0  0  0  0  0
  -27.0370  -30.2986   24.6049 C   0  0  0  0  0  0
  -27.6102  -32.4257   25.7462 C   0  0  0  0  0  0
  -27.5567  -37.1778   24.8486 C   0  0  0  0  0  0
  -21.4193  -29.3044   22.3671 N   0  0  0  0  0  0
  -26.4278  -37.3759   23.9431 N   0  0  0  0  0  0
  -24.6893  -31.0593   22.0950 N   0  0  0  0  0  0
  -23.4203  -28.8137   23.3001 O   0  0  0  0  0  0
  -28.3346  -26.4597   20.2024 O   0  0  0  0  0  0
  -26.5597  -34.8918   22.4638 O   0  0  0  0  0  0
  -23.5444  -32.1382   23.7335 O   0  0  0  0  0  0
  -28.8029  -18.8283   19.6519 C   0  0  0  0  0  0
  -28.4197  -20.1794   19.3787 C   0  0  0  0  0  0
  -30.1946  -20.9960   20.7712 C   0  0  0  0  0  0
  -29.9355  -18.5146   20.4505 C   0  0  0  0  0  0
  -30.5799  -19.6469   21.0721 C   0  0  0  0  0  0
  -29.1566  -21.3054   19.8609 C   0  0  0  0  0  0
  -29.2334  -22.6284   17.9099 C   0  0  0  0  0  0
  -31.6939  -19.4578   22.0530 C   0  0  0  0  0  0
  -30.6521  -17.1357   20.3610 C   0  0  0  0  0  0
  -28.0149  -23.1597   17.1833 C   0  0  0  0  0  0
  -27.0725  -23.4622   18.3524 C   0  0  0  0  0  0
  -28.0377  -23.7469   19.5260 C   0  0  2  0  0  0
  -32.8602  -20.4365   21.9898 C   0  0  0  0  0  0
  -28.5984  -25.2696   19.3549 C   0  0  0  0  0  0
  -29.0466  -22.6447   19.2445 N   0  0  0  0  0  0
  -30.0616  -15.8938   20.5456 N   0  0  0  0  0  0
  -30.2244  -22.1931   17.3145 O   0  0  0  0  0  0
  -31.7196  -18.5481   22.8858 O   0  0  0  0  0  0
  -31.8466  -17.2469   20.0594 O   0  0  0  0  0  0
  -31.4463  -12.4711   19.1535 H   0  0  0  0  0  0
  -30.3019  -11.4389   19.9553 H   0  0  0  0  0  0
  -29.7540  -11.7070   17.5072 H   0  0  0  0  0  0
  -29.6413  -13.4399   17.7090 H   0  0  0  0  0  0
  -27.8529  -11.2941   18.8921 H   0  0  0  0  0  0
  -27.3624  -12.5521   17.7930 H   0  0  0  0  0  0
  -27.6267  -14.2623   19.4599 H   0  0  0  0  0  0
  -28.7049  -12.2172   21.4560 H   0  0  0  0  0  0
  -28.4431  -13.9196   21.7575 H   0  0  0  0  0  0
  -25.2780   -9.5694   22.4756 H   0  0  0  0  0  0
  -24.0024   -7.4644   22.7463 H   0  0  0  0  0  0
  -21.0873   -8.8778   19.8942 H   0  0  0  0  0  0
  -22.3721  -10.9678   19.6160 H   0  0  0  0  0  0
  -21.1996   -7.6149   23.9714 H   0  0  0  0  0  0
  -21.1480   -6.0521   25.9075 H   0  0  0  0  0  0
  -22.0596   -2.7614   23.2839 H   0  0  0  0  0  0
  -22.4107  -11.9842   22.4796 H   0  0  0  0  0  0
  -21.1076  -13.1169   22.2628 H   0  0  0  0  0  0
  -24.6453  -15.8459   20.5259 H   0  0  0  0  0  0
  -26.2615  -15.6404   20.0833 H   0  0  0  0  0  0
  -26.7188  -32.5433   23.1054 H   0  0  0  0  0  0
  -25.0249  -33.9727   25.0509 H   0  0  0  0  0  0
  -22.7139  -31.3029   21.4013 H   0  0  0  0  0  0
  -23.3773  -35.9540   23.3303 H   0  0  0  0  0  0
  -24.3592  -36.8832   22.2046 H   0  0  0  0  0  0
  -23.7221  -37.6437   23.6642 H   0  0  0  0  0  0
  -26.0807  -31.5437   20.5913 H   0  0  0  0  0  0
  -26.8482  -30.8476   21.9866 H   0  0  0  0  0  0
  -28.0990  -28.9558   21.2134 H   0  0  0  0  0  0
  -25.9542  -25.9151   19.0498 H   0  0  0  0  0  0
  -23.9645  -27.3010   19.0170 H   0  0  0  0  0  0
  -23.7448  -30.5919   19.3999 H   0  0  0  0  0  0
  -22.7523  -29.2422   19.8588 H   0  0  0  0  0  0
  -25.1293  -36.1884   25.0827 H   0  0  0  0  0  0
  -20.9989  -28.3279   24.1406 H   0  0  0  0  0  0
  -20.5689  -26.2310   23.3608 H   0  0  0  0  0  0
  -21.6645  -26.7471   22.1190 H   0  0  0  0  0  0
  -19.6914  -25.6319   21.1237 H   0  0  0  0  0  0
  -19.6688  -27.3214   20.6739 H   0  0  0  0  0  0
  -17.4201  -26.6693   21.4023 H   0  0  0  0  0  0
  -18.0330  -26.0097   22.9026 H   0  0  0  0  0  0
  -19.7941  -30.7288   24.2254 H   0  0  0  0  0  0
  -17.5024  -31.6276   24.5170 H   0  0  0  0  0  0
  -15.5354  -30.2998   23.7679 H   0  0  0  0  0  0
  -15.8679  -28.0856   22.7047 H   0  0  0  0  0  0
  -24.6013  -30.6947   25.7715 H   0  0  0  0  0  0
  -24.8898  -32.2807   26.4749 H   0  0  0  0  0  0
  -25.8117  -30.8911   27.0183 H   0  0  0  0  0  0
  -26.2912  -29.6749   24.1102 H   0  0  0  0  0  0
  -27.4159  -29.7208   25.4488 H   0  0  0  0  0  0
  -27.8739  -30.4304   23.9186 H   0  0  0  0  0  0
  -27.2748  -33.3588   26.1991 H   0  0  0  0  0  0
  -28.3970  -32.6746   25.0332 H   0  0  0  0  0  0
  -28.0694  -31.8384   26.5425 H   0  0  0  0  0  0
  -28.2588  -38.0070   24.7531 H   0  0  0  0  0  0
  -28.1060  -36.2606   24.6316 H   0  0  0  0  0  0
  -27.2288  -37.1413   25.8889 H   0  0  0  0  0  0
  -20.9378  -29.8759   21.6872 H   0  0  0  0  0  0
  -26.0148  -38.2819   24.1454 H   0  0  0  0  0  0
  -28.2853  -18.0305   19.1364 H   0  0  0  0  0  0
  -27.6125  -20.3400   18.6756 H   0  0  0  0  0  0
  -30.7617  -21.8198   21.1836 H   0  0  0  0  0  0
  -27.6007  -22.4179   16.5014 H   0  0  0  0  0  0
  -28.2804  -24.0498   16.6138 H   0  0  0  0  0  0
  -26.4624  -22.5857   18.5770 H   0  0  0  0  0  0
  -26.3858  -24.2528   18.0823 H   0  0  0  0  0  0
  -27.5649  -23.6063   20.4980 H   0  0  0  0  0  0
  -33.0286  -20.7641   20.9647 H   0  0  0  0  0  0
  -33.7734  -19.9603   22.3466 H   0  0  0  0  0  0
  -32.6592  -21.3107   22.6076 H   0  0  0  0  0  0
  -28.4622  -25.6048   18.3267 H   0  0  0  0  0  0
  -29.6812  -25.1766   19.4433 H   0  0  0  0  0  0
  -29.0748  -15.8851   20.7402 H   0  0  0  0  0  0
  1 25  1  0  0  0
  1 30  2  0  0  0
  1 86  1  0  0  0
  2  3  1  0  0  0
  2 25  1  0  0  0
  2 90  1  0  0  0
  2 91  1  0  0  0
  3  4  1  0  0  0
  3 92  1  0  0  0
  3 93  1  0  0  0
  4  5  1  0  0  0
  4 94  1  0  0  0
  4 95  1  0  0  0
  5  6  1  0  0  0
  5 26  1  0  0  0
  5 96  1  0  0  0
  6 25  1  0  0  0
  6 97  1  0  0  0
  6 98  1  0  0  0
  7  8  2  0  0  0
  7 26  1  0  0  0
  7 29  1  0  0  0
  8  9  1  0  0  0
  8 22  1  0  0  0
  9 10  1  0  0  0
  9 27  2  0  0  0
 10 11  2  0  0  0
 10 15  1  0  0  0
 11 12  1  0  0  0
 11 99  1  0  0  0
 12 13  2  0  0  0
 12100  1  0  0  0
 13 14  1  0  0  0
 13 31  1  0  0  0
 14 15  2  0  0  0
 14101  1  0  0  0
 15102  1  0  0  0
 16 17  2  0  0  0
 16 21  1  0  0  0
 16 31  1  0  0  0
 17 18  1  0  0  0
 17103  1  0  0  0
 18 19  2  0  0  0
 18104  1  0  0  0
 19 20  1  0  0  0
 19 24  1  0  0  0
 20 21  2  0  0  0
 20105  1  0  0  0
 21 23  1  0  0  0
 22 28  1  0  0  0
 22 32  2  0  0  0
 26 27  1  0  0  0
 28106  1  0  0  0
 28107  1  0  0  0
 29108  1  0  0  0
 29109  1  0  0  0
 33 34  1  0  0  0
 33 66  1  0  0  0
 33 70  2  0  0  0
 34 36  1  0  0  0
 34 59  1  0  0  0
 34110  1  0  0  0
 35 44  2  0  0  0
 35 45  1  0  0  0
 35 68  1  0  0  0
 36 56  1  0  0  0
 36111  1  0  0  0
 37 39  1  0  0  0
 37 47  1  0  0  0
 37 66  1  0  0  0
 37112  1  0  0  0
 38 43  2  0  0  0
 38 46  1  0  0  0
 38 47  1  0  0  0
 39 64  1  0  0  0
 39 67  2  0  0  0
 40 52  1  0  0  0
 40 53  2  0  0  0
 40 58  1  0  0  0
 41113  1  0  0  0
 41114  1  0  0  0
 41115  1  0  0  0
 41 48  1  0  0  0
 42 43  1  0  0  0
 42 66  1  0  0  0
 42116  1  0  0  0
 42117  1  0  0  0
 43 44  1  0  0  0
 44118  1  0  0  0
 45 46  2  0  0  0
 45119  1  0  0  0
 46120  1  0  0  0
 47121  1  0  0  0
 47122  1  0  0  0
 48 56  1  0  0  0
 48 65  1  0  0  0
 48123  1  0  0  0
 49 50  1  0  0  0
 49 53  1  0  0  0
 49 64  1  0  0  0
 49124  1  0  0  0
 50 51  1  0  0  0
 50125  1  0  0  0
 50126  1  0  0  0
 51 52  1  0  0  0
 51127  1  0  0  0
 51128  1  0  0  0
 52129  1  0  0  0
 52130  1  0  0  0
 53 54  1  0  0  0
 54 55  2  0  0  0
 54131  1  0  0  0
 55 57  1  0  0  0
 55132  1  0  0  0
 56 69  2  0  0  0
 57 58  2  0  0  0
 57133  1  0  0  0
 58134  1  0  0  0
 59 60  1  0  0  0
 59 61  1  0  0  0
 59 62  1  0  0  0
 60135  1  0  0  0
 60136  1  0  0  0
 60137  1  0  0  0
 61138  1  0  0  0
 61139  1  0  0  0
 61140  1  0  0  0
 62141  1  0  0  0
 62142  1  0  0  0
 62143  1  0  0  0
 63 65  1  0  0  0
 63144  1  0  0  0
 63145  1  0  0  0
 63146  1  0  0  0
 64147  1  0  0  0
 65148  1  0  0  0
 68 84  1  0  0  0
 71 72  2  0  0  0
 71 74  1  0  0  0
 71149  1  0  0  0
 72 76  1  0  0  0
 72150  1  0  0  0
 73 75  1  0  0  0
 73 76  2  0  0  0
 73151  1  0  0  0
 74 75  2  0  0  0
 74 79  1  0  0  0
 75 78  1  0  0  0
 76 85  1  0  0  0
 77 80  1  0  0  0
 77 85  1  0  0  0
 77 87  2  0  0  0
 78 83  1  0  0  0
 78 88  2  0  0  0
 79 86  1  0  0  0
 79 89  2  0  0  0
 80 81  1  0  0  0
 80152  1  0  0  0
 80153  1  0  0  0
 81 82  1  0  0  0
 81154  1  0  0  0
 81155  1  0  0  0
 82 84  1  0  0  0
 82 85  1  0  0  0
 82156  1  0  0  0
 83157  1  0  0  0
 83158  1  0  0  0
 83159  1  0  0  0
 84160  1  0  0  0
 84161  1  0  0  0
 86162  1  0  0  0
M  ISO  4   1 100  68 101  84 101  86 100
M  END
> <chiral flag>
0

> <version>
0

> <s_m_source_file>
/data/baiqing/PycharmProjects/Reinvent-master-3.2/result/LINK_invent/BTK/process_docking_weight1_custom_product_contain_oxygen_bond_distance_aromatic_linkinvent_7_9_3/rearranged_h_0107.sdf

> <i_m_source_file_index>
53

> <r_mmod_Potential_Energy-OPLS-2005>
256.841400146484

> <r_mmod_Stretch_Energy-OPLS-2005>
105.252052307129

> <r_mmod_Bend_Energy-OPLS-2005>
243.142425537109

> <r_mmod_Torsional_Energy-OPLS-2005>
393.616058349609

> <r_mmod_Improper_Torsional_Energy-OPLS-2005>
12.9271564483643

> <r_mmod_Van_der_Waal_Energy-OPLS-2005>
169.951416015625

> <r_mmod_Electrostatic_Energy-OPLS-2005>
-478.000305175781

> <r_mmod_Solvation_Energy-OPLS-2005>
-256.546020507812

> <b_mmod_Minimization_Converged-OPLS-2005>
0

> <r_mmod_RMS_Derivative-OPLS-2005>
1.87355053424835

$$$$
53
                    3D
 Structure written by MMmdl.
163172  0  0  1  0            999 V2000
  -30.7181  -14.4914   20.5548 C   0  0  0  0  0  0
  -30.4154  -12.3174   19.4170 C   0  0  0  0  0  0
  -29.4871  -12.5074   18.2015 C   0  0  0  0  0  0
  -28.0088  -12.3741   18.6180 C   0  0  0  0  0  0
  -27.6580  -13.2134   19.8747 C   0  0  2  0  0  0
  -28.7079  -13.0200   20.9922 C   0  0  0  0  0  0
  -25.2569  -13.8179   20.5701 C   0  0  0  0  0  0
  -24.1833  -13.0441   20.9198 C   0  0  0  0  0  0
  -24.6400  -11.6907   20.8740 C   0  0  0  0  0  0
  -23.9070  -10.4291   21.0401 C   0  0  0  0  0  0
  -24.3611   -9.4211   21.9186 C   0  0  0  0  0  0
  -23.6288   -8.2245   22.0764 C   0  0  0  0  0  0
  -22.4273   -8.0281   21.3552 C   0  0  0  0  0  0
  -21.9912   -9.0252   20.4650 C   0  0  0  0  0  0
  -22.7243  -10.2130   20.3056 C   0  0  0  0  0  0
  -21.6861   -6.0731   22.5279 C   0  0  0  0  0  0
  -21.4021   -6.5635   23.8209 C   0  0  0  0  0  0
  -21.3662   -5.6788   24.9168 C   0  0  0  0  0  0
  -21.6039   -4.3053   24.7225 C   0  0  0  0  0  0
  -21.8818   -3.8140   23.4348 C   0  0  0  0  0  0
  -21.9197   -4.6957   22.3406 C   0  0  0  0  0  0
  -22.7851  -13.5218   21.1859 C   0  0  0  0  0  0
  -22.1656   -4.2149   21.0976 F   0  0  0  0  0  0
  -21.5637   -3.4534   25.7738 F   0  0  0  0  0  0
  -30.0310  -13.3218   20.4223 N   0  0  0  0  0  0
  -26.3016  -12.9355   20.3404 N   0  0  0  0  0  0
  -25.9338  -11.6502   20.5792 N   0  0  0  0  0  0
  -22.0502  -12.8190   22.0406 N   0  0  0  0  0  0
  -25.4273  -15.1892   20.4050 N   0  0  0  0  0  0
  -31.8579  -14.6395   20.1086 O   0  0  0  0  0  0
  -21.6638   -6.8868   21.4237 O   0  0  0  0  0  0
  -22.3535  -14.5538   20.6740 O   0  0  0  0  0  0
  -24.6183  -31.8655   23.2139 C   0  0  0  0  0  0
  -25.9049  -32.4807   23.8432 C   0  0  1  0  0  0
  -27.2188  -27.3866   20.0928 C   0  0  0  0  0  0
  -25.5893  -33.8604   24.2345 N   0  0  0  0  0  0
  -23.4077  -30.4976   21.5519 C   0  0  2  0  0  0
  -24.8494  -28.9715   20.1147 C   0  0  0  0  0  0
  -22.7402  -29.4692   22.4937 C   0  0  0  0  0  0
  -18.0268  -28.1434   22.8490 C   0  0  0  0  0  0
  -24.1481  -36.7320   23.2647 C   0  0  0  0  0  0
  -25.9465  -30.8184   21.3754 C   0  0  0  0  0  0
  -26.0190  -29.4544   20.7148 C   0  0  0  0  0  0
  -27.2070  -28.6723   20.7011 C   0  0  0  0  0  0
  -26.0172  -26.9526   19.4716 C   0  0  0  0  0  0
  -24.8456  -27.7198   19.4928 C   0  0  0  0  0  0
  -23.6152  -29.8423   20.1647 C   0  0  0  0  0  0
  -25.4110  -36.3115   24.0343 C   0  0  1  0  0  0
  -20.5862  -28.3754   23.1287 C   0  0  2  0  0  0
  -20.6773  -26.9489   22.5413 C   0  0  0  0  0  0
  -19.5743  -26.6435   21.5227 C   0  0  0  0  0  0
  -18.1907  -26.7973   22.1637 C   0  0  0  0  0  0
  -19.1518  -28.8908   23.2875 C   0  0  0  0  0  0
  -18.9447  -30.1490   23.8923 C   0  0  0  0  0  0
  -17.6447  -30.6626   24.0594 C   0  0  0  0  0  0
  -25.9042  -34.9479   23.5151 C   0  0  0  0  0  0
  -16.5335  -29.9135   23.6338 C   0  0  0  0  0  0
  -16.7254  -28.6552   23.0363 C   0  0  0  0  0  0
  -26.4464  -31.6591   25.0781 C   0  0  0  0  0  0
  -25.3752  -31.3638   26.1530 C   0  0  0  0  0  0
  -27.0335  -30.3036   24.6219 C   0  0  0  0  0  0
  -27.6002  -32.4378   25.7520 C   0  0  0  0  0  0
  -27.5570  -37.1820   24.8472 C   0  0  0  0  0  0
  -21.4132  -29.3087   22.3657 N   0  0  0  0  0  0
  -26.4288  -37.3804   23.9425 N   0  0  0  0  0  0
  -24.6766  -31.0751   22.1034 N   0  0  0  0  0  0
  -23.4146  -28.8219   23.2997 O   0  0  0  0  0  0
  -28.3515  -26.5667   20.1361 O   0  0  0  0  0  0
  -26.5590  -34.8915   22.4703 O   0  0  0  0  0  0
  -23.5369  -32.1392   23.7546 O   0  0  0  0  0  0
  -31.2366  -19.4816   22.1767 C   0  0  0  0  0  0
  -31.9823  -18.3678   22.6033 C   0  0  0  0  0  0
  -29.7758  -17.9983   20.9186 C   0  0  0  0  0  0
  -30.1376  -19.3247   21.3000 C   0  0  0  0  0  0
  -31.6292  -17.0651   22.2024 C   0  0  0  0  0  0
  -30.5068  -16.8598   21.3577 C   0  0  0  0  0  0
  -29.1607  -24.0741   20.0783 C   0  0  0  0  0  0
  -28.9454  -22.9508   20.8377 C   0  0  0  0  0  0
  -30.3409  -24.1430   19.1856 C   0  0  0  0  0  0
  -29.2699  -20.5119   20.8975 C   0  0  0  0  0  0
  -31.2371  -22.9113   19.0841 C   0  0  0  0  0  0
  -31.1708  -22.0112   20.3340 C   0  0  0  0  0  0
  -27.8030  -22.8851   21.8621 C   0  0  0  0  0  0
  -28.0840  -25.1628   19.8519 C   0  0  0  0  0  0
  -29.7901  -21.7890   20.8053 N   0  0  0  0  0  0
  -32.3810  -15.9976   22.6875 N   0  0  0  0  0  0
  -30.0247  -15.5394   21.0497 N   0  0  0  0  0  0
  -30.6259  -25.1302   18.5021 O   0  0  0  0  0  0
  -28.0755  -20.2711   20.6781 O   0  0  0  0  0  0
  -31.4608  -12.3977   19.1138 H   0  0  0  0  0  0
  -30.3012  -11.3122   19.8263 H   0  0  0  0  0  0
  -29.7180  -11.7740   17.4275 H   0  0  0  0  0  0
  -29.6576  -13.4877   17.7531 H   0  0  0  0  0  0
  -27.8124  -11.3198   18.8109 H   0  0  0  0  0  0
  -27.3576  -12.6555   17.7904 H   0  0  0  0  0  0
  -27.6926  -14.2591   19.5694 H   0  0  0  0  0  0
  -28.6905  -11.9914   21.3551 H   0  0  0  0  0  0
  -28.4815  -13.6397   21.8622 H   0  0  0  0  0  0
  -25.2755   -9.5686   22.4769 H   0  0  0  0  0  0
  -24.0013   -7.4630   22.7481 H   0  0  0  0  0  0
  -21.0858   -8.8748   19.8942 H   0  0  0  0  0  0
  -22.3702  -10.9653   19.6165 H   0  0  0  0  0  0
  -21.2006   -7.6143   23.9714 H   0  0  0  0  0  0
  -21.1486   -6.0517   25.9071 H   0  0  0  0  0  0
  -22.0594   -2.7608   23.2849 H   0  0  0  0  0  0
  -22.4125  -11.9814   22.4714 H   0  0  0  0  0  0
  -21.1128  -13.1193   22.2641 H   0  0  0  0  0  0
  -24.6585  -15.8434   20.5003 H   0  0  0  0  0  0
  -26.2711  -15.6191   20.0494 H   0  0  0  0  0  0
  -26.7114  -32.5504   23.1180 H   0  0  0  0  0  0
  -25.0047  -33.9781   25.0486 H   0  0  0  0  0  0
  -22.7044  -31.3221   21.4169 H   0  0  0  0  0  0
  -23.3753  -35.9637   23.3324 H   0  0  0  0  0  0
  -24.3566  -36.8945   22.2056 H   0  0  0  0  0  0
  -23.7226  -37.6524   23.6669 H   0  0  0  0  0  0
  -26.0756  -31.5863   20.6114 H   0  0  0  0  0  0
  -26.8279  -30.8591   22.0031 H   0  0  0  0  0  0
  -28.1030  -29.0411   21.1791 H   0  0  0  0  0  0
  -25.9239  -26.0057   18.9635 H   0  0  0  0  0  0
  -23.9452  -27.3392   19.0295 H   0  0  0  0  0  0
  -23.7276  -30.6223   19.4111 H   0  0  0  0  0  0
  -22.7354  -29.2681   19.8657 H   0  0  0  0  0  0
  -25.1289  -36.1968   25.0837 H   0  0  0  0  0  0
  -20.9958  -28.3366   24.1406 H   0  0  0  0  0  0
  -20.5750  -26.2379   23.3623 H   0  0  0  0  0  0
  -21.6629  -26.7546   22.1174 H   0  0  0  0  0  0
  -19.6933  -25.6356   21.1246 H   0  0  0  0  0  0
  -19.6676  -27.3243   20.6766 H   0  0  0  0  0  0
  -17.4181  -26.6745   21.4018 H   0  0  0  0  0  0
  -18.0287  -26.0115   22.9045 H   0  0  0  0  0  0
  -19.7918  -30.7286   24.2321 H   0  0  0  0  0  0
  -17.5008  -31.6306   24.5201 H   0  0  0  0  0  0
  -15.5344  -30.3058   23.7661 H   0  0  0  0  0  0
  -15.8647  -28.0873   22.7110 H   0  0  0  0  0  0
  -24.5965  -30.6947   25.7853 H   0  0  0  0  0  0
  -24.8909  -32.2763   26.5016 H   0  0  0  0  0  0
  -25.8149  -30.8789   27.0262 H   0  0  0  0  0  0
  -26.2916  -29.6786   24.1237 H   0  0  0  0  0  0
  -27.4036  -29.7268   25.4714 H   0  0  0  0  0  0
  -27.8776  -30.4353   23.9446 H   0  0  0  0  0  0
  -27.2566  -33.3677   26.2048 H   0  0  0  0  0  0
  -28.3768  -32.6953   25.0317 H   0  0  0  0  0  0
  -28.0709  -31.8588   26.5475 H   0  0  0  0  0  0
  -28.2566  -38.0134   24.7524 H   0  0  0  0  0  0
  -28.1088  -36.2658   24.6288 H   0  0  0  0  0  0
  -27.2293  -37.1453   25.8877 H   0  0  0  0  0  0
  -20.9313  -29.8744   21.6803 H   0  0  0  0  0  0
  -26.0178  -38.2876   24.1454 H   0  0  0  0  0  0
  -31.5109  -20.4581   22.5496 H   0  0  0  0  0  0
  -32.8192  -18.5258   23.2703 H   0  0  0  0  0  0
  -28.9040  -17.8528   20.2952 H   0  0  0  0  0  0
  -32.2647  -23.2324   18.9089 H   0  0  0  0  0  0
  -30.9282  -22.3520   18.2011 H   0  0  0  0  0  0
  -31.7523  -22.4556   21.1431 H   0  0  0  0  0  0
  -31.6713  -21.0782   20.0746 H   0  0  0  0  0  0
  -26.8706  -22.5926   21.3790 H   0  0  0  0  0  0
  -27.6506  -23.8468   22.3564 H   0  0  0  0  0  0
  -28.0051  -22.1738   22.6648 H   0  0  0  0  0  0
  -27.1996  -24.8707   20.4148 H   0  0  0  0  0  0
  -27.8205  -25.0780   18.7964 H   0  0  0  0  0  0
  -33.2562  -16.2381   23.1385 H   0  0  0  0  0  0
  -32.5241  -15.2736   21.9874 H   0  0  0  0  0  0
  -29.0443  -15.3757   21.2092 H   0  0  0  0  0  0
  1 25  1  0  0  0
  1 30  2  0  0  0
  1 87  1  0  0  0
  2  3  1  0  0  0
  2 25  1  0  0  0
  2 90  1  0  0  0
  2 91  1  0  0  0
  3  4  1  0  0  0
  3 92  1  0  0  0
  3 93  1  0  0  0
  4  5  1  0  0  0
  4 94  1  0  0  0
  4 95  1  0  0  0
  5  6  1  0  0  0
  5 26  1  0  0  0
  5 96  1  0  0  0
  6 25  1  0  0  0
  6 97  1  0  0  0
  6 98  1  0  0  0
  7  8  2  0  0  0
  7 26  1  0  0  0
  7 29  1  0  0  0
  8  9  1  0  0  0
  8 22  1  0  0  0
  9 10  1  0  0  0
  9 27  2  0  0  0
 10 11  2  0  0  0
 10 15  1  0  0  0
 11 12  1  0  0  0
 11 99  1  0  0  0
 12 13  2  0  0  0
 12100  1  0  0  0
 13 14  1  0  0  0
 13 31  1  0  0  0
 14 15  2  0  0  0
 14101  1  0  0  0
 15102  1  0  0  0
 16 17  2  0  0  0
 16 21  1  0  0  0
 16 31  1  0  0  0
 17 18  1  0  0  0
 17103  1  0  0  0
 18 19  2  0  0  0
 18104  1  0  0  0
 19 20  1  0  0  0
 19 24  1  0  0  0
 20 21  2  0  0  0
 20105  1  0  0  0
 21 23  1  0  0  0
 22 28  1  0  0  0
 22 32  2  0  0  0
 26 27  1  0  0  0
 28106  1  0  0  0
 28107  1  0  0  0
 29108  1  0  0  0
 29109  1  0  0  0
 33 34  1  0  0  0
 33 66  1  0  0  0
 33 70  2  0  0  0
 34 36  1  0  0  0
 34 59  1  0  0  0
 34110  1  0  0  0
 35 44  2  0  0  0
 35 45  1  0  0  0
 35 68  1  0  0  0
 36 56  1  0  0  0
 36111  1  0  0  0
 37 39  1  0  0  0
 37 47  1  0  0  0
 37 66  1  0  0  0
 37112  1  0  0  0
 38 43  2  0  0  0
 38 46  1  0  0  0
 38 47  1  0  0  0
 39 64  1  0  0  0
 39 67  2  0  0  0
 40 52  1  0  0  0
 40 53  2  0  0  0
 40 58  1  0  0  0
 41113  1  0  0  0
 41114  1  0  0  0
 41115  1  0  0  0
 41 48  1  0  0  0
 42 43  1  0  0  0
 42 66  1  0  0  0
 42116  1  0  0  0
 42117  1  0  0  0
 43 44  1  0  0  0
 44118  1  0  0  0
 45 46  2  0  0  0
 45119  1  0  0  0
 46120  1  0  0  0
 47121  1  0  0  0
 47122  1  0  0  0
 48 56  1  0  0  0
 48 65  1  0  0  0
 48123  1  0  0  0
 49 50  1  0  0  0
 49 53  1  0  0  0
 49 64  1  0  0  0
 49124  1  0  0  0
 50 51  1  0  0  0
 50125  1  0  0  0
 50126  1  0  0  0
 51 52  1  0  0  0
 51127  1  0  0  0
 51128  1  0  0  0
 52129  1  0  0  0
 52130  1  0  0  0
 53 54  1  0  0  0
 54 55  2  0  0  0
 54131  1  0  0  0
 55 57  1  0  0  0
 55132  1  0  0  0
 56 69  2  0  0  0
 57 58  2  0  0  0
 57133  1  0  0  0
 58134  1  0  0  0
 59 60  1  0  0  0
 59 61  1  0  0  0
 59 62  1  0  0  0
 60135  1  0  0  0
 60136  1  0  0  0
 60137  1  0  0  0
 61138  1  0  0  0
 61139  1  0  0  0
 61140  1  0  0  0
 62141  1  0  0  0
 62142  1  0  0  0
 62143  1  0  0  0
 63 65  1  0  0  0
 63144  1  0  0  0
 63145  1  0  0  0
 63146  1  0  0  0
 64147  1  0  0  0
 65148  1  0  0  0
 68 84  1  0  0  0
 71 72  2  0  0  0
 71 74  1  0  0  0
 71149  1  0  0  0
 72 75  1  0  0  0
 72150  1  0  0  0
 73 74  2  0  0  0
 73 76  1  0  0  0
 73151  1  0  0  0
 74 80  1  0  0  0
 75 76  2  0  0  0
 75 86  1  0  0  0
 76 87  1  0  0  0
 77 78  2  0  0  0
 77 79  1  0  0  0
 77 84  1  0  0  0
 78 83  1  0  0  0
 78 85  1  0  0  0
 79 81  1  0  0  0
 79 88  2  0  0  0
 80 85  1  0  0  0
 80 89  2  0  0  0
 81 82  1  0  0  0
 81152  1  0  0  0
 81153  1  0  0  0
 82 85  1  0  0  0
 82154  1  0  0  0
 82155  1  0  0  0
 83156  1  0  0  0
 83157  1  0  0  0
 83158  1  0  0  0
 84159  1  0  0  0
 84160  1  0  0  0
 86161  1  0  0  0
 86162  1  0  0  0
 87163  1  0  0  0
M  ISO  4   1 100  68 101  84 101  87 100
M  END
> <chiral flag>
0

> <version>
0

> <s_m_source_file>
/data/baiqing/PycharmProjects/Reinvent-master-3.2/result/LINK_invent/BTK/process_docking_weight1_custom_product_contain_oxygen_bond_distance_aromatic_linkinvent_7_9_3/rearranged_h_0107.sdf

> <i_m_source_file_index>
54

> <r_mmod_Potential_Energy-OPLS-2005>
22.6181526184082

> <r_mmod_Stretch_Energy-OPLS-2005>
60.9493408203125

> <r_mmod_Bend_Energy-OPLS-2005>
115.993804931641

> <r_mmod_Torsional_Energy-OPLS-2005>
254.999435424805

> <r_mmod_Improper_Torsional_Energy-OPLS-2005>
10.834285736084

> <r_mmod_Van_der_Waal_Energy-OPLS-2005>
203.478607177734

> <r_mmod_Electrostatic_Energy-OPLS-2005>
-408.98681640625

> <r_mmod_Solvation_Energy-OPLS-2005>
-236.136001586914

> <b_mmod_Minimization_Converged-OPLS-2005>
0

> <r_mmod_RMS_Derivative-OPLS-2005>
3.24681735038757

$$$$
54
                    3D
 Structure written by MMmdl.
163172  0  0  1  0            999 V2000
  -30.5849  -14.8188   20.4677 C   0  0  0  0  0  0
  -30.4451  -12.5117   19.4710 C   0  0  0  0  0  0
  -29.5142  -12.5081   18.2388 C   0  0  0  0  0  0
  -28.0424  -12.3173   18.6584 C   0  0  0  0  0  0
  -27.6367  -13.2306   19.8461 C   0  0  2  0  0  0
  -28.6868  -13.1961   20.9770 C   0  0  0  0  0  0
  -25.2479  -13.8164   20.5700 C   0  0  0  0  0  0
  -24.1791  -13.0415   20.9247 C   0  0  0  0  0  0
  -24.6389  -11.6891   20.8797 C   0  0  0  0  0  0
  -23.9071  -10.4279   21.0453 C   0  0  0  0  0  0
  -24.3619   -9.4200   21.9225 C   0  0  0  0  0  0
  -23.6283   -8.2241   22.0785 C   0  0  0  0  0  0
  -22.4261   -8.0296   21.3571 C   0  0  0  0  0  0
  -21.9907   -9.0265   20.4667 C   0  0  0  0  0  0
  -22.7254  -10.2135   20.3088 C   0  0  0  0  0  0
  -21.6846   -6.0753   22.5281 C   0  0  0  0  0  0
  -21.4016   -6.5655   23.8217 C   0  0  0  0  0  0
  -21.3656   -5.6801   24.9170 C   0  0  0  0  0  0
  -21.6035   -4.3064   24.7213 C   0  0  0  0  0  0
  -21.8815   -3.8161   23.4334 C   0  0  0  0  0  0
  -21.9189   -4.6982   22.3395 C   0  0  0  0  0  0
  -22.7805  -13.5214   21.1854 C   0  0  0  0  0  0
  -22.1656   -4.2174   21.0974 F   0  0  0  0  0  0
  -21.5614   -3.4548   25.7721 F   0  0  0  0  0  0
  -29.9693  -13.5841   20.3773 N   0  0  0  0  0  0
  -26.2906  -12.9370   20.3279 N   0  0  0  0  0  0
  -25.9329  -11.6519   20.5790 N   0  0  0  0  0  0
  -22.0390  -12.8255   22.0406 N   0  0  0  0  0  0
  -25.4098  -15.1884   20.4058 N   0  0  0  0  0  0
  -31.7903  -14.9017   20.2126 O   0  0  0  0  0  0
  -21.6630   -6.8898   21.4244 O   0  0  0  0  0  0
  -22.3528  -14.5520   20.6677 O   0  0  0  0  0  0
  -24.6381  -31.8511   23.1940 C   0  0  0  0  0  0
  -25.9176  -32.4743   23.8299 C   0  0  1  0  0  0
  -27.2188  -27.2088   20.1265 C   0  0  0  0  0  0
  -25.5945  -33.8547   24.2220 N   0  0  0  0  0  0
  -23.4368  -30.4747   21.5399 C   0  0  2  0  0  0
  -24.8850  -28.9193   20.1083 C   0  0  0  0  0  0
  -22.7541  -29.4584   22.4889 C   0  0  0  0  0  0
  -18.0305  -28.1407   22.8479 C   0  0  0  0  0  0
  -24.1491  -36.7278   23.2635 C   0  0  0  0  0  0
  -25.9895  -30.7494   21.3798 C   0  0  0  0  0  0
  -26.0621  -29.3688   20.7184 C   0  0  0  0  0  0
  -27.2298  -28.5273   20.7154 C   0  0  0  0  0  0
  -26.0055  -26.8415   19.4950 C   0  0  0  0  0  0
  -24.8650  -27.6649   19.4847 C   0  0  0  0  0  0
  -23.6575  -29.8110   20.1561 C   0  0  0  0  0  0
  -25.4124  -36.3063   24.0317 C   0  0  1  0  0  0
  -20.5908  -28.3721   23.1258 C   0  0  2  0  0  0
  -20.6798  -26.9428   22.5413 C   0  0  0  0  0  0
  -19.5774  -26.6393   21.5212 C   0  0  0  0  0  0
  -18.1932  -26.7959   22.1592 C   0  0  0  0  0  0
  -19.1559  -28.8889   23.2865 C   0  0  0  0  0  0
  -18.9474  -30.1487   23.8898 C   0  0  0  0  0  0
  -17.6471  -30.6619   24.0553 C   0  0  0  0  0  0
  -25.9072  -34.9437   23.5073 C   0  0  0  0  0  0
  -16.5367  -29.9098   23.6339 C   0  0  0  0  0  0
  -16.7284  -28.6520   23.0360 C   0  0  0  0  0  0
  -26.4513  -31.6587   25.0719 C   0  0  0  0  0  0
  -25.3715  -31.3741   26.1421 C   0  0  0  0  0  0
  -27.0376  -30.2998   24.6251 C   0  0  0  0  0  0
  -27.6045  -32.4343   25.7508 C   0  0  0  0  0  0
  -27.5580  -37.1800   24.8467 C   0  0  0  0  0  0
  -21.4230  -29.3080   22.3666 N   0  0  0  0  0  0
  -26.4297  -37.3765   23.9411 N   0  0  0  0  0  0
  -24.7077  -31.0431   22.0940 N   0  0  0  0  0  0
  -23.4237  -28.8086   23.2962 O   0  0  0  0  0  0
  -28.2732  -26.2461   20.2273 O   0  0  0  0  0  0
  -26.5640  -34.8914   22.4641 O   0  0  0  0  0  0
  -23.5514  -32.1331   23.7210 O   0  0  0  0  0  0
  -31.0981  -17.6015   21.8956 C   0  0  0  0  0  0
  -30.6719  -20.0473   21.9826 C   0  0  0  0  0  0
  -29.7035  -19.9920   20.9209 C   0  0  0  0  0  0
  -31.3555  -18.8760   22.4311 C   0  0  0  0  0  0
  -30.1096  -17.3950   20.9206 C   0  0  0  0  0  0
  -29.4124  -18.6079   20.4636 C   0  0  0  0  0  0
  -28.5306  -23.6539   19.6818 C   0  0  0  0  0  0
  -28.2233  -25.0152   19.4874 C   0  0  0  0  0  0
  -28.3361  -22.6744   18.5370 C   0  0  0  0  0  0
  -29.0913  -22.7097   20.8097 C   0  0  0  0  0  0
  -28.3963  -21.2267   19.0879 C   0  0  0  0  0  0
  -31.0071  -21.3609   22.6854 C   0  0  0  0  0  0
  -27.1241  -18.3091   20.2197 C   0  0  0  0  0  0
  -29.0912  -21.2381   20.3726 N   0  0  0  0  0  0
  -32.3174  -18.9327   23.4480 N   0  0  0  0  0  0
  -29.7895  -15.9698   20.5534 N   0  0  0  0  0  0
  -28.3899  -18.3980   19.5767 O   0  0  0  0  0  0
  -31.4789  -12.6648   19.1527 H   0  0  0  0  0  0
  -30.4314  -11.5459   19.9783 H   0  0  0  0  0  0
  -29.8103  -11.7178   17.5489 H   0  0  0  0  0  0
  -29.6197  -13.4507   17.6977 H   0  0  0  0  0  0
  -27.9192  -11.2708   18.9389 H   0  0  0  0  0  0
  -27.3772  -12.4794   17.8081 H   0  0  0  0  0  0
  -27.6171  -14.2443   19.4461 H   0  0  0  0  0  0
  -28.7526  -12.2012   21.4197 H   0  0  0  0  0  0
  -28.4127  -13.8739   21.7873 H   0  0  0  0  0  0
  -25.2764   -9.5668   22.4810 H   0  0  0  0  0  0
  -23.9991   -7.4636   22.7520 H   0  0  0  0  0  0
  -21.0834   -8.8790   19.8976 H   0  0  0  0  0  0
  -22.3734  -10.9679   19.6198 H   0  0  0  0  0  0
  -21.2020   -7.6166   23.9733 H   0  0  0  0  0  0
  -21.1478   -6.0530   25.9078 H   0  0  0  0  0  0
  -22.0599   -2.7629   23.2820 H   0  0  0  0  0  0
  -22.3924  -11.9928   22.4875 H   0  0  0  0  0  0
  -21.1013  -13.1362   22.2553 H   0  0  0  0  0  0
  -24.6286  -15.8278   20.5058 H   0  0  0  0  0  0
  -26.2237  -15.6161   19.9874 H   0  0  0  0  0  0
  -26.7242  -32.5366   23.1028 H   0  0  0  0  0  0
  -25.0125  -33.9671   25.0391 H   0  0  0  0  0  0
  -22.7365  -31.2992   21.3924 H   0  0  0  0  0  0
  -23.3763  -35.9601   23.3300 H   0  0  0  0  0  0
  -24.3560  -36.8907   22.2044 H   0  0  0  0  0  0
  -23.7236  -37.6473   23.6671 H   0  0  0  0  0  0
  -26.1370  -31.5097   20.6107 H   0  0  0  0  0  0
  -26.8626  -30.7957   22.0183 H   0  0  0  0  0  0
  -28.1268  -28.8667   21.2144 H   0  0  0  0  0  0
  -25.8883  -25.8726   19.0353 H   0  0  0  0  0  0
  -23.9609  -27.3087   19.0122 H   0  0  0  0  0  0
  -23.7847  -30.5876   19.4003 H   0  0  0  0  0  0
  -22.7734  -29.2490   19.8491 H   0  0  0  0  0  0
  -25.1311  -36.1898   25.0812 H   0  0  0  0  0  0
  -20.9977  -28.3281   24.1393 H   0  0  0  0  0  0
  -20.5673  -26.2333   23.3629 H   0  0  0  0  0  0
  -21.6678  -26.7403   22.1252 H   0  0  0  0  0  0
  -19.6919  -25.6285   21.1294 H   0  0  0  0  0  0
  -19.6730  -27.3157   20.6716 H   0  0  0  0  0  0
  -17.4218  -26.6753   21.3972 H   0  0  0  0  0  0
  -18.0268  -26.0076   22.8943 H   0  0  0  0  0  0
  -19.7950  -30.7323   24.2245 H   0  0  0  0  0  0
  -17.5006  -31.6315   24.5115 H   0  0  0  0  0  0
  -15.5364  -30.2980   23.7682 H   0  0  0  0  0  0
  -15.8679  -28.0852   22.7073 H   0  0  0  0  0  0
  -24.5887  -30.7104   25.7725 H   0  0  0  0  0  0
  -24.8914  -32.2916   26.4841 H   0  0  0  0  0  0
  -25.8005  -30.8899   27.0202 H   0  0  0  0  0  0
  -26.2973  -29.6725   24.1268 H   0  0  0  0  0  0
  -27.4026  -29.7287   25.4799 H   0  0  0  0  0  0
  -27.8864  -30.4260   23.9524 H   0  0  0  0  0  0
  -27.2634  -33.3647   26.2060 H   0  0  0  0  0  0
  -28.3871  -32.6903   25.0354 H   0  0  0  0  0  0
  -28.0699  -31.8491   26.5447 H   0  0  0  0  0  0
  -28.2602  -38.0091   24.7519 H   0  0  0  0  0  0
  -28.1070  -36.2627   24.6306 H   0  0  0  0  0  0
  -27.2291  -37.1459   25.8864 H   0  0  0  0  0  0
  -20.9388  -29.8848   21.6937 H   0  0  0  0  0  0
  -26.0173  -38.2838   24.1415 H   0  0  0  0  0  0
  -31.6341  -16.7544   22.2980 H   0  0  0  0  0  0
  -27.8916  -25.2561   18.4865 H   0  0  0  0  0  0
  -29.1539  -22.8216   17.8301 H   0  0  0  0  0  0
  -27.4037  -22.8637   18.0020 H   0  0  0  0  0  0
  -28.4938  -22.8423   21.7128 H   0  0  0  0  0  0
  -30.1013  -23.0601   21.0118 H   0  0  0  0  0  0
  -28.8744  -20.5618   18.3680 H   0  0  0  0  0  0
  -27.3782  -20.8678   19.2430 H   0  0  0  0  0  0
  -30.0951  -21.8772   22.9773 H   0  0  0  0  0  0
  -31.6169  -21.9881   22.0374 H   0  0  0  0  0  0
  -31.5598  -21.2466   23.6138 H   0  0  0  0  0  0
  -26.8759  -19.2207   20.7627 H   0  0  0  0  0  0
  -27.1037  -17.4821   20.9329 H   0  0  0  0  0  0
  -26.3459  -18.1387   19.4746 H   0  0  0  0  0  0
  -32.9319  -18.1489   23.6387 H   0  0  0  0  0  0
  -32.6710  -19.8225   23.7821 H   0  0  0  0  0  0
  -28.8071  -15.7923   20.4134 H   0  0  0  0  0  0
  1 25  1  0  0  0
  1 30  2  0  0  0
  1 86  1  0  0  0
  2  3  1  0  0  0
  2 25  1  0  0  0
  2 88  1  0  0  0
  2 89  1  0  0  0
  3  4  1  0  0  0
  3 90  1  0  0  0
  3 91  1  0  0  0
  4  5  1  0  0  0
  4 92  1  0  0  0
  4 93  1  0  0  0
  5  6  1  0  0  0
  5 26  1  0  0  0
  5 94  1  0  0  0
  6 25  1  0  0  0
  6 95  1  0  0  0
  6 96  1  0  0  0
  7  8  2  0  0  0
  7 26  1  0  0  0
  7 29  1  0  0  0
  8  9  1  0  0  0
  8 22  1  0  0  0
  9 10  1  0  0  0
  9 27  2  0  0  0
 10 11  2  0  0  0
 10 15  1  0  0  0
 11 12  1  0  0  0
 11 97  1  0  0  0
 12 13  2  0  0  0
 12 98  1  0  0  0
 13 14  1  0  0  0
 13 31  1  0  0  0
 14 15  2  0  0  0
 14 99  1  0  0  0
 15100  1  0  0  0
 16 17  2  0  0  0
 16 21  1  0  0  0
 16 31  1  0  0  0
 17 18  1  0  0  0
 17101  1  0  0  0
 18 19  2  0  0  0
 18102  1  0  0  0
 19 20  1  0  0  0
 19 24  1  0  0  0
 20 21  2  0  0  0
 20103  1  0  0  0
 21 23  1  0  0  0
 22 28  1  0  0  0
 22 32  2  0  0  0
 26 27  1  0  0  0
 28104  1  0  0  0
 28105  1  0  0  0
 29106  1  0  0  0
 29107  1  0  0  0
 33 34  1  0  0  0
 33 66  1  0  0  0
 33 70  2  0  0  0
 34 36  1  0  0  0
 34 59  1  0  0  0
 34108  1  0  0  0
 35 44  2  0  0  0
 35 45  1  0  0  0
 35 68  1  0  0  0
 36 56  1  0  0  0
 36109  1  0  0  0
 37 39  1  0  0  0
 37 47  1  0  0  0
 37 66  1  0  0  0
 37110  1  0  0  0
 38 43  2  0  0  0
 38 46  1  0  0  0
 38 47  1  0  0  0
 39 64  1  0  0  0
 39 67  2  0  0  0
 40 52  1  0  0  0
 40 53  2  0  0  0
 40 58  1  0  0  0
 41111  1  0  0  0
 41112  1  0  0  0
 41113  1  0  0  0
 41 48  1  0  0  0
 42 43  1  0  0  0
 42 66  1  0  0  0
 42114  1  0  0  0
 42115  1  0  0  0
 43 44  1  0  0  0
 44116  1  0  0  0
 45 46  2  0  0  0
 45117  1  0  0  0
 46118  1  0  0  0
 47119  1  0  0  0
 47120  1  0  0  0
 48 56  1  0  0  0
 48 65  1  0  0  0
 48121  1  0  0  0
 49 50  1  0  0  0
 49 53  1  0  0  0
 49 64  1  0  0  0
 49122  1  0  0  0
 50 51  1  0  0  0
 50123  1  0  0  0
 50124  1  0  0  0
 51 52  1  0  0  0
 51125  1  0  0  0
 51126  1  0  0  0
 52127  1  0  0  0
 52128  1  0  0  0
 53 54  1  0  0  0
 54 55  2  0  0  0
 54129  1  0  0  0
 55 57  1  0  0  0
 55130  1  0  0  0
 56 69  2  0  0  0
 57 58  2  0  0  0
 57131  1  0  0  0
 58132  1  0  0  0
 59 60  1  0  0  0
 59 61  1  0  0  0
 59 62  1  0  0  0
 60133  1  0  0  0
 60134  1  0  0  0
 60135  1  0  0  0
 61136  1  0  0  0
 61137  1  0  0  0
 61138  1  0  0  0
 62139  1  0  0  0
 62140  1  0  0  0
 62141  1  0  0  0
 63 65  1  0  0  0
 63142  1  0  0  0
 63143  1  0  0  0
 63144  1  0  0  0
 64145  1  0  0  0
 65146  1  0  0  0
 68 78  1  0  0  0
 71 74  2  0  0  0
 71 75  1  0  0  0
 71147  1  0  0  0
 72 73  2  0  0  0
 72 74  1  0  0  0
 72 82  1  0  0  0
 73 76  1  0  0  0
 73 84  1  0  0  0
 74 85  1  0  0  0
 75 76  2  0  0  0
 75 86  1  0  0  0
 76 87  1  0  0  0
 77 78  2  0  0  0
 77 79  1  0  0  0
 77 80  1  0  0  0
 78148  1  0  0  0
 79 81  1  0  0  0
 79149  1  0  0  0
 79150  1  0  0  0
 80 84  1  0  0  0
 80151  1  0  0  0
 80152  1  0  0  0
 81 84  1  0  0  0
 81153  1  0  0  0
 81154  1  0  0  0
 82155  1  0  0  0
 82156  1  0  0  0
 82157  1  0  0  0
 83 87  1  0  0  0
 83158  1  0  0  0
 83159  1  0  0  0
 83160  1  0  0  0
 85161  1  0  0  0
 85162  1  0  0  0
 86163  1  0  0  0
M  ISO  4   1 100  68 101  78 101  86 100
M  END
> <chiral flag>
0

> <version>
0

> <s_m_source_file>
/data/baiqing/PycharmProjects/Reinvent-master-3.2/result/LINK_invent/BTK/process_docking_weight1_custom_product_contain_oxygen_bond_distance_aromatic_linkinvent_7_9_3/rearranged_h_0107.sdf

> <i_m_source_file_index>
55

> <r_mmod_Potential_Energy-OPLS-2005>
420.85693359375

> <r_mmod_Stretch_Energy-OPLS-2005>
166.198272705078

> <r_mmod_Bend_Energy-OPLS-2005>
275.775421142578

> <r_mmod_Torsional_Energy-OPLS-2005>
276.115600585938

> <r_mmod_Improper_Torsional_Energy-OPLS-2005>
9.46538162231445

> <r_mmod_Van_der_Waal_Energy-OPLS-2005>
154.466796875

> <r_mmod_Electrostatic_Energy-OPLS-2005>
-355.094848632812

> <r_mmod_Solvation_Energy-OPLS-2005>
-232.900802612305

> <b_mmod_Minimization_Converged-OPLS-2005>
0

> <r_mmod_RMS_Derivative-OPLS-2005>
3.11838412284851

$$$$
55
                    3D
 Structure written by MMmdl.
157165  0  0  1  0            999 V2000
  -30.6563  -14.6814   20.3512 C   0  0  0  0  0  0
  -30.4383  -12.3802   19.4567 C   0  0  0  0  0  0
  -29.5026  -12.3850   18.2269 C   0  0  0  0  0  0
  -28.0212  -12.2751   18.6473 C   0  0  0  0  0  0
  -27.6316  -13.2038   19.8304 C   0  0  2  0  0  0
  -28.6957  -13.1819   20.9499 C   0  0  0  0  0  0
  -25.2485  -13.8054   20.5775 C   0  0  0  0  0  0
  -24.1763  -13.0341   20.9251 C   0  0  0  0  0  0
  -24.6343  -11.6835   20.8787 C   0  0  0  0  0  0
  -23.9021  -10.4231   21.0420 C   0  0  0  0  0  0
  -24.3581   -9.4155   21.9192 C   0  0  0  0  0  0
  -23.6256   -8.2198   22.0751 C   0  0  0  0  0  0
  -22.4239   -8.0245   21.3543 C   0  0  0  0  0  0
  -21.9876   -9.0215   20.4642 C   0  0  0  0  0  0
  -22.7203  -10.2092   20.3057 C   0  0  0  0  0  0
  -21.6833   -6.0721   22.5282 C   0  0  0  0  0  0
  -21.4003   -6.5627   23.8219 C   0  0  0  0  0  0
  -21.3664   -5.6780   24.9178 C   0  0  0  0  0  0
  -21.6045   -4.3043   24.7220 C   0  0  0  0  0  0
  -21.8820   -3.8136   23.4341 C   0  0  0  0  0  0
  -21.9185   -4.6953   22.3400 C   0  0  0  0  0  0
  -22.7801  -13.5164   21.1886 C   0  0  0  0  0  0
  -22.1656   -4.2147   21.0976 F   0  0  0  0  0  0
  -21.5629   -3.4525   25.7733 F   0  0  0  0  0  0
  -30.0082  -13.4686   20.3511 N   0  0  0  0  0  0
  -26.2897  -12.9240   20.3298 N   0  0  0  0  0  0
  -25.9264  -11.6414   20.5814 N   0  0  0  0  0  0
  -22.0444  -12.8188   22.0464 N   0  0  0  0  0  0
  -25.4118  -15.1761   20.4285 N   0  0  0  0  0  0
  -31.8865  -14.7469   20.3286 O   0  0  0  0  0  0
  -21.6614   -6.8848   21.4237 O   0  0  0  0  0  0
  -22.3508  -14.5473   20.6713 O   0  0  0  0  0  0
  -24.6230  -31.8621   23.2052 C   0  0  0  0  0  0
  -25.9091  -32.4792   23.8364 C   0  0  1  0  0  0
  -27.2321  -27.3514   20.1083 C   0  0  0  0  0  0
  -25.5924  -33.8593   24.2297 N   0  0  0  0  0  0
  -23.4150  -30.4849   21.5474 C   0  0  2  0  0  0
  -24.8625  -28.9462   20.1128 C   0  0  0  0  0  0
  -22.7458  -29.4626   22.4961 C   0  0  0  0  0  0
  -18.0288  -28.1377   22.8499 C   0  0  0  0  0  0
  -24.1493  -36.7301   23.2638 C   0  0  0  0  0  0
  -25.9538  -30.8025   21.3723 C   0  0  0  0  0  0
  -26.0294  -29.4331   20.7139 C   0  0  0  0  0  0
  -27.2164  -28.6464   20.7041 C   0  0  0  0  0  0
  -26.0392  -26.9100   19.4864 C   0  0  0  0  0  0
  -24.8671  -27.6876   19.4944 C   0  0  0  0  0  0
  -23.6275  -29.8204   20.1624 C   0  0  0  0  0  0
  -25.4118  -36.3097   24.0330 C   0  0  1  0  0  0
  -20.5889  -28.3670   23.1319 C   0  0  2  0  0  0
  -20.6790  -26.9408   22.5410 C   0  0  0  0  0  0
  -19.5761  -26.6398   21.5210 C   0  0  0  0  0  0
  -18.1941  -26.7925   22.1622 C   0  0  0  0  0  0
  -19.1540  -28.8838   23.2908 C   0  0  0  0  0  0
  -18.9468  -30.1446   23.8917 C   0  0  0  0  0  0
  -17.6469  -30.6583   24.0578 C   0  0  0  0  0  0
  -25.9044  -34.9459   23.5109 C   0  0  0  0  0  0
  -16.5362  -29.9081   23.6344 C   0  0  0  0  0  0
  -16.7274  -28.6503   23.0348 C   0  0  0  0  0  0
  -26.4486  -31.6586   25.0712 C   0  0  0  0  0  0
  -25.3732  -31.3718   26.1448 C   0  0  0  0  0  0
  -27.0315  -30.3011   24.6144 C   0  0  0  0  0  0
  -27.6052  -32.4318   25.7481 C   0  0  0  0  0  0
  -27.5583  -37.1804   24.8462 C   0  0  0  0  0  0
  -21.4172  -29.3036   22.3717 N   0  0  0  0  0  0
  -26.4301  -37.3784   23.9400 N   0  0  0  0  0  0
  -24.6823  -31.0653   22.0992 N   0  0  0  0  0  0
  -23.4191  -28.8166   23.3030 O   0  0  0  0  0  0
  -28.3685  -26.5319   20.1566 O   0  0  0  0  0  0
  -26.5609  -34.8925   22.4674 O   0  0  0  0  0  0
  -23.5402  -32.1413   23.7399 O   0  0  0  0  0  0
  -30.9522  -17.9734   20.7337 C   0  0  0  0  0  0
  -28.8057  -19.6113   19.9993 C   0  0  0  0  0  0
  -29.8500  -17.3295   20.1079 C   0  0  0  0  0  0
  -28.7524  -18.2070   19.7773 C   0  0  0  0  0  0
  -30.9946  -19.3845   20.9485 C   0  0  0  0  0  0
  -29.9335  -20.2469   20.5590 C   0  0  0  0  0  0
  -29.8993  -15.8605   19.6233 C   0  0  0  0  0  0
  -27.4655  -17.7199   19.1268 C   0  0  0  0  0  0
  -29.3298  -24.0989   20.4174 C   0  0  0  0  0  0
  -28.1790  -25.0846   19.9745 C   0  0  0  0  0  0
  -29.0312  -22.5539   20.2259 C   0  0  0  0  0  0
  -29.4023  -15.6319   18.4800 N   0  0  0  0  0  0
  -32.1262  -19.9532   21.5307 N   0  0  0  0  0  0
  -30.0487  -21.6403   20.7364 O   0  0  0  0  0  0
  -31.4752  -12.4993   19.1380 H   0  0  0  0  0  0
  -30.3870  -11.4236   19.9786 H   0  0  0  0  0  0
  -29.7553  -11.5456   17.5774 H   0  0  0  0  0  0
  -29.6643  -13.2731   17.6194 H   0  0  0  0  0  0
  -27.8511  -11.2358   18.9320 H   0  0  0  0  0  0
  -27.3715  -12.4600   17.7914 H   0  0  0  0  0  0
  -27.5831  -14.2067   19.4205 H   0  0  0  0  0  0
  -28.7155  -12.2132   21.4498 H   0  0  0  0  0  0
  -28.4574  -13.9225   21.7151 H   0  0  0  0  0  0
  -25.2722   -9.5629   22.4777 H   0  0  0  0  0  0
  -23.9967   -7.4576   22.7451 H   0  0  0  0  0  0
  -21.0821   -8.8708   19.8931 H   0  0  0  0  0  0
  -22.3654  -10.9628   19.6162 H   0  0  0  0  0  0
  -21.1998   -7.6139   23.9716 H   0  0  0  0  0  0
  -21.1492   -6.0515   25.9083 H   0  0  0  0  0  0
  -22.0601   -2.7598   23.2836 H   0  0  0  0  0  0
  -22.4034  -11.9842   22.4867 H   0  0  0  0  0  0
  -21.1057  -13.1217   22.2632 H   0  0  0  0  0  0
  -24.6497  -15.8333   20.5510 H   0  0  0  0  0  0
  -26.2720  -15.6126   20.1297 H   0  0  0  0  0  0
  -26.7151  -32.5464   23.1108 H   0  0  0  0  0  0
  -25.0074  -33.9750   25.0443 H   0  0  0  0  0  0
  -22.7082  -31.3051   21.4069 H   0  0  0  0  0  0
  -23.3757  -35.9628   23.3306 H   0  0  0  0  0  0
  -24.3589  -36.8915   22.2052 H   0  0  0  0  0  0
  -23.7242  -37.6506   23.6646 H   0  0  0  0  0  0
  -26.0816  -31.5686   20.6063 H   0  0  0  0  0  0
  -26.8348  -30.8505   22.0000 H   0  0  0  0  0  0
  -28.1109  -29.0160   21.1858 H   0  0  0  0  0  0
  -25.9822  -25.9515   18.9928 H   0  0  0  0  0  0
  -23.9711  -27.3088   19.0238 H   0  0  0  0  0  0
  -23.7404  -30.5967   19.4047 H   0  0  0  0  0  0
  -22.7489  -29.2448   19.8647 H   0  0  0  0  0  0
  -25.1300  -36.1954   25.0820 H   0  0  0  0  0  0
  -20.9979  -28.3221   24.1440 H   0  0  0  0  0  0
  -20.5715  -26.2255   23.3580 H   0  0  0  0  0  0
  -21.6654  -26.7459   22.1189 H   0  0  0  0  0  0
  -19.6917  -25.6318   21.1217 H   0  0  0  0  0  0
  -19.6687  -27.3244   20.6763 H   0  0  0  0  0  0
  -17.4206  -26.6698   21.4017 H   0  0  0  0  0  0
  -18.0339  -26.0056   22.9005 H   0  0  0  0  0  0
  -19.7944  -30.7270   24.2288 H   0  0  0  0  0  0
  -17.5020  -31.6263   24.5186 H   0  0  0  0  0  0
  -15.5365  -30.2978   23.7684 H   0  0  0  0  0  0
  -15.8675  -28.0841   22.7038 H   0  0  0  0  0  0
  -24.5914  -30.7053   25.7789 H   0  0  0  0  0  0
  -24.8911  -32.2880   26.4864 H   0  0  0  0  0  0
  -25.8079  -30.8909   27.0222 H   0  0  0  0  0  0
  -26.2870  -29.6777   24.1178 H   0  0  0  0  0  0
  -27.4033  -29.7252   25.4632 H   0  0  0  0  0  0
  -27.8735  -30.4306   23.9342 H   0  0  0  0  0  0
  -27.2659  -33.3616   26.2064 H   0  0  0  0  0  0
  -28.3858  -32.6890   25.0304 H   0  0  0  0  0  0
  -28.0718  -31.8434   26.5394 H   0  0  0  0  0  0
  -28.2609  -38.0097   24.7514 H   0  0  0  0  0  0
  -28.1083  -36.2631   24.6290 H   0  0  0  0  0  0
  -27.2300  -37.1454   25.8867 H   0  0  0  0  0  0
  -20.9336  -29.8764   21.6941 H   0  0  0  0  0  0
  -26.0191  -38.2863   24.1399 H   0  0  0  0  0  0
  -31.8167  -17.3802   20.9957 H   0  0  0  0  0  0
  -27.9570  -20.2085   19.7011 H   0  0  0  0  0  0
  -26.6167  -18.3496   19.3959 H   0  0  0  0  0  0
  -27.2191  -16.7117   19.4410 H   0  0  0  0  0  0
  -27.5563  -17.7346   18.0404 H   0  0  0  0  0  0
  -29.5510  -24.2793   21.4687 H   0  0  0  0  0  0
  -30.2386  -24.3543   19.8712 H   0  0  0  0  0  0
  -27.2865  -24.7825   20.5259 H   0  0  0  0  0  0
  -27.9713  -24.9015   18.9195 H   0  0  0  0  0  0
  -28.8928  -22.3568   19.1621 H   0  0  0  0  0  0
  -28.0818  -22.3211   20.7103 H   0  0  0  0  0  0
  -29.0108  -16.4791   18.0914 H   0  0  0  0  0  0
  -32.0224  -20.9022   21.8791 H   0  0  0  0  0  0
  -32.7136  -19.3752   22.1233 H   0  0  0  0  0  0
  1 25  1  0  0  0
  1 30  2  0  0  0
  1 77  1  0  0  0
  2  3  1  0  0  0
  2 25  1  0  0  0
  2 85  1  0  0  0
  2 86  1  0  0  0
  3  4  1  0  0  0
  3 87  1  0  0  0
  3 88  1  0  0  0
  4  5  1  0  0  0
  4 89  1  0  0  0
  4 90  1  0  0  0
  5  6  1  0  0  0
  5 26  1  0  0  0
  5 91  1  0  0  0
  6 25  1  0  0  0
  6 92  1  0  0  0
  6 93  1  0  0  0
  7  8  2  0  0  0
  7 26  1  0  0  0
  7 29  1  0  0  0
  8  9  1  0  0  0
  8 22  1  0  0  0
  9 10  1  0  0  0
  9 27  2  0  0  0
 10 11  2  0  0  0
 10 15  1  0  0  0
 11 12  1  0  0  0
 11 94  1  0  0  0
 12 13  2  0  0  0
 12 95  1  0  0  0
 13 14  1  0  0  0
 13 31  1  0  0  0
 14 15  2  0  0  0
 14 96  1  0  0  0
 15 97  1  0  0  0
 16 17  2  0  0  0
 16 21  1  0  0  0
 16 31  1  0  0  0
 17 18  1  0  0  0
 17 98  1  0  0  0
 18 19  2  0  0  0
 18 99  1  0  0  0
 19 20  1  0  0  0
 19 24  1  0  0  0
 20 21  2  0  0  0
 20100  1  0  0  0
 21 23  1  0  0  0
 22 28  1  0  0  0
 22 32  2  0  0  0
 26 27  1  0  0  0
 28101  1  0  0  0
 28102  1  0  0  0
 29103  1  0  0  0
 29104  1  0  0  0
 33 34  1  0  0  0
 33 66  1  0  0  0
 33 70  2  0  0  0
 34 36  1  0  0  0
 34 59  1  0  0  0
 34105  1  0  0  0
 35 44  2  0  0  0
 35 45  1  0  0  0
 35 68  1  0  0  0
 36 56  1  0  0  0
 36106  1  0  0  0
 37 39  1  0  0  0
 37 47  1  0  0  0
 37 66  1  0  0  0
 37107  1  0  0  0
 38 43  2  0  0  0
 38 46  1  0  0  0
 38 47  1  0  0  0
 39 64  1  0  0  0
 39 67  2  0  0  0
 40 52  1  0  0  0
 40 53  2  0  0  0
 40 58  1  0  0  0
 41108  1  0  0  0
 41109  1  0  0  0
 41110  1  0  0  0
 41 48  1  0  0  0
 42 43  1  0  0  0
 42 66  1  0  0  0
 42111  1  0  0  0
 42112  1  0  0  0
 43 44  1  0  0  0
 44113  1  0  0  0
 45 46  2  0  0  0
 45114  1  0  0  0
 46115  1  0  0  0
 47116  1  0  0  0
 47117  1  0  0  0
 48 56  1  0  0  0
 48 65  1  0  0  0
 48118  1  0  0  0
 49 50  1  0  0  0
 49 53  1  0  0  0
 49 64  1  0  0  0
 49119  1  0  0  0
 50 51  1  0  0  0
 50120  1  0  0  0
 50121  1  0  0  0
 51 52  1  0  0  0
 51122  1  0  0  0
 51123  1  0  0  0
 52124  1  0  0  0
 52125  1  0  0  0
 53 54  1  0  0  0
 54 55  2  0  0  0
 54126  1  0  0  0
 55 57  1  0  0  0
 55127  1  0  0  0
 56 69  2  0  0  0
 57 58  2  0  0  0
 57128  1  0  0  0
 58129  1  0  0  0
 59 60  1  0  0  0
 59 61  1  0  0  0
 59 62  1  0  0  0
 60130  1  0  0  0
 60131  1  0  0  0
 60132  1  0  0  0
 61133  1  0  0  0
 61134  1  0  0  0
 61135  1  0  0  0
 62136  1  0  0  0
 62137  1  0  0  0
 62138  1  0  0  0
 63 65  1  0  0  0
 63139  1  0  0  0
 63140  1  0  0  0
 63141  1  0  0  0
 64142  1  0  0  0
 65143  1  0  0  0
 68 80  1  0  0  0
 71 73  2  0  0  0
 71 75  1  0  0  0
 71144  1  0  0  0
 72 74  2  0  0  0
 72 76  1  0  0  0
 72145  1  0  0  0
 73 74  1  0  0  0
 73 77  1  0  0  0
 74 78  1  0  0  0
 75 76  2  0  0  0
 75 83  1  0  0  0
 76 84  1  0  0  0
 77 82  2  0  0  0
 78146  1  0  0  0
 78147  1  0  0  0
 78148  1  0  0  0
 79 80  1  0  0  0
 79 81  1  0  0  0
 79149  1  0  0  0
 79150  1  0  0  0
 80151  1  0  0  0
 80152  1  0  0  0
 81 84  1  0  0  0
 81153  1  0  0  0
 81154  1  0  0  0
 82155  1  0  0  0
 83156  1  0  0  0
 83157  1  0  0  0
M  ISO  4   1 100  68 101  77 100  80 101
M  END
> <chiral flag>
0

> <version>
0

> <s_m_source_file>
/data/baiqing/PycharmProjects/Reinvent-master-3.2/result/LINK_invent/BTK/process_docking_weight1_custom_product_contain_oxygen_bond_distance_aromatic_linkinvent_7_9_3/rearranged_h_0107.sdf

> <i_m_source_file_index>
56

> <r_mmod_Potential_Energy-OPLS-2005>
261.726959228516

> <r_mmod_Stretch_Energy-OPLS-2005>
81.6353073120117

> <r_mmod_Bend_Energy-OPLS-2005>
143.662399291992

> <r_mmod_Torsional_Energy-OPLS-2005>
249.792907714844

> <r_mmod_Improper_Torsional_Energy-OPLS-2005>
29.8967380523682

> <r_mmod_Van_der_Waal_Energy-OPLS-2005>
163.016616821289

> <r_mmod_Electrostatic_Energy-OPLS-2005>
-261.838287353516

> <r_mmod_Solvation_Energy-OPLS-2005>
-213.927780151367

> <b_mmod_Minimization_Converged-OPLS-2005>
0

> <r_mmod_RMS_Derivative-OPLS-2005>
1.77243292331696

$$$$
56
                    3D
 Structure written by MMmdl.
153161  0  0  1  0            999 V2000
  -30.5670  -14.8145   20.4779 C   0  0  0  0  0  0
  -30.4482  -12.5025   19.4830 C   0  0  0  0  0  0
  -29.5183  -12.5068   18.2451 C   0  0  0  0  0  0
  -28.0467  -12.2915   18.6559 C   0  0  0  0  0  0
  -27.6372  -13.1949   19.8436 C   0  0  2  0  0  0
  -28.6831  -13.1314   20.9813 C   0  0  0  0  0  0
  -25.2530  -13.8079   20.5682 C   0  0  0  0  0  0
  -24.1766  -13.0382   20.9163 C   0  0  0  0  0  0
  -24.6328  -11.6847   20.8740 C   0  0  0  0  0  0
  -23.9001  -10.4250   21.0423 C   0  0  0  0  0  0
  -24.3569   -9.4174   21.9197 C   0  0  0  0  0  0
  -23.6255   -8.2209   22.0758 C   0  0  0  0  0  0
  -22.4239   -8.0255   21.3547 C   0  0  0  0  0  0
  -21.9865   -9.0221   20.4650 C   0  0  0  0  0  0
  -22.7182  -10.2103   20.3067 C   0  0  0  0  0  0
  -21.6830   -6.0719   22.5279 C   0  0  0  0  0  0
  -21.3998   -6.5627   23.8213 C   0  0  0  0  0  0
  -21.3663   -5.6781   24.9179 C   0  0  0  0  0  0
  -21.6057   -4.3047   24.7231 C   0  0  0  0  0  0
  -21.8812   -3.8135   23.4351 C   0  0  0  0  0  0
  -21.9181   -4.6949   22.3407 C   0  0  0  0  0  0
  -22.7807  -13.5210   21.1855 C   0  0  0  0  0  0
  -22.1651   -4.2139   21.0984 F   0  0  0  0  0  0
  -21.5641   -3.4529   25.7743 F   0  0  0  0  0  0
  -29.9732  -13.5581   20.4164 N   0  0  0  0  0  0
  -26.2897  -12.9196   20.3245 N   0  0  0  0  0  0
  -25.9245  -11.6383   20.5740 N   0  0  0  0  0  0
  -22.0444  -12.8231   22.0435 N   0  0  0  0  0  0
  -25.4365  -15.1776   20.4217 N   0  0  0  0  0  0
  -31.7531  -14.9163   20.1413 O   0  0  0  0  0  0
  -21.6612   -6.8853   21.4238 O   0  0  0  0  0  0
  -22.3502  -14.5514   20.6702 O   0  0  0  0  0  0
  -24.6336  -31.8561   23.1961 C   0  0  0  0  0  0
  -25.9152  -32.4768   23.8315 C   0  0  1  0  0  0
  -27.2243  -27.2459   20.1221 C   0  0  0  0  0  0
  -25.5945  -33.8569   24.2259 N   0  0  0  0  0  0
  -23.4318  -30.4793   21.5410 C   0  0  2  0  0  0
  -24.8800  -28.9269   20.1080 C   0  0  0  0  0  0
  -22.7521  -29.4607   22.4891 C   0  0  0  0  0  0
  -18.0305  -28.1403   22.8489 C   0  0  0  0  0  0
  -24.1495  -36.7281   23.2632 C   0  0  0  0  0  0
  -25.9810  -30.7638   21.3795 C   0  0  0  0  0  0
  -26.0542  -29.3854   20.7192 C   0  0  0  0  0  0
  -27.2266  -28.5560   20.7193 C   0  0  0  0  0  0
  -26.0152  -26.8578   19.4977 C   0  0  0  0  0  0
  -24.8669  -27.6716   19.4865 C   0  0  0  0  0  0
  -23.6524  -29.8171   20.1564 C   0  0  0  0  0  0
  -25.4122  -36.3081   24.0329 C   0  0  1  0  0  0
  -20.5916  -28.3720   23.1258 C   0  0  2  0  0  0
  -20.6803  -26.9439   22.5400 C   0  0  0  0  0  0
  -19.5766  -26.6399   21.5220 C   0  0  0  0  0  0
  -18.1947  -26.7947   22.1635 C   0  0  0  0  0  0
  -19.1562  -28.8877   23.2874 C   0  0  0  0  0  0
  -18.9476  -30.1476   23.8892 C   0  0  0  0  0  0
  -17.6475  -30.6597   24.0570 C   0  0  0  0  0  0
  -25.9065  -34.9454   23.5101 C   0  0  0  0  0  0
  -16.5369  -29.9095   23.6334 C   0  0  0  0  0  0
  -16.7292  -28.6518   23.0353 C   0  0  0  0  0  0
  -26.4505  -31.6591   25.0708 C   0  0  0  0  0  0
  -25.3701  -31.3749   26.1407 C   0  0  0  0  0  0
  -27.0333  -30.3003   24.6181 C   0  0  0  0  0  0
  -27.6065  -32.4316   25.7480 C   0  0  0  0  0  0
  -27.5589  -37.1799   24.8466 C   0  0  0  0  0  0
  -21.4226  -29.3063   22.3638 N   0  0  0  0  0  0
  -26.4300  -37.3781   23.9409 N   0  0  0  0  0  0
  -24.7016  -31.0510   22.0951 N   0  0  0  0  0  0
  -23.4227  -28.8153   23.2989 O   0  0  0  0  0  0
  -28.2951  -26.3105   20.2136 O   0  0  0  0  0  0
  -26.5625  -34.8927   22.4663 O   0  0  0  0  0  0
  -23.5484  -32.1379   23.7253 O   0  0  0  0  0  0
  -31.5919  -19.3020   22.1049 C   0  0  0  0  0  0
  -30.8760  -20.3929   21.5689 C   0  0  0  0  0  0
  -29.4892  -18.7961   20.4030 C   0  0  0  0  0  0
  -30.1941  -17.6270   20.9438 C   0  0  0  0  0  0
  -31.2572  -17.9502   21.8377 C   0  0  0  0  0  0
  -29.7825  -20.1944   20.7023 C   0  0  0  0  0  0
  -28.6528  -23.7972   19.5074 C   0  0  0  0  0  0
  -28.3099  -25.1487   19.3878 C   0  0  0  0  0  0
  -29.6597  -16.1566   20.7484 C   0  0  0  0  0  0
  -32.0302  -16.8885   22.6101 C   0  0  0  0  0  0
  -29.2061  -22.7483   20.5609 C   0  0  0  0  0  0
  -28.3969  -16.0966   20.7903 N   0  0  0  0  0  0
  -29.0372  -21.2995   20.1703 O   0  0  0  0  0  0
  -31.4821  -12.6593   19.1715 H   0  0  0  0  0  0
  -30.4368  -11.5268   19.9721 H   0  0  0  0  0  0
  -29.8270  -11.7348   17.5385 H   0  0  0  0  0  0
  -29.6127  -13.4573   17.7189 H   0  0  0  0  0  0
  -27.9281  -11.2426   18.9300 H   0  0  0  0  0  0
  -27.3850  -12.4633   17.8061 H   0  0  0  0  0  0
  -27.6159  -14.1935   19.4167 H   0  0  0  0  0  0
  -28.7531  -12.1161   21.3744 H   0  0  0  0  0  0
  -28.3917  -13.7479   21.8322 H   0  0  0  0  0  0
  -25.2721   -9.5654   22.4757 H   0  0  0  0  0  0
  -23.9975   -7.4600   22.7468 H   0  0  0  0  0  0
  -21.0803   -8.8738   19.8945 H   0  0  0  0  0  0
  -22.3654  -10.9646   19.6175 H   0  0  0  0  0  0
  -21.1972   -7.6132   23.9718 H   0  0  0  0  0  0
  -21.1504   -6.0510   25.9087 H   0  0  0  0  0  0
  -22.0589   -2.7598   23.2850 H   0  0  0  0  0  0
  -22.4032  -11.9901   22.4855 H   0  0  0  0  0  0
  -21.1077  -13.1298   22.2639 H   0  0  0  0  0  0
  -24.7148  -15.8583   20.6289 H   0  0  0  0  0  0
  -26.3699  -15.5794   20.3463 H   0  0  0  0  0  0
  -26.7226  -32.5415   23.1057 H   0  0  0  0  0  0
  -25.0101  -33.9716   25.0413 H   0  0  0  0  0  0
  -22.7265  -31.3002   21.3948 H   0  0  0  0  0  0
  -23.3775  -35.9598   23.3294 H   0  0  0  0  0  0
  -24.3577  -36.8904   22.2046 H   0  0  0  0  0  0
  -23.7237  -37.6476   23.6654 H   0  0  0  0  0  0
  -26.1231  -31.5249   20.6109 H   0  0  0  0  0  0
  -26.8580  -30.8126   22.0137 H   0  0  0  0  0  0
  -28.1226  -28.8973   21.2181 H   0  0  0  0  0  0
  -25.9127  -25.8840   19.0428 H   0  0  0  0  0  0
  -23.9661  -27.3076   19.0119 H   0  0  0  0  0  0
  -23.7831  -30.5962   19.4050 H   0  0  0  0  0  0
  -22.7688  -29.2556   19.8467 H   0  0  0  0  0  0
  -25.1312  -36.1923   25.0825 H   0  0  0  0  0  0
  -21.0021  -28.3313   24.1378 H   0  0  0  0  0  0
  -20.5729  -26.2331   23.3609 H   0  0  0  0  0  0
  -21.6663  -26.7475   22.1172 H   0  0  0  0  0  0
  -19.6930  -25.6305   21.1256 H   0  0  0  0  0  0
  -19.6701  -27.3203   20.6745 H   0  0  0  0  0  0
  -17.4218  -26.6697   21.4040 H   0  0  0  0  0  0
  -18.0344  -26.0092   22.9033 H   0  0  0  0  0  0
  -19.7951  -30.7297   24.2261 H   0  0  0  0  0  0
  -17.5028  -31.6272   24.5175 H   0  0  0  0  0  0
  -15.5373  -30.2997   23.7651 H   0  0  0  0  0  0
  -15.8696  -28.0832   22.7068 H   0  0  0  0  0  0
  -24.5895  -30.7083   25.7720 H   0  0  0  0  0  0
  -24.8854  -32.2913   26.4779 H   0  0  0  0  0  0
  -25.7986  -30.8953   27.0216 H   0  0  0  0  0  0
  -26.2908  -29.6756   24.1195 H   0  0  0  0  0  0
  -27.4013  -29.7257   25.4692 H   0  0  0  0  0  0
  -27.8798  -30.4283   23.9428 H   0  0  0  0  0  0
  -27.2701  -33.3637   26.2029 H   0  0  0  0  0  0
  -28.3886  -32.6839   25.0307 H   0  0  0  0  0  0
  -28.0711  -31.8437   26.5404 H   0  0  0  0  0  0
  -28.2611  -38.0097   24.7526 H   0  0  0  0  0  0
  -28.1091  -36.2628   24.6290 H   0  0  0  0  0  0
  -27.2297  -37.1441   25.8867 H   0  0  0  0  0  0
  -20.9405  -29.8775   21.6833 H   0  0  0  0  0  0
  -26.0184  -38.2862   24.1401 H   0  0  0  0  0  0
  -32.4085  -19.5221   22.7799 H   0  0  0  0  0  0
  -31.1854  -21.3864   21.8566 H   0  0  0  0  0  0
  -28.6486  -18.6097   19.7500 H   0  0  0  0  0  0
  -28.5194  -23.2769   18.5697 H   0  0  0  0  0  0
  -27.9781  -25.4447   18.4009 H   0  0  0  0  0  0
  -32.5895  -17.3262   23.4376 H   0  0  0  0  0  0
  -32.7555  -16.3898   21.9681 H   0  0  0  0  0  0
  -31.3660  -16.1411   23.0456 H   0  0  0  0  0  0
  -28.7331  -22.9262   21.5275 H   0  0  0  0  0  0
  -30.2644  -22.9740   20.6761 H   0  0  0  0  0  0
  -28.0140  -17.0181   20.9625 H   0  0  0  0  0  0
  1 25  1  0  0  0
  1 30  2  0  0  0
  1 79  1  0  0  0
  2  3  1  0  0  0
  2 25  1  0  0  0
  2 84  1  0  0  0
  2 85  1  0  0  0
  3  4  1  0  0  0
  3 86  1  0  0  0
  3 87  1  0  0  0
  4  5  1  0  0  0
  4 88  1  0  0  0
  4 89  1  0  0  0
  5  6  1  0  0  0
  5 26  1  0  0  0
  5 90  1  0  0  0
  6 25  1  0  0  0
  6 91  1  0  0  0
  6 92  1  0  0  0
  7  8  2  0  0  0
  7 26  1  0  0  0
  7 29  1  0  0  0
  8  9  1  0  0  0
  8 22  1  0  0  0
  9 10  1  0  0  0
  9 27  2  0  0  0
 10 11  2  0  0  0
 10 15  1  0  0  0
 11 12  1  0  0  0
 11 93  1  0  0  0
 12 13  2  0  0  0
 12 94  1  0  0  0
 13 14  1  0  0  0
 13 31  1  0  0  0
 14 15  2  0  0  0
 14 95  1  0  0  0
 15 96  1  0  0  0
 16 17  2  0  0  0
 16 21  1  0  0  0
 16 31  1  0  0  0
 17 18  1  0  0  0
 17 97  1  0  0  0
 18 19  2  0  0  0
 18 98  1  0  0  0
 19 20  1  0  0  0
 19 24  1  0  0  0
 20 21  2  0  0  0
 20 99  1  0  0  0
 21 23  1  0  0  0
 22 28  1  0  0  0
 22 32  2  0  0  0
 26 27  1  0  0  0
 28100  1  0  0  0
 28101  1  0  0  0
 29102  1  0  0  0
 29103  1  0  0  0
 33 34  1  0  0  0
 33 66  1  0  0  0
 33 70  2  0  0  0
 34 36  1  0  0  0
 34 59  1  0  0  0
 34104  1  0  0  0
 35 44  2  0  0  0
 35 45  1  0  0  0
 35 68  1  0  0  0
 36 56  1  0  0  0
 36105  1  0  0  0
 37 39  1  0  0  0
 37 47  1  0  0  0
 37 66  1  0  0  0
 37106  1  0  0  0
 38 43  2  0  0  0
 38 46  1  0  0  0
 38 47  1  0  0  0
 39 64  1  0  0  0
 39 67  2  0  0  0
 40 52  1  0  0  0
 40 53  2  0  0  0
 40 58  1  0  0  0
 41107  1  0  0  0
 41108  1  0  0  0
 41109  1  0  0  0
 41 48  1  0  0  0
 42 43  1  0  0  0
 42 66  1  0  0  0
 42110  1  0  0  0
 42111  1  0  0  0
 43 44  1  0  0  0
 44112  1  0  0  0
 45 46  2  0  0  0
 45113  1  0  0  0
 46114  1  0  0  0
 47115  1  0  0  0
 47116  1  0  0  0
 48 56  1  0  0  0
 48 65  1  0  0  0
 48117  1  0  0  0
 49 50  1  0  0  0
 49 53  1  0  0  0
 49 64  1  0  0  0
 49118  1  0  0  0
 50 51  1  0  0  0
 50119  1  0  0  0
 50120  1  0  0  0
 51 52  1  0  0  0
 51121  1  0  0  0
 51122  1  0  0  0
 52123  1  0  0  0
 52124  1  0  0  0
 53 54  1  0  0  0
 54 55  2  0  0  0
 54125  1  0  0  0
 55 57  1  0  0  0
 55126  1  0  0  0
 56 69  2  0  0  0
 57 58  2  0  0  0
 57127  1  0  0  0
 58128  1  0  0  0
 59 60  1  0  0  0
 59 61  1  0  0  0
 59 62  1  0  0  0
 60129  1  0  0  0
 60130  1  0  0  0
 60131  1  0  0  0
 61132  1  0  0  0
 61133  1  0  0  0
 61134  1  0  0  0
 62135  1  0  0  0
 62136  1  0  0  0
 62137  1  0  0  0
 63 65  1  0  0  0
 63138  1  0  0  0
 63139  1  0  0  0
 63140  1  0  0  0
 64141  1  0  0  0
 65142  1  0  0  0
 68 78  1  0  0  0
 71 72  2  0  0  0
 71 75  1  0  0  0
 71143  1  0  0  0
 72 76  1  0  0  0
 72144  1  0  0  0
 73 74  1  0  0  0
 73 76  2  0  0  0
 73145  1  0  0  0
 74 75  2  0  0  0
 74 79  1  0  0  0
 75 80  1  0  0  0
 76 83  1  0  0  0
 77 78  2  0  0  0
 77 81  1  0  0  0
 77146  1  0  0  0
 78147  1  0  0  0
 79 82  2  0  0  0
 80148  1  0  0  0
 80149  1  0  0  0
 80150  1  0  0  0
 81 83  1  0  0  0
 81151  1  0  0  0
 81152  1  0  0  0
 82153  1  0  0  0
M  ISO  4   1 100  68 101  78 101  79 100
M  END
> <chiral flag>
0

> <version>
0

> <s_m_source_file>
/data/baiqing/PycharmProjects/Reinvent-master-3.2/result/LINK_invent/BTK/process_docking_weight1_custom_product_contain_oxygen_bond_distance_aromatic_linkinvent_7_9_3/rearranged_h_0107.sdf

> <i_m_source_file_index>
57

> <r_mmod_Potential_Energy-OPLS-2005>
441.562805175781

> <r_mmod_Stretch_Energy-OPLS-2005>
158.361373901367

> <r_mmod_Bend_Energy-OPLS-2005>
236.317565917969

> <r_mmod_Torsional_Energy-OPLS-2005>
195.482772827148

> <r_mmod_Improper_Torsional_Energy-OPLS-2005>
6.77924823760986

> <r_mmod_Van_der_Waal_Energy-OPLS-2005>
161.281478881836

> <r_mmod_Electrostatic_Energy-OPLS-2005>
-237.304595947266

> <r_mmod_Solvation_Energy-OPLS-2005>
-188.144897460938

> <b_mmod_Minimization_Converged-OPLS-2005>
0

> <r_mmod_RMS_Derivative-OPLS-2005>
1.78769159317017

$$$$
57
                    3D
 Structure written by MMmdl.
163171  0  0  1  0            999 V2000
  -30.4886  -15.0591   20.5046 C   0  0  0  0  0  0
  -30.4938  -12.6997   19.4349 C   0  0  0  0  0  0
  -29.5542  -12.5586   18.2091 C   0  0  0  0  0  0
  -28.0798  -12.3379   18.6323 C   0  0  0  0  0  0
  -27.6537  -13.2349   19.8357 C   0  0  2  0  0  0
  -28.7350  -13.1522   20.9350 C   0  0  0  0  0  0
  -25.2578  -13.8118   20.5642 C   0  0  0  0  0  0
  -24.1848  -13.0415   20.9119 C   0  0  0  0  0  0
  -24.6411  -11.6868   20.8648 C   0  0  0  0  0  0
  -23.9046  -10.4268   21.0333 C   0  0  0  0  0  0
  -24.3559   -9.4200   21.9134 C   0  0  0  0  0  0
  -23.6228   -8.2251   22.0761 C   0  0  0  0  0  0
  -22.4213   -8.0250   21.3568 C   0  0  0  0  0  0
  -21.9861   -9.0209   20.4682 C   0  0  0  0  0  0
  -22.7188  -10.2072   20.3018 C   0  0  0  0  0  0
  -21.6852   -6.0671   22.5264 C   0  0  0  0  0  0
  -21.4067   -6.5583   23.8203 C   0  0  0  0  0  0
  -21.3699   -5.6742   24.9176 C   0  0  0  0  0  0
  -21.6026   -4.3002   24.7217 C   0  0  0  0  0  0
  -21.8822   -3.8089   23.4362 C   0  0  0  0  0  0
  -21.9208   -4.6892   22.3399 C   0  0  0  0  0  0
  -22.7847  -13.5213   21.1796 C   0  0  0  0  0  0
  -22.1683   -4.2068   21.0983 F   0  0  0  0  0  0
  -21.5578   -3.4498   25.7751 F   0  0  0  0  0  0
  -29.9331  -13.7671   20.3478 N   0  0  0  0  0  0
  -26.3057  -12.9364   20.3236 N   0  0  0  0  0  0
  -25.9382  -11.6504   20.5675 N   0  0  0  0  0  0
  -22.0531  -12.8175   22.0326 N   0  0  0  0  0  0
  -25.4142  -15.1849   20.3979 N   0  0  0  0  0  0
  -31.7067  -15.0856   20.2574 O   0  0  0  0  0  0
  -21.6640   -6.8812   21.4233 O   0  0  0  0  0  0
  -22.3558  -14.5594   20.6712 O   0  0  0  0  0  0
  -24.6543  -31.8377   23.1707 C   0  0  0  0  0  0
  -25.9258  -32.4673   23.8158 C   0  0  1  0  0  0
  -27.2063  -27.0147   20.2270 C   0  0  0  0  0  0
  -25.5974  -33.8479   24.2091 N   0  0  0  0  0  0
  -23.4647  -30.4491   21.5184 C   0  0  2  0  0  0
  -24.9188  -28.8495   20.1119 C   0  0  0  0  0  0
  -22.7632  -29.4509   22.4750 C   0  0  0  0  0  0
  -18.0327  -28.1424   22.8475 C   0  0  0  0  0  0
  -24.1522  -36.7303   23.2630 C   0  0  0  0  0  0
  -26.0247  -30.6768   21.3842 C   0  0  0  0  0  0
  -26.0941  -29.2683   20.7504 C   0  0  0  0  0  0
  -27.2396  -28.3696   20.7817 C   0  0  0  0  0  0
  -26.0077  -26.7182   19.5459 C   0  0  0  0  0  0
  -24.8981  -27.5949   19.4832 C   0  0  0  0  0  0
  -23.7003  -29.7670   20.1410 C   0  0  0  0  0  0
  -25.4151  -36.3022   24.0284 C   0  0  1  0  0  0
  -20.5952  -28.3766   23.1225 C   0  0  2  0  0  0
  -20.6814  -26.9460   22.5412 C   0  0  0  0  0  0
  -19.5768  -26.6392   21.5242 C   0  0  0  0  0  0
  -18.1946  -26.7967   22.1639 C   0  0  0  0  0  0
  -19.1587  -28.8923   23.2853 C   0  0  0  0  0  0
  -18.9482  -30.1499   23.8893 C   0  0  0  0  0  0
  -17.6474  -30.6608   24.0575 C   0  0  0  0  0  0
  -25.9099  -34.9407   23.5002 C   0  0  0  0  0  0
  -16.5371  -29.9094   23.6321 C   0  0  0  0  0  0
  -16.7319  -28.6528   23.0341 C   0  0  0  0  0  0
  -26.4494  -31.6565   25.0656 C   0  0  0  0  0  0
  -25.3612  -31.3841   26.1324 C   0  0  0  0  0  0
  -27.0312  -30.2948   24.6263 C   0  0  0  0  0  0
  -27.6022  -32.4328   25.7480 C   0  0  0  0  0  0
  -27.5593  -37.1804   24.8427 C   0  0  0  0  0  0
  -21.4314  -29.3083   22.3565 N   0  0  0  0  0  0
  -26.4287  -37.3747   23.9373 N   0  0  0  0  0  0
  -24.7362  -31.0131   22.0799 N   0  0  0  0  0  0
  -23.4242  -28.8043   23.2931 O   0  0  0  0  0  0
  -28.2341  -25.9743   20.2432 O   0  0  0  0  0  0
  -26.5678  -34.8924   22.4575 O   0  0  0  0  0  0
  -23.5643  -32.1278   23.6891 O   0  0  0  0  0  0
  -30.0431  -18.7086   24.0591 C   0  0  0  0  0  0
  -29.8253  -19.4818   22.9122 C   0  0  0  0  0  0
  -29.1841  -16.8419   22.8412 C   0  0  0  0  0  0
  -29.5208  -17.4337   21.5682 C   0  0  0  0  0  0
  -29.6235  -17.3810   24.0790 C   0  0  0  0  0  0
  -29.4944  -18.9896   21.6188 C   0  0  0  0  0  0
  -28.5068  -23.0023   20.2450 C   0  0  0  0  0  0
  -27.8410  -16.1265   22.9079 C   0  0  0  0  0  0
  -30.6834  -22.1011   21.2234 C   0  0  0  0  0  0
  -29.8235  -16.9853   19.1442 C   0  0  0  0  0  0
  -29.2478  -15.4284   25.5499 C   0  0  0  0  0  0
  -28.0541  -24.5179   20.8843 C   0  0  0  0  0  0
  -29.1928  -21.6989   21.1006 C   0  0  2  0  0  0
  -29.7459  -16.3374   20.4703 N   0  0  0  0  0  0
  -28.3048  -22.8242   19.0383 O   0  0  0  0  0  0
  -29.5322  -16.8190   25.3489 O   0  0  0  0  0  0
  -29.1824  -20.1299   20.6929 O   0  0  0  0  0  0
  -31.5086  -12.9238   19.0941 H   0  0  0  0  0  0
  -30.6099  -11.7309   19.9264 H   0  0  0  0  0  0
  -29.8971  -11.7449   17.5665 H   0  0  0  0  0  0
  -29.6273  -13.4548   17.5937 H   0  0  0  0  0  0
  -27.9683  -11.2827   18.8947 H   0  0  0  0  0  0
  -27.4260  -12.4940   17.7707 H   0  0  0  0  0  0
  -27.6444  -14.2574   19.4566 H   0  0  0  0  0  0
  -28.9152  -12.0962   21.1479 H   0  0  0  0  0  0
  -28.4986  -13.5452   21.9094 H   0  0  0  0  0  0
  -25.2720   -9.5668   22.4684 H   0  0  0  0  0  0
  -23.9947   -7.4659   22.7467 H   0  0  0  0  0  0
  -21.0800   -8.8674   19.8962 H   0  0  0  0  0  0
  -22.3643  -10.9549   19.6076 H   0  0  0  0  0  0
  -21.2125   -7.6116   23.9699 H   0  0  0  0  0  0
  -21.1540   -6.0489   25.9076 H   0  0  0  0  0  0
  -22.0592   -2.7548   23.2882 H   0  0  0  0  0  0
  -22.4202  -11.9786   22.4621 H   0  0  0  0  0  0
  -21.1179  -13.1228   22.2659 H   0  0  0  0  0  0
  -24.6231  -15.8130   20.4910 H   0  0  0  0  0  0
  -26.2372  -15.6404   20.0221 H   0  0  0  0  0  0
  -26.7350  -32.5246   23.0902 H   0  0  0  0  0  0
  -25.0087  -33.9553   25.0211 H   0  0  0  0  0  0
  -22.7733  -31.2783   21.3532 H   0  0  0  0  0  0
  -23.3754  -35.9657   23.3247 H   0  0  0  0  0  0
  -24.3613  -36.9000   22.2051 H   0  0  0  0  0  0
  -23.7319  -37.6503   23.6718 H   0  0  0  0  0  0
  -26.1694  -31.4072   20.5875 H   0  0  0  0  0  0
  -26.9031  -30.7590   22.0105 H   0  0  0  0  0  0
  -28.1358  -28.6832   21.2998 H   0  0  0  0  0  0
  -25.9089  -25.7479   19.0797 H   0  0  0  0  0  0
  -24.0073  -27.2725   18.9609 H   0  0  0  0  0  0
  -23.8433  -30.5346   19.3804 H   0  0  0  0  0  0
  -22.8143  -29.2118   19.8301 H   0  0  0  0  0  0
  -25.1344  -36.1816   25.0771 H   0  0  0  0  0  0
  -21.0074  -28.3372   24.1341 H   0  0  0  0  0  0
  -20.5753  -26.2367   23.3629 H   0  0  0  0  0  0
  -21.6663  -26.7458   22.1191 H   0  0  0  0  0  0
  -19.6916  -25.6293   21.1292 H   0  0  0  0  0  0
  -19.6712  -27.3178   20.6753 H   0  0  0  0  0  0
  -17.4225  -26.6751   21.4016 H   0  0  0  0  0  0
  -18.0309  -26.0124   22.9048 H   0  0  0  0  0  0
  -19.7946  -30.7332   24.2265 H   0  0  0  0  0  0
  -17.5010  -31.6279   24.5183 H   0  0  0  0  0  0
  -15.5362  -30.2995   23.7649 H   0  0  0  0  0  0
  -15.8720  -28.0851   22.7035 H   0  0  0  0  0  0
  -24.5749  -30.7256   25.7588 H   0  0  0  0  0  0
  -24.8844  -32.3077   26.4632 H   0  0  0  0  0  0
  -25.7817  -30.9026   27.0162 H   0  0  0  0  0  0
  -26.2879  -29.6698   24.1298 H   0  0  0  0  0  0
  -27.3918  -29.7236   25.4820 H   0  0  0  0  0  0
  -27.8807  -30.4132   23.9533 H   0  0  0  0  0  0
  -27.2596  -33.3624   26.2017 H   0  0  0  0  0  0
  -28.3872  -32.6898   25.0354 H   0  0  0  0  0  0
  -28.0645  -31.8471   26.5429 H   0  0  0  0  0  0
  -28.2551  -38.0155   24.7514 H   0  0  0  0  0  0
  -28.1152  -36.2692   24.6195 H   0  0  0  0  0  0
  -27.2324  -37.1386   25.8827 H   0  0  0  0  0  0
  -20.9523  -29.8815   21.6773 H   0  0  0  0  0  0
  -26.0160  -38.2805   24.1368 H   0  0  0  0  0  0
  -30.3369  -19.2091   24.9709 H   0  0  0  0  0  0
  -29.9130  -20.5244   23.1399 H   0  0  0  0  0  0
  -27.2676  -16.4878   23.7658 H   0  0  0  0  0  0
  -27.8904  -15.0526   23.0002 H   0  0  0  0  0  0
  -27.2440  -16.3946   22.0400 H   0  0  0  0  0  0
  -30.8049  -23.1825   21.2777 H   0  0  0  0  0  0
  -31.2481  -21.7627   20.3548 H   0  0  0  0  0  0
  -31.1947  -21.7143   22.1011 H   0  0  0  0  0  0
  -30.6730  -17.6771   19.0868 H   0  0  0  0  0  0
  -28.9280  -17.5783   18.9535 H   0  0  0  0  0  0
  -29.9139  -16.2842   18.3037 H   0  0  0  0  0  0
  -29.8376  -15.0417   26.3855 H   0  0  0  0  0  0
  -29.4858  -14.8064   24.6883 H   0  0  0  0  0  0
  -28.2021  -15.2831   25.8354 H   0  0  0  0  0  0
  -28.5246  -24.5619   21.8652 H   0  0  0  0  0  0
  -26.9927  -24.4111   21.1049 H   0  0  0  0  0  0
  -28.7143  -21.7849   22.0741 H   0  0  0  0  0  0
  1 25  1  0  0  0
  1 30  2  0  0  0
  1 84  1  0  0  0
  2  3  1  0  0  0
  2 25  1  0  0  0
  2 88  1  0  0  0
  2 89  1  0  0  0
  3  4  1  0  0  0
  3 90  1  0  0  0
  3 91  1  0  0  0
  4  5  1  0  0  0
  4 92  1  0  0  0
  4 93  1  0  0  0
  5  6  1  0  0  0
  5 26  1  0  0  0
  5 94  1  0  0  0
  6 25  1  0  0  0
  6 95  1  0  0  0
  6 96  1  0  0  0
  7  8  2  0  0  0
  7 26  1  0  0  0
  7 29  1  0  0  0
  8  9  1  0  0  0
  8 22  1  0  0  0
  9 10  1  0  0  0
  9 27  2  0  0  0
 10 11  2  0  0  0
 10 15  1  0  0  0
 11 12  1  0  0  0
 11 97  1  0  0  0
 12 13  2  0  0  0
 12 98  1  0  0  0
 13 14  1  0  0  0
 13 31  1  0  0  0
 14 15  2  0  0  0
 14 99  1  0  0  0
 15100  1  0  0  0
 16 17  2  0  0  0
 16 21  1  0  0  0
 16 31  1  0  0  0
 17 18  1  0  0  0
 17101  1  0  0  0
 18 19  2  0  0  0
 18102  1  0  0  0
 19 20  1  0  0  0
 19 24  1  0  0  0
 20 21  2  0  0  0
 20103  1  0  0  0
 21 23  1  0  0  0
 22 28  1  0  0  0
 22 32  2  0  0  0
 26 27  1  0  0  0
 28104  1  0  0  0
 28105  1  0  0  0
 29106  1  0  0  0
 29107  1  0  0  0
 33 34  1  0  0  0
 33 66  1  0  0  0
 33 70  2  0  0  0
 34 36  1  0  0  0
 34 59  1  0  0  0
 34108  1  0  0  0
 35 44  2  0  0  0
 35 45  1  0  0  0
 35 68  1  0  0  0
 36 56  1  0  0  0
 36109  1  0  0  0
 37 39  1  0  0  0
 37 47  1  0  0  0
 37 66  1  0  0  0
 37110  1  0  0  0
 38 43  2  0  0  0
 38 46  1  0  0  0
 38 47  1  0  0  0
 39 64  1  0  0  0
 39 67  2  0  0  0
 40 52  1  0  0  0
 40 53  2  0  0  0
 40 58  1  0  0  0
 41111  1  0  0  0
 41112  1  0  0  0
 41113  1  0  0  0
 41 48  1  0  0  0
 42 43  1  0  0  0
 42 66  1  0  0  0
 42114  1  0  0  0
 42115  1  0  0  0
 43 44  1  0  0  0
 44116  1  0  0  0
 45 46  2  0  0  0
 45117  1  0  0  0
 46118  1  0  0  0
 47119  1  0  0  0
 47120  1  0  0  0
 48 56  1  0  0  0
 48 65  1  0  0  0
 48121  1  0  0  0
 49 50  1  0  0  0
 49 53  1  0  0  0
 49 64  1  0  0  0
 49122  1  0  0  0
 50 51  1  0  0  0
 50123  1  0  0  0
 50124  1  0  0  0
 51 52  1  0  0  0
 51125  1  0  0  0
 51126  1  0  0  0
 52127  1  0  0  0
 52128  1  0  0  0
 53 54  1  0  0  0
 54 55  2  0  0  0
 54129  1  0  0  0
 55 57  1  0  0  0
 55130  1  0  0  0
 56 69  2  0  0  0
 57 58  2  0  0  0
 57131  1  0  0  0
 58132  1  0  0  0
 59 60  1  0  0  0
 59 61  1  0  0  0
 59 62  1  0  0  0
 60133  1  0  0  0
 60134  1  0  0  0
 60135  1  0  0  0
 61136  1  0  0  0
 61137  1  0  0  0
 61138  1  0  0  0
 62139  1  0  0  0
 62140  1  0  0  0
 62141  1  0  0  0
 63 65  1  0  0  0
 63142  1  0  0  0
 63143  1  0  0  0
 63144  1  0  0  0
 64145  1  0  0  0
 65146  1  0  0  0
 68 82  1  0  0  0
 71 72  2  0  0  0
 71 75  1  0  0  0
 71147  1  0  0  0
 72 76  1  0  0  0
 72148  1  0  0  0
 73 74  1  0  0  0
 73 75  2  0  0  0
 73 78  1  0  0  0
 74 76  2  0  0  0
 74 84  1  0  0  0
 75 86  1  0  0  0
 76 87  1  0  0  0
 77 82  1  0  0  0
 77 83  1  0  0  0
 77 85  2  0  0  0
 78149  1  0  0  0
 78150  1  0  0  0
 78151  1  0  0  0
 79152  1  0  0  0
 79153  1  0  0  0
 79154  1  0  0  0
 79 83  1  0  0  0
 80 84  1  0  0  0
 80155  1  0  0  0
 80156  1  0  0  0
 80157  1  0  0  0
 81 86  1  0  0  0
 81158  1  0  0  0
 81159  1  0  0  0
 81160  1  0  0  0
 82161  1  0  0  0
 82162  1  0  0  0
 83 87  1  0  0  0
 83163  1  0  0  0
M  ISO  4   1 100  68 101  82 101  84 100
M  END
> <chiral flag>
0

> <version>
0

> <s_m_source_file>
/data/baiqing/PycharmProjects/Reinvent-master-3.2/result/LINK_invent/BTK/process_docking_weight1_custom_product_contain_oxygen_bond_distance_aromatic_linkinvent_7_9_3/rearranged_h_0107.sdf

> <i_m_source_file_index>
58

> <r_mmod_Potential_Energy-OPLS-2005>
1300.34533691406

> <r_mmod_Stretch_Energy-OPLS-2005>
461.366912841797

> <r_mmod_Bend_Energy-OPLS-2005>
451.084350585938

> <r_mmod_Torsional_Energy-OPLS-2005>
454.917785644531

> <r_mmod_Improper_Torsional_Energy-OPLS-2005>
26.2837104797363

> <r_mmod_Van_der_Waal_Energy-OPLS-2005>
145.100662231445

> <r_mmod_Electrostatic_Energy-OPLS-2005>
-297.710235595703

> <r_mmod_Solvation_Energy-OPLS-2005>
-224.533050537109

> <b_mmod_Minimization_Converged-OPLS-2005>
0

> <r_mmod_RMS_Derivative-OPLS-2005>
9.67976474761963

$$$$
58
                    3D
 Structure written by MMmdl.
160168  0  0  1  0            999 V2000
  -30.7650  -14.3680   20.6639 C   0  0  0  0  0  0
  -30.4157  -12.2731   19.4033 C   0  0  0  0  0  0
  -29.4902  -12.5195   18.1970 C   0  0  0  0  0  0
  -28.0142  -12.3779   18.6178 C   0  0  0  0  0  0
  -27.6731  -13.2020   19.8907 C   0  0  2  0  0  0
  -28.7165  -12.9473   21.0048 C   0  0  0  0  0  0
  -25.2642  -13.8148   20.5713 C   0  0  0  0  0  0
  -24.1865  -13.0433   20.9172 C   0  0  0  0  0  0
  -24.6402  -11.6897   20.8729 C   0  0  0  0  0  0
  -23.9060  -10.4274   21.0405 C   0  0  0  0  0  0
  -24.3608   -9.4195   21.9190 C   0  0  0  0  0  0
  -23.6272   -8.2250   22.0764 C   0  0  0  0  0  0
  -22.4267   -8.0283   21.3535 C   0  0  0  0  0  0
  -21.9899   -9.0261   20.4646 C   0  0  0  0  0  0
  -22.7234  -10.2131   20.3050 C   0  0  0  0  0  0
  -21.6840   -6.0724   22.5278 C   0  0  0  0  0  0
  -21.4012   -6.5628   23.8209 C   0  0  0  0  0  0
  -21.3666   -5.6787   24.9168 C   0  0  0  0  0  0
  -21.6048   -4.3047   24.7225 C   0  0  0  0  0  0
  -21.8819   -3.8139   23.4342 C   0  0  0  0  0  0
  -21.9186   -4.6953   22.3399 C   0  0  0  0  0  0
  -22.7881  -13.5234   21.1826 C   0  0  0  0  0  0
  -22.1651   -4.2141   21.0971 F   0  0  0  0  0  0
  -21.5638   -3.4526   25.7738 F   0  0  0  0  0  0
  -30.0507  -13.2323   20.4547 N   0  0  0  0  0  0
  -26.3093  -12.9321   20.3473 N   0  0  0  0  0  0
  -25.9339  -11.6478   20.5807 N   0  0  0  0  0  0
  -22.0504  -12.8237   22.0377 N   0  0  0  0  0  0
  -25.4325  -15.1868   20.4131 N   0  0  0  0  0  0
  -31.8087  -14.6022   20.0445 O   0  0  0  0  0  0
  -21.6613   -6.8880   21.4243 O   0  0  0  0  0  0
  -22.3577  -14.5550   20.6698 O   0  0  0  0  0  0
  -24.6093  -31.8726   23.2097 C   0  0  0  0  0  0
  -25.9014  -32.4836   23.8389 C   0  0  1  0  0  0
  -27.2495  -27.4800   20.0975 C   0  0  0  0  0  0
  -25.5846  -33.8633   24.2318 N   0  0  0  0  0  0
  -23.3951  -30.4933   21.5482 C   0  0  2  0  0  0
  -24.8448  -28.9618   20.1101 C   0  0  0  0  0  0
  -22.7399  -29.4721   22.5018 C   0  0  0  0  0  0
  -18.0275  -28.1374   22.8506 C   0  0  0  0  0  0
  -24.1475  -36.7335   23.2636 C   0  0  0  0  0  0
  -25.9129  -30.8553   21.3496 C   0  0  0  0  0  0
  -25.9957  -29.4883   20.7056 C   0  0  0  0  0  0
  -27.1987  -28.7574   20.7034 C   0  0  0  0  0  0
  -26.0903  -26.9700   19.4779 C   0  0  0  0  0  0
  -24.8829  -27.6998   19.4882 C   0  0  0  0  0  0
  -23.5986  -29.8195   20.1644 C   0  0  0  0  0  0
  -25.4088  -36.3131   24.0335 C   0  0  1  0  0  0
  -20.5851  -28.3693   23.1293 C   0  0  2  0  0  0
  -20.6774  -26.9436   22.5410 C   0  0  0  0  0  0
  -19.5772  -26.6389   21.5194 C   0  0  0  0  0  0
  -18.1933  -26.7926   22.1607 C   0  0  0  0  0  0
  -19.1525  -28.8843   23.2907 C   0  0  0  0  0  0
  -18.9454  -30.1438   23.8957 C   0  0  0  0  0  0
  -17.6465  -30.6617   24.0574 C   0  0  0  0  0  0
  -25.9007  -34.9499   23.5132 C   0  0  0  0  0  0
  -16.5361  -29.9142   23.6294 C   0  0  0  0  0  0
  -16.7270  -28.6527   23.0369 C   0  0  0  0  0  0
  -26.4472  -31.6602   25.0697 C   0  0  0  0  0  0
  -25.3749  -31.3655   26.1439 C   0  0  0  0  0  0
  -27.0273  -30.3064   24.5997 C   0  0  0  0  0  0
  -27.6040  -32.4322   25.7463 C   0  0  0  0  0  0
  -27.5576  -37.1825   24.8463 C   0  0  0  0  0  0
  -21.4136  -29.3077   22.3740 N   0  0  0  0  0  0
  -26.4293  -37.3800   23.9389 N   0  0  0  0  0  0
  -24.6564  -31.0895   22.0939 N   0  0  0  0  0  0
  -23.4202  -28.8299   23.3071 O   0  0  0  0  0  0
  -28.3823  -26.6968   20.0715 O   0  0  0  0  0  0
  -26.5605  -34.8967   22.4725 O   0  0  0  0  0  0
  -23.5312  -32.1485   23.7542 O   0  0  0  0  0  0
  -29.4524  -21.7366   23.7386 C   0  0  0  0  0  0
  -29.8120  -20.4014   23.4703 C   0  0  0  0  0  0
  -27.7266  -21.6300   22.0241 C   0  0  0  0  0  0
  -28.4209  -22.3618   23.0091 C   0  0  0  0  0  0
  -28.0665  -20.2832   21.7791 C   0  0  0  0  0  0
  -29.1316  -19.6611   22.4724 C   0  0  0  0  0  0
  -28.0698  -23.7887   23.2969 C   0  0  0  0  0  0
  -28.5175  -25.9966   22.4110 C   0  0  0  0  0  0
  -30.2717  -15.4145   21.6805 C   0  0  0  0  0  0
  -29.2188  -26.6969   21.2358 C   0  0  0  0  0  0
  -31.1534  -16.6872   21.6812 C   0  0  0  0  0  0
  -30.6897  -17.8254   22.5998 C   0  0  0  0  0  0
  -27.3525  -19.5507   20.8360 N   0  0  0  0  0  0
  -28.5254  -24.6514   22.3787 N   0  0  0  0  0  0
  -27.4562  -24.0675   24.3329 O   0  0  0  0  0  0
  -28.0057  -26.6834   23.3033 O   0  0  0  0  0  0
  -29.4554  -18.3600   22.1256 O   0  0  0  0  0  0
  -31.4636  -12.3451   19.1071 H   0  0  0  0  0  0
  -30.2883  -11.2542   19.7737 H   0  0  0  0  0  0
  -29.7203  -11.8196   17.3921 H   0  0  0  0  0  0
  -29.6645  -13.5175   17.7946 H   0  0  0  0  0  0
  -27.8252  -11.3209   18.8059 H   0  0  0  0  0  0
  -27.3563  -12.6647   17.7967 H   0  0  0  0  0  0
  -27.7313  -14.2570   19.6210 H   0  0  0  0  0  0
  -28.6771  -11.9045   21.3251 H   0  0  0  0  0  0
  -28.4899  -13.5296   21.8978 H   0  0  0  0  0  0
  -25.2742   -9.5671   22.4767 H   0  0  0  0  0  0
  -23.9964   -7.4642   22.7499 H   0  0  0  0  0  0
  -21.0826   -8.8779   19.8956 H   0  0  0  0  0  0
  -22.3689  -10.9676   19.6159 H   0  0  0  0  0  0
  -21.2005   -7.6128   23.9717 H   0  0  0  0  0  0
  -21.1499   -6.0502   25.9075 H   0  0  0  0  0  0
  -22.0596   -2.7597   23.2839 H   0  0  0  0  0  0
  -22.4077  -11.9863   22.4745 H   0  0  0  0  0  0
  -21.1147  -13.1328   22.2620 H   0  0  0  0  0  0
  -24.6698  -15.8439   20.5386 H   0  0  0  0  0  0
  -26.2937  -15.6311   20.1202 H   0  0  0  0  0  0
  -26.7122  -32.5594   23.1195 H   0  0  0  0  0  0
  -24.9956  -33.9789   25.0431 H   0  0  0  0  0  0
  -22.6815  -31.3082   21.4119 H   0  0  0  0  0  0
  -23.3732  -35.9669   23.3288 H   0  0  0  0  0  0
  -24.3597  -36.8951   22.2055 H   0  0  0  0  0  0
  -23.7242  -37.6534   23.6688 H   0  0  0  0  0  0
  -26.0067  -31.6185   20.5771 H   0  0  0  0  0  0
  -26.7999  -30.9212   21.9646 H   0  0  0  0  0  0
  -28.0756  -29.1868   21.1623 H   0  0  0  0  0  0
  -26.1233  -26.0040   18.9960 H   0  0  0  0  0  0
  -24.0011  -27.2929   19.0132 H   0  0  0  0  0  0
  -23.6979  -30.5944   19.4015 H   0  0  0  0  0  0
  -22.7223  -29.2323   19.8822 H   0  0  0  0  0  0
  -25.1283  -36.1996   25.0825 H   0  0  0  0  0  0
  -20.9937  -28.3281   24.1411 H   0  0  0  0  0  0
  -20.5648  -26.2348   23.3642 H   0  0  0  0  0  0
  -21.6676  -26.7518   22.1235 H   0  0  0  0  0  0
  -19.6967  -25.6297   21.1244 H   0  0  0  0  0  0
  -19.6658  -27.3202   20.6721 H   0  0  0  0  0  0
  -17.4209  -26.6664   21.4021 H   0  0  0  0  0  0
  -18.0338  -26.0079   22.9005 H   0  0  0  0  0  0
  -19.7933  -30.7188   24.2429 H   0  0  0  0  0  0
  -17.5050  -31.6306   24.5185 H   0  0  0  0  0  0
  -15.5386  -30.3075   23.7577 H   0  0  0  0  0  0
  -15.8662  -28.0855   22.7082 H   0  0  0  0  0  0
  -24.5933  -30.7001   25.7752 H   0  0  0  0  0  0
  -24.8936  -32.2789   26.4975 H   0  0  0  0  0  0
  -25.8110  -30.8781   27.0166 H   0  0  0  0  0  0
  -26.2778  -29.6819   24.1110 H   0  0  0  0  0  0
  -27.4123  -29.7312   25.4420 H   0  0  0  0  0  0
  -27.8591  -30.4382   23.9050 H   0  0  0  0  0  0
  -27.2656  -33.3618   26.2080 H   0  0  0  0  0  0
  -28.3849  -32.6869   25.0274 H   0  0  0  0  0  0
  -28.0726  -31.8409   26.5362 H   0  0  0  0  0  0
  -28.2612  -38.0107   24.7555 H   0  0  0  0  0  0
  -28.1051  -36.2661   24.6238 H   0  0  0  0  0  0
  -27.2337  -37.1439   25.8876 H   0  0  0  0  0  0
  -20.9326  -29.8785   21.6924 H   0  0  0  0  0  0
  -26.0183  -38.2879   24.1361 H   0  0  0  0  0  0
  -29.9874  -22.2890   24.4974 H   0  0  0  0  0  0
  -30.6200  -19.9738   24.0432 H   0  0  0  0  0  0
  -26.9225  -22.0983   21.4730 H   0  0  0  0  0  0
  -29.2409  -15.6799   21.4430 H   0  0  0  0  0  0
  -30.2758  -14.9615   22.6732 H   0  0  0  0  0  0
  -30.1349  -26.1558   20.9919 H   0  0  0  0  0  0
  -29.5506  -27.6939   21.5221 H   0  0  0  0  0  0
  -31.2338  -17.0847   20.6678 H   0  0  0  0  0  0
  -32.1652  -16.4035   21.9757 H   0  0  0  0  0  0
  -31.4733  -18.5851   22.5687 H   0  0  0  0  0  0
  -30.5988  -17.4873   23.6319 H   0  0  0  0  0  0
  -26.8891  -20.0338   20.0738 H   0  0  0  0  0  0
  -27.7395  -18.6500   20.5755 H   0  0  0  0  0  0
  -28.9944  -24.2296   21.5940 H   0  0  0  0  0  0
  1 25  1  0  0  0
  1 30  2  0  0  0
  1 79  1  0  0  0
  2  3  1  0  0  0
  2 25  1  0  0  0
  2 88  1  0  0  0
  2 89  1  0  0  0
  3  4  1  0  0  0
  3 90  1  0  0  0
  3 91  1  0  0  0
  4  5  1  0  0  0
  4 92  1  0  0  0
  4 93  1  0  0  0
  5  6  1  0  0  0
  5 26  1  0  0  0
  5 94  1  0  0  0
  6 25  1  0  0  0
  6 95  1  0  0  0
  6 96  1  0  0  0
  7  8  2  0  0  0
  7 26  1  0  0  0
  7 29  1  0  0  0
  8  9  1  0  0  0
  8 22  1  0  0  0
  9 10  1  0  0  0
  9 27  2  0  0  0
 10 11  2  0  0  0
 10 15  1  0  0  0
 11 12  1  0  0  0
 11 97  1  0  0  0
 12 13  2  0  0  0
 12 98  1  0  0  0
 13 14  1  0  0  0
 13 31  1  0  0  0
 14 15  2  0  0  0
 14 99  1  0  0  0
 15100  1  0  0  0
 16 17  2  0  0  0
 16 21  1  0  0  0
 16 31  1  0  0  0
 17 18  1  0  0  0
 17101  1  0  0  0
 18 19  2  0  0  0
 18102  1  0  0  0
 19 20  1  0  0  0
 19 24  1  0  0  0
 20 21  2  0  0  0
 20103  1  0  0  0
 21 23  1  0  0  0
 22 28  1  0  0  0
 22 32  2  0  0  0
 26 27  1  0  0  0
 28104  1  0  0  0
 28105  1  0  0  0
 29106  1  0  0  0
 29107  1  0  0  0
 33 34  1  0  0  0
 33 66  1  0  0  0
 33 70  2  0  0  0
 34 36  1  0  0  0
 34 59  1  0  0  0
 34108  1  0  0  0
 35 44  2  0  0  0
 35 45  1  0  0  0
 35 68  1  0  0  0
 36 56  1  0  0  0
 36109  1  0  0  0
 37 39  1  0  0  0
 37 47  1  0  0  0
 37 66  1  0  0  0
 37110  1  0  0  0
 38 43  2  0  0  0
 38 46  1  0  0  0
 38 47  1  0  0  0
 39 64  1  0  0  0
 39 67  2  0  0  0
 40 52  1  0  0  0
 40 53  2  0  0  0
 40 58  1  0  0  0
 41111  1  0  0  0
 41112  1  0  0  0
 41113  1  0  0  0
 41 48  1  0  0  0
 42 43  1  0  0  0
 42 66  1  0  0  0
 42114  1  0  0  0
 42115  1  0  0  0
 43 44  1  0  0  0
 44116  1  0  0  0
 45 46  2  0  0  0
 45117  1  0  0  0
 46118  1  0  0  0
 47119  1  0  0  0
 47120  1  0  0  0
 48 56  1  0  0  0
 48 65  1  0  0  0
 48121  1  0  0  0
 49 50  1  0  0  0
 49 53  1  0  0  0
 49 64  1  0  0  0
 49122  1  0  0  0
 50 51  1  0  0  0
 50123  1  0  0  0
 50124  1  0  0  0
 51 52  1  0  0  0
 51125  1  0  0  0
 51126  1  0  0  0
 52127  1  0  0  0
 52128  1  0  0  0
 53 54  1  0  0  0
 54 55  2  0  0  0
 54129  1  0  0  0
 55 57  1  0  0  0
 55130  1  0  0  0
 56 69  2  0  0  0
 57 58  2  0  0  0
 57131  1  0  0  0
 58132  1  0  0  0
 59 60  1  0  0  0
 59 61  1  0  0  0
 59 62  1  0  0  0
 60133  1  0  0  0
 60134  1  0  0  0
 60135  1  0  0  0
 61136  1  0  0  0
 61137  1  0  0  0
 61138  1  0  0  0
 62139  1  0  0  0
 62140  1  0  0  0
 62141  1  0  0  0
 63 65  1  0  0  0
 63142  1  0  0  0
 63143  1  0  0  0
 63144  1  0  0  0
 64145  1  0  0  0
 65146  1  0  0  0
 68 80  1  0  0  0
 71 72  2  0  0  0
 71 74  1  0  0  0
 71147  1  0  0  0
 72 76  1  0  0  0
 72148  1  0  0  0
 73 74  2  0  0  0
 73 75  1  0  0  0
 73149  1  0  0  0
 74 77  1  0  0  0
 75 76  2  0  0  0
 75 83  1  0  0  0
 76 87  1  0  0  0
 77 84  1  0  0  0
 77 85  2  0  0  0
 78 80  1  0  0  0
 78 84  1  0  0  0
 78 86  2  0  0  0
 79 81  1  0  0  0
 79150  1  0  0  0
 79151  1  0  0  0
 80152  1  0  0  0
 80153  1  0  0  0
 81 82  1  0  0  0
 81154  1  0  0  0
 81155  1  0  0  0
 82 87  1  0  0  0
 82156  1  0  0  0
 82157  1  0  0  0
 83158  1  0  0  0
 83159  1  0  0  0
 84160  1  0  0  0
M  ISO  4   1 100  68 101  79 100  80 101
M  END
> <chiral flag>
0

> <version>
0

> <s_m_source_file>
/data/baiqing/PycharmProjects/Reinvent-master-3.2/result/LINK_invent/BTK/process_docking_weight1_custom_product_contain_oxygen_bond_distance_aromatic_linkinvent_7_9_3/rearranged_h_0107.sdf

> <i_m_source_file_index>
59

> <r_mmod_Potential_Energy-OPLS-2005>
-278.649841308594

> <r_mmod_Stretch_Energy-OPLS-2005>
34.179931640625

> <r_mmod_Bend_Energy-OPLS-2005>
106.238021850586

> <r_mmod_Torsional_Energy-OPLS-2005>
205.046279907227

> <r_mmod_Improper_Torsional_Energy-OPLS-2005>
4.88838529586792

> <r_mmod_Van_der_Waal_Energy-OPLS-2005>
161.097564697266

> <r_mmod_Electrostatic_Energy-OPLS-2005>
-527.711791992188

> <r_mmod_Solvation_Energy-OPLS-2005>
-269.099426269531

> <b_mmod_Minimization_Converged-OPLS-2005>
0

> <r_mmod_RMS_Derivative-OPLS-2005>
4.14354562759399

$$$$
59
                    3D
 Structure written by MMmdl.
157165  0  0  1  0            999 V2000
  -30.6293  -14.7251   20.4644 C   0  0  0  0  0  0
  -30.4333  -12.4398   19.4832 C   0  0  0  0  0  0
  -29.5161  -12.5154   18.2416 C   0  0  0  0  0  0
  -28.0398  -12.3436   18.6488 C   0  0  0  0  0  0
  -27.6486  -13.2335   19.8594 C   0  0  2  0  0  0
  -28.6922  -13.1554   20.9981 C   0  0  0  0  0  0
  -25.2528  -13.8202   20.5692 C   0  0  0  0  0  0
  -24.1814  -13.0442   20.9200 C   0  0  0  0  0  0
  -24.6409  -11.6923   20.8740 C   0  0  0  0  0  0
  -23.9079  -10.4298   21.0405 C   0  0  0  0  0  0
  -24.3628   -9.4210   21.9182 C   0  0  0  0  0  0
  -23.6300   -8.2245   22.0749 C   0  0  0  0  0  0
  -22.4280   -8.0287   21.3542 C   0  0  0  0  0  0
  -21.9917   -9.0262   20.4644 C   0  0  0  0  0  0
  -22.7251  -10.2137   20.3051 C   0  0  0  0  0  0
  -21.6856   -6.0739   22.5277 C   0  0  0  0  0  0
  -21.4022   -6.5642   23.8215 C   0  0  0  0  0  0
  -21.3658   -5.6790   24.9174 C   0  0  0  0  0  0
  -21.6041   -4.3050   24.7225 C   0  0  0  0  0  0
  -21.8818   -3.8145   23.4343 C   0  0  0  0  0  0
  -21.9196   -4.6965   22.3400 C   0  0  0  0  0  0
  -22.7833  -13.5220   21.1860 C   0  0  0  0  0  0
  -22.1661   -4.2150   21.0975 F   0  0  0  0  0  0
  -21.5630   -3.4534   25.7736 F   0  0  0  0  0  0
  -30.0016  -13.4992   20.4268 N   0  0  0  0  0  0
  -26.2971  -12.9420   20.3305 N   0  0  0  0  0  0
  -25.9344  -11.6553   20.5754 N   0  0  0  0  0  0
  -22.0471  -12.8216   22.0414 N   0  0  0  0  0  0
  -25.4210  -15.1929   20.4117 N   0  0  0  0  0  0
  -31.7982  -14.8270   20.0831 O   0  0  0  0  0  0
  -21.6641   -6.8880   21.4236 O   0  0  0  0  0  0
  -22.3509  -14.5521   20.6703 O   0  0  0  0  0  0
  -24.6322  -31.8554   23.2000 C   0  0  0  0  0  0
  -25.9142  -32.4761   23.8351 C   0  0  1  0  0  0
  -27.2117  -27.2575   20.1230 C   0  0  0  0  0  0
  -25.5927  -33.8565   24.2267 N   0  0  0  0  0  0
  -23.4298  -30.4800   21.5432 C   0  0  2  0  0  0
  -24.8780  -28.9385   20.1002 C   0  0  0  0  0  0
  -22.7514  -29.4601   22.4902 C   0  0  0  0  0  0
  -18.0294  -28.1385   22.8479 C   0  0  0  0  0  0
  -24.1485  -36.7293   23.2643 C   0  0  0  0  0  0
  -25.9782  -30.7658   21.3848 C   0  0  0  0  0  0
  -26.0498  -29.3914   20.7206 C   0  0  0  0  0  0
  -27.2198  -28.5625   20.7247 C   0  0  0  0  0  0
  -26.0306  -26.9019   19.4310 C   0  0  0  0  0  0
  -24.8755  -27.7028   19.4411 C   0  0  0  0  0  0
  -23.6473  -29.8217   20.1563 C   0  0  0  0  0  0
  -25.4112  -36.3081   24.0329 C   0  0  1  0  0  0
  -20.5899  -28.3704   23.1254 C   0  0  2  0  0  0
  -20.6775  -26.9418   22.5403 C   0  0  0  0  0  0
  -19.5754  -26.6379   21.5204 C   0  0  0  0  0  0
  -18.1935  -26.7925   22.1620 C   0  0  0  0  0  0
  -19.1547  -28.8860   23.2862 C   0  0  0  0  0  0
  -18.9471  -30.1453   23.8894 C   0  0  0  0  0  0
  -17.6472  -30.6587   24.0559 C   0  0  0  0  0  0
  -25.9053  -34.9448   23.5103 C   0  0  0  0  0  0
  -16.5362  -29.9087   23.6328 C   0  0  0  0  0  0
  -16.7280  -28.6501   23.0356 C   0  0  0  0  0  0
  -26.4493  -31.6588   25.0747 C   0  0  0  0  0  0
  -25.3706  -31.3751   26.1463 C   0  0  0  0  0  0
  -27.0339  -30.2996   24.6257 C   0  0  0  0  0  0
  -27.6049  -32.4334   25.7517 C   0  0  0  0  0  0
  -27.5581  -37.1803   24.8463 C   0  0  0  0  0  0
  -21.4221  -29.3047   22.3642 N   0  0  0  0  0  0
  -26.4289  -37.3780   23.9410 N   0  0  0  0  0  0
  -24.6989  -31.0514   22.0984 N   0  0  0  0  0  0
  -23.4207  -28.8137   23.3002 O   0  0  0  0  0  0
  -28.2650  -26.3104   20.2332 O   0  0  0  0  0  0
  -26.5636  -34.8921   22.4680 O   0  0  0  0  0  0
  -23.5466  -32.1382   23.7282 O   0  0  0  0  0  0
  -30.6303  -20.0827   22.7108 C   0  0  0  0  0  0
  -30.0867  -21.2330   22.1035 C   0  0  0  0  0  0
  -29.4009  -19.8492   20.2364 C   0  0  0  0  0  0
  -30.5845  -18.8090   22.0984 C   0  0  0  0  0  0
  -29.9639  -18.6420   20.8328 C   0  0  0  0  0  0
  -29.4560  -21.1720   20.8424 C   0  0  0  0  0  0
  -29.0572  -23.7514   20.5417 C   0  0  0  0  0  0
  -31.2507  -17.6500   22.8205 C   0  0  0  0  0  0
  -26.8562  -24.5997   21.3856 C   0  0  0  0  0  0
  -30.0325  -17.2430   20.0615 C   0  0  0  0  0  0
  -27.9044  -24.8337   20.2681 C   0  0  1  0  0  0
  -28.8268  -22.4001   20.2884 N   0  0  0  0  0  0
  -29.8675  -15.8581   20.6941 N   0  0  0  0  0  0
  -30.1409  -24.1482   20.9788 O   0  0  0  0  0  0
  -31.4780  -12.5476   19.1857 H   0  0  0  0  0  0
  -30.3624  -11.4586   19.9562 H   0  0  0  0  0  0
  -29.7961  -11.7481   17.5195 H   0  0  0  0  0  0
  -29.6507  -13.4738   17.7361 H   0  0  0  0  0  0
  -27.8877  -11.2927   18.8993 H   0  0  0  0  0  0
  -27.3867  -12.5500   17.8000 H   0  0  0  0  0  0
  -27.6484  -14.2589   19.4887 H   0  0  0  0  0  0
  -28.7183  -12.1541   21.4305 H   0  0  0  0  0  0
  -28.4293  -13.8329   21.8124 H   0  0  0  0  0  0
  -25.2777   -9.5692   22.4747 H   0  0  0  0  0  0
  -24.0014   -7.4639   22.7472 H   0  0  0  0  0  0
  -21.0843   -8.8792   19.8950 H   0  0  0  0  0  0
  -22.3719  -10.9680   19.6155 H   0  0  0  0  0  0
  -21.2019   -7.6152   23.9716 H   0  0  0  0  0  0
  -21.1477   -6.0520   25.9076 H   0  0  0  0  0  0
  -22.0599   -2.7608   23.2839 H   0  0  0  0  0  0
  -22.4097  -11.9897   22.4837 H   0  0  0  0  0  0
  -21.1081  -13.1237   22.2598 H   0  0  0  0  0  0
  -24.6529  -15.8459   20.5258 H   0  0  0  0  0  0
  -26.2658  -15.6335   20.0713 H   0  0  0  0  0  0
  -26.7214  -32.5402   23.1097 H   0  0  0  0  0  0
  -25.0037  -33.9704   25.0385 H   0  0  0  0  0  0
  -22.7264  -31.3031   21.4007 H   0  0  0  0  0  0
  -23.3750  -35.9622   23.3299 H   0  0  0  0  0  0
  -24.3575  -36.8923   22.2057 H   0  0  0  0  0  0
  -23.7234  -37.6491   23.6669 H   0  0  0  0  0  0
  -26.1224  -31.5281   20.6178 H   0  0  0  0  0  0
  -26.8534  -30.8092   22.0214 H   0  0  0  0  0  0
  -28.1092  -28.8948   21.2418 H   0  0  0  0  0  0
  -25.9559  -25.9632   18.9047 H   0  0  0  0  0  0
  -23.9861  -27.3575   18.9320 H   0  0  0  0  0  0
  -23.7678  -30.6021   19.4040 H   0  0  0  0  0  0
  -22.7660  -29.2544   19.8513 H   0  0  0  0  0  0
  -25.1289  -36.1935   25.0822 H   0  0  0  0  0  0
  -20.9993  -28.3288   24.1373 H   0  0  0  0  0  0
  -20.5656  -26.2325   23.3615 H   0  0  0  0  0  0
  -21.6646  -26.7422   22.1214 H   0  0  0  0  0  0
  -19.6915  -25.6284   21.1248 H   0  0  0  0  0  0
  -19.6687  -27.3175   20.6719 H   0  0  0  0  0  0
  -17.4200  -26.6666   21.4026 H   0  0  0  0  0  0
  -18.0343  -26.0066   22.9019 H   0  0  0  0  0  0
  -19.7949  -30.7258   24.2277 H   0  0  0  0  0  0
  -17.5031  -31.6267   24.5162 H   0  0  0  0  0  0
  -15.5362  -30.2991   23.7650 H   0  0  0  0  0  0
  -15.8680  -28.0812   22.7087 H   0  0  0  0  0  0
  -24.5867  -30.7121   25.7783 H   0  0  0  0  0  0
  -24.8910  -32.2923   26.4890 H   0  0  0  0  0  0
  -25.8000  -30.8915   27.0245 H   0  0  0  0  0  0
  -26.2932  -29.6752   24.1249 H   0  0  0  0  0  0
  -27.3962  -29.7260   25.4798 H   0  0  0  0  0  0
  -27.8838  -30.4255   23.9548 H   0  0  0  0  0  0
  -27.2655  -33.3634   26.2092 H   0  0  0  0  0  0
  -28.3853  -32.6900   25.0342 H   0  0  0  0  0  0
  -28.0726  -31.8469   26.5434 H   0  0  0  0  0  0
  -28.2596  -38.0105   24.7514 H   0  0  0  0  0  0
  -28.1079  -36.2635   24.6272 H   0  0  0  0  0  0
  -27.2305  -37.1440   25.8870 H   0  0  0  0  0  0
  -20.9412  -29.8787   21.6856 H   0  0  0  0  0  0
  -26.0170  -38.2855   24.1407 H   0  0  0  0  0  0
  -31.1045  -20.1960   23.6761 H   0  0  0  0  0  0
  -30.1453  -22.1678   22.6409 H   0  0  0  0  0  0
  -28.9286  -19.7577   19.2683 H   0  0  0  0  0  0
  -31.8006  -17.9910   23.6980 H   0  0  0  0  0  0
  -31.9631  -17.1429   22.1701 H   0  0  0  0  0  0
  -30.5082  -16.9278   23.1599 H   0  0  0  0  0  0
  -26.6879  -23.5396   21.5792 H   0  0  0  0  0  0
  -25.8768  -25.0092   21.1487 H   0  0  0  0  0  0
  -27.1852  -25.0516   22.3212 H   0  0  0  0  0  0
  -30.9855  -17.2516   19.5296 H   0  0  0  0  0  0
  -29.2824  -17.2904   19.2713 H   0  0  0  0  0  0
  -27.4912  -24.5517   19.3000 H   0  0  0  0  0  0
  -28.0048  -22.2323   19.7241 H   0  0  0  0  0  0
  -28.9481  -15.6745   21.0657 H   0  0  0  0  0  0
  1 25  1  0  0  0
  1 30  2  0  0  0
  1 83  1  0  0  0
  2  3  1  0  0  0
  2 25  1  0  0  0
  2 85  1  0  0  0
  2 86  1  0  0  0
  3  4  1  0  0  0
  3 87  1  0  0  0
  3 88  1  0  0  0
  4  5  1  0  0  0
  4 89  1  0  0  0
  4 90  1  0  0  0
  5  6  1  0  0  0
  5 26  1  0  0  0
  5 91  1  0  0  0
  6 25  1  0  0  0
  6 92  1  0  0  0
  6 93  1  0  0  0
  7  8  2  0  0  0
  7 26  1  0  0  0
  7 29  1  0  0  0
  8  9  1  0  0  0
  8 22  1  0  0  0
  9 10  1  0  0  0
  9 27  2  0  0  0
 10 11  2  0  0  0
 10 15  1  0  0  0
 11 12  1  0  0  0
 11 94  1  0  0  0
 12 13  2  0  0  0
 12 95  1  0  0  0
 13 14  1  0  0  0
 13 31  1  0  0  0
 14 15  2  0  0  0
 14 96  1  0  0  0
 15 97  1  0  0  0
 16 17  2  0  0  0
 16 21  1  0  0  0
 16 31  1  0  0  0
 17 18  1  0  0  0
 17 98  1  0  0  0
 18 19  2  0  0  0
 18 99  1  0  0  0
 19 20  1  0  0  0
 19 24  1  0  0  0
 20 21  2  0  0  0
 20100  1  0  0  0
 21 23  1  0  0  0
 22 28  1  0  0  0
 22 32  2  0  0  0
 26 27  1  0  0  0
 28101  1  0  0  0
 28102  1  0  0  0
 29103  1  0  0  0
 29104  1  0  0  0
 33 34  1  0  0  0
 33 66  1  0  0  0
 33 70  2  0  0  0
 34 36  1  0  0  0
 34 59  1  0  0  0
 34105  1  0  0  0
 35 44  2  0  0  0
 35 45  1  0  0  0
 35 68  1  0  0  0
 36 56  1  0  0  0
 36106  1  0  0  0
 37 39  1  0  0  0
 37 47  1  0  0  0
 37 66  1  0  0  0
 37107  1  0  0  0
 38 43  2  0  0  0
 38 46  1  0  0  0
 38 47  1  0  0  0
 39 64  1  0  0  0
 39 67  2  0  0  0
 40 52  1  0  0  0
 40 53  2  0  0  0
 40 58  1  0  0  0
 41108  1  0  0  0
 41109  1  0  0  0
 41110  1  0  0  0
 41 48  1  0  0  0
 42 43  1  0  0  0
 42 66  1  0  0  0
 42111  1  0  0  0
 42112  1  0  0  0
 43 44  1  0  0  0
 44113  1  0  0  0
 45 46  2  0  0  0
 45114  1  0  0  0
 46115  1  0  0  0
 47116  1  0  0  0
 47117  1  0  0  0
 48 56  1  0  0  0
 48 65  1  0  0  0
 48118  1  0  0  0
 49 50  1  0  0  0
 49 53  1  0  0  0
 49 64  1  0  0  0
 49119  1  0  0  0
 50 51  1  0  0  0
 50120  1  0  0  0
 50121  1  0  0  0
 51 52  1  0  0  0
 51122  1  0  0  0
 51123  1  0  0  0
 52124  1  0  0  0
 52125  1  0  0  0
 53 54  1  0  0  0
 54 55  2  0  0  0
 54126  1  0  0  0
 55 57  1  0  0  0
 55127  1  0  0  0
 56 69  2  0  0  0
 57 58  2  0  0  0
 57128  1  0  0  0
 58129  1  0  0  0
 59 60  1  0  0  0
 59 61  1  0  0  0
 59 62  1  0  0  0
 60130  1  0  0  0
 60131  1  0  0  0
 60132  1  0  0  0
 61133  1  0  0  0
 61134  1  0  0  0
 61135  1  0  0  0
 62136  1  0  0  0
 62137  1  0  0  0
 62138  1  0  0  0
 63 65  1  0  0  0
 63139  1  0  0  0
 63140  1  0  0  0
 63141  1  0  0  0
 64142  1  0  0  0
 65143  1  0  0  0
 68 81  1  0  0  0
 71 72  2  0  0  0
 71 74  1  0  0  0
 71144  1  0  0  0
 72 76  1  0  0  0
 72145  1  0  0  0
 73 75  1  0  0  0
 73 76  2  0  0  0
 73146  1  0  0  0
 74 75  2  0  0  0
 74 78  1  0  0  0
 75 80  1  0  0  0
 76 82  1  0  0  0
 77 81  1  0  0  0
 77 82  1  0  0  0
 77 84  2  0  0  0
 78147  1  0  0  0
 78148  1  0  0  0
 78149  1  0  0  0
 79150  1  0  0  0
 79151  1  0  0  0
 79152  1  0  0  0
 79 81  1  0  0  0
 80 83  1  0  0  0
 80153  1  0  0  0
 80154  1  0  0  0
 81155  1  0  0  0
 82156  1  0  0  0
 83157  1  0  0  0
M  ISO  4   1 100  68 101  81 101  83 100
M  END
> <chiral flag>
0

> <version>
0

> <s_m_source_file>
/data/baiqing/PycharmProjects/Reinvent-master-3.2/result/LINK_invent/BTK/process_docking_weight1_custom_product_contain_oxygen_bond_distance_aromatic_linkinvent_7_9_3/rearranged_h_0107.sdf

> <i_m_source_file_index>
60

> <r_mmod_Potential_Energy-OPLS-2005>
108.237915039062

> <r_mmod_Stretch_Energy-OPLS-2005>
128.159393310547

> <r_mmod_Bend_Energy-OPLS-2005>
160.895736694336

> <r_mmod_Torsional_Energy-OPLS-2005>
243.377548217773

> <r_mmod_Improper_Torsional_Energy-OPLS-2005>
7.85982751846313

> <r_mmod_Van_der_Waal_Energy-OPLS-2005>
147.763732910156

> <r_mmod_Electrostatic_Energy-OPLS-2005>
-425.134521484375

> <r_mmod_Solvation_Energy-OPLS-2005>
-242.897109985352

> <b_mmod_Minimization_Converged-OPLS-2005>
0

> <r_mmod_RMS_Derivative-OPLS-2005>
1.29118573665619

$$$$
60
                    3D
 Structure written by MMmdl.
170179  0  0  1  0            999 V2000
  -30.6306  -14.6377   20.5861 C   0  0  0  0  0  0
  -30.4502  -12.4229   19.4426 C   0  0  0  0  0  0
  -29.5092  -12.5518   18.2203 C   0  0  0  0  0  0
  -28.0285  -12.3808   18.6190 C   0  0  0  0  0  0
  -27.6579  -13.2115   19.8742 C   0  0  2  0  0  0
  -28.6998  -12.9708   20.9827 C   0  0  0  0  0  0
  -25.2557  -13.8135   20.5645 C   0  0  0  0  0  0
  -24.1811  -13.0419   20.9151 C   0  0  0  0  0  0
  -24.6380  -11.6893   20.8728 C   0  0  0  0  0  0
  -23.9036  -10.4291   21.0400 C   0  0  0  0  0  0
  -24.3604   -9.4218   21.9179 C   0  0  0  0  0  0
  -23.6299   -8.2249   22.0750 C   0  0  0  0  0  0
  -22.4274   -8.0279   21.3544 C   0  0  0  0  0  0
  -21.9899   -9.0244   20.4644 C   0  0  0  0  0  0
  -22.7220  -10.2134   20.3049 C   0  0  0  0  0  0
  -21.6849   -6.0739   22.5287 C   0  0  0  0  0  0
  -21.4006   -6.5640   23.8223 C   0  0  0  0  0  0
  -21.3660   -5.6789   24.9187 C   0  0  0  0  0  0
  -21.6059   -4.3056   24.7233 C   0  0  0  0  0  0
  -21.8824   -3.8143   23.4349 C   0  0  0  0  0  0
  -21.9185   -4.6959   22.3406 C   0  0  0  0  0  0
  -22.7832  -13.5224   21.1831 C   0  0  0  0  0  0
  -22.1645   -4.2137   21.0987 F   0  0  0  0  0  0
  -21.5649   -3.4542   25.7747 F   0  0  0  0  0  0
  -30.0143  -13.4028   20.4673 N   0  0  0  0  0  0
  -26.2997  -12.9313   20.3337 N   0  0  0  0  0  0
  -25.9306  -11.6468   20.5736 N   0  0  0  0  0  0
  -22.0466  -12.8241   22.0403 N   0  0  0  0  0  0
  -25.4237  -15.1848   20.4046 N   0  0  0  0  0  0
  -31.7296  -14.8425   20.0566 O   0  0  0  0  0  0
  -21.6642   -6.8882   21.4248 O   0  0  0  0  0  0
  -22.3523  -14.5527   20.6674 O   0  0  0  0  0  0
  -24.6224  -31.8607   23.2047 C   0  0  0  0  0  0
  -25.9095  -32.4769   23.8361 C   0  0  1  0  0  0
  -27.2343  -27.3391   20.1192 C   0  0  0  0  0  0
  -25.5923  -33.8572   24.2287 N   0  0  0  0  0  0
  -23.4157  -30.4809   21.5475 C   0  0  2  0  0  0
  -24.8662  -28.9388   20.1136 C   0  0  0  0  0  0
  -22.7450  -29.4617   22.4969 C   0  0  0  0  0  0
  -18.0275  -28.1380   22.8487 C   0  0  0  0  0  0
  -24.1487  -36.7284   23.2642 C   0  0  0  0  0  0
  -25.9545  -30.7924   21.3780 C   0  0  0  0  0  0
  -26.0315  -29.4220   20.7222 C   0  0  0  0  0  0
  -27.2194  -28.6336   20.7193 C   0  0  0  0  0  0
  -26.0533  -26.9122   19.4726 C   0  0  0  0  0  0
  -24.8779  -27.6859   19.4811 C   0  0  0  0  0  0
  -23.6293  -29.8108   20.1645 C   0  0  0  0  0  0
  -25.4112  -36.3074   24.0337 C   0  0  1  0  0  0
  -20.5869  -28.3679   23.1293 C   0  0  2  0  0  0
  -20.6766  -26.9409   22.5418 C   0  0  0  0  0  0
  -19.5746  -26.6386   21.5215 C   0  0  0  0  0  0
  -18.1921  -26.7926   22.1613 C   0  0  0  0  0  0
  -19.1526  -28.8851   23.2874 C   0  0  0  0  0  0
  -18.9447  -30.1455   23.8884 C   0  0  0  0  0  0
  -17.6455  -30.6589   24.0556 C   0  0  0  0  0  0
  -25.9060  -34.9444   23.5115 C   0  0  0  0  0  0
  -16.5346  -29.9076   23.6346 C   0  0  0  0  0  0
  -16.7260  -28.6498   23.0361 C   0  0  0  0  0  0
  -26.4512  -31.6566   25.0712 C   0  0  0  0  0  0
  -25.3764  -31.3677   26.1444 C   0  0  0  0  0  0
  -27.0381  -30.2996   24.6165 C   0  0  0  0  0  0
  -27.6075  -32.4304   25.7471 C   0  0  0  0  0  0
  -27.5590  -37.1768   24.8447 C   0  0  0  0  0  0
  -21.4169  -29.3031   22.3695 N   0  0  0  0  0  0
  -26.4273  -37.3779   23.9428 N   0  0  0  0  0  0
  -24.6818  -31.0621   22.0998 N   0  0  0  0  0  0
  -23.4177  -28.8179   23.3070 O   0  0  0  0  0  0
  -28.3568  -26.5010   20.1389 O   0  0  0  0  0  0
  -26.5626  -34.8919   22.4675 O   0  0  0  0  0  0
  -23.5398  -32.1410   23.7392 O   0  0  0  0  0  0
  -29.6296  -17.8218   19.7498 C   0  0  0  0  0  0
  -29.5720  -19.2287   19.4944 C   0  0  0  0  0  0
  -30.4347  -19.6656   21.6908 C   0  0  0  0  0  0
  -30.0730  -17.2891   20.9922 C   0  0  0  0  0  0
  -29.9462  -20.1919   20.4699 C   0  0  0  0  0  0
  -30.4989  -18.2605   21.9519 C   0  0  0  0  0  0
  -29.1940  -23.9747   20.2750 C   0  0  0  0  0  0
  -29.0052  -22.6139   20.4722 C   0  0  0  0  0  0
  -30.5092  -24.4002   19.7306 C   0  0  0  0  0  0
  -29.9161  -15.8048   21.3841 C   0  0  0  0  0  0
  -31.3505  -23.3300   19.0340 C   0  0  0  0  0  0
  -31.3356  -22.0044   19.8108 C   0  0  0  0  0  0
  -27.7100  -22.0482   21.0417 C   0  0  0  0  0  0
  -34.3689  -17.4625   24.6320 C   0  0  0  0  0  0
  -28.1354  -25.1035   20.5802 C   0  0  0  0  0  0
  -32.9968  -17.0908   24.0585 C   0  0  0  0  0  0
  -32.1551  -18.3132   23.6685 C   0  0  0  0  0  0
  -29.2270  -15.5808   22.4250 N   0  0  0  0  0  0
  -29.9801  -21.6045   20.1939 N   0  0  0  0  0  0
  -30.9660  -25.5439   19.8142 O   0  0  0  0  0  0
  -30.9128  -17.8179   23.1868 O   0  0  0  0  0  0
  -31.4841  -12.5769   19.1309 H   0  0  0  0  0  0
  -30.4220  -11.4074   19.8428 H   0  0  0  0  0  0
  -29.7794  -11.8226   17.4558 H   0  0  0  0  0  0
  -29.6482  -13.5328   17.7626 H   0  0  0  0  0  0
  -27.8502  -11.3225   18.8120 H   0  0  0  0  0  0
  -27.3794  -12.6500   17.7857 H   0  0  0  0  0  0
  -27.7010  -14.2636   19.5918 H   0  0  0  0  0  0
  -28.7337  -11.9072   21.2212 H   0  0  0  0  0  0
  -28.3908  -13.4188   21.9199 H   0  0  0  0  0  0
  -25.2748   -9.5720   22.4747 H   0  0  0  0  0  0
  -24.0024   -7.4629   22.7463 H   0  0  0  0  0  0
  -21.0831   -8.8770   19.8937 H   0  0  0  0  0  0
  -22.3678  -10.9675   19.6159 H   0  0  0  0  0  0
  -21.2000   -7.6147   23.9735 H   0  0  0  0  0  0
  -21.1469   -6.0508   25.9093 H   0  0  0  0  0  0
  -22.0598   -2.7601   23.2849 H   0  0  0  0  0  0
  -22.4066  -11.9918   22.4839 H   0  0  0  0  0  0
  -21.1075  -13.1270   22.2584 H   0  0  0  0  0  0
  -24.6589  -15.8381   20.5357 H   0  0  0  0  0  0
  -26.2931  -15.6340   20.1478 H   0  0  0  0  0  0
  -26.7152  -32.5450   23.1104 H   0  0  0  0  0  0
  -25.0073  -33.9717   25.0432 H   0  0  0  0  0  0
  -22.7085  -31.3003   21.4036 H   0  0  0  0  0  0
  -23.3776  -35.9578   23.3236 H   0  0  0  0  0  0
  -24.3603  -36.8975   22.2070 H   0  0  0  0  0  0
  -23.7194  -37.6447   23.6708 H   0  0  0  0  0  0
  -26.0883  -31.5559   20.6111 H   0  0  0  0  0  0
  -26.8340  -30.8378   22.0081 H   0  0  0  0  0  0
  -28.1098  -28.9987   21.2104 H   0  0  0  0  0  0
  -26.0230  -25.9714   18.9441 H   0  0  0  0  0  0
  -23.9914  -27.3111   18.9892 H   0  0  0  0  0  0
  -23.7362  -30.5825   19.4021 H   0  0  0  0  0  0
  -22.7532  -29.2292   19.8722 H   0  0  0  0  0  0
  -25.1287  -36.1912   25.0825 H   0  0  0  0  0  0
  -20.9948  -28.3249   24.1415 H   0  0  0  0  0  0
  -20.5670  -26.2290   23.3611 H   0  0  0  0  0  0
  -21.6627  -26.7452   22.1193 H   0  0  0  0  0  0
  -19.6906  -25.6296   21.1235 H   0  0  0  0  0  0
  -19.6694  -27.3200   20.6749 H   0  0  0  0  0  0
  -17.4204  -26.6682   21.4002 H   0  0  0  0  0  0
  -18.0314  -26.0061   22.8998 H   0  0  0  0  0  0
  -19.7935  -30.7270   24.2236 H   0  0  0  0  0  0
  -17.5018  -31.6277   24.5142 H   0  0  0  0  0  0
  -15.5341  -30.2973   23.7701 H   0  0  0  0  0  0
  -15.8647  -28.0814   22.7086 H   0  0  0  0  0  0
  -24.5937  -30.7034   25.7761 H   0  0  0  0  0  0
  -24.8962  -32.2833   26.4903 H   0  0  0  0  0  0
  -25.8107  -30.8824   27.0192 H   0  0  0  0  0  0
  -26.2958  -29.6696   24.1251 H   0  0  0  0  0  0
  -27.4161  -29.7295   25.4663 H   0  0  0  0  0  0
  -27.8785  -30.4295   23.9342 H   0  0  0  0  0  0
  -27.2686  -33.3601   26.2053 H   0  0  0  0  0  0
  -28.3871  -32.6866   25.0283 H   0  0  0  0  0  0
  -28.0754  -31.8422   26.5375 H   0  0  0  0  0  0
  -28.2536  -38.0141   24.7617 H   0  0  0  0  0  0
  -28.1162  -36.2684   24.6112 H   0  0  0  0  0  0
  -27.2337  -37.1206   25.8852 H   0  0  0  0  0  0
  -20.9354  -29.8716   21.6869 H   0  0  0  0  0  0
  -26.0158  -38.2831   24.1505 H   0  0  0  0  0  0
  -29.2837  -17.1407   18.9850 H   0  0  0  0  0  0
  -29.2239  -19.5709   18.5294 H   0  0  0  0  0  0
  -30.7486  -20.3602   22.4567 H   0  0  0  0  0  0
  -32.3746  -23.6810   18.9068 H   0  0  0  0  0  0
  -30.9393  -23.1774   18.0371 H   0  0  0  0  0  0
  -31.9448  -22.1057   20.7112 H   0  0  0  0  0  0
  -31.8070  -21.2301   19.2033 H   0  0  0  0  0  0
  -26.9986  -22.8168   21.3396 H   0  0  0  0  0  0
  -27.9148  -21.4497   21.9304 H   0  0  0  0  0  0
  -27.2175  -21.4086   20.3081 H   0  0  0  0  0  0
  -34.9416  -16.5656   24.8736 H   0  0  0  0  0  0
  -34.2702  -18.0524   25.5437 H   0  0  0  0  0  0
  -34.9513  -18.0442   23.9174 H   0  0  0  0  0  0
  -28.0125  -25.1352   21.6638 H   0  0  0  0  0  0
  -27.1938  -24.7257   20.1915 H   0  0  0  0  0  0
  -32.4495  -16.4898   24.7856 H   0  0  0  0  0  0
  -33.1359  -16.4554   23.1825 H   0  0  0  0  0  0
  -32.6918  -18.9083   22.9279 H   0  0  0  0  0  0
  -31.9736  -18.9516   24.5340 H   0  0  0  0  0  0
  -28.8923  -16.4516   22.8198 H   0  0  0  0  0  0
  1 25  1  0  0  0
  1 30  2  0  0  0
  1 80  1  0  0  0
  2  3  1  0  0  0
  2 25  1  0  0  0
  2 92  1  0  0  0
  2 93  1  0  0  0
  3  4  1  0  0  0
  3 94  1  0  0  0
  3 95  1  0  0  0
  4  5  1  0  0  0
  4 96  1  0  0  0
  4 97  1  0  0  0
  5  6  1  0  0  0
  5 26  1  0  0  0
  5 98  1  0  0  0
  6 25  1  0  0  0
  6 99  1  0  0  0
  6100  1  0  0  0
  7  8  2  0  0  0
  7 26  1  0  0  0
  7 29  1  0  0  0
  8  9  1  0  0  0
  8 22  1  0  0  0
  9 10  1  0  0  0
  9 27  2  0  0  0
 10 11  2  0  0  0
 10 15  1  0  0  0
 11 12  1  0  0  0
 11101  1  0  0  0
 12 13  2  0  0  0
 12102  1  0  0  0
 13 14  1  0  0  0
 13 31  1  0  0  0
 14 15  2  0  0  0
 14103  1  0  0  0
 15104  1  0  0  0
 16 17  2  0  0  0
 16 21  1  0  0  0
 16 31  1  0  0  0
 17 18  1  0  0  0
 17105  1  0  0  0
 18 19  2  0  0  0
 18106  1  0  0  0
 19 20  1  0  0  0
 19 24  1  0  0  0
 20 21  2  0  0  0
 20107  1  0  0  0
 21 23  1  0  0  0
 22 28  1  0  0  0
 22 32  2  0  0  0
 26 27  1  0  0  0
 28108  1  0  0  0
 28109  1  0  0  0
 29110  1  0  0  0
 29111  1  0  0  0
 33 34  1  0  0  0
 33 66  1  0  0  0
 33 70  2  0  0  0
 34 36  1  0  0  0
 34 59  1  0  0  0
 34112  1  0  0  0
 35 44  2  0  0  0
 35 45  1  0  0  0
 35 68  1  0  0  0
 36 56  1  0  0  0
 36113  1  0  0  0
 37 39  1  0  0  0
 37 47  1  0  0  0
 37 66  1  0  0  0
 37114  1  0  0  0
 38 43  2  0  0  0
 38 46  1  0  0  0
 38 47  1  0  0  0
 39 64  1  0  0  0
 39 67  2  0  0  0
 40 52  1  0  0  0
 40 53  2  0  0  0
 40 58  1  0  0  0
 41115  1  0  0  0
 41116  1  0  0  0
 41117  1  0  0  0
 41 48  1  0  0  0
 42 43  1  0  0  0
 42 66  1  0  0  0
 42118  1  0  0  0
 42119  1  0  0  0
 43 44  1  0  0  0
 44120  1  0  0  0
 45 46  2  0  0  0
 45121  1  0  0  0
 46122  1  0  0  0
 47123  1  0  0  0
 47124  1  0  0  0
 48 56  1  0  0  0
 48 65  1  0  0  0
 48125  1  0  0  0
 49 50  1  0  0  0
 49 53  1  0  0  0
 49 64  1  0  0  0
 49126  1  0  0  0
 50 51  1  0  0  0
 50127  1  0  0  0
 50128  1  0  0  0
 51 52  1  0  0  0
 51129  1  0  0  0
 51130  1  0  0  0
 52131  1  0  0  0
 52132  1  0  0  0
 53 54  1  0  0  0
 54 55  2  0  0  0
 54133  1  0  0  0
 55 57  1  0  0  0
 55134  1  0  0  0
 56 69  2  0  0  0
 57 58  2  0  0  0
 57135  1  0  0  0
 58136  1  0  0  0
 59 60  1  0  0  0
 59 61  1  0  0  0
 59 62  1  0  0  0
 60137  1  0  0  0
 60138  1  0  0  0
 60139  1  0  0  0
 61140  1  0  0  0
 61141  1  0  0  0
 61142  1  0  0  0
 62143  1  0  0  0
 62144  1  0  0  0
 62145  1  0  0  0
 63 65  1  0  0  0
 63146  1  0  0  0
 63147  1  0  0  0
 63148  1  0  0  0
 64149  1  0  0  0
 65150  1  0  0  0
 68 85  1  0  0  0
 71 72  2  0  0  0
 71 74  1  0  0  0
 71151  1  0  0  0
 72 75  1  0  0  0
 72152  1  0  0  0
 73 75  2  0  0  0
 73 76  1  0  0  0
 73153  1  0  0  0
 74 76  2  0  0  0
 74 80  1  0  0  0
 75 89  1  0  0  0
 76 91  1  0  0  0
 77 78  2  0  0  0
 77 79  1  0  0  0
 77 85  1  0  0  0
 78 83  1  0  0  0
 78 89  1  0  0  0
 79 81  1  0  0  0
 79 90  2  0  0  0
 80 88  2  0  0  0
 81 82  1  0  0  0
 81154  1  0  0  0
 81155  1  0  0  0
 82 89  1  0  0  0
 82156  1  0  0  0
 82157  1  0  0  0
 83158  1  0  0  0
 83159  1  0  0  0
 83160  1  0  0  0
 84 86  1  0  0  0
 84161  1  0  0  0
 84162  1  0  0  0
 84163  1  0  0  0
 85164  1  0  0  0
 85165  1  0  0  0
 86 87  1  0  0  0
 86166  1  0  0  0
 86167  1  0  0  0
 87 91  1  0  0  0
 87168  1  0  0  0
 87169  1  0  0  0
 88170  1  0  0  0
M  ISO  4   1 100  68 101  80 100  85 101
M  END
> <chiral flag>
0

> <version>
0

> <s_m_source_file>
/data/baiqing/PycharmProjects/Reinvent-master-3.2/result/LINK_invent/BTK/process_docking_weight1_custom_product_contain_oxygen_bond_distance_aromatic_linkinvent_7_9_3/rearranged_h_0107.sdf

> <i_m_source_file_index>
61

> <r_mmod_Potential_Energy-OPLS-2005>
303.994537353516

> <r_mmod_Stretch_Energy-OPLS-2005>
95.8911514282227

> <r_mmod_Bend_Energy-OPLS-2005>
146.694198608398

> <r_mmod_Torsional_Energy-OPLS-2005>
256.040130615234

> <r_mmod_Improper_Torsional_Energy-OPLS-2005>
4.24536609649658

> <r_mmod_Van_der_Waal_Energy-OPLS-2005>
167.661911010742

> <r_mmod_Electrostatic_Energy-OPLS-2005>
-196.639617919922

> <r_mmod_Solvation_Energy-OPLS-2005>
-211.598617553711

> <b_mmod_Minimization_Converged-OPLS-2005>
0

> <r_mmod_RMS_Derivative-OPLS-2005>
2.27382874488831

$$$$
61
                    3D
 Structure written by MMmdl.
161170  0  0  1  0            999 V2000
  -30.6302  -14.7556   20.4030 C   0  0  0  0  0  0
  -30.4476  -12.4426   19.4614 C   0  0  0  0  0  0
  -29.5063  -12.3798   18.2317 C   0  0  0  0  0  0
  -28.0285  -12.2816   18.6519 C   0  0  0  0  0  0
  -27.6403  -13.2214   19.8250 C   0  0  2  0  0  0
  -28.6952  -13.1976   20.9532 C   0  0  0  0  0  0
  -25.2537  -13.8174   20.5648 C   0  0  0  0  0  0
  -24.1828  -13.0454   20.9253 C   0  0  0  0  0  0
  -24.6373  -11.6924   20.8771 C   0  0  0  0  0  0
  -23.9051  -10.4295   21.0421 C   0  0  0  0  0  0
  -24.3610   -9.4217   21.9197 C   0  0  0  0  0  0
  -23.6302   -8.2243   22.0748 C   0  0  0  0  0  0
  -22.4284   -8.0278   21.3542 C   0  0  0  0  0  0
  -21.9908   -9.0237   20.4642 C   0  0  0  0  0  0
  -22.7223  -10.2128   20.3070 C   0  0  0  0  0  0
  -21.6864   -6.0738   22.5274 C   0  0  0  0  0  0
  -21.4001   -6.5648   23.8192 C   0  0  0  0  0  0
  -21.3657   -5.6810   24.9164 C   0  0  0  0  0  0
  -21.6045   -4.3070   24.7219 C   0  0  0  0  0  0
  -21.8828   -3.8163   23.4340 C   0  0  0  0  0  0
  -21.9195   -4.6974   22.3400 C   0  0  0  0  0  0
  -22.7850  -13.5247   21.1889 C   0  0  0  0  0  0
  -22.1685   -4.2165   21.0976 F   0  0  0  0  0  0
  -21.5618   -3.4549   25.7722 F   0  0  0  0  0  0
  -29.9864  -13.5349   20.3466 N   0  0  0  0  0  0
  -26.2942  -12.9370   20.3217 N   0  0  0  0  0  0
  -25.9300  -11.6545   20.5769 N   0  0  0  0  0  0
  -22.0449  -12.8232   22.0414 N   0  0  0  0  0  0
  -25.4231  -15.1876   20.3956 N   0  0  0  0  0  0
  -31.8589  -14.7907   20.2943 O   0  0  0  0  0  0
  -21.6652   -6.8875   21.4233 O   0  0  0  0  0  0
  -22.3564  -14.5548   20.6718 O   0  0  0  0  0  0
  -24.6278  -31.8557   23.2022 C   0  0  0  0  0  0
  -25.9134  -32.4731   23.8335 C   0  0  1  0  0  0
  -27.2307  -27.2890   20.1486 C   0  0  0  0  0  0
  -25.5931  -33.8517   24.2312 N   0  0  0  0  0  0
  -23.4237  -30.4760   21.5375 C   0  0  2  0  0  0
  -24.8769  -28.9236   20.1125 C   0  0  0  0  0  0
  -22.7468  -29.4600   22.4894 C   0  0  0  0  0  0
  -18.0276  -28.1403   22.8483 C   0  0  0  0  0  0
  -24.1459  -36.7273   23.2639 C   0  0  0  0  0  0
  -25.9654  -30.7839   21.3723 C   0  0  0  0  0  0
  -26.0469  -29.4042   20.7203 C   0  0  0  0  0  0
  -27.2304  -28.5991   20.7301 C   0  0  0  0  0  0
  -26.0468  -26.8677   19.5118 C   0  0  0  0  0  0
  -24.8811  -27.6626   19.4923 C   0  0  0  0  0  0
  -23.6442  -29.8066   20.1556 C   0  0  0  0  0  0
  -25.4072  -36.3076   24.0387 C   0  0  1  0  0  0
  -20.5880  -28.3701   23.1282 C   0  0  2  0  0  0
  -20.6751  -26.9420   22.5422 C   0  0  0  0  0  0
  -19.5747  -26.6393   21.5205 C   0  0  0  0  0  0
  -18.1930  -26.7950   22.1596 C   0  0  0  0  0  0
  -19.1535  -28.8865   23.2865 C   0  0  0  0  0  0
  -18.9456  -30.1481   23.8869 C   0  0  0  0  0  0
  -17.6455  -30.6583   24.0570 C   0  0  0  0  0  0
  -25.9031  -34.9422   23.5147 C   0  0  0  0  0  0
  -16.5336  -29.9092   23.6352 C   0  0  0  0  0  0
  -16.7268  -28.6513   23.0362 C   0  0  0  0  0  0
  -26.4533  -31.6532   25.0701 C   0  0  0  0  0  0
  -25.3777  -31.3664   26.1434 C   0  0  0  0  0  0
  -27.0426  -30.2947   24.6225 C   0  0  0  0  0  0
  -27.6113  -32.4242   25.7456 C   0  0  0  0  0  0
  -27.5579  -37.1773   24.8470 C   0  0  0  0  0  0
  -21.4179  -29.3043   22.3648 N   0  0  0  0  0  0
  -26.4247  -37.3772   23.9471 N   0  0  0  0  0  0
  -24.6891  -31.0569   22.0949 N   0  0  0  0  0  0
  -23.4189  -28.8163   23.3008 O   0  0  0  0  0  0
  -28.2842  -26.3533   20.2210 O   0  0  0  0  0  0
  -26.5572  -34.8914   22.4716 O   0  0  0  0  0  0
  -23.5444  -32.1359   23.7353 O   0  0  0  0  0  0
  -30.4473  -19.6754   20.5900 C   0  0  0  0  0  0
  -28.4926  -17.7140   20.9148 C   0  0  0  0  0  0
  -30.7648  -18.2788   20.4045 C   0  0  0  0  0  0
  -29.1478  -20.1464   20.9354 C   0  0  0  0  0  0
  -29.7726  -17.2430   20.5212 C   0  0  0  0  0  0
  -28.1907  -19.0936   21.1138 C   0  0  0  0  0  0
  -28.4909  -24.0113   21.3660 C   0  0  0  0  0  0
  -28.8893  -16.6711   17.8449 C   0  0  0  0  0  0
  -28.1422  -25.3529   21.2094 C   0  0  0  0  0  0
  -29.7024  -15.8615   18.5532 C   0  0  0  0  0  0
  -28.1219  -23.3272   22.6656 C   0  0  0  0  0  0
  -29.1673  -22.8594   20.5391 C   0  0  0  0  0  0
  -27.9939  -21.8271   22.3727 C   0  0  0  0  0  0
  -32.2034  -17.9140   20.0781 C   0  0  0  0  0  0
  -28.8034  -21.5452   21.1912 N   0  0  0  0  0  0
  -29.9070  -15.8672   19.9541 N   0  0  0  0  0  0
  -26.9099  -19.3976   21.4323 F   0  0  0  0  0  0
  -31.4763  -12.5875   19.1253 H   0  0  0  0  0  0
  -30.4421  -11.4939   20.0018 H   0  0  0  0  0  0
  -29.7632  -11.5023   17.6362 H   0  0  0  0  0  0
  -29.6492  -13.2228   17.5612 H   0  0  0  0  0  0
  -27.8619  -11.2449   18.9480 H   0  0  0  0  0  0
  -27.3767  -12.4545   17.7932 H   0  0  0  0  0  0
  -27.6205  -14.2277   19.4098 H   0  0  0  0  0  0
  -28.7324  -12.2142   21.4273 H   0  0  0  0  0  0
  -28.4385  -13.9186   21.7307 H   0  0  0  0  0  0
  -25.2737   -9.5743   22.4782 H   0  0  0  0  0  0
  -24.0032   -7.4645   22.7475 H   0  0  0  0  0  0
  -21.0836   -8.8745   19.8954 H   0  0  0  0  0  0
  -22.3651  -10.9675   19.6192 H   0  0  0  0  0  0
  -21.1978   -7.6149   23.9716 H   0  0  0  0  0  0
  -21.1474   -6.0521   25.9079 H   0  0  0  0  0  0
  -22.0597   -2.7617   23.2804 H   0  0  0  0  0  0
  -22.4066  -11.9897   22.4815 H   0  0  0  0  0  0
  -21.1028  -13.1243   22.2573 H   0  0  0  0  0  0
  -24.6337  -15.8218   20.4432 H   0  0  0  0  0  0
  -26.2439  -15.5991   19.9698 H   0  0  0  0  0  0
  -26.7189  -32.5436   23.1060 H   0  0  0  0  0  0
  -25.0213  -33.9649   25.0545 H   0  0  0  0  0  0
  -22.7198  -31.2974   21.3869 H   0  0  0  0  0  0
  -23.3763  -35.9564   23.3244 H   0  0  0  0  0  0
  -24.3582  -36.8931   22.2068 H   0  0  0  0  0  0
  -23.7135  -37.6440   23.6654 H   0  0  0  0  0  0
  -26.0926  -31.5448   20.6008 H   0  0  0  0  0  0
  -26.8469  -30.8410   22.0002 H   0  0  0  0  0  0
  -28.1178  -28.9575   21.2312 H   0  0  0  0  0  0
  -26.0175  -25.8848   19.0622 H   0  0  0  0  0  0
  -23.9875  -27.2877   19.0113 H   0  0  0  0  0  0
  -23.7661  -30.5785   19.3952 H   0  0  0  0  0  0
  -22.7676  -29.2359   19.8463 H   0  0  0  0  0  0
  -25.1228  -36.1929   25.0883 H   0  0  0  0  0  0
  -20.9994  -28.3277   24.1407 H   0  0  0  0  0  0
  -20.5670  -26.2324   23.3628 H   0  0  0  0  0  0
  -21.6630  -26.7447   22.1224 H   0  0  0  0  0  0
  -19.6936  -25.6305   21.1231 H   0  0  0  0  0  0
  -19.6719  -27.3200   20.6744 H   0  0  0  0  0  0
  -17.4230  -26.6743   21.3958 H   0  0  0  0  0  0
  -18.0292  -26.0068   22.8975 H   0  0  0  0  0  0
  -19.7930  -30.7286   24.2228 H   0  0  0  0  0  0
  -17.5009  -31.6265   24.5188 H   0  0  0  0  0  0
  -15.5346  -30.2986   23.7688 H   0  0  0  0  0  0
  -15.8677  -28.0824   22.7106 H   0  0  0  0  0  0
  -24.6092  -30.6812   25.7795 H   0  0  0  0  0  0
  -24.8781  -32.2791   26.4673 H   0  0  0  0  0  0
  -25.8154  -30.9034   27.0290 H   0  0  0  0  0  0
  -26.3054  -29.6614   24.1272 H   0  0  0  0  0  0
  -27.4104  -29.7279   25.4788 H   0  0  0  0  0  0
  -27.8907  -30.4190   23.9493 H   0  0  0  0  0  0
  -27.2804  -33.3617   26.1914 H   0  0  0  0  0  0
  -28.3988  -32.6644   25.0299 H   0  0  0  0  0  0
  -28.0699  -31.8407   26.5441 H   0  0  0  0  0  0
  -28.2540  -38.0126   24.7610 H   0  0  0  0  0  0
  -28.1117  -36.2665   24.6141 H   0  0  0  0  0  0
  -27.2346  -37.1266   25.8878 H   0  0  0  0  0  0
  -20.9389  -29.8731   21.6806 H   0  0  0  0  0  0
  -26.0144  -38.2849   24.1498 H   0  0  0  0  0  0
  -31.2412  -20.4004   20.4835 H   0  0  0  0  0  0
  -27.6781  -17.0106   20.9914 H   0  0  0  0  0  0
  -28.8316  -16.5770   16.7687 H   0  0  0  0  0  0
  -28.2643  -17.4280   18.2972 H   0  0  0  0  0  0
  -27.6360  -25.7978   22.0572 H   0  0  0  0  0  0
  -30.3052  -15.1337   18.0268 H   0  0  0  0  0  0
  -27.2155  -23.7365   23.1135 H   0  0  0  0  0  0
  -28.9346  -23.4873   23.3759 H   0  0  0  0  0  0
  -30.2505  -22.9824   20.5836 H   0  0  0  0  0  0
  -28.8626  -22.9029   19.4933 H   0  0  0  0  0  0
  -26.9486  -21.5962   22.1676 H   0  0  0  0  0  0
  -28.3121  -21.2304   23.2306 H   0  0  0  0  0  0
  -32.8472  -18.7907   19.9894 H   0  0  0  0  0  0
  -32.2747  -17.3529   19.1467 H   0  0  0  0  0  0
  -32.6126  -17.3037   20.8855 H   0  0  0  0  0  0
  1 25  1  0  0  0
  1 30  2  0  0  0
  1 86  1  0  0  0
  2  3  1  0  0  0
  2 25  1  0  0  0
  2 88  1  0  0  0
  2 89  1  0  0  0
  3  4  1  0  0  0
  3 90  1  0  0  0
  3 91  1  0  0  0
  4  5  1  0  0  0
  4 92  1  0  0  0
  4 93  1  0  0  0
  5  6  1  0  0  0
  5 26  1  0  0  0
  5 94  1  0  0  0
  6 25  1  0  0  0
  6 95  1  0  0  0
  6 96  1  0  0  0
  7  8  2  0  0  0
  7 26  1  0  0  0
  7 29  1  0  0  0
  8  9  1  0  0  0
  8 22  1  0  0  0
  9 10  1  0  0  0
  9 27  2  0  0  0
 10 11  2  0  0  0
 10 15  1  0  0  0
 11 12  1  0  0  0
 11 97  1  0  0  0
 12 13  2  0  0  0
 12 98  1  0  0  0
 13 14  1  0  0  0
 13 31  1  0  0  0
 14 15  2  0  0  0
 14 99  1  0  0  0
 15100  1  0  0  0
 16 17  2  0  0  0
 16 21  1  0  0  0
 16 31  1  0  0  0
 17 18  1  0  0  0
 17101  1  0  0  0
 18 19  2  0  0  0
 18102  1  0  0  0
 19 20  1  0  0  0
 19 24  1  0  0  0
 20 21  2  0  0  0
 20103  1  0  0  0
 21 23  1  0  0  0
 22 28  1  0  0  0
 22 32  2  0  0  0
 26 27  1  0  0  0
 28104  1  0  0  0
 28105  1  0  0  0
 29106  1  0  0  0
 29107  1  0  0  0
 33 34  1  0  0  0
 33 66  1  0  0  0
 33 70  2  0  0  0
 34 36  1  0  0  0
 34 59  1  0  0  0
 34108  1  0  0  0
 35 44  2  0  0  0
 35 45  1  0  0  0
 35 68  1  0  0  0
 36 56  1  0  0  0
 36109  1  0  0  0
 37 39  1  0  0  0
 37 47  1  0  0  0
 37 66  1  0  0  0
 37110  1  0  0  0
 38 43  2  0  0  0
 38 46  1  0  0  0
 38 47  1  0  0  0
 39 64  1  0  0  0
 39 67  2  0  0  0
 40 52  1  0  0  0
 40 53  2  0  0  0
 40 58  1  0  0  0
 41111  1  0  0  0
 41112  1  0  0  0
 41113  1  0  0  0
 41 48  1  0  0  0
 42 43  1  0  0  0
 42 66  1  0  0  0
 42114  1  0  0  0
 42115  1  0  0  0
 43 44  1  0  0  0
 44116  1  0  0  0
 45 46  2  0  0  0
 45117  1  0  0  0
 46118  1  0  0  0
 47119  1  0  0  0
 47120  1  0  0  0
 48 56  1  0  0  0
 48 65  1  0  0  0
 48121  1  0  0  0
 49 50  1  0  0  0
 49 53  1  0  0  0
 49 64  1  0  0  0
 49122  1  0  0  0
 50 51  1  0  0  0
 50123  1  0  0  0
 50124  1  0  0  0
 51 52  1  0  0  0
 51125  1  0  0  0
 51126  1  0  0  0
 52127  1  0  0  0
 52128  1  0  0  0
 53 54  1  0  0  0
 54 55  2  0  0  0
 54129  1  0  0  0
 55 57  1  0  0  0
 55130  1  0  0  0
 56 69  2  0  0  0
 57 58  2  0  0  0
 57131  1  0  0  0
 58132  1  0  0  0
 59 60  1  0  0  0
 59 61  1  0  0  0
 59 62  1  0  0  0
 60133  1  0  0  0
 60134  1  0  0  0
 60135  1  0  0  0
 61136  1  0  0  0
 61137  1  0  0  0
 61138  1  0  0  0
 62139  1  0  0  0
 62140  1  0  0  0
 62141  1  0  0  0
 63 65  1  0  0  0
 63142  1  0  0  0
 63143  1  0  0  0
 63144  1  0  0  0
 64145  1  0  0  0
 65146  1  0  0  0
 68 79  1  0  0  0
 71 73  2  0  0  0
 71 74  1  0  0  0
 71147  1  0  0  0
 72 75  2  0  0  0
 72 76  1  0  0  0
 72148  1  0  0  0
 73 75  1  0  0  0
 73 84  1  0  0  0
 74 76  2  0  0  0
 74 85  1  0  0  0
 75 86  1  0  0  0
 76 87  1  0  0  0
 77 79  2  0  0  0
 77 81  1  0  0  0
 77 82  1  0  0  0
 78 80  2  0  0  0
 78149  1  0  0  0
 78150  1  0  0  0
 79151  1  0  0  0
 80 86  1  0  0  0
 80152  1  0  0  0
 81 83  1  0  0  0
 81153  1  0  0  0
 81154  1  0  0  0
 82 85  1  0  0  0
 82155  1  0  0  0
 82156  1  0  0  0
 83 85  1  0  0  0
 83157  1  0  0  0
 83158  1  0  0  0
 84159  1  0  0  0
 84160  1  0  0  0
 84161  1  0  0  0
M  ISO  4   1 100  68 101  79 101  86 100
M  END
> <chiral flag>
0

> <version>
0

> <s_m_source_file>
/data/baiqing/PycharmProjects/Reinvent-master-3.2/result/LINK_invent/BTK/process_docking_weight1_custom_product_contain_oxygen_bond_distance_aromatic_linkinvent_7_9_3/rearranged_h_0107.sdf

> <i_m_source_file_index>
62

> <r_mmod_Potential_Energy-OPLS-2005>
549.749450683594

> <r_mmod_Stretch_Energy-OPLS-2005>
111.570472717285

> <r_mmod_Bend_Energy-OPLS-2005>
253.253356933594

> <r_mmod_Torsional_Energy-OPLS-2005>
388.854034423828

> <r_mmod_Improper_Torsional_Energy-OPLS-2005>
27.9770050048828

> <r_mmod_Van_der_Waal_Energy-OPLS-2005>
137.74333190918

> <r_mmod_Electrostatic_Energy-OPLS-2005>
-273.296905517578

> <r_mmod_Solvation_Energy-OPLS-2005>
-194.543060302734

> <b_mmod_Minimization_Converged-OPLS-2005>
0

> <r_mmod_RMS_Derivative-OPLS-2005>
5.53888654708862

$$$$
62
                    3D
 Structure written by MMmdl.
165173  0  0  1  0            999 V2000
  -30.6982  -14.4443   20.4900 C   0  0  0  0  0  0
  -30.4143  -12.2570   19.4366 C   0  0  0  0  0  0
  -29.5011  -12.4723   18.2122 C   0  0  0  0  0  0
  -28.0172  -12.3539   18.6123 C   0  0  0  0  0  0
  -27.6616  -13.2017   19.8644 C   0  0  2  0  0  0
  -28.7015  -12.9948   20.9926 C   0  0  0  0  0  0
  -25.2599  -13.8154   20.5639 C   0  0  0  0  0  0
  -24.1862  -13.0435   20.9155 C   0  0  0  0  0  0
  -24.6409  -11.6897   20.8704 C   0  0  0  0  0  0
  -23.9068  -10.4282   21.0369 C   0  0  0  0  0  0
  -24.3624   -9.4204   21.9157 C   0  0  0  0  0  0
  -23.6300   -8.2240   22.0742 C   0  0  0  0  0  0
  -22.4269   -8.0279   21.3546 C   0  0  0  0  0  0
  -21.9897   -9.0243   20.4641 C   0  0  0  0  0  0
  -22.7223  -10.2123   20.3036 C   0  0  0  0  0  0
  -21.6860   -6.0737   22.5285 C   0  0  0  0  0  0
  -21.4016   -6.5636   23.8218 C   0  0  0  0  0  0
  -21.3667   -5.6783   24.9181 C   0  0  0  0  0  0
  -21.6055   -4.3044   24.7225 C   0  0  0  0  0  0
  -21.8823   -3.8142   23.4341 C   0  0  0  0  0  0
  -21.9192   -4.6963   22.3403 C   0  0  0  0  0  0
  -22.7879  -13.5227   21.1848 C   0  0  0  0  0  0
  -22.1651   -4.2146   21.0977 F   0  0  0  0  0  0
  -21.5638   -3.4530   25.7737 F   0  0  0  0  0  0
  -30.0383  -13.2599   20.4399 N   0  0  0  0  0  0
  -26.3028  -12.9312   20.3289 N   0  0  0  0  0  0
  -25.9324  -11.6479   20.5721 N   0  0  0  0  0  0
  -22.0507  -12.8244   22.0414 N   0  0  0  0  0  0
  -25.4298  -15.1879   20.4042 N   0  0  0  0  0  0
  -31.8719  -14.5872   20.1321 O   0  0  0  0  0  0
  -21.6640   -6.8873   21.4239 O   0  0  0  0  0  0
  -22.3550  -14.5520   20.6670 O   0  0  0  0  0  0
  -24.6138  -31.8694   23.2113 C   0  0  0  0  0  0
  -25.9019  -32.4834   23.8423 C   0  0  1  0  0  0
  -27.2233  -27.4570   20.0854 C   0  0  0  0  0  0
  -25.5899  -33.8635   24.2353 N   0  0  0  0  0  0
  -23.4014  -30.4949   21.5498 C   0  0  2  0  0  0
  -24.8458  -28.9700   20.1036 C   0  0  0  0  0  0
  -22.7409  -29.4678   22.4970 C   0  0  0  0  0  0
  -18.0273  -28.1371   22.8476 C   0  0  0  0  0  0
  -24.1480  -36.7337   23.2633 C   0  0  0  0  0  0
  -25.9277  -30.8442   21.3580 C   0  0  0  0  0  0
  -26.0065  -29.4823   20.6996 C   0  0  0  0  0  0
  -27.2013  -28.7310   20.6919 C   0  0  0  0  0  0
  -26.0558  -26.9589   19.4723 C   0  0  0  0  0  0
  -24.8649  -27.7082   19.4839 C   0  0  0  0  0  0
  -23.6067  -29.8333   20.1616 C   0  0  0  0  0  0
  -25.4099  -36.3127   24.0335 C   0  0  1  0  0  0
  -20.5875  -28.3672   23.1305 C   0  0  2  0  0  0
  -20.6774  -26.9406   22.5418 C   0  0  0  0  0  0
  -19.5756  -26.6376   21.5210 C   0  0  0  0  0  0
  -18.1926  -26.7925   22.1604 C   0  0  0  0  0  0
  -19.1523  -28.8832   23.2889 C   0  0  0  0  0  0
  -18.9456  -30.1444   23.8901 C   0  0  0  0  0  0
  -17.6459  -30.6578   24.0573 C   0  0  0  0  0  0
  -25.9015  -34.9493   23.5128 C   0  0  0  0  0  0
  -16.5352  -29.9079   23.6331 C   0  0  0  0  0  0
  -16.7267  -28.6495   23.0340 C   0  0  0  0  0  0
  -26.4449  -31.6606   25.0740 C   0  0  0  0  0  0
  -25.3731  -31.3709   26.1504 C   0  0  0  0  0  0
  -27.0252  -30.3049   24.6083 C   0  0  0  0  0  0
  -27.6046  -32.4317   25.7479 C   0  0  0  0  0  0
  -27.5581  -37.1824   24.8467 C   0  0  0  0  0  0
  -21.4138  -29.3034   22.3700 N   0  0  0  0  0  0
  -26.4297  -37.3813   23.9406 N   0  0  0  0  0  0
  -24.6658  -31.0836   22.0988 N   0  0  0  0  0  0
  -23.4181  -28.8202   23.2989 O   0  0  0  0  0  0
  -28.3220  -26.6433   20.1676 O   0  0  0  0  0  0
  -26.5578  -34.8942   22.4688 O   0  0  0  0  0  0
  -23.5338  -32.1430   23.7538 O   0  0  0  0  0  0
  -29.4527  -17.9070   20.3590 C   0  0  0  0  0  0
  -30.1973  -16.5617   18.4642 C   0  0  0  0  0  0
  -29.3431  -19.0381   19.5159 C   0  0  0  0  0  0
  -29.8828  -16.6616   19.8443 C   0  0  0  0  0  0
  -30.0766  -17.6782   17.6173 C   0  0  0  0  0  0
  -29.6438  -18.9123   18.1402 C   0  0  0  0  0  0
  -28.2335  -24.3620   20.9386 C   0  0  0  0  0  0
  -28.1714  -25.6927   21.1463 C   0  0  0  0  0  0
  -27.9701  -23.4646   22.0597 C   0  0  0  0  0  0
  -26.8803  -21.4557   22.8945 C   0  0  0  0  0  0
  -28.8684  -20.3621   20.0982 C   0  0  0  0  0  0
  -27.3400  -20.5068   20.0097 C   0  0  0  0  0  0
  -26.7734  -21.8683   20.4716 C   0  0  0  0  0  0
  -30.3660  -17.5844   16.2541 N   0  0  0  0  0  0
  -29.4763  -19.9709   17.2464 N   0  0  0  0  0  0
  -29.9188  -15.5189   20.7020 N   0  0  0  0  0  0
  -27.3026  -22.3097   21.7781 N   0  0  0  0  0  0
  -28.3002  -23.7434   23.2189 O   0  0  0  0  0  0
  -31.4627  -12.3272   19.1462 H   0  0  0  0  0  0
  -30.2820  -11.2518   19.8390 H   0  0  0  0  0  0
  -29.7388  -11.7409   17.4381 H   0  0  0  0  0  0
  -29.6891  -13.4534   17.7759 H   0  0  0  0  0  0
  -27.8166  -11.3018   18.8092 H   0  0  0  0  0  0
  -27.3773  -12.6311   17.7738 H   0  0  0  0  0  0
  -27.6977  -14.2440   19.5521 H   0  0  0  0  0  0
  -28.6569  -11.9710   21.3628 H   0  0  0  0  0  0
  -28.4812  -13.6298   21.8525 H   0  0  0  0  0  0
  -25.2759   -9.5698   22.4733 H   0  0  0  0  0  0
  -24.0023   -7.4630   22.7464 H   0  0  0  0  0  0
  -21.0829   -8.8757   19.8944 H   0  0  0  0  0  0
  -22.3663  -10.9670   19.6160 H   0  0  0  0  0  0
  -21.1995   -7.6140   23.9732 H   0  0  0  0  0  0
  -21.1493   -6.0505   25.9098 H   0  0  0  0  0  0
  -22.0594   -2.7605   23.2837 H   0  0  0  0  0  0
  -22.4104  -11.9914   22.4835 H   0  0  0  0  0  0
  -21.1130  -13.1286   22.2611 H   0  0  0  0  0  0
  -24.6532  -15.8335   20.5047 H   0  0  0  0  0  0
  -26.2797  -15.6313   20.0772 H   0  0  0  0  0  0
  -26.7085  -32.5547   23.1192 H   0  0  0  0  0  0
  -25.0091  -33.9816   25.0519 H   0  0  0  0  0  0
  -22.6904  -31.3116   21.4131 H   0  0  0  0  0  0
  -23.3737  -35.9681   23.3326 H   0  0  0  0  0  0
  -24.3588  -36.8923   22.2047 H   0  0  0  0  0  0
  -23.7223  -37.6552   23.6619 H   0  0  0  0  0  0
  -26.0386  -31.6146   20.5927 H   0  0  0  0  0  0
  -26.8162  -30.8956   21.9756 H   0  0  0  0  0  0
  -28.0945  -29.1079   21.1708 H   0  0  0  0  0  0
  -26.0647  -25.9826   19.0099 H   0  0  0  0  0  0
  -23.9715  -27.3091   19.0221 H   0  0  0  0  0  0
  -23.7135  -30.6118   19.4056 H   0  0  0  0  0  0
  -22.7303  -29.2558   19.8620 H   0  0  0  0  0  0
  -25.1268  -36.2026   25.0831 H   0  0  0  0  0  0
  -20.9976  -28.3240   24.1427 H   0  0  0  0  0  0
  -20.5691  -26.2274   23.3602 H   0  0  0  0  0  0
  -21.6637  -26.7452   22.1202 H   0  0  0  0  0  0
  -19.6926  -25.6288   21.1228 H   0  0  0  0  0  0
  -19.6704  -27.3197   20.6755 H   0  0  0  0  0  0
  -17.4212  -26.6689   21.4003 H   0  0  0  0  0  0
  -18.0315  -26.0065   22.8997 H   0  0  0  0  0  0
  -19.7937  -30.7253   24.2272 H   0  0  0  0  0  0
  -17.5016  -31.6266   24.5170 H   0  0  0  0  0  0
  -15.5352  -30.2979   23.7656 H   0  0  0  0  0  0
  -15.8668  -28.0825   22.7042 H   0  0  0  0  0  0
  -24.5927  -30.7008   25.7873 H   0  0  0  0  0  0
  -24.8880  -32.2848   26.4939 H   0  0  0  0  0  0
  -25.8119  -30.8915   27.0261 H   0  0  0  0  0  0
  -26.2769  -29.6847   24.1129 H   0  0  0  0  0  0
  -27.4006  -29.7262   25.4534 H   0  0  0  0  0  0
  -27.8621  -30.4373   23.9229 H   0  0  0  0  0  0
  -27.2677  -33.3619   26.2082 H   0  0  0  0  0  0
  -28.3832  -32.6879   25.0275 H   0  0  0  0  0  0
  -28.0725  -31.8406   26.5369 H   0  0  0  0  0  0
  -28.2622  -38.0103   24.7508 H   0  0  0  0  0  0
  -28.1041  -36.2635   24.6284 H   0  0  0  0  0  0
  -27.2306  -37.1491   25.8876 H   0  0  0  0  0  0
  -20.9285  -29.8748   21.6933 H   0  0  0  0  0  0
  -26.0198  -38.2898   24.1409 H   0  0  0  0  0  0
  -29.1973  -17.9968   21.4052 H   0  0  0  0  0  0
  -30.5180  -15.6214   18.0398 H   0  0  0  0  0  0
  -28.4750  -23.9870   19.9573 H   0  0  0  0  0  0
  -27.9543  -26.1343   22.1109 H   0  0  0  0  0  0
  -26.3002  -20.5915   22.5739 H   0  0  0  0  0  0
  -26.2552  -22.0167   23.5910 H   0  0  0  0  0  0
  -27.7519  -21.0796   23.4310 H   0  0  0  0  0  0
  -29.3544  -21.1890   19.5819 H   0  0  0  0  0  0
  -29.1969  -20.4281   21.1351 H   0  0  0  0  0  0
  -26.8774  -19.6994   20.5763 H   0  0  0  0  0  0
  -27.0240  -20.3435   18.9782 H   0  0  0  0  0  0
  -25.6870  -21.7902   20.5540 H   0  0  0  0  0  0
  -26.9252  -22.5909   19.6744 H   0  0  0  0  0  0
  -30.8920  -16.7744   15.9435 H   0  0  0  0  0  0
  -30.7353  -18.4450   15.8628 H   0  0  0  0  0  0
  -28.7575  -20.6343   17.5091 H   0  0  0  0  0  0
  -29.3386  -19.6388   16.2977 H   0  0  0  0  0  0
  -29.0753  -15.3436   21.2265 H   0  0  0  0  0  0
  1 25  1  0  0  0
  1 30  2  0  0  0
  1 86  1  0  0  0
  2  3  1  0  0  0
  2 25  1  0  0  0
  2 89  1  0  0  0
  2 90  1  0  0  0
  3  4  1  0  0  0
  3 91  1  0  0  0
  3 92  1  0  0  0
  4  5  1  0  0  0
  4 93  1  0  0  0
  4 94  1  0  0  0
  5  6  1  0  0  0
  5 26  1  0  0  0
  5 95  1  0  0  0
  6 25  1  0  0  0
  6 96  1  0  0  0
  6 97  1  0  0  0
  7  8  2  0  0  0
  7 26  1  0  0  0
  7 29  1  0  0  0
  8  9  1  0  0  0
  8 22  1  0  0  0
  9 10  1  0  0  0
  9 27  2  0  0  0
 10 11  2  0  0  0
 10 15  1  0  0  0
 11 12  1  0  0  0
 11 98  1  0  0  0
 12 13  2  0  0  0
 12 99  1  0  0  0
 13 14  1  0  0  0
 13 31  1  0  0  0
 14 15  2  0  0  0
 14100  1  0  0  0
 15101  1  0  0  0
 16 17  2  0  0  0
 16 21  1  0  0  0
 16 31  1  0  0  0
 17 18  1  0  0  0
 17102  1  0  0  0
 18 19  2  0  0  0
 18103  1  0  0  0
 19 20  1  0  0  0
 19 24  1  0  0  0
 20 21  2  0  0  0
 20104  1  0  0  0
 21 23  1  0  0  0
 22 28  1  0  0  0
 22 32  2  0  0  0
 26 27  1  0  0  0
 28105  1  0  0  0
 28106  1  0  0  0
 29107  1  0  0  0
 29108  1  0  0  0
 33 34  1  0  0  0
 33 66  1  0  0  0
 33 70  2  0  0  0
 34 36  1  0  0  0
 34 59  1  0  0  0
 34109  1  0  0  0
 35 44  2  0  0  0
 35 45  1  0  0  0
 35 68  1  0  0  0
 36 56  1  0  0  0
 36110  1  0  0  0
 37 39  1  0  0  0
 37 47  1  0  0  0
 37 66  1  0  0  0
 37111  1  0  0  0
 38 43  2  0  0  0
 38 46  1  0  0  0
 38 47  1  0  0  0
 39 64  1  0  0  0
 39 67  2  0  0  0
 40 52  1  0  0  0
 40 53  2  0  0  0
 40 58  1  0  0  0
 41112  1  0  0  0
 41113  1  0  0  0
 41114  1  0  0  0
 41 48  1  0  0  0
 42 43  1  0  0  0
 42 66  1  0  0  0
 42115  1  0  0  0
 42116  1  0  0  0
 43 44  1  0  0  0
 44117  1  0  0  0
 45 46  2  0  0  0
 45118  1  0  0  0
 46119  1  0  0  0
 47120  1  0  0  0
 47121  1  0  0  0
 48 56  1  0  0  0
 48 65  1  0  0  0
 48122  1  0  0  0
 49 50  1  0  0  0
 49 53  1  0  0  0
 49 64  1  0  0  0
 49123  1  0  0  0
 50 51  1  0  0  0
 50124  1  0  0  0
 50125  1  0  0  0
 51 52  1  0  0  0
 51126  1  0  0  0
 51127  1  0  0  0
 52128  1  0  0  0
 52129  1  0  0  0
 53 54  1  0  0  0
 54 55  2  0  0  0
 54130  1  0  0  0
 55 57  1  0  0  0
 55131  1  0  0  0
 56 69  2  0  0  0
 57 58  2  0  0  0
 57132  1  0  0  0
 58133  1  0  0  0
 59 60  1  0  0  0
 59 61  1  0  0  0
 59 62  1  0  0  0
 60134  1  0  0  0
 60135  1  0  0  0
 60136  1  0  0  0
 61137  1  0  0  0
 61138  1  0  0  0
 61139  1  0  0  0
 62140  1  0  0  0
 62141  1  0  0  0
 62142  1  0  0  0
 63 65  1  0  0  0
 63143  1  0  0  0
 63144  1  0  0  0
 63145  1  0  0  0
 64146  1  0  0  0
 65147  1  0  0  0
 68 78  1  0  0  0
 71 73  2  0  0  0
 71 74  1  0  0  0
 71148  1  0  0  0
 72 74  2  0  0  0
 72 75  1  0  0  0
 72149  1  0  0  0
 73 76  1  0  0  0
 73 81  1  0  0  0
 74 86  1  0  0  0
 75 76  2  0  0  0
 75 84  1  0  0  0
 76 85  1  0  0  0
 77 78  2  0  0  0
 77 79  1  0  0  0
 77150  1  0  0  0
 78151  1  0  0  0
 79 87  1  0  0  0
 79 88  2  0  0  0
 80 87  1  0  0  0
 80152  1  0  0  0
 80153  1  0  0  0
 80154  1  0  0  0
 81 82  1  0  0  0
 81155  1  0  0  0
 81156  1  0  0  0
 82 83  1  0  0  0
 82157  1  0  0  0
 82158  1  0  0  0
 83 87  1  0  0  0
 83159  1  0  0  0
 83160  1  0  0  0
 84161  1  0  0  0
 84162  1  0  0  0
 85163  1  0  0  0
 85164  1  0  0  0
 86165  1  0  0  0
M  ISO  4   1 100  68 101  78 101  86 100
M  END
> <chiral flag>
0

> <version>
0

> <s_m_source_file>
/data/baiqing/PycharmProjects/Reinvent-master-3.2/result/LINK_invent/BTK/process_docking_weight1_custom_product_contain_oxygen_bond_distance_aromatic_linkinvent_7_9_3/rearranged_h_0107.sdf

> <i_m_source_file_index>
63

> <r_mmod_Potential_Energy-OPLS-2005>
-102.064361572266

> <r_mmod_Stretch_Energy-OPLS-2005>
36.6954803466797

> <r_mmod_Bend_Energy-OPLS-2005>
99.1240615844727

> <r_mmod_Torsional_Energy-OPLS-2005>
310.692626953125

> <r_mmod_Improper_Torsional_Energy-OPLS-2005>
18.8562450408936

> <r_mmod_Van_der_Waal_Energy-OPLS-2005>
170.206924438477

> <r_mmod_Electrostatic_Energy-OPLS-2005>
-516.25390625

> <r_mmod_Solvation_Energy-OPLS-2005>
-239.810989379883

> <b_mmod_Minimization_Converged-OPLS-2005>
0

> <r_mmod_RMS_Derivative-OPLS-2005>
3.33433127403259

$$$$
63
                    3D
 Structure written by MMmdl.
157165  0  0  1  0            999 V2000
  -30.7109  -14.4899   20.5983 C   0  0  0  0  0  0
  -30.4190  -12.3357   19.4131 C   0  0  0  0  0  0
  -29.4934  -12.5277   18.1971 C   0  0  0  0  0  0
  -28.0149  -12.3864   18.6049 C   0  0  0  0  0  0
  -27.6580  -13.2189   19.8674 C   0  0  2  0  0  0
  -28.6999  -13.0063   20.9860 C   0  0  0  0  0  0
  -25.2570  -13.8203   20.5639 C   0  0  0  0  0  0
  -24.1837  -13.0473   20.9153 C   0  0  0  0  0  0
  -24.6401  -11.6945   20.8703 C   0  0  0  0  0  0
  -23.9081  -10.4318   21.0371 C   0  0  0  0  0  0
  -24.3622   -9.4238   21.9153 C   0  0  0  0  0  0
  -23.6308   -8.2272   22.0741 C   0  0  0  0  0  0
  -22.4285   -8.0295   21.3539 C   0  0  0  0  0  0
  -21.9924   -9.0270   20.4635 C   0  0  0  0  0  0
  -22.7250  -10.2153   20.3036 C   0  0  0  0  0  0
  -21.6874   -6.0731   22.5273 C   0  0  0  0  0  0
  -21.4009   -6.5630   23.8206 C   0  0  0  0  0  0
  -21.3672   -5.6783   24.9177 C   0  0  0  0  0  0
  -21.6061   -4.3042   24.7228 C   0  0  0  0  0  0
  -21.8825   -3.8136   23.4346 C   0  0  0  0  0  0
  -21.9197   -4.6954   22.3399 C   0  0  0  0  0  0
  -22.7864  -13.5256   21.1841 C   0  0  0  0  0  0
  -22.1657   -4.2138   21.0977 F   0  0  0  0  0  0
  -21.5657   -3.4525   25.7738 F   0  0  0  0  0  0
  -30.0265  -13.3232   20.4318 N   0  0  0  0  0  0
  -26.3007  -12.9395   20.3303 N   0  0  0  0  0  0
  -25.9335  -11.6546   20.5705 N   0  0  0  0  0  0
  -22.0507  -12.8241   22.0400 N   0  0  0  0  0  0
  -25.4313  -15.1914   20.4060 N   0  0  0  0  0  0
  -31.8348  -14.6709   20.1205 O   0  0  0  0  0  0
  -21.6671   -6.8869   21.4229 O   0  0  0  0  0  0
  -22.3544  -14.5567   20.6696 O   0  0  0  0  0  0
  -24.6195  -31.8663   23.2064 C   0  0  0  0  0  0
  -25.9064  -32.4822   23.8389 C   0  0  1  0  0  0
  -27.2318  -27.3913   20.1049 C   0  0  0  0  0  0
  -25.5905  -33.8625   24.2296 N   0  0  0  0  0  0
  -23.4085  -30.4869   21.5523 C   0  0  2  0  0  0
  -24.8536  -28.9508   20.1156 C   0  0  0  0  0  0
  -22.7441  -29.4629   22.5027 C   0  0  0  0  0  0
  -18.0246  -28.1373   22.8493 C   0  0  0  0  0  0
  -24.1491  -36.7302   23.2636 C   0  0  0  0  0  0
  -25.9424  -30.8190   21.3646 C   0  0  0  0  0  0
  -26.0186  -29.4510   20.7099 C   0  0  0  0  0  0
  -27.2106  -28.6816   20.6952 C   0  0  0  0  0  0
  -26.0427  -26.9196   19.4994 C   0  0  0  0  0  0
  -24.8634  -27.6863   19.5053 C   0  0  0  0  0  0
  -23.6165  -29.8210   20.1666 C   0  0  0  0  0  0
  -25.4116  -36.3115   24.0332 C   0  0  1  0  0  0
  -20.5848  -28.3649   23.1344 C   0  0  2  0  0  0
  -20.6746  -26.9394   22.5424 C   0  0  0  0  0  0
  -19.5716  -26.6374   21.5229 C   0  0  0  0  0  0
  -18.1890  -26.7911   22.1634 C   0  0  0  0  0  0
  -19.1500  -28.8829   23.2905 C   0  0  0  0  0  0
  -18.9437  -30.1435   23.8911 C   0  0  0  0  0  0
  -17.6444  -30.6583   24.0549 C   0  0  0  0  0  0
  -25.9052  -34.9487   23.5112 C   0  0  0  0  0  0
  -16.5331  -29.9088   23.6319 C   0  0  0  0  0  0
  -16.7238  -28.6498   23.0356 C   0  0  0  0  0  0
  -26.4453  -31.6626   25.0750 C   0  0  0  0  0  0
  -25.3690  -31.3750   26.1484 C   0  0  0  0  0  0
  -27.0271  -30.3057   24.6162 C   0  0  0  0  0  0
  -27.6028  -32.4349   25.7514 C   0  0  0  0  0  0
  -27.5579  -37.1811   24.8461 C   0  0  0  0  0  0
  -21.4163  -29.3014   22.3772 N   0  0  0  0  0  0
  -26.4294  -37.3810   23.9406 N   0  0  0  0  0  0
  -24.6758  -31.0725   22.0986 N   0  0  0  0  0  0
  -23.4196  -28.8174   23.3083 O   0  0  0  0  0  0
  -28.3892  -26.6214   20.1431 O   0  0  0  0  0  0
  -26.5629  -34.8948   22.4685 O   0  0  0  0  0  0
  -23.5373  -32.1453   23.7418 O   0  0  0  0  0  0
  -29.3061  -19.8053   19.8810 C   0  0  0  0  0  0
  -29.4742  -18.3800   20.0607 C   0  0  0  0  0  0
  -30.2051  -18.0671   21.1860 C   0  0  0  0  0  0
  -29.9070  -20.5908   20.8431 C   0  0  0  0  0  0
  -29.3230  -22.8233   20.3569 C   0  0  0  0  0  0
  -30.7967  -24.8292   19.8626 C   0  0  0  0  0  0
  -28.6065  -17.7769   17.9417 C   0  0  0  0  0  0
  -30.6554  -16.7322   21.7718 C   0  0  0  0  0  0
  -28.2640  -25.1808   19.9761 C   0  0  0  0  0  0
  -29.4810  -24.3589   20.5112 C   0  0  1  0  0  0
  -30.0117  -21.9667   21.0233 N   0  0  0  0  0  0
  -30.0662  -15.4736   21.2601 N   0  0  0  0  0  0
  -28.9913  -17.4011   19.2561 O   0  0  0  0  0  0
  -30.6954  -19.5418   22.0042 S   0  0  0  0  0  0
  -31.4634  -12.4345   19.1118 H   0  0  0  0  0  0
  -30.3192  -11.3247   19.8113 H   0  0  0  0  0  0
  -29.7382  -11.8049   17.4184 H   0  0  0  0  0  0
  -29.6634  -13.5147   17.7631 H   0  0  0  0  0  0
  -27.8197  -11.3278   18.7862 H   0  0  0  0  0  0
  -27.3719  -12.6729   17.7715 H   0  0  0  0  0  0
  -27.6993  -14.2703   19.5790 H   0  0  0  0  0  0
  -28.6829  -11.9679   21.3200 H   0  0  0  0  0  0
  -28.4551  -13.6010   21.8666 H   0  0  0  0  0  0
  -25.2768   -9.5739   22.4738 H   0  0  0  0  0  0
  -24.0030   -7.4678   22.7470 H   0  0  0  0  0  0
  -21.0863   -8.8786   19.8949 H   0  0  0  0  0  0
  -22.3684  -10.9695   19.6149 H   0  0  0  0  0  0
  -21.1960   -7.6130   23.9703 H   0  0  0  0  0  0
  -21.1500   -6.0508   25.9077 H   0  0  0  0  0  0
  -22.0582   -2.7598   23.2861 H   0  0  0  0  0  0
  -22.4098  -11.9874   22.4748 H   0  0  0  0  0  0
  -21.1133  -13.1285   22.2610 H   0  0  0  0  0  0
  -24.6686  -15.8510   20.5105 H   0  0  0  0  0  0
  -26.2930  -15.6274   20.1029 H   0  0  0  0  0  0
  -26.7157  -32.5510   23.1173 H   0  0  0  0  0  0
  -25.0027  -33.9780   25.0423 H   0  0  0  0  0  0
  -22.6977  -31.3040   21.4141 H   0  0  0  0  0  0
  -23.3772  -35.9617   23.3305 H   0  0  0  0  0  0
  -24.3577  -36.8907   22.2048 H   0  0  0  0  0  0
  -23.7234  -37.6503   23.6647 H   0  0  0  0  0  0
  -26.0640  -31.5830   20.5952 H   0  0  0  0  0  0
  -26.8275  -30.8704   21.9869 H   0  0  0  0  0  0
  -28.1109  -29.0627   21.1576 H   0  0  0  0  0  0
  -25.9985  -25.9528   19.0206 H   0  0  0  0  0  0
  -23.9680  -27.2930   19.0437 H   0  0  0  0  0  0
  -23.7292  -30.5988   19.4109 H   0  0  0  0  0  0
  -22.7371  -29.2467   19.8688 H   0  0  0  0  0  0
  -25.1305  -36.1974   25.0830 H   0  0  0  0  0  0
  -20.9907  -28.3194   24.1482 H   0  0  0  0  0  0
  -20.5661  -26.2257   23.3608 H   0  0  0  0  0  0
  -21.6619  -26.7447   22.1206 H   0  0  0  0  0  0
  -19.6879  -25.6293   21.1240 H   0  0  0  0  0  0
  -19.6647  -27.3205   20.6778 H   0  0  0  0  0  0
  -17.4167  -26.6658   21.4031 H   0  0  0  0  0  0
  -18.0270  -26.0053   22.9029 H   0  0  0  0  0  0
  -19.7926  -30.7227   24.2303 H   0  0  0  0  0  0
  -17.5010  -31.6275   24.5134 H   0  0  0  0  0  0
  -15.5335  -30.3001   23.7642 H   0  0  0  0  0  0
  -15.8628  -28.0817   22.7095 H   0  0  0  0  0  0
  -24.5853  -30.7119   25.7797 H   0  0  0  0  0  0
  -24.8900  -32.2922   26.4935 H   0  0  0  0  0  0
  -25.8021  -30.8902   27.0247 H   0  0  0  0  0  0
  -26.2842  -29.6865   24.1130 H   0  0  0  0  0  0
  -27.3914  -29.7257   25.4649 H   0  0  0  0  0  0
  -27.8733  -30.4339   23.9408 H   0  0  0  0  0  0
  -27.2638  -33.3628   26.2138 H   0  0  0  0  0  0
  -28.3820  -32.6955   25.0335 H   0  0  0  0  0  0
  -28.0737  -31.8461   26.5399 H   0  0  0  0  0  0
  -28.2612  -38.0096   24.7529 H   0  0  0  0  0  0
  -28.1065  -36.2641   24.6277 H   0  0  0  0  0  0
  -27.2293  -37.1445   25.8860 H   0  0  0  0  0  0
  -20.9332  -29.8768   21.7018 H   0  0  0  0  0  0
  -26.0182  -38.2879   24.1430 H   0  0  0  0  0  0
  -28.7568  -20.2092   19.0433 H   0  0  0  0  0  0
  -28.5782  -22.5182   19.6156 H   0  0  0  0  0  0
  -31.6611  -24.3924   20.3634 H   0  0  0  0  0  0
  -30.9020  -25.9123   19.9213 H   0  0  0  0  0  0
  -30.8455  -24.5516   18.8089 H   0  0  0  0  0  0
  -28.4199  -16.8801   17.3507 H   0  0  0  0  0  0
  -29.3848  -18.3518   17.4363 H   0  0  0  0  0  0
  -27.6859  -18.3609   17.9540 H   0  0  0  0  0  0
  -30.4326  -16.7467   22.8393 H   0  0  0  0  0  0
  -31.7443  -16.6827   21.7172 H   0  0  0  0  0  0
  -27.3783  -24.8322   20.5105 H   0  0  0  0  0  0
  -28.1061  -24.9561   18.9204 H   0  0  0  0  0  0
  -29.5511  -24.5613   21.5811 H   0  0  0  0  0  0
  -29.1252  -15.2613   21.5550 H   0  0  0  0  0  0
  1 25  1  0  0  0
  1 30  2  0  0  0
  1 82  1  0  0  0
  2  3  1  0  0  0
  2 25  1  0  0  0
  2 85  1  0  0  0
  2 86  1  0  0  0
  3  4  1  0  0  0
  3 87  1  0  0  0
  3 88  1  0  0  0
  4  5  1  0  0  0
  4 89  1  0  0  0
  4 90  1  0  0  0
  5  6  1  0  0  0
  5 26  1  0  0  0
  5 91  1  0  0  0
  6 25  1  0  0  0
  6 92  1  0  0  0
  6 93  1  0  0  0
  7  8  2  0  0  0
  7 26  1  0  0  0
  7 29  1  0  0  0
  8  9  1  0  0  0
  8 22  1  0  0  0
  9 10  1  0  0  0
  9 27  2  0  0  0
 10 11  2  0  0  0
 10 15  1  0  0  0
 11 12  1  0  0  0
 11 94  1  0  0  0
 12 13  2  0  0  0
 12 95  1  0  0  0
 13 14  1  0  0  0
 13 31  1  0  0  0
 14 15  2  0  0  0
 14 96  1  0  0  0
 15 97  1  0  0  0
 16 17  2  0  0  0
 16 21  1  0  0  0
 16 31  1  0  0  0
 17 18  1  0  0  0
 17 98  1  0  0  0
 18 19  2  0  0  0
 18 99  1  0  0  0
 19 20  1  0  0  0
 19 24  1  0  0  0
 20 21  2  0  0  0
 20100  1  0  0  0
 21 23  1  0  0  0
 22 28  1  0  0  0
 22 32  2  0  0  0
 26 27  1  0  0  0
 28101  1  0  0  0
 28102  1  0  0  0
 29103  1  0  0  0
 29104  1  0  0  0
 33 34  1  0  0  0
 33 66  1  0  0  0
 33 70  2  0  0  0
 34 36  1  0  0  0
 34 59  1  0  0  0
 34105  1  0  0  0
 35 44  2  0  0  0
 35 45  1  0  0  0
 35 68  1  0  0  0
 36 56  1  0  0  0
 36106  1  0  0  0
 37 39  1  0  0  0
 37 47  1  0  0  0
 37 66  1  0  0  0
 37107  1  0  0  0
 38 43  2  0  0  0
 38 46  1  0  0  0
 38 47  1  0  0  0
 39 64  1  0  0  0
 39 67  2  0  0  0
 40 52  1  0  0  0
 40 53  2  0  0  0
 40 58  1  0  0  0
 41108  1  0  0  0
 41109  1  0  0  0
 41110  1  0  0  0
 41 48  1  0  0  0
 42 43  1  0  0  0
 42 66  1  0  0  0
 42111  1  0  0  0
 42112  1  0  0  0
 43 44  1  0  0  0
 44113  1  0  0  0
 45 46  2  0  0  0
 45114  1  0  0  0
 46115  1  0  0  0
 47116  1  0  0  0
 47117  1  0  0  0
 48 56  1  0  0  0
 48 65  1  0  0  0
 48118  1  0  0  0
 49 50  1  0  0  0
 49 53  1  0  0  0
 49 64  1  0  0  0
 49119  1  0  0  0
 50 51  1  0  0  0
 50120  1  0  0  0
 50121  1  0  0  0
 51 52  1  0  0  0
 51122  1  0  0  0
 51123  1  0  0  0
 52124  1  0  0  0
 52125  1  0  0  0
 53 54  1  0  0  0
 54 55  2  0  0  0
 54126  1  0  0  0
 55 57  1  0  0  0
 55127  1  0  0  0
 56 69  2  0  0  0
 57 58  2  0  0  0
 57128  1  0  0  0
 58129  1  0  0  0
 59 60  1  0  0  0
 59 61  1  0  0  0
 59 62  1  0  0  0
 60130  1  0  0  0
 60131  1  0  0  0
 60132  1  0  0  0
 61133  1  0  0  0
 61134  1  0  0  0
 61135  1  0  0  0
 62136  1  0  0  0
 62137  1  0  0  0
 62138  1  0  0  0
 63 65  1  0  0  0
 63139  1  0  0  0
 63140  1  0  0  0
 63141  1  0  0  0
 64142  1  0  0  0
 65143  1  0  0  0
 68 79  1  0  0  0
 71 72  1  0  0  0
 71 74  2  0  0  0
 71144  1  0  0  0
 72 73  2  0  0  0
 72 83  1  0  0  0
 73 78  1  0  0  0
 73 84  1  0  0  0
 74 81  1  0  0  0
 74 84  1  0  0  0
 75 80  1  0  0  0
 75 81  2  0  0  0
 75145  1  0  0  0
 76146  1  0  0  0
 76147  1  0  0  0
 76148  1  0  0  0
 76 80  1  0  0  0
 77 83  1  0  0  0
 77149  1  0  0  0
 77150  1  0  0  0
 77151  1  0  0  0
 78 82  1  0  0  0
 78152  1  0  0  0
 78153  1  0  0  0
 79 80  1  0  0  0
 79154  1  0  0  0
 79155  1  0  0  0
 80156  1  0  0  0
 82157  1  0  0  0
M  ISO  4   1 100  68 101  79 101  82 100
M  END
> <chiral flag>
0

> <version>
0

> <s_m_source_file>
/data/baiqing/PycharmProjects/Reinvent-master-3.2/result/LINK_invent/BTK/process_docking_weight1_custom_product_contain_oxygen_bond_distance_aromatic_linkinvent_7_9_3/rearranged_h_0107.sdf

> <i_m_source_file_index>
64

> <r_mmod_Potential_Energy-OPLS-2005>
-89.3127212524414

> <r_mmod_Stretch_Energy-OPLS-2005>
46.3293571472168

> <r_mmod_Bend_Energy-OPLS-2005>
121.946762084961

> <r_mmod_Torsional_Energy-OPLS-2005>
193.724105834961

> <r_mmod_Improper_Torsional_Energy-OPLS-2005>
2.24849200248718

> <r_mmod_Van_der_Waal_Energy-OPLS-2005>
130.577713012695

> <r_mmod_Electrostatic_Energy-OPLS-2005>
-380.898651123047

> <r_mmod_Solvation_Energy-OPLS-2005>
-221.349563598633

> <b_mmod_Minimization_Converged-OPLS-2005>
0

> <r_mmod_RMS_Derivative-OPLS-2005>
2.81336116790771

$$$$
64
                    3D
 Structure written by MMmdl.
166175  0  0  1  0            999 V2000
  -30.6163  -14.6890   20.5269 C   0  0  0  0  0  0
  -30.4438  -12.4185   19.4799 C   0  0  0  0  0  0
  -29.5286  -12.5212   18.2383 C   0  0  0  0  0  0
  -28.0469  -12.3535   18.6355 C   0  0  0  0  0  0
  -27.6527  -13.2315   19.8545 C   0  0  2  0  0  0
  -28.6895  -13.1183   20.9932 C   0  0  0  0  0  0
  -25.2497  -13.8203   20.5618 C   0  0  0  0  0  0
  -24.1809  -13.0448   20.9169 C   0  0  0  0  0  0
  -24.6410  -11.6922   20.8710 C   0  0  0  0  0  0
  -23.9109  -10.4291   21.0375 C   0  0  0  0  0  0
  -24.3663   -9.4205   21.9156 C   0  0  0  0  0  0
  -23.6298   -8.2257   22.0742 C   0  0  0  0  0  0
  -22.4255   -8.0302   21.3551 C   0  0  0  0  0  0
  -21.9921   -9.0283   20.4640 C   0  0  0  0  0  0
  -22.7279  -10.2128   20.3023 C   0  0  0  0  0  0
  -21.6847   -6.0732   22.5280 C   0  0  0  0  0  0
  -21.4034   -6.5648   23.8209 C   0  0  0  0  0  0
  -21.3668   -5.6790   24.9184 C   0  0  0  0  0  0
  -21.6027   -4.3048   24.7221 C   0  0  0  0  0  0
  -21.8828   -3.8150   23.4349 C   0  0  0  0  0  0
  -21.9180   -4.6967   22.3403 C   0  0  0  0  0  0
  -22.7819  -13.5215   21.1842 C   0  0  0  0  0  0
  -22.1647   -4.2165   21.0963 F   0  0  0  0  0  0
  -21.5620   -3.4526   25.7727 F   0  0  0  0  0  0
  -30.0077  -13.4566   20.4386 N   0  0  0  0  0  0
  -26.2969  -12.9432   20.3209 N   0  0  0  0  0  0
  -25.9327  -11.6587   20.5699 N   0  0  0  0  0  0
  -22.0451  -12.8235   22.0405 N   0  0  0  0  0  0
  -25.4107  -15.1935   20.4013 N   0  0  0  0  0  0
  -31.7764  -14.8543   20.1481 O   0  0  0  0  0  0
  -21.6633   -6.8886   21.4227 O   0  0  0  0  0  0
  -22.3479  -14.5496   20.6632 O   0  0  0  0  0  0
  -24.6308  -31.8570   23.1975 C   0  0  0  0  0  0
  -25.9168  -32.4751   23.8268 C   0  0  1  0  0  0
  -27.2252  -27.3069   20.1192 C   0  0  0  0  0  0
  -25.5961  -33.8543   24.2200 N   0  0  0  0  0  0
  -23.4182  -30.4831   21.5482 C   0  0  2  0  0  0
  -24.8616  -28.9347   20.1135 C   0  0  0  0  0  0
  -22.7449  -29.4656   22.4997 C   0  0  0  0  0  0
  -18.0288  -28.1354   22.8519 C   0  0  0  0  0  0
  -24.1477  -36.7287   23.2631 C   0  0  0  0  0  0
  -25.9591  -30.7997   21.3527 C   0  0  0  0  0  0
  -26.0380  -29.4233   20.6964 C   0  0  0  0  0  0
  -27.2260  -28.6280   20.6772 C   0  0  0  0  0  0
  -26.0178  -26.8811   19.5187 C   0  0  0  0  0  0
  -24.8548  -27.6697   19.5132 C   0  0  0  0  0  0
  -23.6236  -29.8059   20.1673 C   0  0  0  0  0  0
  -25.4101  -36.3059   24.0317 C   0  0  1  0  0  0
  -20.5887  -28.3641   23.1282 C   0  0  2  0  0  0
  -20.6760  -26.9369   22.5382 C   0  0  0  0  0  0
  -19.5738  -26.6387   21.5172 C   0  0  0  0  0  0
  -18.1937  -26.7926   22.1619 C   0  0  0  0  0  0
  -19.1544  -28.8814   23.2921 C   0  0  0  0  0  0
  -18.9475  -30.1435   23.8910 C   0  0  0  0  0  0
  -17.6470  -30.6565   24.0554 C   0  0  0  0  0  0
  -25.9072  -34.9442   23.5060 C   0  0  0  0  0  0
  -16.5357  -29.9057   23.6327 C   0  0  0  0  0  0
  -16.7288  -28.6462   23.0401 C   0  0  0  0  0  0
  -26.4501  -31.6594   25.0670 C   0  0  0  0  0  0
  -25.3733  -31.3799   26.1412 C   0  0  0  0  0  0
  -27.0305  -30.3017   24.6122 C   0  0  0  0  0  0
  -27.6016  -32.4314   25.7506 C   0  0  0  0  0  0
  -27.5567  -37.1789   24.8465 C   0  0  0  0  0  0
  -21.4187  -29.3027   22.3698 N   0  0  0  0  0  0
  -26.4268  -37.3766   23.9436 N   0  0  0  0  0  0
  -24.6895  -31.0608   22.0891 N   0  0  0  0  0  0
  -23.4179  -28.8224   23.3085 O   0  0  0  0  0  0
  -28.3350  -26.4369   20.1746 O   0  0  0  0  0  0
  -26.5630  -34.8914   22.4621 O   0  0  0  0  0  0
  -23.5481  -32.1296   23.7365 O   0  0  0  0  0  0
  -30.7987  -17.9471   21.6839 C   0  0  0  0  0  0
  -29.1156  -18.0058   19.9875 C   0  0  0  0  0  0
  -30.8652  -19.3821   21.6662 C   0  0  0  0  0  0
  -30.0264  -20.1799   20.8209 C   0  0  0  0  0  0
  -29.9618  -17.2071   20.8114 C   0  0  0  0  0  0
  -29.1246  -19.4405   20.0036 C   0  0  0  0  0  0
  -29.1988  -23.8917   20.2121 C   0  0  0  0  0  0
  -29.1622  -22.6480   20.8224 C   0  0  0  0  0  0
  -30.3595  -24.2016   19.3552 C   0  0  0  0  0  0
  -31.6307  -23.3761   19.5380 C   0  0  0  0  0  0
  -31.4310  -21.9145   20.0046 C   0  0  0  0  0  0
  -31.8565  -20.0300   22.6185 C   0  0  0  0  0  0
  -28.0189  -22.3018   21.7669 C   0  0  0  0  0  0
  -28.4382  -20.1380   17.8612 C   0  0  0  0  0  0
  -28.0460  -24.9720   20.2057 C   0  0  0  0  0  0
  -30.1591  -21.6229   20.6892 N   0  0  0  0  0  0
  -29.8039  -15.7424   20.8873 N   0  0  0  0  0  0
  -30.3607  -25.1070   18.5153 O   0  0  0  0  0  0
  -28.2069  -20.1350   19.2559 O   0  0  0  0  0  0
  -31.4932  -12.5376   19.2025 H   0  0  0  0  0  0
  -30.3696  -11.4261   19.9320 H   0  0  0  0  0  0
  -29.7996  -11.7637   17.5054 H   0  0  0  0  0  0
  -29.6805  -13.4856   17.7536 H   0  0  0  0  0  0
  -27.8845  -11.3009   18.8670 H   0  0  0  0  0  0
  -27.4016  -12.5745   17.7846 H   0  0  0  0  0  0
  -27.6626  -14.2612   19.4938 H   0  0  0  0  0  0
  -28.7014  -12.1122   21.4096 H   0  0  0  0  0  0
  -28.4213  -13.7693   21.8270 H   0  0  0  0  0  0
  -25.2810   -9.5655   22.4741 H   0  0  0  0  0  0
  -23.9991   -7.4643   22.7473 H   0  0  0  0  0  0
  -21.0849   -8.8810   19.8976 H   0  0  0  0  0  0
  -22.3745  -10.9663   19.6138 H   0  0  0  0  0  0
  -21.2049   -7.6153   23.9742 H   0  0  0  0  0  0
  -21.1471   -6.0504   25.9082 H   0  0  0  0  0  0
  -22.0588   -2.7608   23.2820 H   0  0  0  0  0  0
  -22.4068  -11.9964   22.4939 H   0  0  0  0  0  0
  -21.1064  -13.1268   22.2563 H   0  0  0  0  0  0
  -24.6262  -15.8295   20.4895 H   0  0  0  0  0  0
  -26.2441  -15.6466   20.0534 H   0  0  0  0  0  0
  -26.7249  -32.5417   23.1023 H   0  0  0  0  0  0
  -25.0043  -33.9659   25.0310 H   0  0  0  0  0  0
  -22.7100  -31.3022   21.4035 H   0  0  0  0  0  0
  -23.3720  -35.9650   23.3283 H   0  0  0  0  0  0
  -24.3532  -36.8918   22.2040 H   0  0  0  0  0  0
  -23.7250  -37.6496   23.6652 H   0  0  0  0  0  0
  -26.0778  -31.5656   20.5828 H   0  0  0  0  0  0
  -26.8379  -30.8513   21.9838 H   0  0  0  0  0  0
  -28.1303  -29.0202   21.1183 H   0  0  0  0  0  0
  -25.9235  -25.9125   19.0564 H   0  0  0  0  0  0
  -23.9525  -27.2789   19.0666 H   0  0  0  0  0  0
  -23.7245  -30.5681   19.3946 H   0  0  0  0  0  0
  -22.7408  -29.2251   19.8879 H   0  0  0  0  0  0
  -25.1290  -36.1857   25.0805 H   0  0  0  0  0  0
  -21.0011  -28.3185   24.1394 H   0  0  0  0  0  0
  -20.5556  -26.2260   23.3577 H   0  0  0  0  0  0
  -21.6645  -26.7348   22.1231 H   0  0  0  0  0  0
  -19.6878  -25.6302   21.1195 H   0  0  0  0  0  0
  -19.6684  -27.3164   20.6669 H   0  0  0  0  0  0
  -17.4198  -26.6676   21.4047 H   0  0  0  0  0  0
  -18.0384  -26.0032   22.8966 H   0  0  0  0  0  0
  -19.7961  -30.7271   24.2265 H   0  0  0  0  0  0
  -17.5035  -31.6271   24.5122 H   0  0  0  0  0  0
  -15.5362  -30.2963   23.7668 H   0  0  0  0  0  0
  -15.8707  -28.0761   22.7157 H   0  0  0  0  0  0
  -24.5907  -30.7129   25.7793 H   0  0  0  0  0  0
  -24.8947  -32.3004   26.4744 H   0  0  0  0  0  0
  -25.8073  -30.9061   27.0226 H   0  0  0  0  0  0
  -26.2869  -29.6826   24.1090 H   0  0  0  0  0  0
  -27.3924  -29.7224   25.4615 H   0  0  0  0  0  0
  -27.8762  -30.4273   23.9364 H   0  0  0  0  0  0
  -27.2580  -33.3597   26.2061 H   0  0  0  0  0  0
  -28.3895  -32.6875   25.0432 H   0  0  0  0  0  0
  -28.0594  -31.8444   26.5471 H   0  0  0  0  0  0
  -28.2579  -38.0079   24.7499 H   0  0  0  0  0  0
  -28.1063  -36.2618   24.6304 H   0  0  0  0  0  0
  -27.2301  -37.1458   25.8867 H   0  0  0  0  0  0
  -20.9337  -29.8738   21.6920 H   0  0  0  0  0  0
  -26.0135  -38.2846   24.1422 H   0  0  0  0  0  0
  -31.4003  -17.4156   22.4113 H   0  0  0  0  0  0
  -28.4061  -17.5179   19.3363 H   0  0  0  0  0  0
  -32.2593  -23.9033   20.2610 H   0  0  0  0  0  0
  -32.1652  -23.3682   18.5874 H   0  0  0  0  0  0
  -32.2423  -21.7105   20.7033 H   0  0  0  0  0  0
  -31.5763  -21.2338   19.1586 H   0  0  0  0  0  0
  -32.8647  -19.9649   22.2081 H   0  0  0  0  0  0
  -31.8371  -19.5170   23.5786 H   0  0  0  0  0  0
  -31.6288  -21.0794   22.8065 H   0  0  0  0  0  0
  -27.9310  -23.0882   22.5210 H   0  0  0  0  0  0
  -28.1721  -21.3711   22.3085 H   0  0  0  0  0  0
  -27.0686  -22.2257   21.2373 H   0  0  0  0  0  0
  -29.1307  -20.9390   17.5980 H   0  0  0  0  0  0
  -27.4897  -20.3170   17.3543 H   0  0  0  0  0  0
  -28.8405  -19.1949   17.4949 H   0  0  0  0  0  0
  -27.3510  -24.7838   21.0258 H   0  0  0  0  0  0
  -27.5224  -24.6931   19.2926 H   0  0  0  0  0  0
  -28.8724  -15.4345   21.1171 H   0  0  0  0  0  0
  1 25  1  0  0  0
  1 30  2  0  0  0
  1 87  1  0  0  0
  2  3  1  0  0  0
  2 25  1  0  0  0
  2 90  1  0  0  0
  2 91  1  0  0  0
  3  4  1  0  0  0
  3 92  1  0  0  0
  3 93  1  0  0  0
  4  5  1  0  0  0
  4 94  1  0  0  0
  4 95  1  0  0  0
  5  6  1  0  0  0
  5 26  1  0  0  0
  5 96  1  0  0  0
  6 25  1  0  0  0
  6 97  1  0  0  0
  6 98  1  0  0  0
  7  8  2  0  0  0
  7 26  1  0  0  0
  7 29  1  0  0  0
  8  9  1  0  0  0
  8 22  1  0  0  0
  9 10  1  0  0  0
  9 27  2  0  0  0
 10 11  2  0  0  0
 10 15  1  0  0  0
 11 12  1  0  0  0
 11 99  1  0  0  0
 12 13  2  0  0  0
 12100  1  0  0  0
 13 14  1  0  0  0
 13 31  1  0  0  0
 14 15  2  0  0  0
 14101  1  0  0  0
 15102  1  0  0  0
 16 17  2  0  0  0
 16 21  1  0  0  0
 16 31  1  0  0  0
 17 18  1  0  0  0
 17103  1  0  0  0
 18 19  2  0  0  0
 18104  1  0  0  0
 19 20  1  0  0  0
 19 24  1  0  0  0
 20 21  2  0  0  0
 20105  1  0  0  0
 21 23  1  0  0  0
 22 28  1  0  0  0
 22 32  2  0  0  0
 26 27  1  0  0  0
 28106  1  0  0  0
 28107  1  0  0  0
 29108  1  0  0  0
 29109  1  0  0  0
 33 34  1  0  0  0
 33 66  1  0  0  0
 33 70  2  0  0  0
 34 36  1  0  0  0
 34 59  1  0  0  0
 34110  1  0  0  0
 35 44  2  0  0  0
 35 45  1  0  0  0
 35 68  1  0  0  0
 36 56  1  0  0  0
 36111  1  0  0  0
 37 39  1  0  0  0
 37 47  1  0  0  0
 37 66  1  0  0  0
 37112  1  0  0  0
 38 43  2  0  0  0
 38 46  1  0  0  0
 38 47  1  0  0  0
 39 64  1  0  0  0
 39 67  2  0  0  0
 40 52  1  0  0  0
 40 53  2  0  0  0
 40 58  1  0  0  0
 41113  1  0  0  0
 41114  1  0  0  0
 41115  1  0  0  0
 41 48  1  0  0  0
 42 43  1  0  0  0
 42 66  1  0  0  0
 42116  1  0  0  0
 42117  1  0  0  0
 43 44  1  0  0  0
 44118  1  0  0  0
 45 46  2  0  0  0
 45119  1  0  0  0
 46120  1  0  0  0
 47121  1  0  0  0
 47122  1  0  0  0
 48 56  1  0  0  0
 48 65  1  0  0  0
 48123  1  0  0  0
 49 50  1  0  0  0
 49 53  1  0  0  0
 49 64  1  0  0  0
 49124  1  0  0  0
 50 51  1  0  0  0
 50125  1  0  0  0
 50126  1  0  0  0
 51 52  1  0  0  0
 51127  1  0  0  0
 51128  1  0  0  0
 52129  1  0  0  0
 52130  1  0  0  0
 53 54  1  0  0  0
 54 55  2  0  0  0
 54131  1  0  0  0
 55 57  1  0  0  0
 55132  1  0  0  0
 56 69  2  0  0  0
 57 58  2  0  0  0
 57133  1  0  0  0
 58134  1  0  0  0
 59 60  1  0  0  0
 59 61  1  0  0  0
 59 62  1  0  0  0
 60135  1  0  0  0
 60136  1  0  0  0
 60137  1  0  0  0
 61138  1  0  0  0
 61139  1  0  0  0
 61140  1  0  0  0
 62141  1  0  0  0
 62142  1  0  0  0
 62143  1  0  0  0
 63 65  1  0  0  0
 63144  1  0  0  0
 63145  1  0  0  0
 63146  1  0  0  0
 64147  1  0  0  0
 65148  1  0  0  0
 68 85  1  0  0  0
 71 73  2  0  0  0
 71 75  1  0  0  0
 71149  1  0  0  0
 72 75  2  0  0  0
 72 76  1  0  0  0
 72150  1  0  0  0
 73 74  1  0  0  0
 73 82  1  0  0  0
 74 76  2  0  0  0
 74 86  1  0  0  0
 75 87  1  0  0  0
 76 89  1  0  0  0
 77 78  2  0  0  0
 77 79  1  0  0  0
 77 85  1  0  0  0
 78 83  1  0  0  0
 78 86  1  0  0  0
 79 80  1  0  0  0
 79 88  2  0  0  0
 80 81  1  0  0  0
 80151  1  0  0  0
 80152  1  0  0  0
 81 86  1  0  0  0
 81153  1  0  0  0
 81154  1  0  0  0
 82155  1  0  0  0
 82156  1  0  0  0
 82157  1  0  0  0
 83158  1  0  0  0
 83159  1  0  0  0
 83160  1  0  0  0
 84 89  1  0  0  0
 84161  1  0  0  0
 84162  1  0  0  0
 84163  1  0  0  0
 85164  1  0  0  0
 85165  1  0  0  0
 87166  1  0  0  0
M  ISO  4   1 100  68 101  85 101  87 100
M  END
> <chiral flag>
0

> <version>
0

> <s_m_source_file>
/data/baiqing/PycharmProjects/Reinvent-master-3.2/result/LINK_invent/BTK/process_docking_weight1_custom_product_contain_oxygen_bond_distance_aromatic_linkinvent_7_9_3/rearranged_h_0107.sdf

> <i_m_source_file_index>
65

> <r_mmod_Potential_Energy-OPLS-2005>
177.578857421875

> <r_mmod_Stretch_Energy-OPLS-2005>
99.4365539550781

> <r_mmod_Bend_Energy-OPLS-2005>
147.564788818359

> <r_mmod_Torsional_Energy-OPLS-2005>
284.423309326172

> <r_mmod_Improper_Torsional_Energy-OPLS-2005>
6.84037065505981

> <r_mmod_Van_der_Waal_Energy-OPLS-2005>
155.533828735352

> <r_mmod_Electrostatic_Energy-OPLS-2005>
-348.476867675781

> <r_mmod_Solvation_Energy-OPLS-2005>
-228.87712097168

> <b_mmod_Minimization_Converged-OPLS-2005>
0

> <r_mmod_RMS_Derivative-OPLS-2005>
7.44057893753052

$$$$
65
                    3D
 Structure written by MMmdl.
164173  0  0  1  0            999 V2000
  -30.5737  -14.9293   20.4583 C   0  0  0  0  0  0
  -30.4304  -12.5624   19.5319 C   0  0  0  0  0  0
  -29.5349  -12.5373   18.2720 C   0  0  0  0  0  0
  -28.0633  -12.3191   18.6697 C   0  0  0  0  0  0
  -27.6290  -13.2489   19.8329 C   0  0  2  0  0  0
  -28.6591  -13.2762   20.9841 C   0  0  0  0  0  0
  -25.2400  -13.8159   20.5531 C   0  0  0  0  0  0
  -24.1767  -13.0405   20.9132 C   0  0  0  0  0  0
  -24.6403  -11.6900   20.8707 C   0  0  0  0  0  0
  -23.9080  -10.4284   21.0369 C   0  0  0  0  0  0
  -24.3637   -9.4213   21.9158 C   0  0  0  0  0  0
  -23.6302   -8.2261   22.0758 C   0  0  0  0  0  0
  -22.4290   -8.0288   21.3540 C   0  0  0  0  0  0
  -21.9918   -9.0245   20.4634 C   0  0  0  0  0  0
  -22.7250  -10.2112   20.3023 C   0  0  0  0  0  0
  -21.6855   -6.0741   22.5276 C   0  0  0  0  0  0
  -21.4025   -6.5633   23.8211 C   0  0  0  0  0  0
  -21.3662   -5.6780   24.9167 C   0  0  0  0  0  0
  -21.6054   -4.3045   24.7207 C   0  0  0  0  0  0
  -21.8827   -3.8145   23.4318 C   0  0  0  0  0  0
  -21.9207   -4.6977   22.3387 C   0  0  0  0  0  0
  -22.7793  -13.5158   21.1823 C   0  0  0  0  0  0
  -22.1672   -4.2168   21.0968 F   0  0  0  0  0  0
  -21.5619   -3.4523   25.7709 F   0  0  0  0  0  0
  -29.9580  -13.6714   20.4137 N   0  0  0  0  0  0
  -26.2853  -12.9431   20.3118 N   0  0  0  0  0  0
  -25.9325  -11.6563   20.5673 N   0  0  0  0  0  0
  -22.0497  -12.8153   22.0414 N   0  0  0  0  0  0
  -25.4009  -15.1858   20.3812 N   0  0  0  0  0  0
  -31.7218  -15.0020   19.9997 O   0  0  0  0  0  0
  -21.6647   -6.8887   21.4242 O   0  0  0  0  0  0
  -22.3473  -14.5504   20.6707 O   0  0  0  0  0  0
  -24.6372  -31.8452   23.1889 C   0  0  0  0  0  0
  -25.9134  -32.4718   23.8294 C   0  0  1  0  0  0
  -27.2289  -27.1504   20.1737 C   0  0  0  0  0  0
  -25.5907  -33.8533   24.2229 N   0  0  0  0  0  0
  -23.4444  -30.4562   21.5310 C   0  0  2  0  0  0
  -24.9029  -28.8801   20.1132 C   0  0  0  0  0  0
  -22.7536  -29.4508   22.4849 C   0  0  0  0  0  0
  -18.0257  -28.1398   22.8401 C   0  0  0  0  0  0
  -24.1492  -36.7281   23.2642 C   0  0  0  0  0  0
  -25.9953  -30.7216   21.3909 C   0  0  0  0  0  0
  -26.0692  -29.3303   20.7421 C   0  0  0  0  0  0
  -27.2256  -28.4715   20.7673 C   0  0  0  0  0  0
  -26.0400  -26.7891   19.5062 C   0  0  0  0  0  0
  -24.8965  -27.6224   19.4853 C   0  0  0  0  0  0
  -23.6789  -29.7776   20.1522 C   0  0  0  0  0  0
  -25.4123  -36.3072   24.0327 C   0  0  1  0  0  0
  -20.5874  -28.3701   23.1236 C   0  0  2  0  0  0
  -20.6777  -26.9404   22.5405 C   0  0  0  0  0  0
  -19.5781  -26.6369   21.5171 C   0  0  0  0  0  0
  -18.1931  -26.7925   22.1554 C   0  0  0  0  0  0
  -19.1518  -28.8868   23.2798 C   0  0  0  0  0  0
  -18.9445  -30.1474   23.8796 C   0  0  0  0  0  0
  -17.6450  -30.6589   24.0539 C   0  0  0  0  0  0
  -25.9042  -34.9430   23.5095 C   0  0  0  0  0  0
  -16.5334  -29.9083   23.6349 C   0  0  0  0  0  0
  -16.7243  -28.6536   23.0290 C   0  0  0  0  0  0
  -26.4486  -31.6590   25.0733 C   0  0  0  0  0  0
  -25.3678  -31.3764   26.1434 C   0  0  0  0  0  0
  -27.0382  -30.2984   24.6385 C   0  0  0  0  0  0
  -27.6059  -32.4353   25.7489 C   0  0  0  0  0  0
  -27.5585  -37.1808   24.8451 C   0  0  0  0  0  0
  -21.4226  -29.3031   22.3624 N   0  0  0  0  0  0
  -26.4296  -37.3771   23.9392 N   0  0  0  0  0  0
  -24.7113  -31.0301   22.0931 N   0  0  0  0  0  0
  -23.4177  -28.8065   23.3010 O   0  0  0  0  0  0
  -28.3117  -26.2201   20.3076 O   0  0  0  0  0  0
  -26.5620  -34.8905   22.4657 O   0  0  0  0  0  0
  -23.5496  -32.1318   23.7096 O   0  0  0  0  0  0
  -30.2176  -19.8534   19.7329 C   0  0  0  0  0  0
  -30.5060  -18.4396   19.9717 C   0  0  0  0  0  0
  -28.1346  -19.6206   20.7901 C   0  0  0  0  0  0
  -28.4065  -18.2061   21.0178 C   0  0  0  0  0  0
  -29.0132  -20.5376   20.1284 C   0  0  0  0  0  0
  -29.6190  -17.5131   20.6249 C   0  0  0  0  0  0
  -27.7704  -21.8796   18.5857 C   0  0  0  0  0  0
  -26.4771  -22.6639   18.8095 C   0  0  0  0  0  0
  -26.6301  -23.1140   20.2654 C   0  0  0  0  0  0
  -28.1463  -23.2685   20.3815 C   0  0  2  0  0  0
  -27.2952  -17.4439   21.7056 C   0  0  0  0  0  0
  -31.3362  -16.8315   23.0212 C   0  0  0  0  0  0
  -28.4508  -24.7980   19.7178 C   0  0  0  0  0  0
  -30.1449  -15.9772   22.5398 C   0  0  0  0  0  0
  -28.6028  -21.9459   19.6466 N   0  0  0  0  0  0
  -29.9592  -16.0640   21.0751 N   0  0  0  0  0  0
  -27.9753  -21.2394   17.5501 O   0  0  0  0  0  0
  -31.4799  -12.6725   19.2542 H   0  0  0  0  0  0
  -30.3724  -11.6099   20.0606 H   0  0  0  0  0  0
  -29.8600  -11.7510   17.5879 H   0  0  0  0  0  0
  -29.6404  -13.4792   17.7323 H   0  0  0  0  0  0
  -27.9631  -11.2777   18.9824 H   0  0  0  0  0  0
  -27.4092  -12.4466   17.8049 H   0  0  0  0  0  0
  -27.5953  -14.2509   19.4032 H   0  0  0  0  0  0
  -28.7222  -12.3077   21.4846 H   0  0  0  0  0  0
  -28.3356  -13.9898   21.7406 H   0  0  0  0  0  0
  -25.2790   -9.5708   22.4708 H   0  0  0  0  0  0
  -24.0020   -7.4671   22.7489 H   0  0  0  0  0  0
  -21.0843   -8.8743   19.8943 H   0  0  0  0  0  0
  -22.3699  -10.9638   19.6109 H   0  0  0  0  0  0
  -21.2033   -7.6146   23.9718 H   0  0  0  0  0  0
  -21.1470   -6.0503   25.9068 H   0  0  0  0  0  0
  -22.0617   -2.7609   23.2804 H   0  0  0  0  0  0
  -22.4157  -11.9749   22.4661 H   0  0  0  0  0  0
  -21.1135  -13.1188   22.2703 H   0  0  0  0  0  0
  -24.6448  -15.8471   20.5196 H   0  0  0  0  0  0
  -26.2488  -15.6195   20.0412 H   0  0  0  0  0  0
  -26.7177  -32.5384   23.1013 H   0  0  0  0  0  0
  -25.0068  -33.9667   25.0393 H   0  0  0  0  0  0
  -22.7436  -31.2777   21.3656 H   0  0  0  0  0  0
  -23.3773  -35.9586   23.3288 H   0  0  0  0  0  0
  -24.3563  -36.8932   22.2053 H   0  0  0  0  0  0
  -23.7238  -37.6479   23.6674 H   0  0  0  0  0  0
  -26.1367  -31.4703   20.6108 H   0  0  0  0  0  0
  -26.8688  -30.7872   22.0268 H   0  0  0  0  0  0
  -28.1058  -28.7948   21.3049 H   0  0  0  0  0  0
  -25.9607  -25.8178   19.0439 H   0  0  0  0  0  0
  -23.9960  -27.2767   18.9970 H   0  0  0  0  0  0
  -23.8200  -30.5476   19.3947 H   0  0  0  0  0  0
  -22.8030  -29.2101   19.8370 H   0  0  0  0  0  0
  -25.1307  -36.1913   25.0823 H   0  0  0  0  0  0
  -20.9866  -28.3292   24.1392 H   0  0  0  0  0  0
  -20.5631  -26.2289   23.3603 H   0  0  0  0  0  0
  -21.6657  -26.7406   22.1227 H   0  0  0  0  0  0
  -19.6965  -25.6254   21.1264 H   0  0  0  0  0  0
  -19.6805  -27.3119   20.6656 H   0  0  0  0  0  0
  -17.4213  -26.6563   21.3964 H   0  0  0  0  0  0
  -18.0385  -26.0095   22.8990 H   0  0  0  0  0  0
  -19.7929  -30.7314   24.2103 H   0  0  0  0  0  0
  -17.5015  -31.6237   24.5197 H   0  0  0  0  0  0
  -15.5341  -30.2958   23.7795 H   0  0  0  0  0  0
  -15.8617  -28.0898   22.6985 H   0  0  0  0  0  0
  -24.5869  -30.7093   25.7753 H   0  0  0  0  0  0
  -24.8828  -32.2919   26.4825 H   0  0  0  0  0  0
  -25.7973  -30.8971   27.0229 H   0  0  0  0  0  0
  -26.3024  -29.6669   24.1403 H   0  0  0  0  0  0
  -27.3936  -29.7350   25.5020 H   0  0  0  0  0  0
  -27.8932  -30.4192   23.9740 H   0  0  0  0  0  0
  -27.2702  -33.3675   26.2026 H   0  0  0  0  0  0
  -28.3882  -32.6873   25.0320 H   0  0  0  0  0  0
  -28.0680  -31.8482   26.5429 H   0  0  0  0  0  0
  -28.2605  -38.0112   24.7521 H   0  0  0  0  0  0
  -28.1109  -36.2654   24.6270 H   0  0  0  0  0  0
  -27.2293  -37.1430   25.8853 H   0  0  0  0  0  0
  -20.9424  -29.8793   21.6851 H   0  0  0  0  0  0
  -26.0194  -38.2851   24.1393 H   0  0  0  0  0  0
  -30.9640  -20.4261   19.2008 H   0  0  0  0  0  0
  -31.4675  -18.0721   19.6455 H   0  0  0  0  0  0
  -27.1712  -20.0029   21.1018 H   0  0  0  0  0  0
  -25.5819  -22.0584   18.6601 H   0  0  0  0  0  0
  -26.4266  -23.4995   18.1102 H   0  0  0  0  0  0
  -26.2861  -22.3198   20.9292 H   0  0  0  0  0  0
  -26.0693  -24.0152   20.5150 H   0  0  0  0  0  0
  -28.4616  -23.2327   21.4254 H   0  0  0  0  0  0
  -26.3257  -17.7353   21.2983 H   0  0  0  0  0  0
  -27.2975  -17.6494   22.7764 H   0  0  0  0  0  0
  -27.4029  -16.3704   21.5640 H   0  0  0  0  0  0
  -31.4797  -16.7243   24.0955 H   0  0  0  0  0  0
  -31.1773  -17.8927   22.8265 H   0  0  0  0  0  0
  -32.2710  -16.5419   22.5391 H   0  0  0  0  0  0
  -27.9783  -24.8681   18.7404 H   0  0  0  0  0  0
  -29.5097  -24.7622   19.4606 H   0  0  0  0  0  0
  -29.2400  -16.2942   23.0566 H   0  0  0  0  0  0
  -30.3016  -14.9532   22.8877 H   0  0  0  0  0  0
  1 25  1  0  0  0
  1 30  2  0  0  0
  1 86  1  0  0  0
  2  3  1  0  0  0
  2 25  1  0  0  0
  2 88  1  0  0  0
  2 89  1  0  0  0
  3  4  1  0  0  0
  3 90  1  0  0  0
  3 91  1  0  0  0
  4  5  1  0  0  0
  4 92  1  0  0  0
  4 93  1  0  0  0
  5  6  1  0  0  0
  5 26  1  0  0  0
  5 94  1  0  0  0
  6 25  1  0  0  0
  6 95  1  0  0  0
  6 96  1  0  0  0
  7  8  2  0  0  0
  7 26  1  0  0  0
  7 29  1  0  0  0
  8  9  1  0  0  0
  8 22  1  0  0  0
  9 10  1  0  0  0
  9 27  2  0  0  0
 10 11  2  0  0  0
 10 15  1  0  0  0
 11 12  1  0  0  0
 11 97  1  0  0  0
 12 13  2  0  0  0
 12 98  1  0  0  0
 13 14  1  0  0  0
 13 31  1  0  0  0
 14 15  2  0  0  0
 14 99  1  0  0  0
 15100  1  0  0  0
 16 17  2  0  0  0
 16 21  1  0  0  0
 16 31  1  0  0  0
 17 18  1  0  0  0
 17101  1  0  0  0
 18 19  2  0  0  0
 18102  1  0  0  0
 19 20  1  0  0  0
 19 24  1  0  0  0
 20 21  2  0  0  0
 20103  1  0  0  0
 21 23  1  0  0  0
 22 28  1  0  0  0
 22 32  2  0  0  0
 26 27  1  0  0  0
 28104  1  0  0  0
 28105  1  0  0  0
 29106  1  0  0  0
 29107  1  0  0  0
 33 34  1  0  0  0
 33 66  1  0  0  0
 33 70  2  0  0  0
 34 36  1  0  0  0
 34 59  1  0  0  0
 34108  1  0  0  0
 35 44  2  0  0  0
 35 45  1  0  0  0
 35 68  1  0  0  0
 36 56  1  0  0  0
 36109  1  0  0  0
 37 39  1  0  0  0
 37 47  1  0  0  0
 37 66  1  0  0  0
 37110  1  0  0  0
 38 43  2  0  0  0
 38 46  1  0  0  0
 38 47  1  0  0  0
 39 64  1  0  0  0
 39 67  2  0  0  0
 40 52  1  0  0  0
 40 53  2  0  0  0
 40 58  1  0  0  0
 41111  1  0  0  0
 41112  1  0  0  0
 41113  1  0  0  0
 41 48  1  0  0  0
 42 43  1  0  0  0
 42 66  1  0  0  0
 42114  1  0  0  0
 42115  1  0  0  0
 43 44  1  0  0  0
 44116  1  0  0  0
 45 46  2  0  0  0
 45117  1  0  0  0
 46118  1  0  0  0
 47119  1  0  0  0
 47120  1  0  0  0
 48 56  1  0  0  0
 48 65  1  0  0  0
 48121  1  0  0  0
 49 50  1  0  0  0
 49 53  1  0  0  0
 49 64  1  0  0  0
 49122  1  0  0  0
 50 51  1  0  0  0
 50123  1  0  0  0
 50124  1  0  0  0
 51 52  1  0  0  0
 51125  1  0  0  0
 51126  1  0  0  0
 52127  1  0  0  0
 52128  1  0  0  0
 53 54  1  0  0  0
 54 55  2  0  0  0
 54129  1  0  0  0
 55 57  1  0  0  0
 55130  1  0  0  0
 56 69  2  0  0  0
 57 58  2  0  0  0
 57131  1  0  0  0
 58132  1  0  0  0
 59 60  1  0  0  0
 59 61  1  0  0  0
 59 62  1  0  0  0
 60133  1  0  0  0
 60134  1  0  0  0
 60135  1  0  0  0
 61136  1  0  0  0
 61137  1  0  0  0
 61138  1  0  0  0
 62139  1  0  0  0
 62140  1  0  0  0
 62141  1  0  0  0
 63 65  1  0  0  0
 63142  1  0  0  0
 63143  1  0  0  0
 63144  1  0  0  0
 64145  1  0  0  0
 65146  1  0  0  0
 68 83  1  0  0  0
 71 72  2  0  0  0
 71 75  1  0  0  0
 71147  1  0  0  0
 72 76  1  0  0  0
 72148  1  0  0  0
 73 74  1  0  0  0
 73 75  2  0  0  0
 73149  1  0  0  0
 74 76  2  0  0  0
 74 81  1  0  0  0
 75 85  1  0  0  0
 76 86  1  0  0  0
 77 78  1  0  0  0
 77 85  1  0  0  0
 77 87  2  0  0  0
 78 79  1  0  0  0
 78150  1  0  0  0
 78151  1  0  0  0
 79 80  1  0  0  0
 79152  1  0  0  0
 79153  1  0  0  0
 80 83  1  0  0  0
 80 85  1  0  0  0
 80154  1  0  0  0
 81155  1  0  0  0
 81156  1  0  0  0
 81157  1  0  0  0
 82 84  1  0  0  0
 82158  1  0  0  0
 82159  1  0  0  0
 82160  1  0  0  0
 83161  1  0  0  0
 83162  1  0  0  0
 84 86  1  0  0  0
 84163  1  0  0  0
 84164  1  0  0  0
M  ISO  4   1 100  68 101  83 101  86 100
M  END
> <chiral flag>
0

> <version>
0

> <s_m_source_file>
/data/baiqing/PycharmProjects/Reinvent-master-3.2/result/LINK_invent/BTK/process_docking_weight1_custom_product_contain_oxygen_bond_distance_aromatic_linkinvent_7_9_3/rearranged_h_0107.sdf

> <i_m_source_file_index>
66

> <r_mmod_Potential_Energy-OPLS-2005>
849.275451660156

> <r_mmod_Stretch_Energy-OPLS-2005>
251.818222045898

> <r_mmod_Bend_Energy-OPLS-2005>
345.993194580078

> <r_mmod_Torsional_Energy-OPLS-2005>
402.260681152344

> <r_mmod_Improper_Torsional_Energy-OPLS-2005>
9.42820358276367

> <r_mmod_Van_der_Waal_Energy-OPLS-2005>
131.228759765625

> <r_mmod_Electrostatic_Energy-OPLS-2005>
-266.272247314453

> <r_mmod_Solvation_Energy-OPLS-2005>
-204.080322265625

> <b_mmod_Minimization_Converged-OPLS-2005>
0

> <r_mmod_RMS_Derivative-OPLS-2005>
4.80503845214844

$$$$
66
                    3D
 Structure written by MMmdl.
159167  0  0  1  0            999 V2000
  -30.5554  -15.0426   20.4221 C   0  0  0  0  0  0
  -30.4150  -12.6540   19.5049 C   0  0  0  0  0  0
  -29.5090  -12.5196   18.2587 C   0  0  0  0  0  0
  -28.0459  -12.3037   18.6790 C   0  0  0  0  0  0
  -27.6083  -13.2567   19.8221 C   0  0  2  0  0  0
  -28.6481  -13.3622   20.9573 C   0  0  0  0  0  0
  -25.2389  -13.8215   20.5740 C   0  0  0  0  0  0
  -24.1722  -13.0424   20.9249 C   0  0  0  0  0  0
  -24.6348  -11.6913   20.8749 C   0  0  0  0  0  0
  -23.9045  -10.4280   21.0396 C   0  0  0  0  0  0
  -24.3602   -9.4193   21.9165 C   0  0  0  0  0  0
  -23.6280   -8.2226   22.0736 C   0  0  0  0  0  0
  -22.4266   -8.0249   21.3529 C   0  0  0  0  0  0
  -21.9900   -9.0215   20.4632 C   0  0  0  0  0  0
  -22.7222  -10.2099   20.3046 C   0  0  0  0  0  0
  -21.6847   -6.0704   22.5264 C   0  0  0  0  0  0
  -21.4008   -6.5627   23.8192 C   0  0  0  0  0  0
  -21.3659   -5.6794   24.9162 C   0  0  0  0  0  0
  -21.6048   -4.3055   24.7211 C   0  0  0  0  0  0
  -21.8826   -3.8128   23.4338 C   0  0  0  0  0  0
  -21.9195   -4.6934   22.3387 C   0  0  0  0  0  0
  -22.7753  -13.5168   21.1886 C   0  0  0  0  0  0
  -22.1667   -4.2129   21.0959 F   0  0  0  0  0  0
  -21.5626   -3.4539   25.7721 F   0  0  0  0  0  0
  -29.9098  -13.7941   20.3407 N   0  0  0  0  0  0
  -26.2782  -12.9456   20.3213 N   0  0  0  0  0  0
  -25.9269  -11.6580   20.5711 N   0  0  0  0  0  0
  -22.0442  -12.8147   22.0467 N   0  0  0  0  0  0
  -25.4042  -15.1954   20.4206 N   0  0  0  0  0  0
  -31.7591  -15.0147   20.1346 O   0  0  0  0  0  0
  -21.6641   -6.8835   21.4226 O   0  0  0  0  0  0
  -22.3407  -14.5443   20.6680 O   0  0  0  0  0  0
  -24.6510  -31.8377   23.1853 C   0  0  0  0  0  0
  -25.9261  -32.4656   23.8263 C   0  0  1  0  0  0
  -27.2085  -27.0711   20.1576 C   0  0  0  0  0  0
  -25.5983  -33.8461   24.2174 N   0  0  0  0  0  0
  -23.4571  -30.4589   21.5299 C   0  0  2  0  0  0
  -24.9060  -28.8776   20.1092 C   0  0  0  0  0  0
  -22.7604  -29.4538   22.4821 C   0  0  0  0  0  0
  -18.0320  -28.1408   22.8456 C   0  0  0  0  0  0
  -24.1494  -36.7228   23.2646 C   0  0  0  0  0  0
  -26.0198  -30.6938   21.3923 C   0  0  0  0  0  0
  -26.0885  -29.3003   20.7304 C   0  0  0  0  0  0
  -27.2414  -28.4153   20.7323 C   0  0  0  0  0  0
  -25.9997  -26.7726   19.4878 C   0  0  0  0  0  0
  -24.8792  -27.6311   19.4696 C   0  0  0  0  0  0
  -23.6866  -29.7876   20.1505 C   0  0  0  0  0  0
  -25.4129  -36.3001   24.0317 C   0  0  1  0  0  0
  -20.5932  -28.3746   23.1191 C   0  0  2  0  0  0
  -20.6788  -26.9437   22.5381 C   0  0  0  0  0  0
  -19.5764  -26.6382   21.5190 C   0  0  0  0  0  0
  -18.1955  -26.7944   22.1608 C   0  0  0  0  0  0
  -19.1578  -28.8898   23.2815 C   0  0  0  0  0  0
  -18.9489  -30.1493   23.8842 C   0  0  0  0  0  0
  -17.6480  -30.6590   24.0560 C   0  0  0  0  0  0
  -25.9085  -34.9382   23.5052 C   0  0  0  0  0  0
  -16.5373  -29.9078   23.6343 C   0  0  0  0  0  0
  -16.7303  -28.6508   23.0344 C   0  0  0  0  0  0
  -26.4557  -31.6543   25.0728 C   0  0  0  0  0  0
  -25.3724  -31.3744   26.1406 C   0  0  0  0  0  0
  -27.0448  -30.2925   24.6391 C   0  0  0  0  0  0
  -27.6090  -32.4323   25.7503 C   0  0  0  0  0  0
  -27.5576  -37.1772   24.8469 C   0  0  0  0  0  0
  -21.4292  -29.3055   22.3556 N   0  0  0  0  0  0
  -26.4284  -37.3719   23.9415 N   0  0  0  0  0  0
  -24.7299  -31.0197   22.0906 N   0  0  0  0  0  0
  -23.4222  -28.8081   23.2991 O   0  0  0  0  0  0
  -28.2218  -26.0233   20.2420 O   0  0  0  0  0  0
  -26.5663  -34.8884   22.4627 O   0  0  0  0  0  0
  -23.5613  -32.1276   23.7037 O   0  0  0  0  0  0
  -27.4386  -18.2380   17.6019 C   0  0  0  0  0  0
  -27.8242  -19.1158   18.6156 C   0  0  0  0  0  0
  -28.8436  -16.5708   18.5810 C   0  0  0  0  0  0
  -27.9954  -16.9743   17.5514 C   0  0  0  0  0  0
  -29.2299  -17.3567   19.7133 C   0  0  0  0  0  0
  -28.7748  -18.8586   19.6539 C   0  0  0  0  0  0
  -30.3044  -18.0148   22.4845 C   0  0  0  0  0  0
  -30.2396  -16.7644   21.9982 C   0  0  0  0  0  0
  -28.7997  -23.1306   20.3732 C   0  0  0  0  0  0
  -26.9614  -21.3502   20.9089 C   0  0  0  0  0  0
  -27.8409  -24.4925   20.0594 C   0  0  0  0  0  0
  -28.2756  -21.5400   20.1263 C   0  0  2  0  0  0
  -27.6845  -16.1065   16.5057 N   0  0  0  0  0  0
  -29.9261  -16.3396   20.6908 N   0  0  0  0  0  0
  -29.9500  -23.3099   20.7838 O   0  0  0  0  0  0
  -29.0821  -20.1611   20.3377 O   0  0  0  0  0  0
  -31.4463  -12.8012   19.1832 H   0  0  0  0  0  0
  -30.4177  -11.7255   20.0802 H   0  0  0  0  0  0
  -29.8385  -11.6887   17.6326 H   0  0  0  0  0  0
  -29.5919  -13.4126   17.6396 H   0  0  0  0  0  0
  -27.9514  -11.2664   19.0049 H   0  0  0  0  0  0
  -27.3825  -12.4100   17.8188 H   0  0  0  0  0  0
  -27.5354  -14.2379   19.3593 H   0  0  0  0  0  0
  -28.7571  -12.4112   21.4796 H   0  0  0  0  0  0
  -28.3231  -14.0925   21.6994 H   0  0  0  0  0  0
  -25.2733   -9.5666   22.4747 H   0  0  0  0  0  0
  -23.9981   -7.4612   22.7454 H   0  0  0  0  0  0
  -21.0825   -8.8712   19.8942 H   0  0  0  0  0  0
  -22.3644  -10.9626   19.6162 H   0  0  0  0  0  0
  -21.2004   -7.6136   23.9678 H   0  0  0  0  0  0
  -21.1483   -6.0528   25.9064 H   0  0  0  0  0  0
  -22.0605   -2.7586   23.2841 H   0  0  0  0  0  0
  -22.4148  -11.9865   22.4886 H   0  0  0  0  0  0
  -21.1017  -13.1048   22.2640 H   0  0  0  0  0  0
  -24.6342  -15.8437   20.5437 H   0  0  0  0  0  0
  -26.2460  -15.6385   20.0751 H   0  0  0  0  0  0
  -26.7330  -32.5240   23.0988 H   0  0  0  0  0  0
  -25.0120  -33.9558   25.0316 H   0  0  0  0  0  0
  -22.7645  -31.2888   21.3718 H   0  0  0  0  0  0
  -23.3760  -35.9550   23.3286 H   0  0  0  0  0  0
  -24.3577  -36.8880   22.2062 H   0  0  0  0  0  0
  -23.7236  -37.6415   23.6695 H   0  0  0  0  0  0
  -26.1872  -31.4504   20.6240 H   0  0  0  0  0  0
  -26.8838  -30.7394   22.0435 H   0  0  0  0  0  0
  -28.1413  -28.7379   21.2372 H   0  0  0  0  0  0
  -25.8780  -25.8234   18.9894 H   0  0  0  0  0  0
  -23.9764  -27.3087   18.9685 H   0  0  0  0  0  0
  -23.8268  -30.5595   19.3930 H   0  0  0  0  0  0
  -22.7996  -29.2321   19.8395 H   0  0  0  0  0  0
  -25.1315  -36.1819   25.0805 H   0  0  0  0  0  0
  -21.0038  -28.3341   24.1309 H   0  0  0  0  0  0
  -20.5649  -26.2373   23.3620 H   0  0  0  0  0  0
  -21.6657  -26.7411   22.1197 H   0  0  0  0  0  0
  -19.6917  -25.6281   21.1252 H   0  0  0  0  0  0
  -19.6695  -27.3162   20.6699 H   0  0  0  0  0  0
  -17.4216  -26.6688   21.4022 H   0  0  0  0  0  0
  -18.0363  -26.0100   22.9021 H   0  0  0  0  0  0
  -19.7965  -30.7332   24.2174 H   0  0  0  0  0  0
  -17.5030  -31.6260   24.5182 H   0  0  0  0  0  0
  -15.5367  -30.2953   23.7707 H   0  0  0  0  0  0
  -15.8711  -28.0817   22.7059 H   0  0  0  0  0  0
  -24.5919  -30.7082   25.7708 H   0  0  0  0  0  0
  -24.8896  -32.2920   26.4773 H   0  0  0  0  0  0
  -25.7979  -30.8944   27.0225 H   0  0  0  0  0  0
  -26.3099  -29.6608   24.1390 H   0  0  0  0  0  0
  -27.4000  -29.7273   25.5018 H   0  0  0  0  0  0
  -27.9025  -30.4119   23.9773 H   0  0  0  0  0  0
  -27.2703  -33.3660   26.1994 H   0  0  0  0  0  0
  -28.3935  -32.6820   25.0349 H   0  0  0  0  0  0
  -28.0726  -31.8511   26.5480 H   0  0  0  0  0  0
  -28.2581  -38.0081   24.7515 H   0  0  0  0  0  0
  -28.1083  -36.2610   24.6291 H   0  0  0  0  0  0
  -27.2297  -37.1407   25.8873 H   0  0  0  0  0  0
  -20.9536  -29.8760   21.6705 H   0  0  0  0  0  0
  -26.0146  -38.2783   24.1410 H   0  0  0  0  0  0
  -26.7407  -18.5694   16.8450 H   0  0  0  0  0  0
  -27.3079  -20.0448   18.4920 H   0  0  0  0  0  0
  -29.1616  -15.5527   18.4607 H   0  0  0  0  0  0
  -30.5413  -18.1753   23.5277 H   0  0  0  0  0  0
  -30.1481  -18.8934   21.8931 H   0  0  0  0  0  0
  -30.4331  -15.9427   22.6786 H   0  0  0  0  0  0
  -26.2632  -22.1690   20.7438 H   0  0  0  0  0  0
  -27.1570  -21.2949   21.9804 H   0  0  0  0  0  0
  -26.4421  -20.4349   20.6307 H   0  0  0  0  0  0
  -26.9352  -24.3464   20.6470 H   0  0  0  0  0  0
  -27.5290  -24.3775   19.0219 H   0  0  0  0  0  0
  -28.0734  -21.6446   19.0653 H   0  0  0  0  0  0
  -26.9305  -16.3173   15.8596 H   0  0  0  0  0  0
  -27.9459  -15.1264   16.5363 H   0  0  0  0  0  0
  1 25  1  0  0  0
  1 30  2  0  0  0
  1 84  1  0  0  0
  2  3  1  0  0  0
  2 25  1  0  0  0
  2 87  1  0  0  0
  2 88  1  0  0  0
  3  4  1  0  0  0
  3 89  1  0  0  0
  3 90  1  0  0  0
  4  5  1  0  0  0
  4 91  1  0  0  0
  4 92  1  0  0  0
  5  6  1  0  0  0
  5 26  1  0  0  0
  5 93  1  0  0  0
  6 25  1  0  0  0
  6 94  1  0  0  0
  6 95  1  0  0  0
  7  8  2  0  0  0
  7 26  1  0  0  0
  7 29  1  0  0  0
  8  9  1  0  0  0
  8 22  1  0  0  0
  9 10  1  0  0  0
  9 27  2  0  0  0
 10 11  2  0  0  0
 10 15  1  0  0  0
 11 12  1  0  0  0
 11 96  1  0  0  0
 12 13  2  0  0  0
 12 97  1  0  0  0
 13 14  1  0  0  0
 13 31  1  0  0  0
 14 15  2  0  0  0
 14 98  1  0  0  0
 15 99  1  0  0  0
 16 17  2  0  0  0
 16 21  1  0  0  0
 16 31  1  0  0  0
 17 18  1  0  0  0
 17100  1  0  0  0
 18 19  2  0  0  0
 18101  1  0  0  0
 19 20  1  0  0  0
 19 24  1  0  0  0
 20 21  2  0  0  0
 20102  1  0  0  0
 21 23  1  0  0  0
 22 28  1  0  0  0
 22 32  2  0  0  0
 26 27  1  0  0  0
 28103  1  0  0  0
 28104  1  0  0  0
 29105  1  0  0  0
 29106  1  0  0  0
 33 34  1  0  0  0
 33 66  1  0  0  0
 33 70  2  0  0  0
 34 36  1  0  0  0
 34 59  1  0  0  0
 34107  1  0  0  0
 35 44  2  0  0  0
 35 45  1  0  0  0
 35 68  1  0  0  0
 36 56  1  0  0  0
 36108  1  0  0  0
 37 39  1  0  0  0
 37 47  1  0  0  0
 37 66  1  0  0  0
 37109  1  0  0  0
 38 43  2  0  0  0
 38 46  1  0  0  0
 38 47  1  0  0  0
 39 64  1  0  0  0
 39 67  2  0  0  0
 40 52  1  0  0  0
 40 53  2  0  0  0
 40 58  1  0  0  0
 41110  1  0  0  0
 41111  1  0  0  0
 41112  1  0  0  0
 41 48  1  0  0  0
 42 43  1  0  0  0
 42 66  1  0  0  0
 42113  1  0  0  0
 42114  1  0  0  0
 43 44  1  0  0  0
 44115  1  0  0  0
 45 46  2  0  0  0
 45116  1  0  0  0
 46117  1  0  0  0
 47118  1  0  0  0
 47119  1  0  0  0
 48 56  1  0  0  0
 48 65  1  0  0  0
 48120  1  0  0  0
 49 50  1  0  0  0
 49 53  1  0  0  0
 49 64  1  0  0  0
 49121  1  0  0  0
 50 51  1  0  0  0
 50122  1  0  0  0
 50123  1  0  0  0
 51 52  1  0  0  0
 51124  1  0  0  0
 51125  1  0  0  0
 52126  1  0  0  0
 52127  1  0  0  0
 53 54  1  0  0  0
 54 55  2  0  0  0
 54128  1  0  0  0
 55 57  1  0  0  0
 55129  1  0  0  0
 56 69  2  0  0  0
 57 58  2  0  0  0
 57130  1  0  0  0
 58131  1  0  0  0
 59 60  1  0  0  0
 59 61  1  0  0  0
 59 62  1  0  0  0
 60132  1  0  0  0
 60133  1  0  0  0
 60134  1  0  0  0
 61135  1  0  0  0
 61136  1  0  0  0
 61137  1  0  0  0
 62138  1  0  0  0
 62139  1  0  0  0
 62140  1  0  0  0
 63 65  1  0  0  0
 63141  1  0  0  0
 63142  1  0  0  0
 63143  1  0  0  0
 64144  1  0  0  0
 65145  1  0  0  0
 68 81  1  0  0  0
 71 72  2  0  0  0
 71 74  1  0  0  0
 71146  1  0  0  0
 72 76  1  0  0  0
 72147  1  0  0  0
 73 74  2  0  0  0
 73 75  1  0  0  0
 73148  1  0  0  0
 74 83  1  0  0  0
 75 76  2  0  0  0
 75 84  1  0  0  0
 76 86  1  0  0  0
 77 78  2  0  0  0
 77149  1  0  0  0
 77150  1  0  0  0
 78 84  1  0  0  0
 78151  1  0  0  0
 79 81  1  0  0  0
 79 82  1  0  0  0
 79 85  2  0  0  0
 80152  1  0  0  0
 80153  1  0  0  0
 80154  1  0  0  0
 80 82  1  0  0  0
 81155  1  0  0  0
 81156  1  0  0  0
 82 86  1  0  0  0
 82157  1  0  0  0
 83158  1  0  0  0
 83159  1  0  0  0
M  ISO  4   1 100  68 101  81 101  84 100
M  END
> <chiral flag>
0

> <version>
0

> <s_m_source_file>
/data/baiqing/PycharmProjects/Reinvent-master-3.2/result/LINK_invent/BTK/process_docking_weight1_custom_product_contain_oxygen_bond_distance_aromatic_linkinvent_7_9_3/rearranged_h_0107.sdf

> <i_m_source_file_index>
67

> <r_mmod_Potential_Energy-OPLS-2005>
1075.25463867188

> <r_mmod_Stretch_Energy-OPLS-2005>
430.329010009766

> <r_mmod_Bend_Energy-OPLS-2005>
428.162841796875

> <r_mmod_Torsional_Energy-OPLS-2005>
301.006744384766

> <r_mmod_Improper_Torsional_Energy-OPLS-2005>
4.44398880004883

> <r_mmod_Van_der_Waal_Energy-OPLS-2005>
158.428192138672

> <r_mmod_Electrostatic_Energy-OPLS-2005>
-271.699920654297

> <r_mmod_Solvation_Energy-OPLS-2005>
-237.935897827148

> <b_mmod_Minimization_Converged-OPLS-2005>
0

> <r_mmod_RMS_Derivative-OPLS-2005>
2.6657567024231

$$$$
67
                    3D
 Structure written by MMmdl.
162171  0  0  1  0            999 V2000
  -30.6229  -14.8292   20.3422 C   0  0  0  0  0  0
  -30.4504  -12.4980   19.4740 C   0  0  0  0  0  0
  -29.5321  -12.4437   18.2366 C   0  0  0  0  0  0
  -28.0628  -12.2450   18.6677 C   0  0  0  0  0  0
  -27.6356  -13.1982   19.8160 C   0  0  2  0  0  0
  -28.6886  -13.2736   20.9423 C   0  0  0  0  0  0
  -25.2539  -13.7936   20.5854 C   0  0  0  0  0  0
  -24.1778  -13.0244   20.9217 C   0  0  0  0  0  0
  -24.6390  -11.6761   20.8731 C   0  0  0  0  0  0
  -23.9064  -10.4204   21.0395 C   0  0  0  0  0  0
  -24.3632   -9.4154   21.9192 C   0  0  0  0  0  0
  -23.6305   -8.2196   22.0728 C   0  0  0  0  0  0
  -22.4302   -8.0254   21.3506 C   0  0  0  0  0  0
  -21.9920   -9.0225   20.4615 C   0  0  0  0  0  0
  -22.7247  -10.2102   20.3033 C   0  0  0  0  0  0
  -21.6845   -6.0756   22.5284 C   0  0  0  0  0  0
  -21.3987   -6.5639   23.8225 C   0  0  0  0  0  0
  -21.3650   -5.6783   24.9187 C   0  0  0  0  0  0
  -21.6057   -4.3049   24.7229 C   0  0  0  0  0  0
  -21.8824   -3.8162   23.4336 C   0  0  0  0  0  0
  -21.9188   -4.6974   22.3411 C   0  0  0  0  0  0
  -22.7838  -13.5139   21.1861 C   0  0  0  0  0  0
  -22.1659   -4.2157   21.0988 F   0  0  0  0  0  0
  -21.5659   -3.4523   25.7733 F   0  0  0  0  0  0
  -29.9658  -13.6174   20.3078 N   0  0  0  0  0  0
  -26.2948  -12.9156   20.3235 N   0  0  0  0  0  0
  -25.9325  -11.6329   20.5700 N   0  0  0  0  0  0
  -22.0414  -12.8190   22.0396 N   0  0  0  0  0  0
  -25.3989  -15.1651   20.4736 N   0  0  0  0  0  0
  -31.8567  -14.8152   20.3796 O   0  0  0  0  0  0
  -21.6605   -6.8877   21.4252 O   0  0  0  0  0  0
  -22.3577  -14.5494   20.6718 O   0  0  0  0  0  0
  -24.6341  -31.8539   23.1989 C   0  0  0  0  0  0
  -25.9181  -32.4743   23.8308 C   0  0  1  0  0  0
  -27.2110  -27.2680   20.1305 C   0  0  0  0  0  0
  -25.6018  -33.8545   24.2252 N   0  0  0  0  0  0
  -23.4238  -30.4855   21.5350 C   0  0  2  0  0  0
  -24.8677  -28.9327   20.1027 C   0  0  0  0  0  0
  -22.7438  -29.4677   22.4830 C   0  0  0  0  0  0
  -18.0293  -28.1395   22.8489 C   0  0  0  0  0  0
  -24.1473  -36.7261   23.2627 C   0  0  0  0  0  0
  -25.9668  -30.7764   21.3704 C   0  0  0  0  0  0
  -26.0400  -29.3979   20.7147 C   0  0  0  0  0  0
  -27.2114  -28.5764   20.7207 C   0  0  0  0  0  0
  -26.0213  -26.8764   19.4720 C   0  0  0  0  0  0
  -24.8655  -27.6800   19.4697 C   0  0  0  0  0  0
  -23.6381  -29.8195   20.1517 C   0  0  0  0  0  0
  -25.4101  -36.3044   24.0321 C   0  0  1  0  0  0
  -20.5890  -28.3718   23.1238 C   0  0  2  0  0  0
  -20.6803  -26.9432   22.5379 C   0  0  0  0  0  0
  -19.5773  -26.6388   21.5186 C   0  0  0  0  0  0
  -18.1948  -26.7939   22.1606 C   0  0  0  0  0  0
  -19.1546  -28.8855   23.2878 C   0  0  0  0  0  0
  -18.9478  -30.1459   23.8898 C   0  0  0  0  0  0
  -17.6484  -30.6601   24.0554 C   0  0  0  0  0  0
  -25.9053  -34.9442   23.5051 C   0  0  0  0  0  0
  -16.5368  -29.9093   23.6354 C   0  0  0  0  0  0
  -16.7288  -28.6501   23.0395 C   0  0  0  0  0  0
  -26.4556  -31.6590   25.0709 C   0  0  0  0  0  0
  -25.3792  -31.3832   26.1437 C   0  0  0  0  0  0
  -27.0347  -30.2976   24.6232 C   0  0  0  0  0  0
  -27.6053  -32.4338   25.7528 C   0  0  0  0  0  0
  -27.5551  -37.1786   24.8458 C   0  0  0  0  0  0
  -21.4146  -29.3095   22.3594 N   0  0  0  0  0  0
  -26.4247  -37.3777   23.9426 N   0  0  0  0  0  0
  -24.6929  -31.0570   22.0910 N   0  0  0  0  0  0
  -23.4124  -28.8231   23.2946 O   0  0  0  0  0  0
  -28.2975  -26.3672   20.2091 O   0  0  0  0  0  0
  -26.5554  -34.8912   22.4574 O   0  0  0  0  0  0
  -23.5508  -32.1333   23.7351 O   0  0  0  0  0  0
  -27.0471  -18.1550   20.0226 C   0  0  0  0  0  0
  -27.5632  -19.4498   20.1704 C   0  0  0  0  0  0
  -27.8975  -17.0398   19.9843 C   0  0  0  0  0  0
  -29.8055  -18.4846   20.2785 C   0  0  0  0  0  0
  -28.9498  -19.6733   20.3066 C   0  0  0  0  0  0
  -29.2939  -17.1227   20.1226 C   0  0  0  0  0  0
  -28.0191  -22.2012   22.1242 C   0  0  0  0  0  0
  -29.8982  -16.8327   17.3679 C   0  0  0  0  0  0
  -30.4364  -16.0178   18.2993 C   0  0  0  0  0  0
  -28.0757  -23.4660   22.9623 C   0  0  0  0  0  0
  -29.1920  -24.2381   22.2691 C   0  0  0  0  0  0
  -29.0449  -23.8304   20.7955 C   0  0  2  0  0  0
  -29.4474  -21.1934   20.3373 C   0  0  0  0  0  0
  -28.0247  -24.8895   20.1254 C   0  0  0  0  0  0
  -28.6365  -22.3551   20.9306 N   0  0  0  0  0  0
  -30.0409  -15.9153   19.6569 N   0  0  0  0  0  0
  -27.5618  -21.1575   22.5943 O   0  0  0  0  0  0
  -31.4916  -12.6395   19.1754 H   0  0  0  0  0  0
  -30.4206  -11.5597   20.0324 H   0  0  0  0  0  0
  -29.8606  -11.6295   17.5889 H   0  0  0  0  0  0
  -29.6305  -13.3561   17.6464 H   0  0  0  0  0  0
  -27.9688  -11.2151   19.0113 H   0  0  0  0  0  0
  -27.3975  -12.3446   17.8083 H   0  0  0  0  0  0
  -27.5781  -14.1630   19.3339 H   0  0  0  0  0  0
  -28.7683  -12.3247   21.4787 H   0  0  0  0  0  0
  -28.4158  -14.0270   21.6805 H   0  0  0  0  0  0
  -25.2779   -9.5661   22.4758 H   0  0  0  0  0  0
  -24.0026   -7.4620   22.7469 H   0  0  0  0  0  0
  -21.0822   -8.8786   19.8957 H   0  0  0  0  0  0
  -22.3726  -10.9667   19.6157 H   0  0  0  0  0  0
  -21.1920   -7.6141   23.9715 H   0  0  0  0  0  0
  -21.1473   -6.0514   25.9091 H   0  0  0  0  0  0
  -22.0601   -2.7624   23.2820 H   0  0  0  0  0  0
  -22.3999  -11.9886   22.4856 H   0  0  0  0  0  0
  -21.1024  -13.1248   22.2469 H   0  0  0  0  0  0
  -24.6388  -15.7956   20.6963 H   0  0  0  0  0  0
  -26.2883  -15.6378   20.4137 H   0  0  0  0  0  0
  -26.7246  -32.5372   23.1041 H   0  0  0  0  0  0
  -25.0390  -33.9705   25.0555 H   0  0  0  0  0  0
  -22.7245  -31.3126   21.3953 H   0  0  0  0  0  0
  -23.3745  -35.9578   23.3266 H   0  0  0  0  0  0
  -24.3592  -36.8890   22.2041 H   0  0  0  0  0  0
  -23.7194  -37.6458   23.6651 H   0  0  0  0  0  0
  -26.1022  -31.5422   20.6060 H   0  0  0  0  0  0
  -26.8435  -30.8221   22.0060 H   0  0  0  0  0  0
  -28.1012  -28.9291   21.2239 H   0  0  0  0  0  0
  -25.9565  -25.9254   18.9595 H   0  0  0  0  0  0
  -23.9658  -27.3262   18.9835 H   0  0  0  0  0  0
  -23.7488  -30.5932   19.3865 H   0  0  0  0  0  0
  -22.7545  -29.2515   19.8537 H   0  0  0  0  0  0
  -25.1294  -36.1849   25.0815 H   0  0  0  0  0  0
  -21.0044  -28.3285   24.1334 H   0  0  0  0  0  0
  -20.5702  -26.2308   23.3573 H   0  0  0  0  0  0
  -21.6672  -26.7460   22.1180 H   0  0  0  0  0  0
  -19.6923  -25.6284   21.1240 H   0  0  0  0  0  0
  -19.6736  -27.3171   20.6683 H   0  0  0  0  0  0
  -17.4229  -26.6698   21.3997 H   0  0  0  0  0  0
  -18.0368  -26.0072   22.8990 H   0  0  0  0  0  0
  -19.7968  -30.7275   24.2251 H   0  0  0  0  0  0
  -17.5067  -31.6303   24.5130 H   0  0  0  0  0  0
  -15.5387  -30.3022   23.7704 H   0  0  0  0  0  0
  -15.8676  -28.0832   22.7152 H   0  0  0  0  0  0
  -24.5970  -30.7123   25.7875 H   0  0  0  0  0  0
  -24.9003  -32.3045   26.4740 H   0  0  0  0  0  0
  -25.8151  -30.9161   27.0261 H   0  0  0  0  0  0
  -26.2908  -29.6746   24.1231 H   0  0  0  0  0  0
  -27.3934  -29.7248   25.4787 H   0  0  0  0  0  0
  -27.8862  -30.4217   23.9534 H   0  0  0  0  0  0
  -27.2625  -33.3667   26.1991 H   0  0  0  0  0  0
  -28.3974  -32.6785   25.0459 H   0  0  0  0  0  0
  -28.0555  -31.8504   26.5562 H   0  0  0  0  0  0
  -28.2557  -38.0098   24.7538 H   0  0  0  0  0  0
  -28.1055  -36.2623   24.6241 H   0  0  0  0  0  0
  -27.2286  -37.1395   25.8869 H   0  0  0  0  0  0
  -20.9253  -29.8788   21.6834 H   0  0  0  0  0  0
  -26.0094  -38.2822   24.1499 H   0  0  0  0  0  0
  -25.9861  -18.0180   19.8602 H   0  0  0  0  0  0
  -26.8715  -20.2798   20.1465 H   0  0  0  0  0  0
  -27.4726  -16.1156   19.6729 H   0  0  0  0  0  0
  -30.8769  -18.6253   20.2921 H   0  0  0  0  0  0
  -29.0761  -17.5018   17.5792 H   0  0  0  0  0  0
  -30.2674  -16.8398   16.3522 H   0  0  0  0  0  0
  -31.2559  -15.3663   18.0171 H   0  0  0  0  0  0
  -28.3018  -23.2617   24.0093 H   0  0  0  0  0  0
  -27.1197  -23.9908   22.9169 H   0  0  0  0  0  0
  -30.1507  -23.8918   22.6559 H   0  0  0  0  0  0
  -29.1366  -25.3112   22.4492 H   0  0  0  0  0  0
  -30.0084  -23.9049   20.2878 H   0  0  0  0  0  0
  -29.6409  -21.4685   19.2997 H   0  0  0  0  0  0
  -30.4246  -21.2143   20.8195 H   0  0  0  0  0  0
  -27.0436  -24.7002   20.5607 H   0  0  0  0  0  0
  -27.9262  -24.6257   19.0719 H   0  0  0  0  0  0
  1 25  1  0  0  0
  1 30  2  0  0  0
  1 86  1  0  0  0
  2  3  1  0  0  0
  2 25  1  0  0  0
  2 88  1  0  0  0
  2 89  1  0  0  0
  3  4  1  0  0  0
  3 90  1  0  0  0
  3 91  1  0  0  0
  4  5  1  0  0  0
  4 92  1  0  0  0
  4 93  1  0  0  0
  5  6  1  0  0  0
  5 26  1  0  0  0
  5 94  1  0  0  0
  6 25  1  0  0  0
  6 95  1  0  0  0
  6 96  1  0  0  0
  7  8  2  0  0  0
  7 26  1  0  0  0
  7 29  1  0  0  0
  8  9  1  0  0  0
  8 22  1  0  0  0
  9 10  1  0  0  0
  9 27  2  0  0  0
 10 11  2  0  0  0
 10 15  1  0  0  0
 11 12  1  0  0  0
 11 97  1  0  0  0
 12 13  2  0  0  0
 12 98  1  0  0  0
 13 14  1  0  0  0
 13 31  1  0  0  0
 14 15  2  0  0  0
 14 99  1  0  0  0
 15100  1  0  0  0
 16 17  2  0  0  0
 16 21  1  0  0  0
 16 31  1  0  0  0
 17 18  1  0  0  0
 17101  1  0  0  0
 18 19  2  0  0  0
 18102  1  0  0  0
 19 20  1  0  0  0
 19 24  1  0  0  0
 20 21  2  0  0  0
 20103  1  0  0  0
 21 23  1  0  0  0
 22 28  1  0  0  0
 22 32  2  0  0  0
 26 27  1  0  0  0
 28104  1  0  0  0
 28105  1  0  0  0
 29106  1  0  0  0
 29107  1  0  0  0
 33 34  1  0  0  0
 33 66  1  0  0  0
 33 70  2  0  0  0
 34 36  1  0  0  0
 34 59  1  0  0  0
 34108  1  0  0  0
 35 44  2  0  0  0
 35 45  1  0  0  0
 35 68  1  0  0  0
 36 56  1  0  0  0
 36109  1  0  0  0
 37 39  1  0  0  0
 37 47  1  0  0  0
 37 66  1  0  0  0
 37110  1  0  0  0
 38 43  2  0  0  0
 38 46  1  0  0  0
 38 47  1  0  0  0
 39 64  1  0  0  0
 39 67  2  0  0  0
 40 52  1  0  0  0
 40 53  2  0  0  0
 40 58  1  0  0  0
 41111  1  0  0  0
 41112  1  0  0  0
 41113  1  0  0  0
 41 48  1  0  0  0
 42 43  1  0  0  0
 42 66  1  0  0  0
 42114  1  0  0  0
 42115  1  0  0  0
 43 44  1  0  0  0
 44116  1  0  0  0
 45 46  2  0  0  0
 45117  1  0  0  0
 46118  1  0  0  0
 47119  1  0  0  0
 47120  1  0  0  0
 48 56  1  0  0  0
 48 65  1  0  0  0
 48121  1  0  0  0
 49 50  1  0  0  0
 49 53  1  0  0  0
 49 64  1  0  0  0
 49122  1  0  0  0
 50 51  1  0  0  0
 50123  1  0  0  0
 50124  1  0  0  0
 51 52  1  0  0  0
 51125  1  0  0  0
 51126  1  0  0  0
 52127  1  0  0  0
 52128  1  0  0  0
 53 54  1  0  0  0
 54 55  2  0  0  0
 54129  1  0  0  0
 55 57  1  0  0  0
 55130  1  0  0  0
 56 69  2  0  0  0
 57 58  2  0  0  0
 57131  1  0  0  0
 58132  1  0  0  0
 59 60  1  0  0  0
 59 61  1  0  0  0
 59 62  1  0  0  0
 60133  1  0  0  0
 60134  1  0  0  0
 60135  1  0  0  0
 61136  1  0  0  0
 61137  1  0  0  0
 61138  1  0  0  0
 62139  1  0  0  0
 62140  1  0  0  0
 62141  1  0  0  0
 63 65  1  0  0  0
 63142  1  0  0  0
 63143  1  0  0  0
 63144  1  0  0  0
 64145  1  0  0  0
 65146  1  0  0  0
 68 84  1  0  0  0
 71 72  2  0  0  0
 71 73  1  0  0  0
 71147  1  0  0  0
 72 75  1  0  0  0
 72148  1  0  0  0
 73 76  2  0  0  0
 73149  1  0  0  0
 74 75  2  0  0  0
 74 76  1  0  0  0
 74150  1  0  0  0
 75 83  1  0  0  0
 76 86  1  0  0  0
 77 80  1  0  0  0
 77 85  1  0  0  0
 77 87  2  0  0  0
 78 79  2  0  0  0
 78151  1  0  0  0
 78152  1  0  0  0
 79 86  1  0  0  0
 79153  1  0  0  0
 80 81  1  0  0  0
 80154  1  0  0  0
 80155  1  0  0  0
 81 82  1  0  0  0
 81156  1  0  0  0
 81157  1  0  0  0
 82 84  1  0  0  0
 82 85  1  0  0  0
 82158  1  0  0  0
 83 85  1  0  0  0
 83159  1  0  0  0
 83160  1  0  0  0
 84161  1  0  0  0
 84162  1  0  0  0
M  ISO  4   1 100  68 101  84 101  86 100
M  END
> <chiral flag>
0

> <version>
0

> <s_m_source_file>
/data/baiqing/PycharmProjects/Reinvent-master-3.2/result/LINK_invent/BTK/process_docking_weight1_custom_product_contain_oxygen_bond_distance_aromatic_linkinvent_7_9_3/rearranged_h_0107.sdf

> <i_m_source_file_index>
68

> <r_mmod_Potential_Energy-OPLS-2005>
546.597045898438

> <r_mmod_Stretch_Energy-OPLS-2005>
137.871856689453

> <r_mmod_Bend_Energy-OPLS-2005>
220.365905761719

> <r_mmod_Torsional_Energy-OPLS-2005>
389.632080078125

> <r_mmod_Improper_Torsional_Energy-OPLS-2005>
36.517406463623

> <r_mmod_Van_der_Waal_Energy-OPLS-2005>
150.477264404297

> <r_mmod_Electrostatic_Energy-OPLS-2005>
-307.23291015625

> <r_mmod_Solvation_Energy-OPLS-2005>
-211.324890136719

> <b_mmod_Minimization_Converged-OPLS-2005>
0

> <r_mmod_RMS_Derivative-OPLS-2005>
5.5928521156311

$$$$
68
                    3D
 Structure written by MMmdl.
159167  0  0  1  0            999 V2000
  -30.7430  -14.3786   20.6760 C   0  0  0  0  0  0
  -30.4274  -12.2896   19.3979 C   0  0  0  0  0  0
  -29.4908  -12.5284   18.1964 C   0  0  0  0  0  0
  -28.0137  -12.3851   18.6078 C   0  0  0  0  0  0
  -27.6716  -13.1966   19.8840 C   0  0  2  0  0  0
  -28.7079  -12.9224   20.9967 C   0  0  0  0  0  0
  -25.2629  -13.8139   20.5656 C   0  0  0  0  0  0
  -24.1865  -13.0433   20.9158 C   0  0  0  0  0  0
  -24.6408  -11.6897   20.8728 C   0  0  0  0  0  0
  -23.9065  -10.4288   21.0403 C   0  0  0  0  0  0
  -24.3609   -9.4200   21.9184 C   0  0  0  0  0  0
  -23.6284   -8.2237   22.0753 C   0  0  0  0  0  0
  -22.4263   -8.0276   21.3547 C   0  0  0  0  0  0
  -21.9904   -9.0255   20.4650 C   0  0  0  0  0  0
  -22.7235  -10.2133   20.3059 C   0  0  0  0  0  0
  -21.6847   -6.0736   22.5290 C   0  0  0  0  0  0
  -21.4012   -6.5640   23.8226 C   0  0  0  0  0  0
  -21.3656   -5.6785   24.9185 C   0  0  0  0  0  0
  -21.6041   -4.3050   24.7230 C   0  0  0  0  0  0
  -21.8818   -3.8148   23.4352 C   0  0  0  0  0  0
  -21.9187   -4.6966   22.3409 C   0  0  0  0  0  0
  -22.7888  -13.5248   21.1820 C   0  0  0  0  0  0
  -22.1652   -4.2151   21.0985 F   0  0  0  0  0  0
  -21.5632   -3.4533   25.7742 F   0  0  0  0  0  0
  -30.0572  -13.2210   20.4731 N   0  0  0  0  0  0
  -26.3072  -12.9297   20.3382 N   0  0  0  0  0  0
  -25.9329  -11.6463   20.5755 N   0  0  0  0  0  0
  -22.0513  -12.8260   22.0380 N   0  0  0  0  0  0
  -25.4344  -15.1853   20.4042 N   0  0  0  0  0  0
  -31.7468  -14.6814   20.0213 O   0  0  0  0  0  0
  -21.6626   -6.8874   21.4249 O   0  0  0  0  0  0
  -22.3581  -14.5549   20.6655 O   0  0  0  0  0  0
  -24.6115  -31.8706   23.2131 C   0  0  0  0  0  0
  -25.9026  -32.4834   23.8412 C   0  0  1  0  0  0
  -27.2351  -27.4622   20.0760 C   0  0  0  0  0  0
  -25.5898  -33.8633   24.2343 N   0  0  0  0  0  0
  -23.3968  -30.4958   21.5541 C   0  0  2  0  0  0
  -24.8403  -28.9661   20.1161 C   0  0  0  0  0  0
  -22.7387  -29.4672   22.5013 C   0  0  0  0  0  0
  -18.0266  -28.1369   22.8496 C   0  0  0  0  0  0
  -24.1486  -36.7319   23.2632 C   0  0  0  0  0  0
  -25.9235  -30.8421   21.3635 C   0  0  0  0  0  0
  -25.9985  -29.4786   20.7110 C   0  0  0  0  0  0
  -27.1946  -28.7302   20.6948 C   0  0  0  0  0  0
  -26.0539  -26.9589   19.4786 C   0  0  0  0  0  0
  -24.8603  -27.7029   19.5022 C   0  0  0  0  0  0
  -23.6020  -29.8300   20.1677 C   0  0  0  0  0  0
  -25.4101  -36.3116   24.0339 C   0  0  1  0  0  0
  -20.5853  -28.3647   23.1333 C   0  0  2  0  0  0
  -20.6759  -26.9391   22.5417 C   0  0  0  0  0  0
  -19.5739  -26.6386   21.5212 C   0  0  0  0  0  0
  -18.1917  -26.7919   22.1626 C   0  0  0  0  0  0
  -19.1513  -28.8824   23.2914 C   0  0  0  0  0  0
  -18.9444  -30.1434   23.8920 C   0  0  0  0  0  0
  -17.6446  -30.6579   24.0564 C   0  0  0  0  0  0
  -25.9031  -34.9482   23.5138 C   0  0  0  0  0  0
  -16.5339  -29.9081   23.6323 C   0  0  0  0  0  0
  -16.7256  -28.6497   23.0347 C   0  0  0  0  0  0
  -26.4464  -31.6601   25.0726 C   0  0  0  0  0  0
  -25.3743  -31.3703   26.1484 C   0  0  0  0  0  0
  -27.0279  -30.3045   24.6080 C   0  0  0  0  0  0
  -27.6055  -32.4304   25.7481 C   0  0  0  0  0  0
  -27.5587  -37.1801   24.8454 C   0  0  0  0  0  0
  -21.4118  -29.3026   22.3747 N   0  0  0  0  0  0
  -26.4285  -37.3803   23.9421 N   0  0  0  0  0  0
  -24.6623  -31.0829   22.1027 N   0  0  0  0  0  0
  -23.4175  -28.8212   23.3039 O   0  0  0  0  0  0
  -28.4320  -26.7785   20.0814 O   0  0  0  0  0  0
  -26.5588  -34.8928   22.4695 O   0  0  0  0  0  0
  -23.5319  -32.1451   23.7549 O   0  0  0  0  0  0
  -30.9418  -18.7506   19.0128 C   0  0  0  0  0  0
  -30.3298  -17.6267   19.6440 C   0  0  0  0  0  0
  -30.8452  -17.3873   20.9027 C   0  0  0  0  0  0
  -31.8601  -19.3959   19.7976 C   0  0  0  0  0  0
  -30.4896  -16.4141   21.9750 C   0  0  0  0  0  0
  -31.0430  -22.5518   19.8942 C   0  0  0  0  0  0
  -29.2209  -16.8595   18.9852 C   0  0  0  0  0  0
  -32.5967  -20.6581   19.4729 C   0  0  0  0  0  0
  -29.9177  -23.3942   19.2889 C   0  0  0  0  0  0
  -29.7999  -24.8075   19.8902 C   0  0  0  0  0  0
  -28.4661  -25.4679   19.5283 C   0  0  0  0  0  0
  -30.2648  -15.1225   21.6849 N   0  0  0  0  0  0
  -31.6711  -21.7106   19.0663 N   0  0  0  0  0  0
  -30.3152  -16.8222   23.1261 O   0  0  0  0  0  0
  -31.3090  -22.6280   21.0957 O   0  0  0  0  0  0
  -32.0291  -18.5995   21.3389 S   0  0  0  0  0  0
  -31.4694  -12.3999   19.0905 H   0  0  0  0  0  0
  -30.3368  -11.2629   19.7557 H   0  0  0  0  0  0
  -29.7226  -11.8274   17.3936 H   0  0  0  0  0  0
  -29.6626  -13.5258   17.7899 H   0  0  0  0  0  0
  -27.8144  -11.3262   18.7765 H   0  0  0  0  0  0
  -27.3644  -12.6886   17.7856 H   0  0  0  0  0  0
  -27.7345  -14.2517   19.6223 H   0  0  0  0  0  0
  -28.6669  -11.8728   21.2934 H   0  0  0  0  0  0
  -28.4461  -13.4792   21.8965 H   0  0  0  0  0  0
  -25.2747   -9.5665   22.4770 H   0  0  0  0  0  0
  -23.9988   -7.4618   22.7466 H   0  0  0  0  0  0
  -21.0839   -8.8778   19.8955 H   0  0  0  0  0  0
  -22.3694  -10.9675   19.6172 H   0  0  0  0  0  0
  -21.2010   -7.6149   23.9735 H   0  0  0  0  0  0
  -21.1473   -6.0513   25.9090 H   0  0  0  0  0  0
  -22.0601   -2.7611   23.2851 H   0  0  0  0  0  0
  -22.4094  -11.9915   22.4784 H   0  0  0  0  0  0
  -21.1140  -13.1322   22.2570 H   0  0  0  0  0  0
  -24.6661  -15.8382   20.5137 H   0  0  0  0  0  0
  -26.2852  -15.6265   20.0798 H   0  0  0  0  0  0
  -26.7097  -32.5554   23.1179 H   0  0  0  0  0  0
  -25.0058  -33.9801   25.0495 H   0  0  0  0  0  0
  -22.6839  -31.3120   21.4186 H   0  0  0  0  0  0
  -23.3750  -35.9650   23.3284 H   0  0  0  0  0  0
  -24.3593  -36.8941   22.2050 H   0  0  0  0  0  0
  -23.7231  -37.6521   23.6648 H   0  0  0  0  0  0
  -26.0320  -31.6096   20.5962 H   0  0  0  0  0  0
  -26.8133  -30.8952   21.9789 H   0  0  0  0  0  0
  -28.0904  -29.1244   21.1535 H   0  0  0  0  0  0
  -26.0280  -26.0012   18.9802 H   0  0  0  0  0  0
  -23.9678  -27.3024   19.0405 H   0  0  0  0  0  0
  -23.7074  -30.6061   19.4084 H   0  0  0  0  0  0
  -22.7258  -29.2490   19.8737 H   0  0  0  0  0  0
  -25.1270  -36.1982   25.0831 H   0  0  0  0  0  0
  -20.9948  -28.3207   24.1453 H   0  0  0  0  0  0
  -20.5667  -26.2252   23.3593 H   0  0  0  0  0  0
  -21.6629  -26.7444   22.1207 H   0  0  0  0  0  0
  -19.6900  -25.6305   21.1220 H   0  0  0  0  0  0
  -19.6678  -27.3214   20.6756 H   0  0  0  0  0  0
  -17.4186  -26.6667   21.4028 H   0  0  0  0  0  0
  -18.0322  -26.0054   22.9017 H   0  0  0  0  0  0
  -19.7922  -30.7243   24.2303 H   0  0  0  0  0  0
  -17.5004  -31.6264   24.5158 H   0  0  0  0  0  0
  -15.5341  -30.2990   23.7635 H   0  0  0  0  0  0
  -15.8658  -28.0825   22.7050 H   0  0  0  0  0  0
  -24.5908  -30.7055   25.7827 H   0  0  0  0  0  0
  -24.8942  -32.2860   26.4949 H   0  0  0  0  0  0
  -25.8106  -30.8861   27.0230 H   0  0  0  0  0  0
  -26.2809  -29.6820   24.1135 H   0  0  0  0  0  0
  -27.4057  -29.7261   25.4522 H   0  0  0  0  0  0
  -27.8645  -30.4363   23.9211 H   0  0  0  0  0  0
  -27.2691  -33.3596   26.2090 H   0  0  0  0  0  0
  -28.3850  -32.6869   25.0295 H   0  0  0  0  0  0
  -28.0736  -31.8402   26.5370 H   0  0  0  0  0  0
  -28.2573  -38.0130   24.7555 H   0  0  0  0  0  0
  -28.1113  -36.2666   24.6204 H   0  0  0  0  0  0
  -27.2318  -37.1360   25.8858 H   0  0  0  0  0  0
  -20.9267  -29.8751   21.6979 H   0  0  0  0  0  0
  -26.0174  -38.2874   24.1458 H   0  0  0  0  0  0
  -30.6562  -19.0773   18.0219 H   0  0  0  0  0  0
  -28.6577  -17.4925   18.2988 H   0  0  0  0  0  0
  -28.5085  -16.4764   19.7147 H   0  0  0  0  0  0
  -29.6044  -16.0198   18.4064 H   0  0  0  0  0  0
  -33.2894  -20.4749   18.6514 H   0  0  0  0  0  0
  -33.2079  -20.9786   20.3188 H   0  0  0  0  0  0
  -28.9900  -22.8464   19.4586 H   0  0  0  0  0  0
  -30.0377  -23.4652   18.2071 H   0  0  0  0  0  0
  -30.6279  -25.4240   19.5381 H   0  0  0  0  0  0
  -29.8801  -24.7725   20.9776 H   0  0  0  0  0  0
  -27.6577  -24.8565   19.9334 H   0  0  0  0  0  0
  -28.3463  -25.5184   18.4447 H   0  0  0  0  0  0
  -29.6983  -14.6236   22.3499 H   0  0  0  0  0  0
  -31.4101  -21.7329   18.0895 H   0  0  0  0  0  0
  1 25  1  0  0  0
  1 30  2  0  0  0
  1 82  1  0  0  0
  2  3  1  0  0  0
  2 25  1  0  0  0
  2 87  1  0  0  0
  2 88  1  0  0  0
  3  4  1  0  0  0
  3 89  1  0  0  0
  3 90  1  0  0  0
  4  5  1  0  0  0
  4 91  1  0  0  0
  4 92  1  0  0  0
  5  6  1  0  0  0
  5 26  1  0  0  0
  5 93  1  0  0  0
  6 25  1  0  0  0
  6 94  1  0  0  0
  6 95  1  0  0  0
  7  8  2  0  0  0
  7 26  1  0  0  0
  7 29  1  0  0  0
  8  9  1  0  0  0
  8 22  1  0  0  0
  9 10  1  0  0  0
  9 27  2  0  0  0
 10 11  2  0  0  0
 10 15  1  0  0  0
 11 12  1  0  0  0
 11 96  1  0  0  0
 12 13  2  0  0  0
 12 97  1  0  0  0
 13 14  1  0  0  0
 13 31  1  0  0  0
 14 15  2  0  0  0
 14 98  1  0  0  0
 15 99  1  0  0  0
 16 17  2  0  0  0
 16 21  1  0  0  0
 16 31  1  0  0  0
 17 18  1  0  0  0
 17100  1  0  0  0
 18 19  2  0  0  0
 18101  1  0  0  0
 19 20  1  0  0  0
 19 24  1  0  0  0
 20 21  2  0  0  0
 20102  1  0  0  0
 21 23  1  0  0  0
 22 28  1  0  0  0
 22 32  2  0  0  0
 26 27  1  0  0  0
 28103  1  0  0  0
 28104  1  0  0  0
 29105  1  0  0  0
 29106  1  0  0  0
 33 34  1  0  0  0
 33 66  1  0  0  0
 33 70  2  0  0  0
 34 36  1  0  0  0
 34 59  1  0  0  0
 34107  1  0  0  0
 35 44  2  0  0  0
 35 45  1  0  0  0
 35 68  1  0  0  0
 36 56  1  0  0  0
 36108  1  0  0  0
 37 39  1  0  0  0
 37 47  1  0  0  0
 37 66  1  0  0  0
 37109  1  0  0  0
 38 43  2  0  0  0
 38 46  1  0  0  0
 38 47  1  0  0  0
 39 64  1  0  0  0
 39 67  2  0  0  0
 40 52  1  0  0  0
 40 53  2  0  0  0
 40 58  1  0  0  0
 41110  1  0  0  0
 41111  1  0  0  0
 41112  1  0  0  0
 41 48  1  0  0  0
 42 43  1  0  0  0
 42 66  1  0  0  0
 42113  1  0  0  0
 42114  1  0  0  0
 43 44  1  0  0  0
 44115  1  0  0  0
 45 46  2  0  0  0
 45116  1  0  0  0
 46117  1  0  0  0
 47118  1  0  0  0
 47119  1  0  0  0
 48 56  1  0  0  0
 48 65  1  0  0  0
 48120  1  0  0  0
 49 50  1  0  0  0
 49 53  1  0  0  0
 49 64  1  0  0  0
 49121  1  0  0  0
 50 51  1  0  0  0
 50122  1  0  0  0
 50123  1  0  0  0
 51 52  1  0  0  0
 51124  1  0  0  0
 51125  1  0  0  0
 52126  1  0  0  0
 52127  1  0  0  0
 53 54  1  0  0  0
 54 55  2  0  0  0
 54128  1  0  0  0
 55 57  1  0  0  0
 55129  1  0  0  0
 56 69  2  0  0  0
 57 58  2  0  0  0
 57130  1  0  0  0
 58131  1  0  0  0
 59 60  1  0  0  0
 59 61  1  0  0  0
 59 62  1  0  0  0
 60132  1  0  0  0
 60133  1  0  0  0
 60134  1  0  0  0
 61135  1  0  0  0
 61136  1  0  0  0
 61137  1  0  0  0
 62138  1  0  0  0
 62139  1  0  0  0
 62140  1  0  0  0
 63 65  1  0  0  0
 63141  1  0  0  0
 63142  1  0  0  0
 63143  1  0  0  0
 64144  1  0  0  0
 65145  1  0  0  0
 68 81  1  0  0  0
 71 72  1  0  0  0
 71 74  2  0  0  0
 71146  1  0  0  0
 72 73  2  0  0  0
 72 77  1  0  0  0
 73 75  1  0  0  0
 73 86  1  0  0  0
 74 78  1  0  0  0
 74 86  1  0  0  0
 75 82  1  0  0  0
 75 84  2  0  0  0
 76 79  1  0  0  0
 76 83  1  0  0  0
 76 85  2  0  0  0
 77147  1  0  0  0
 77148  1  0  0  0
 77149  1  0  0  0
 78 83  1  0  0  0
 78150  1  0  0  0
 78151  1  0  0  0
 79 80  1  0  0  0
 79152  1  0  0  0
 79153  1  0  0  0
 80 81  1  0  0  0
 80154  1  0  0  0
 80155  1  0  0  0
 81156  1  0  0  0
 81157  1  0  0  0
 82158  1  0  0  0
 83159  1  0  0  0
M  ISO  4   1 100  68 101  81 101  82 100
M  END
> <chiral flag>
0

> <version>
0

> <s_m_source_file>
/data/baiqing/PycharmProjects/Reinvent-master-3.2/result/LINK_invent/BTK/process_docking_weight1_custom_product_contain_oxygen_bond_distance_aromatic_linkinvent_7_9_3/rearranged_h_0107.sdf

> <i_m_source_file_index>
69

> <r_mmod_Potential_Energy-OPLS-2005>
-245.295776367188

> <r_mmod_Stretch_Energy-OPLS-2005>
31.5894737243652

> <r_mmod_Bend_Energy-OPLS-2005>
103.457527160645

> <r_mmod_Torsional_Energy-OPLS-2005>
224.65168762207

> <r_mmod_Improper_Torsional_Energy-OPLS-2005>
3.66576433181763

> <r_mmod_Van_der_Waal_Energy-OPLS-2005>
135.697662353516

> <r_mmod_Electrostatic_Energy-OPLS-2005>
-501.862243652344

> <r_mmod_Solvation_Energy-OPLS-2005>
-250.538925170898

> <b_mmod_Minimization_Converged-OPLS-2005>
0

> <r_mmod_RMS_Derivative-OPLS-2005>
1.08421385288239

$$$$
69
                    3D
 Structure written by MMmdl.
162170  0  0  1  0            999 V2000
  -30.9115  -14.4479   20.6011 C   0  0  0  0  0  0
  -31.0515  -12.4352   19.1518 C   0  0  0  0  0  0
  -29.7049  -12.1952   17.6890 C   0  0  0  0  0  0
  -27.8024  -12.5366   18.1211 C   0  0  0  0  0  0
  -27.3772  -13.2321   19.9041 C   0  0  2  0  0  0
  -28.7582  -13.3296   21.2711 C   0  0  0  0  0  0
  -25.1049  -13.8170   20.6407 C   0  0  0  0  0  0
  -24.0619  -13.0236   20.9674 C   0  0  0  0  0  0
  -24.5361  -11.6769   20.9061 C   0  0  0  0  0  0
  -23.8428  -10.4119   21.0569 C   0  0  0  0  0  0
  -24.3254   -9.4102   21.9257 C   0  0  0  0  0  0
  -23.6106   -8.2057   22.0741 C   0  0  0  0  0  0
  -22.4105   -8.0057   21.3510 C   0  0  0  0  0  0
  -21.9604   -8.9959   20.4620 C   0  0  0  0  0  0
  -22.6743  -10.1915   20.3097 C   0  0  0  0  0  0
  -21.6789   -6.0600   22.5283 C   0  0  0  0  0  0
  -21.3972   -6.5567   23.8196 C   0  0  0  0  0  0
  -21.3646   -5.6758   24.9183 C   0  0  0  0  0  0
  -21.6037   -4.3016   24.7266 C   0  0  0  0  0  0
  -21.8825   -3.8065   23.4408 C   0  0  0  0  0  0
  -21.9177   -4.6844   22.3440 C   0  0  0  0  0  0
  -22.6773  -13.5037   21.2182 C   0  0  0  0  0  0
  -22.1665   -4.2025   21.1021 F   0  0  0  0  0  0
  -21.5629   -3.4532   25.7802 F   0  0  0  0  0  0
  -30.4806  -13.1847   20.7255 N   0  0  0  0  0  0
  -26.1170  -12.9227   20.3872 N   0  0  0  0  0  0
  -25.8077  -11.6375   20.5881 N   0  0  0  0  0  0
  -21.9483  -12.8048   22.0743 N   0  0  0  0  0  0
  -25.2515  -15.2023   20.5102 N   0  0  0  0  0  0
  -32.0748  -14.7846   20.4083 O   0  0  0  0  0  0
  -21.6541   -6.8649   21.4206 O   0  0  0  0  0  0
  -22.2622  -14.5378   20.6958 O   0  0  0  0  0  0
  -24.6163  -31.8649   23.2072 C   0  0  0  0  0  0
  -25.9043  -32.4807   23.8382 C   0  0  1  0  0  0
  -27.2467  -27.4178   20.0630 C   0  0  0  0  0  0
  -25.5889  -33.8607   24.2314 N   0  0  0  0  0  0
  -23.4064  -30.4858   21.5505 C   0  0  2  0  0  0
  -24.8500  -28.9438   20.1172 C   0  0  0  0  0  0
  -22.7433  -29.4622   22.5004 C   0  0  0  0  0  0
  -18.0275  -28.1369   22.8495 C   0  0  0  0  0  0
  -24.1484  -36.7312   23.2646 C   0  0  0  0  0  0
  -25.9373  -30.8181   21.3653 C   0  0  0  0  0  0
  -26.0115  -29.4508   20.7104 C   0  0  0  0  0  0
  -27.2070  -28.6935   20.6823 C   0  0  0  0  0  0
  -26.0533  -26.9173   19.4928 C   0  0  0  0  0  0
  -24.8656  -27.6750   19.5123 C   0  0  0  0  0  0
  -23.6148  -29.8155   20.1657 C   0  0  0  0  0  0
  -25.4107  -36.3111   24.0345 C   0  0  1  0  0  0
  -20.5863  -28.3648   23.1323 C   0  0  2  0  0  0
  -20.6758  -26.9383   22.5423 C   0  0  0  0  0  0
  -19.5739  -26.6373   21.5217 C   0  0  0  0  0  0
  -18.1919  -26.7915   22.1629 C   0  0  0  0  0  0
  -19.1525  -28.8830   23.2901 C   0  0  0  0  0  0
  -18.9452  -30.1437   23.8909 C   0  0  0  0  0  0
  -17.6454  -30.6577   24.0558 C   0  0  0  0  0  0
  -25.9034  -34.9473   23.5135 C   0  0  0  0  0  0
  -16.5345  -29.9077   23.6318 C   0  0  0  0  0  0
  -16.7266  -28.6491   23.0350 C   0  0  0  0  0  0
  -26.4466  -31.6596   25.0723 C   0  0  0  0  0  0
  -25.3741  -31.3684   26.1480 C   0  0  0  0  0  0
  -27.0304  -30.3050   24.6089 C   0  0  0  0  0  0
  -27.6041  -32.4329   25.7479 C   0  0  0  0  0  0
  -27.5585  -37.1810   24.8473 C   0  0  0  0  0  0
  -21.4161  -29.3011   22.3743 N   0  0  0  0  0  0
  -26.4298  -37.3794   23.9413 N   0  0  0  0  0  0
  -24.6719  -31.0721   22.0986 N   0  0  0  0  0  0
  -23.4196  -28.8172   23.3061 O   0  0  0  0  0  0
  -28.4509  -26.7291   20.0436 O   0  0  0  0  0  0
  -26.5609  -34.8931   22.4705 O   0  0  0  0  0  0
  -23.5348  -32.1421   23.7443 O   0  0  0  0  0  0
  -29.8521  -18.4527   19.4394 C   0  0  0  0  0  0
  -29.7780  -19.8819   19.4421 C   0  0  0  0  0  0
  -28.6334  -18.4196   21.5351 C   0  0  0  0  0  0
  -29.2697  -17.7059   20.4954 C   0  0  0  0  0  0
  -28.5759  -19.8214   21.5490 C   0  0  0  0  0  0
  -29.1364  -20.5813   20.5037 C   0  0  0  0  0  0
  -29.0232  -11.5183   19.8318 C   0  0  0  0  0  0
  -29.1420  -16.1744   20.6264 C   0  0  0  0  0  0
  -28.5876  -24.2481   20.1993 C   0  0  0  0  0  0
  -29.3619  -14.0833   19.0378 C   0  0  0  0  0  0
  -28.6338  -25.5054   19.2927 C   0  0  0  0  0  0
  -29.0629  -22.8913   19.5874 C   0  0  0  0  0  0
  -27.9420  -20.4683   22.6091 N   0  0  0  0  0  0
  -29.9599  -15.1146   19.9521 N   0  0  0  0  0  0
  -29.0332  -21.9567   20.6694 O   0  0  0  0  0  0
  -31.8909  -12.9918   18.7283 H   0  0  0  0  0  0
  -31.5343  -11.4811   19.3751 H   0  0  0  0  0  0
  -29.8097  -11.1947   17.2653 H   0  0  0  0  0  0
  -29.9868  -12.8002   16.8236 H   0  0  0  0  0  0
  -27.2422  -11.6106   17.9734 H   0  0  0  0  0  0
  -27.3656  -13.1914   17.3648 H   0  0  0  0  0  0
  -27.1722  -14.2597   19.6659 H   0  0  0  0  0  0
  -28.6036  -12.5329   22.0032 H   0  0  0  0  0  0
  -28.5641  -14.1469   21.9563 H   0  0  0  0  0  0
  -25.2362   -9.5708   22.4852 H   0  0  0  0  0  0
  -23.9872   -7.4449   22.7422 H   0  0  0  0  0  0
  -21.0550   -8.8357   19.8935 H   0  0  0  0  0  0
  -22.3108  -10.9461   19.6262 H   0  0  0  0  0  0
  -21.1956   -7.6079   23.9651 H   0  0  0  0  0  0
  -21.1480   -6.0523   25.9077 H   0  0  0  0  0  0
  -22.0628   -2.7524   23.2955 H   0  0  0  0  0  0
  -22.3144  -11.9741   22.5145 H   0  0  0  0  0  0
  -21.0109  -13.1061   22.2985 H   0  0  0  0  0  0
  -24.4680  -15.8357   20.6233 H   0  0  0  0  0  0
  -26.0866  -15.6648   20.1780 H   0  0  0  0  0  0
  -26.7110  -32.5498   23.1134 H   0  0  0  0  0  0
  -25.0033  -33.9755   25.0455 H   0  0  0  0  0  0
  -22.6957  -31.3022   21.4093 H   0  0  0  0  0  0
  -23.3743  -35.9648   23.3327 H   0  0  0  0  0  0
  -24.3579  -36.8907   22.2058 H   0  0  0  0  0  0
  -23.7235  -37.6525   23.6643 H   0  0  0  0  0  0
  -26.0581  -31.5813   20.5956 H   0  0  0  0  0  0
  -26.8226  -30.8675   21.9875 H   0  0  0  0  0  0
  -28.1085  -29.0908   21.1280 H   0  0  0  0  0  0
  -26.0119  -25.9432   19.0305 H   0  0  0  0  0  0
  -23.9691  -27.2731   19.0601 H   0  0  0  0  0  0
  -23.7275  -30.5901   19.4061 H   0  0  0  0  0  0
  -22.7370  -29.2389   19.8690 H   0  0  0  0  0  0
  -25.1276  -36.1994   25.0839 H   0  0  0  0  0  0
  -20.9941  -28.3204   24.1451 H   0  0  0  0  0  0
  -20.5650  -26.2258   23.3612 H   0  0  0  0  0  0
  -21.6627  -26.7417   22.1221 H   0  0  0  0  0  0
  -19.6895  -25.6285   21.1243 H   0  0  0  0  0  0
  -19.6680  -27.3186   20.6751 H   0  0  0  0  0  0
  -17.4190  -26.6667   21.4033 H   0  0  0  0  0  0
  -18.0317  -26.0052   22.9021 H   0  0  0  0  0  0
  -19.7929  -30.7245   24.2293 H   0  0  0  0  0  0
  -17.5008  -31.6262   24.5151 H   0  0  0  0  0  0
  -15.5343  -30.2982   23.7629 H   0  0  0  0  0  0
  -15.8669  -28.0806   22.7062 H   0  0  0  0  0  0
  -24.5896  -30.7055   25.7818 H   0  0  0  0  0  0
  -24.8951  -32.2828   26.4992 H   0  0  0  0  0  0
  -25.8108  -30.8810   27.0207 H   0  0  0  0  0  0
  -26.2841  -29.6812   24.1160 H   0  0  0  0  0  0
  -27.4113  -29.7285   25.4530 H   0  0  0  0  0  0
  -27.8658  -30.4394   23.9214 H   0  0  0  0  0  0
  -27.2643  -33.3595   26.2113 H   0  0  0  0  0  0
  -28.3803  -32.6950   25.0279 H   0  0  0  0  0  0
  -28.0763  -31.8432   26.5344 H   0  0  0  0  0  0
  -28.2613  -38.0098   24.7515 H   0  0  0  0  0  0
  -28.1069  -36.2632   24.6303 H   0  0  0  0  0  0
  -27.2307  -37.1471   25.8878 H   0  0  0  0  0  0
  -20.9340  -29.8750   21.6967 H   0  0  0  0  0  0
  -26.0197  -38.2881   24.1399 H   0  0  0  0  0  0
  -30.3389  -17.9432   18.6191 H   0  0  0  0  0  0
  -30.2317  -20.4332   18.6316 H   0  0  0  0  0  0
  -28.1534  -17.8744   22.3367 H   0  0  0  0  0  0
  -28.9378  -10.6737   19.1368 H   0  0  0  0  0  0
  -28.1703  -11.1777   20.4188 H   0  0  0  0  0  0
  -29.7472  -11.0347   20.5031 H   0  0  0  0  0  0
  -28.0873  -15.9732   20.4671 H   0  0  0  0  0  0
  -29.2981  -16.0395   21.6985 H   0  0  0  0  0  0
  -27.5731  -24.1322   20.5831 H   0  0  0  0  0  0
  -29.2096  -24.4514   21.0713 H   0  0  0  0  0  0
  -28.6255  -14.6591   18.4650 H   0  0  0  0  0  0
  -30.0918  -14.3383   18.2527 H   0  0  0  0  0  0
  -27.9684  -25.4102   18.4355 H   0  0  0  0  0  0
  -29.6325  -25.5719   18.8591 H   0  0  0  0  0  0
  -30.0765  -22.9743   19.1929 H   0  0  0  0  0  0
  -28.4038  -22.5767   18.7772 H   0  0  0  0  0  0
  -27.9371  -20.0069   23.5124 H   0  0  0  0  0  0
  -28.1093  -21.4680   22.6743 H   0  0  0  0  0  0
  1 25  1  0  0  0
  1 30  2  0  0  0
  1 84  1  0  0  0
  2  3  1  0  0  0
  2 25  1  0  0  0
  2 86  1  0  0  0
  2 87  1  0  0  0
  3  4  1  0  0  0
  3 88  1  0  0  0
  3 89  1  0  0  0
  4  5  1  0  0  0
  4 90  1  0  0  0
  4 91  1  0  0  0
  5  6  1  0  0  0
  5 26  1  0  0  0
  5 92  1  0  0  0
  6 25  1  0  0  0
  6 93  1  0  0  0
  6 94  1  0  0  0
  7  8  2  0  0  0
  7 26  1  0  0  0
  7 29  1  0  0  0
  8  9  1  0  0  0
  8 22  1  0  0  0
  9 10  1  0  0  0
  9 27  2  0  0  0
 10 11  2  0  0  0
 10 15  1  0  0  0
 11 12  1  0  0  0
 11 95  1  0  0  0
 12 13  2  0  0  0
 12 96  1  0  0  0
 13 14  1  0  0  0
 13 31  1  0  0  0
 14 15  2  0  0  0
 14 97  1  0  0  0
 15 98  1  0  0  0
 16 17  2  0  0  0
 16 21  1  0  0  0
 16 31  1  0  0  0
 17 18  1  0  0  0
 17 99  1  0  0  0
 18 19  2  0  0  0
 18100  1  0  0  0
 19 20  1  0  0  0
 19 24  1  0  0  0
 20 21  2  0  0  0
 20101  1  0  0  0
 21 23  1  0  0  0
 22 28  1  0  0  0
 22 32  2  0  0  0
 26 27  1  0  0  0
 28102  1  0  0  0
 28103  1  0  0  0
 29104  1  0  0  0
 29105  1  0  0  0
 33 34  1  0  0  0
 33 66  1  0  0  0
 33 70  2  0  0  0
 34 36  1  0  0  0
 34 59  1  0  0  0
 34106  1  0  0  0
 35 44  2  0  0  0
 35 45  1  0  0  0
 35 68  1  0  0  0
 36 56  1  0  0  0
 36107  1  0  0  0
 37 39  1  0  0  0
 37 47  1  0  0  0
 37 66  1  0  0  0
 37108  1  0  0  0
 38 43  2  0  0  0
 38 46  1  0  0  0
 38 47  1  0  0  0
 39 64  1  0  0  0
 39 67  2  0  0  0
 40 52  1  0  0  0
 40 53  2  0  0  0
 40 58  1  0  0  0
 41109  1  0  0  0
 41110  1  0  0  0
 41111  1  0  0  0
 41 48  1  0  0  0
 42 43  1  0  0  0
 42 66  1  0  0  0
 42112  1  0  0  0
 42113  1  0  0  0
 43 44  1  0  0  0
 44114  1  0  0  0
 45 46  2  0  0  0
 45115  1  0  0  0
 46116  1  0  0  0
 47117  1  0  0  0
 47118  1  0  0  0
 48 56  1  0  0  0
 48 65  1  0  0  0
 48119  1  0  0  0
 49 50  1  0  0  0
 49 53  1  0  0  0
 49 64  1  0  0  0
 49120  1  0  0  0
 50 51  1  0  0  0
 50121  1  0  0  0
 50122  1  0  0  0
 51 52  1  0  0  0
 51123  1  0  0  0
 51124  1  0  0  0
 52125  1  0  0  0
 52126  1  0  0  0
 53 54  1  0  0  0
 54 55  2  0  0  0
 54127  1  0  0  0
 55 57  1  0  0  0
 55128  1  0  0  0
 56 69  2  0  0  0
 57 58  2  0  0  0
 57129  1  0  0  0
 58130  1  0  0  0
 59 60  1  0  0  0
 59 61  1  0  0  0
 59 62  1  0  0  0
 60131  1  0  0  0
 60132  1  0  0  0
 60133  1  0  0  0
 61134  1  0  0  0
 61135  1  0  0  0
 61136  1  0  0  0
 62137  1  0  0  0
 62138  1  0  0  0
 62139  1  0  0  0
 63 65  1  0  0  0
 63140  1  0  0  0
 63141  1  0  0  0
 63142  1  0  0  0
 64143  1  0  0  0
 65144  1  0  0  0
 68 81  1  0  0  0
 71 72  2  0  0  0
 71 74  1  0  0  0
 71145  1  0  0  0
 72 76  1  0  0  0
 72146  1  0  0  0
 73 74  2  0  0  0
 73 75  1  0  0  0
 73147  1  0  0  0
 74 78  1  0  0  0
 75 76  2  0  0  0
 75 83  1  0  0  0
 76 85  1  0  0  0
 77 80  1  0  0  0
 77148  1  0  0  0
 77149  1  0  0  0
 77150  1  0  0  0
 78 84  1  0  0  0
 78151  1  0  0  0
 78152  1  0  0  0
 79 81  1  0  0  0
 79 82  1  0  0  0
 79153  1  0  0  0
 79154  1  0  0  0
 80 84  1  0  0  0
 80155  1  0  0  0
 80156  1  0  0  0
 81157  1  0  0  0
 81158  1  0  0  0
 82 85  1  0  0  0
 82159  1  0  0  0
 82160  1  0  0  0
 83161  1  0  0  0
 83162  1  0  0  0
M  ISO  4   1 100  68 101  81 101  84 100
M  END
> <chiral flag>
0

> <version>
0

> <s_m_source_file>
/data/baiqing/PycharmProjects/Reinvent-master-3.2/result/LINK_invent/BTK/process_docking_weight1_custom_product_contain_oxygen_bond_distance_aromatic_linkinvent_7_9_3/rearranged_h_0107.sdf

> <i_m_source_file_index>
70

> <r_mmod_Potential_Energy-OPLS-2005>
5101.6513671875

> <r_mmod_Stretch_Energy-OPLS-2005>
2884.3720703125

> <r_mmod_Bend_Energy-OPLS-2005>
390.643157958984

> <r_mmod_Torsional_Energy-OPLS-2005>
372.509002685547

> <r_mmod_Improper_Torsional_Energy-OPLS-2005>
39.0788917541504

> <r_mmod_Van_der_Waal_Energy-OPLS-2005>
1744.26647949219

> <r_mmod_Electrostatic_Energy-OPLS-2005>
-334.424926757812

> <r_mmod_Solvation_Energy-OPLS-2005>
-222.001724243164

> <b_mmod_Minimization_Converged-OPLS-2005>
0

> <r_mmod_RMS_Derivative-OPLS-2005>
1.57647621631622

$$$$
70
                    3D
 Structure written by MMmdl.
168177  0  0  1  0            999 V2000
  -30.7230  -14.5201   20.5420 C   0  0  0  0  0  0
  -30.4102  -12.3285   19.4444 C   0  0  0  0  0  0
  -29.4943  -12.5036   18.2166 C   0  0  0  0  0  0
  -28.0171  -12.3618   18.6274 C   0  0  0  0  0  0
  -27.6549  -13.2214   19.8693 C   0  0  2  0  0  0
  -28.6981  -13.0620   20.9999 C   0  0  0  0  0  0
  -25.2552  -13.8191   20.5689 C   0  0  0  0  0  0
  -24.1820  -13.0446   20.9181 C   0  0  0  0  0  0
  -24.6397  -11.6919   20.8738 C   0  0  0  0  0  0
  -23.9070  -10.4299   21.0395 C   0  0  0  0  0  0
  -24.3622   -9.4214   21.9173 C   0  0  0  0  0  0
  -23.6298   -8.2247   22.0749 C   0  0  0  0  0  0
  -22.4280   -8.0280   21.3542 C   0  0  0  0  0  0
  -21.9914   -9.0254   20.4643 C   0  0  0  0  0  0
  -22.7243  -10.2133   20.3047 C   0  0  0  0  0  0
  -21.6858   -6.0735   22.5275 C   0  0  0  0  0  0
  -21.4011   -6.5639   23.8209 C   0  0  0  0  0  0
  -21.3660   -5.6791   24.9173 C   0  0  0  0  0  0
  -21.6041   -4.3052   24.7224 C   0  0  0  0  0  0
  -21.8822   -3.8144   23.4346 C   0  0  0  0  0  0
  -21.9196   -4.6962   22.3402 C   0  0  0  0  0  0
  -22.7843  -13.5232   21.1852 C   0  0  0  0  0  0
  -22.1663   -4.2147   21.0980 F   0  0  0  0  0  0
  -21.5633   -3.4535   25.7735 F   0  0  0  0  0  0
  -30.0242  -13.3521   20.4345 N   0  0  0  0  0  0
  -26.2994  -12.9387   20.3358 N   0  0  0  0  0  0
  -25.9332  -11.6535   20.5782 N   0  0  0  0  0  0
  -22.0497  -12.8207   22.0405 N   0  0  0  0  0  0
  -25.4272  -15.1911   20.4092 N   0  0  0  0  0  0
  -31.8567  -14.6183   20.0688 O   0  0  0  0  0  0
  -21.6645   -6.8877   21.4237 O   0  0  0  0  0  0
  -22.3526  -14.5548   20.6723 O   0  0  0  0  0  0
  -24.6185  -31.8663   23.2093 C   0  0  0  0  0  0
  -25.9060  -32.4816   23.8398 C   0  0  1  0  0  0
  -27.2214  -27.4026   20.0993 C   0  0  0  0  0  0
  -25.5908  -33.8615   24.2329 N   0  0  0  0  0  0
  -23.4090  -30.4925   21.5488 C   0  0  2  0  0  0
  -24.8565  -28.9642   20.1040 C   0  0  0  0  0  0
  -22.7439  -29.4660   22.4956 C   0  0  0  0  0  0
  -18.0276  -28.1389   22.8502 C   0  0  0  0  0  0
  -24.1473  -36.7296   23.2637 C   0  0  0  0  0  0
  -25.9431  -30.8229   21.3682 C   0  0  0  0  0  0
  -26.0208  -29.4587   20.7080 C   0  0  0  0  0  0
  -27.2110  -28.6850   20.7045 C   0  0  0  0  0  0
  -26.0450  -26.9467   19.4635 C   0  0  0  0  0  0
  -24.8652  -27.7097   19.4737 C   0  0  0  0  0  0
  -23.6184  -29.8314   20.1611 C   0  0  0  0  0  0
  -25.4091  -36.3109   24.0355 C   0  0  1  0  0  0
  -20.5873  -28.3683   23.1301 C   0  0  2  0  0  0
  -20.6765  -26.9416   22.5413 C   0  0  0  0  0  0
  -19.5741  -26.6390   21.5221 C   0  0  0  0  0  0
  -18.1919  -26.7936   22.1631 C   0  0  0  0  0  0
  -19.1527  -28.8851   23.2906 C   0  0  0  0  0  0
  -18.9452  -30.1454   23.8920 C   0  0  0  0  0  0
  -17.6455  -30.6596   24.0567 C   0  0  0  0  0  0
  -25.9035  -34.9481   23.5139 C   0  0  0  0  0  0
  -16.5346  -29.9096   23.6334 C   0  0  0  0  0  0
  -16.7263  -28.6508   23.0365 C   0  0  0  0  0  0
  -26.4486  -31.6602   25.0730 C   0  0  0  0  0  0
  -25.3752  -31.3707   26.1477 C   0  0  0  0  0  0
  -27.0313  -30.3035   24.6123 C   0  0  0  0  0  0
  -27.6055  -32.4332   25.7490 C   0  0  0  0  0  0
  -27.5590  -37.1775   24.8453 C   0  0  0  0  0  0
  -21.4160  -29.3048   22.3702 N   0  0  0  0  0  0
  -26.4265  -37.3809   23.9455 N   0  0  0  0  0  0
  -24.6753  -31.0743   22.0997 N   0  0  0  0  0  0
  -23.4200  -28.8192   23.3001 O   0  0  0  0  0  0
  -28.3033  -26.5402   20.1780 O   0  0  0  0  0  0
  -26.5594  -34.8943   22.4697 O   0  0  0  0  0  0
  -23.5366  -32.1421   23.7465 O   0  0  0  0  0  0
  -31.4962  -19.6417   21.4996 C   0  0  0  0  0  0
  -31.9309  -17.2546   21.2826 C   0  0  0  0  0  0
  -29.6426  -18.0747   21.2345 C   0  0  0  0  0  0
  -32.4112  -18.5697   21.4441 C   0  0  0  0  0  0
  -30.1053  -19.4175   21.4089 C   0  0  0  0  0  0
  -30.5474  -16.9708   21.1622 C   0  0  0  0  0  0
  -28.5558  -24.0981   20.5193 C   0  0  0  0  0  0
  -27.9849  -25.3092   20.7428 C   0  0  0  0  0  0
  -33.8920  -18.8066   21.5479 C   0  0  0  0  0  0
  -29.7623  -23.7732   19.6799 C   0  0  0  0  0  0
  -30.2159  -22.4037   20.2289 C   0  0  0  0  0  0
  -28.0475  -22.7833   21.1201 C   0  0  1  0  0  0
  -26.2648  -22.4211   19.2577 C   0  0  0  0  0  0
  -29.1446  -20.5992   21.6947 C   0  0  0  0  0  0
  -26.5737  -22.4782   20.7639 C   0  0  0  0  0  0
  -34.2783  -19.7924   22.3461 N   0  0  0  0  0  0
  -30.0639  -15.6076   21.0314 N   0  0  0  0  0  0
  -28.9867  -21.7013   20.6807 N   0  3  2  0  0  0
  -34.7042  -18.0839   20.9728 O   0  0  0  0  0  0
  -31.4577  -12.3974   19.1457 H   0  0  0  0  0  0
  -30.2942  -11.3306   19.8708 H   0  0  0  0  0  0
  -29.7426  -11.7682   17.4502 H   0  0  0  0  0  0
  -29.6601  -13.4840   17.7655 H   0  0  0  0  0  0
  -27.8340  -11.3080   18.8391 H   0  0  0  0  0  0
  -27.3667  -12.6173   17.7899 H   0  0  0  0  0  0
  -27.6813  -14.2622   19.5442 H   0  0  0  0  0  0
  -28.6795  -12.0463   21.3981 H   0  0  0  0  0  0
  -28.4619  -13.7156   21.8406 H   0  0  0  0  0  0
  -25.2771   -9.5690   22.4742 H   0  0  0  0  0  0
  -24.0008   -7.4640   22.7470 H   0  0  0  0  0  0
  -21.0847   -8.8773   19.8954 H   0  0  0  0  0  0
  -22.3703  -10.9666   19.6151 H   0  0  0  0  0  0
  -21.1996   -7.6147   23.9712 H   0  0  0  0  0  0
  -21.1476   -6.0521   25.9077 H   0  0  0  0  0  0
  -22.0601   -2.7605   23.2845 H   0  0  0  0  0  0
  -22.4119  -11.9855   22.4761 H   0  0  0  0  0  0
  -21.1112  -13.1214   22.2631 H   0  0  0  0  0  0
  -24.6612  -15.8477   20.5131 H   0  0  0  0  0  0
  -26.2795  -15.6263   20.0800 H   0  0  0  0  0  0
  -26.7126  -32.5519   23.1156 H   0  0  0  0  0  0
  -25.0085  -33.9771   25.0494 H   0  0  0  0  0  0
  -22.6999  -31.3115   21.4104 H   0  0  0  0  0  0
  -23.3771  -35.9588   23.3244 H   0  0  0  0  0  0
  -24.3591  -36.8956   22.2064 H   0  0  0  0  0  0
  -23.7169  -37.6465   23.6670 H   0  0  0  0  0  0
  -26.0623  -31.5911   20.6034 H   0  0  0  0  0  0
  -26.8282  -30.8715   21.9903 H   0  0  0  0  0  0
  -28.1031  -29.0473   21.1961 H   0  0  0  0  0  0
  -26.0318  -25.9782   18.9841 H   0  0  0  0  0  0
  -23.9730  -27.3256   18.9987 H   0  0  0  0  0  0
  -23.7246  -30.6096   19.4044 H   0  0  0  0  0  0
  -22.7424  -29.2519   19.8638 H   0  0  0  0  0  0
  -25.1257  -36.1959   25.0843 H   0  0  0  0  0  0
  -20.9979  -28.3242   24.1418 H   0  0  0  0  0  0
  -20.5672  -26.2297   23.3606 H   0  0  0  0  0  0
  -21.6630  -26.7453   22.1191 H   0  0  0  0  0  0
  -19.6895  -25.6306   21.1243 H   0  0  0  0  0  0
  -19.6677  -27.3212   20.6761 H   0  0  0  0  0  0
  -17.4192  -26.6710   21.4024 H   0  0  0  0  0  0
  -18.0298  -26.0069   22.9012 H   0  0  0  0  0  0
  -19.7928  -30.7263   24.2302 H   0  0  0  0  0  0
  -17.5011  -31.6284   24.5154 H   0  0  0  0  0  0
  -15.5346  -30.3008   23.7656 H   0  0  0  0  0  0
  -15.8658  -28.0835   22.7082 H   0  0  0  0  0  0
  -24.5930  -30.7051   25.7813 H   0  0  0  0  0  0
  -24.8943  -32.2858   26.4941 H   0  0  0  0  0  0
  -25.8108  -30.8868   27.0227 H   0  0  0  0  0  0
  -26.2852  -29.6790   24.1189 H   0  0  0  0  0  0
  -27.4080  -29.7285   25.4592 H   0  0  0  0  0  0
  -27.8700  -30.4339   23.9280 H   0  0  0  0  0  0
  -27.2673  -33.3643   26.2056 H   0  0  0  0  0  0
  -28.3872  -32.6878   25.0318 H   0  0  0  0  0  0
  -28.0716  -31.8466   26.5418 H   0  0  0  0  0  0
  -28.2528  -38.0153   24.7640 H   0  0  0  0  0  0
  -28.1171  -36.2700   24.6088 H   0  0  0  0  0  0
  -27.2345  -37.1180   25.8858 H   0  0  0  0  0  0
  -20.9318  -29.8789   21.6941 H   0  0  0  0  0  0
  -26.0152  -38.2868   24.1544 H   0  0  0  0  0  0
  -31.8709  -20.6420   21.6587 H   0  0  0  0  0  0
  -32.6649  -16.4629   21.2824 H   0  0  0  0  0  0
  -28.5781  -17.8874   21.1980 H   0  0  0  0  0  0
  -27.1259  -25.3853   21.3990 H   0  0  0  0  0  0
  -30.5356  -24.5391   19.7473 H   0  0  0  0  0  0
  -29.4538  -23.6854   18.6377 H   0  0  0  0  0  0
  -30.8698  -22.5738   21.0849 H   0  0  0  0  0  0
  -30.7733  -21.8238   19.4920 H   0  0  0  0  0  0
  -28.1271  -22.9006   22.2032 H   0  0  0  0  0  0
  -25.2019  -22.2380   19.0939 H   0  0  0  0  0  0
  -26.8126  -21.6211   18.7590 H   0  0  0  0  0  0
  -26.5075  -23.3594   18.7575 H   0  0  0  0  0  0
  -29.4682  -21.0452   22.6364 H   0  0  0  0  0  0
  -28.1569  -20.1835   21.8988 H   0  0  0  0  0  0
  -25.9384  -23.2418   21.2154 H   0  0  0  0  0  0
  -26.2666  -21.5422   21.2315 H   0  0  0  0  0  0
  -33.5949  -20.3346   22.8515 H   0  0  0  0  0  0
  -35.2611  -19.9822   22.4769 H   0  0  0  0  0  0
  -29.0982  -15.4459   21.2723 H   0  0  0  0  0  0
  -28.5834  -21.2831   19.8561 H   0  0  0  0  0  0
  1 25  1  0  0  0
  1 30  2  0  0  0
  1 87  1  0  0  0
  2  3  1  0  0  0
  2 25  1  0  0  0
  2 90  1  0  0  0
  2 91  1  0  0  0
  3  4  1  0  0  0
  3 92  1  0  0  0
  3 93  1  0  0  0
  4  5  1  0  0  0
  4 94  1  0  0  0
  4 95  1  0  0  0
  5  6  1  0  0  0
  5 26  1  0  0  0
  5 96  1  0  0  0
  6 25  1  0  0  0
  6 97  1  0  0  0
  6 98  1  0  0  0
  7  8  2  0  0  0
  7 26  1  0  0  0
  7 29  1  0  0  0
  8  9  1  0  0  0
  8 22  1  0  0  0
  9 10  1  0  0  0
  9 27  2  0  0  0
 10 11  2  0  0  0
 10 15  1  0  0  0
 11 12  1  0  0  0
 11 99  1  0  0  0
 12 13  2  0  0  0
 12100  1  0  0  0
 13 14  1  0  0  0
 13 31  1  0  0  0
 14 15  2  0  0  0
 14101  1  0  0  0
 15102  1  0  0  0
 16 17  2  0  0  0
 16 21  1  0  0  0
 16 31  1  0  0  0
 17 18  1  0  0  0
 17103  1  0  0  0
 18 19  2  0  0  0
 18104  1  0  0  0
 19 20  1  0  0  0
 19 24  1  0  0  0
 20 21  2  0  0  0
 20105  1  0  0  0
 21 23  1  0  0  0
 22 28  1  0  0  0
 22 32  2  0  0  0
 26 27  1  0  0  0
 28106  1  0  0  0
 28107  1  0  0  0
 29108  1  0  0  0
 29109  1  0  0  0
 33 34  1  0  0  0
 33 66  1  0  0  0
 33 70  2  0  0  0
 34 36  1  0  0  0
 34 59  1  0  0  0
 34110  1  0  0  0
 35 44  2  0  0  0
 35 45  1  0  0  0
 35 68  1  0  0  0
 36 56  1  0  0  0
 36111  1  0  0  0
 37 39  1  0  0  0
 37 47  1  0  0  0
 37 66  1  0  0  0
 37112  1  0  0  0
 38 43  2  0  0  0
 38 46  1  0  0  0
 38 47  1  0  0  0
 39 64  1  0  0  0
 39 67  2  0  0  0
 40 52  1  0  0  0
 40 53  2  0  0  0
 40 58  1  0  0  0
 41113  1  0  0  0
 41114  1  0  0  0
 41115  1  0  0  0
 41 48  1  0  0  0
 42 43  1  0  0  0
 42 66  1  0  0  0
 42116  1  0  0  0
 42117  1  0  0  0
 43 44  1  0  0  0
 44118  1  0  0  0
 45 46  2  0  0  0
 45119  1  0  0  0
 46120  1  0  0  0
 47121  1  0  0  0
 47122  1  0  0  0
 48 56  1  0  0  0
 48 65  1  0  0  0
 48123  1  0  0  0
 49 50  1  0  0  0
 49 53  1  0  0  0
 49 64  1  0  0  0
 49124  1  0  0  0
 50 51  1  0  0  0
 50125  1  0  0  0
 50126  1  0  0  0
 51 52  1  0  0  0
 51127  1  0  0  0
 51128  1  0  0  0
 52129  1  0  0  0
 52130  1  0  0  0
 53 54  1  0  0  0
 54 55  2  0  0  0
 54131  1  0  0  0
 55 57  1  0  0  0
 55132  1  0  0  0
 56 69  2  0  0  0
 57 58  2  0  0  0
 57133  1  0  0  0
 58134  1  0  0  0
 59 60  1  0  0  0
 59 61  1  0  0  0
 59 62  1  0  0  0
 60135  1  0  0  0
 60136  1  0  0  0
 60137  1  0  0  0
 61138  1  0  0  0
 61139  1  0  0  0
 61140  1  0  0  0
 62141  1  0  0  0
 62142  1  0  0  0
 62143  1  0  0  0
 63 65  1  0  0  0
 63144  1  0  0  0
 63145  1  0  0  0
 63146  1  0  0  0
 64147  1  0  0  0
 65148  1  0  0  0
 68 78  1  0  0  0
 71 74  2  0  0  0
 71 75  1  0  0  0
 71149  1  0  0  0
 72 74  1  0  0  0
 72 76  2  0  0  0
 72150  1  0  0  0
 73 75  2  0  0  0
 73 76  1  0  0  0
 73151  1  0  0  0
 74 79  1  0  0  0
 75 84  1  0  0  0
 76 87  1  0  0  0
 77 78  2  0  0  0
 77 80  1  0  0  0
 77 82  1  0  0  0
 78152  1  0  0  0
 79 86  1  0  0  0
 79 89  2  0  0  0
 80 81  1  0  0  0
 80153  1  0  0  0
 80154  1  0  0  0
 81 88  1  0  0  0
 81155  1  0  0  0
 81156  1  0  0  0
 82 85  1  0  0  0
 82 88  1  0  0  0
 82157  1  0  0  0
 83 85  1  0  0  0
 83158  1  0  0  0
 83159  1  0  0  0
 83160  1  0  0  0
 84161  1  0  0  0
 84162  1  0  0  0
 84 88  1  0  0  0
 85163  1  0  0  0
 85164  1  0  0  0
 86165  1  0  0  0
 86166  1  0  0  0
 87167  1  0  0  0
 88168  1  0  0  0
M  CHG  1  88   1
M  ISO  4   1 100  68 101  78 101  87 100
M  END
> <chiral flag>
0

> <version>
0

> <s_m_source_file>
/data/baiqing/PycharmProjects/Reinvent-master-3.2/result/LINK_invent/BTK/process_docking_weight1_custom_product_contain_oxygen_bond_distance_aromatic_linkinvent_7_9_3/rearranged_h_0107.sdf

> <i_m_source_file_index>
71

> <r_mmod_Potential_Energy-OPLS-2005>
-239.794967651367

> <r_mmod_Stretch_Energy-OPLS-2005>
51.3801612854004

> <r_mmod_Bend_Energy-OPLS-2005>
140.883743286133

> <r_mmod_Torsional_Energy-OPLS-2005>
267.194183349609

> <r_mmod_Improper_Torsional_Energy-OPLS-2005>
5.03503084182739

> <r_mmod_Van_der_Waal_Energy-OPLS-2005>
152.892166137695

> <r_mmod_Electrostatic_Energy-OPLS-2005>
-391.757873535156

> <r_mmod_Solvation_Energy-OPLS-2005>
-491.834106445312

> <b_mmod_Minimization_Converged-OPLS-2005>
0

> <r_mmod_RMS_Derivative-OPLS-2005>
1.22026991844177

$$$$
71
                    3D
 Structure written by MMmdl.
165173  0  0  1  0            999 V2000
  -30.6817  -14.4918   20.5032 C   0  0  0  0  0  0
  -30.4261  -12.2991   19.4270 C   0  0  0  0  0  0
  -29.4981  -12.4849   18.2086 C   0  0  0  0  0  0
  -28.0160  -12.3610   18.6198 C   0  0  0  0  0  0
  -27.6601  -13.2049   19.8764 C   0  0  2  0  0  0
  -28.7095  -12.9883   20.9887 C   0  0  0  0  0  0
  -25.2559  -13.8149   20.5662 C   0  0  0  0  0  0
  -24.1824  -13.0442   20.9202 C   0  0  0  0  0  0
  -24.6382  -11.6905   20.8799 C   0  0  0  0  0  0
  -23.9033  -10.4303   21.0454 C   0  0  0  0  0  0
  -24.3588   -9.4212   21.9208 C   0  0  0  0  0  0
  -23.6274   -8.2243   22.0771 C   0  0  0  0  0  0
  -22.4269   -8.0271   21.3532 C   0  0  0  0  0  0
  -21.9890   -9.0255   20.4649 C   0  0  0  0  0  0
  -22.7225  -10.2139   20.3082 C   0  0  0  0  0  0
  -21.6841   -6.0734   22.5290 C   0  0  0  0  0  0
  -21.4011   -6.5630   23.8227 C   0  0  0  0  0  0
  -21.3661   -5.6772   24.9175 C   0  0  0  0  0  0
  -21.6055   -4.3041   24.7220 C   0  0  0  0  0  0
  -21.8805   -3.8140   23.4341 C   0  0  0  0  0  0
  -21.9190   -4.6964   22.3403 C   0  0  0  0  0  0
  -22.7839  -13.5254   21.1808 C   0  0  0  0  0  0
  -22.1637   -4.2153   21.0975 F   0  0  0  0  0  0
  -21.5621   -3.4519   25.7724 F   0  0  0  0  0  0
  -30.0272  -13.3030   20.4229 N   0  0  0  0  0  0
  -26.3021  -12.9322   20.3444 N   0  0  0  0  0  0
  -25.9322  -11.6478   20.5861 N   0  0  0  0  0  0
  -22.0420  -12.8344   22.0409 N   0  0  0  0  0  0
  -25.4185  -15.1858   20.3921 N   0  0  0  0  0  0
  -31.8550  -14.6348   20.1515 O   0  0  0  0  0  0
  -21.6622   -6.8879   21.4256 O   0  0  0  0  0  0
  -22.3548  -14.5527   20.6577 O   0  0  0  0  0  0
  -24.6143  -31.8687   23.2122 C   0  0  0  0  0  0
  -25.9064  -32.4801   23.8391 C   0  0  1  0  0  0
  -27.2371  -27.4331   20.0924 C   0  0  0  0  0  0
  -25.5935  -33.8604   24.2347 N   0  0  0  0  0  0
  -23.4028  -30.4928   21.5505 C   0  0  2  0  0  0
  -24.8496  -28.9583   20.1158 C   0  0  0  0  0  0
  -22.7430  -29.4661   22.4975 C   0  0  0  0  0  0
  -18.0283  -28.1348   22.8505 C   0  0  0  0  0  0
  -24.1488  -36.7283   23.2637 C   0  0  0  0  0  0
  -25.9321  -30.8323   21.3679 C   0  0  0  0  0  0
  -26.0060  -29.4672   20.7114 C   0  0  0  0  0  0
  -27.2001  -28.7136   20.6955 C   0  0  0  0  0  0
  -26.0518  -26.9315   19.5026 C   0  0  0  0  0  0
  -24.8657  -27.6881   19.5115 C   0  0  0  0  0  0
  -23.6158  -29.8267   20.1651 C   0  0  0  0  0  0
  -25.4114  -36.3093   24.0342 C   0  0  1  0  0  0
  -20.5884  -28.3655   23.1303 C   0  0  2  0  0  0
  -20.6788  -26.9386   22.5396 C   0  0  0  0  0  0
  -19.5763  -26.6349   21.5212 C   0  0  0  0  0  0
  -18.1946  -26.7884   22.1635 C   0  0  0  0  0  0
  -19.1539  -28.8812   23.2910 C   0  0  0  0  0  0
  -18.9447  -30.1405   23.8936 C   0  0  0  0  0  0
  -17.6454  -30.6548   24.0578 C   0  0  0  0  0  0
  -25.9038  -34.9455   23.5126 C   0  0  0  0  0  0
  -16.5346  -29.9059   23.6312 C   0  0  0  0  0  0
  -16.7273  -28.6471   23.0344 C   0  0  0  0  0  0
  -26.4528  -31.6561   25.0693 C   0  0  0  0  0  0
  -25.3825  -31.3663   26.1456 C   0  0  0  0  0  0
  -27.0360  -30.2998   24.6053 C   0  0  0  0  0  0
  -27.6084  -32.4287   25.7463 C   0  0  0  0  0  0
  -27.5584  -37.1799   24.8477 C   0  0  0  0  0  0
  -21.4156  -29.3038   22.3723 N   0  0  0  0  0  0
  -26.4299  -37.3777   23.9415 N   0  0  0  0  0  0
  -24.6667  -31.0813   22.0999 N   0  0  0  0  0  0
  -23.4211  -28.8203   23.3009 O   0  0  0  0  0  0
  -28.4352  -26.7436   20.1025 O   0  0  0  0  0  0
  -26.5564  -34.8903   22.4670 O   0  0  0  0  0  0
  -23.5336  -32.1411   23.7518 O   0  0  0  0  0  0
  -27.8801  -19.7911   22.2241 C   0  0  0  0  0  0
  -29.7158  -20.0347   20.6710 C   0  0  0  0  0  0
  -28.0837  -18.3896   22.2890 C   0  0  0  0  0  0
  -29.1479  -17.7892   21.5476 C   0  0  0  0  0  0
  -28.6883  -20.6248   21.4345 C   0  0  0  0  0  0
  -29.9704  -18.6429   20.7482 C   0  0  0  0  0  0
  -28.1778  -24.3356   20.6485 C   0  0  0  0  0  0
  -26.2305  -18.2801   24.1270 C   0  0  0  0  0  0
  -27.1979  -22.3683   19.3917 C   0  0  0  0  0  0
  -27.1646  -17.5298   23.1684 C   0  0  0  0  0  0
  -29.4081  -16.2653   21.6920 C   0  0  0  0  0  0
  -28.5178  -25.4023   19.5824 C   0  0  0  0  0  0
  -28.3726  -22.8398   20.2717 C   0  0  2  0  0  0
  -31.0811  -18.1597   20.0459 N   0  0  0  0  0  0
  -28.4663  -22.0145   21.4821 N   0  0  0  0  0  0
  -29.8947  -15.5813   20.4979 N   0  0  0  0  0  0
  -27.7549  -24.6728   21.7624 O   0  0  0  0  0  0
  -31.4705  -12.4007   19.1270 H   0  0  0  0  0  0
  -30.3301  -11.2911   19.8354 H   0  0  0  0  0  0
  -29.7357  -11.7487   17.4410 H   0  0  0  0  0  0
  -29.6743  -13.4656   17.7657 H   0  0  0  0  0  0
  -27.8206  -11.3069   18.8164 H   0  0  0  0  0  0
  -27.3677  -12.6354   17.7856 H   0  0  0  0  0  0
  -27.6981  -14.2508   19.5743 H   0  0  0  0  0  0
  -28.6895  -11.9488   21.3188 H   0  0  0  0  0  0
  -28.4909  -13.5811   21.8745 H   0  0  0  0  0  0
  -25.2742   -9.5677   22.4758 H   0  0  0  0  0  0
  -23.9973   -7.4641   22.7510 H   0  0  0  0  0  0
  -21.0797   -8.8782   19.8973 H   0  0  0  0  0  0
  -22.3711  -10.9654   19.6155 H   0  0  0  0  0  0
  -21.1996   -7.6133   23.9734 H   0  0  0  0  0  0
  -21.1498   -6.0496   25.9075 H   0  0  0  0  0  0
  -22.0596   -2.7608   23.2859 H   0  0  0  0  0  0
  -22.3932  -12.0048   22.4942 H   0  0  0  0  0  0
  -21.1041  -13.1471   22.2470 H   0  0  0  0  0  0
  -24.6175  -15.8088   20.3811 H   0  0  0  0  0  0
  -26.2629  -15.6189   20.0395 H   0  0  0  0  0  0
  -26.7138  -32.5547   23.1151 H   0  0  0  0  0  0
  -25.0228  -33.9778   25.0591 H   0  0  0  0  0  0
  -22.6873  -31.3076   21.4130 H   0  0  0  0  0  0
  -23.3741  -35.9624   23.3303 H   0  0  0  0  0  0
  -24.3591  -36.8876   22.2052 H   0  0  0  0  0  0
  -23.7224  -37.6486   23.6639 H   0  0  0  0  0  0
  -26.0510  -31.6016   20.6046 H   0  0  0  0  0  0
  -26.8177  -30.8797   21.9891 H   0  0  0  0  0  0
  -28.0955  -29.1116   21.1535 H   0  0  0  0  0  0
  -26.0133  -25.9588   19.0369 H   0  0  0  0  0  0
  -23.9695  -27.2910   19.0567 H   0  0  0  0  0  0
  -23.7355  -30.6016   19.4066 H   0  0  0  0  0  0
  -22.7398  -29.2517   19.8644 H   0  0  0  0  0  0
  -25.1280  -36.1951   25.0828 H   0  0  0  0  0  0
  -20.9996  -28.3198   24.1415 H   0  0  0  0  0  0
  -20.5727  -26.2234   23.3594 H   0  0  0  0  0  0
  -21.6650  -26.7457   22.1150 H   0  0  0  0  0  0
  -19.6935  -25.6268   21.1203 H   0  0  0  0  0  0
  -19.6688  -27.3172   20.6756 H   0  0  0  0  0  0
  -17.4224  -26.6674   21.4013 H   0  0  0  0  0  0
  -18.0343  -26.0009   22.8989 H   0  0  0  0  0  0
  -19.7920  -30.7213   24.2326 H   0  0  0  0  0  0
  -17.5008  -31.6228   24.5183 H   0  0  0  0  0  0
  -15.5351  -30.2979   23.7586 H   0  0  0  0  0  0
  -15.8695  -28.0780   22.7032 H   0  0  0  0  0  0
  -24.6011  -30.6980   25.7826 H   0  0  0  0  0  0
  -24.9019  -32.2819   26.4897 H   0  0  0  0  0  0
  -25.8211  -30.8859   27.0206 H   0  0  0  0  0  0
  -26.2888  -29.6708   24.1187 H   0  0  0  0  0  0
  -27.4234  -29.7262   25.4483 H   0  0  0  0  0  0
  -27.8680  -30.4296   23.9123 H   0  0  0  0  0  0
  -27.2688  -33.3580   26.2044 H   0  0  0  0  0  0
  -28.3903  -32.6844   25.0302 H   0  0  0  0  0  0
  -28.0749  -31.8408   26.5381 H   0  0  0  0  0  0
  -28.2607  -38.0092   24.7518 H   0  0  0  0  0  0
  -28.1066  -36.2612   24.6304 H   0  0  0  0  0  0
  -27.2309  -37.1464   25.8886 H   0  0  0  0  0  0
  -20.9306  -29.8809   21.6995 H   0  0  0  0  0  0
  -26.0165  -38.2840   24.1422 H   0  0  0  0  0  0
  -27.0846  -20.2532   22.7895 H   0  0  0  0  0  0
  -30.3482  -20.6635   20.0609 H   0  0  0  0  0  0
  -26.7921  -18.9268   24.8022 H   0  0  0  0  0  0
  -25.6711  -17.5731   24.7400 H   0  0  0  0  0  0
  -25.5013  -18.8871   23.5907 H   0  0  0  0  0  0
  -27.0780  -22.9862   18.4995 H   0  0  0  0  0  0
  -26.2516  -22.3935   19.9379 H   0  0  0  0  0  0
  -27.3462  -21.3470   19.0409 H   0  0  0  0  0  0
  -27.7763  -16.8688   23.7827 H   0  0  0  0  0  0
  -26.5616  -16.8944   22.5173 H   0  0  0  0  0  0
  -28.4952  -15.7523   21.9746 H   0  0  0  0  0  0
  -30.1162  -16.1263   22.5125 H   0  0  0  0  0  0
  -27.9167  -25.2651   18.6851 H   0  0  0  0  0  0
  -29.5480  -25.2387   19.2670 H   0  0  0  0  0  0
  -29.3033  -22.7506   19.7114 H   0  0  0  0  0  0
  -31.7132  -18.8672   19.6836 H   0  0  0  0  0  0
  -31.6084  -17.4057   20.4748 H   0  0  0  0  0  0
  -27.9206  -22.3834   22.2584 H   0  0  0  0  0  0
  -30.2591  -16.2897   19.8709 H   0  0  0  0  0  0
  1 25  1  0  0  0
  1 30  2  0  0  0
  1 86  1  0  0  0
  2  3  1  0  0  0
  2 25  1  0  0  0
  2 88  1  0  0  0
  2 89  1  0  0  0
  3  4  1  0  0  0
  3 90  1  0  0  0
  3 91  1  0  0  0
  4  5  1  0  0  0
  4 92  1  0  0  0
  4 93  1  0  0  0
  5  6  1  0  0  0
  5 26  1  0  0  0
  5 94  1  0  0  0
  6 25  1  0  0  0
  6 95  1  0  0  0
  6 96  1  0  0  0
  7  8  2  0  0  0
  7 26  1  0  0  0
  7 29  1  0  0  0
  8  9  1  0  0  0
  8 22  1  0  0  0
  9 10  1  0  0  0
  9 27  2  0  0  0
 10 11  2  0  0  0
 10 15  1  0  0  0
 11 12  1  0  0  0
 11 97  1  0  0  0
 12 13  2  0  0  0
 12 98  1  0  0  0
 13 14  1  0  0  0
 13 31  1  0  0  0
 14 15  2  0  0  0
 14 99  1  0  0  0
 15100  1  0  0  0
 16 17  2  0  0  0
 16 21  1  0  0  0
 16 31  1  0  0  0
 17 18  1  0  0  0
 17101  1  0  0  0
 18 19  2  0  0  0
 18102  1  0  0  0
 19 20  1  0  0  0
 19 24  1  0  0  0
 20 21  2  0  0  0
 20103  1  0  0  0
 21 23  1  0  0  0
 22 28  1  0  0  0
 22 32  2  0  0  0
 26 27  1  0  0  0
 28104  1  0  0  0
 28105  1  0  0  0
 29106  1  0  0  0
 29107  1  0  0  0
 33 34  1  0  0  0
 33 66  1  0  0  0
 33 70  2  0  0  0
 34 36  1  0  0  0
 34 59  1  0  0  0
 34108  1  0  0  0
 35 44  2  0  0  0
 35 45  1  0  0  0
 35 68  1  0  0  0
 36 56  1  0  0  0
 36109  1  0  0  0
 37 39  1  0  0  0
 37 47  1  0  0  0
 37 66  1  0  0  0
 37110  1  0  0  0
 38 43  2  0  0  0
 38 46  1  0  0  0
 38 47  1  0  0  0
 39 64  1  0  0  0
 39 67  2  0  0  0
 40 52  1  0  0  0
 40 53  2  0  0  0
 40 58  1  0  0  0
 41111  1  0  0  0
 41112  1  0  0  0
 41113  1  0  0  0
 41 48  1  0  0  0
 42 43  1  0  0  0
 42 66  1  0  0  0
 42114  1  0  0  0
 42115  1  0  0  0
 43 44  1  0  0  0
 44116  1  0  0  0
 45 46  2  0  0  0
 45117  1  0  0  0
 46118  1  0  0  0
 47119  1  0  0  0
 47120  1  0  0  0
 48 56  1  0  0  0
 48 65  1  0  0  0
 48121  1  0  0  0
 49 50  1  0  0  0
 49 53  1  0  0  0
 49 64  1  0  0  0
 49122  1  0  0  0
 50 51  1  0  0  0
 50123  1  0  0  0
 50124  1  0  0  0
 51 52  1  0  0  0
 51125  1  0  0  0
 51126  1  0  0  0
 52127  1  0  0  0
 52128  1  0  0  0
 53 54  1  0  0  0
 54 55  2  0  0  0
 54129  1  0  0  0
 55 57  1  0  0  0
 55130  1  0  0  0
 56 69  2  0  0  0
 57 58  2  0  0  0
 57131  1  0  0  0
 58132  1  0  0  0
 59 60  1  0  0  0
 59 61  1  0  0  0
 59 62  1  0  0  0
 60133  1  0  0  0
 60134  1  0  0  0
 60135  1  0  0  0
 61136  1  0  0  0
 61137  1  0  0  0
 61138  1  0  0  0
 62139  1  0  0  0
 62140  1  0  0  0
 62141  1  0  0  0
 63 65  1  0  0  0
 63142  1  0  0  0
 63143  1  0  0  0
 63144  1  0  0  0
 64145  1  0  0  0
 65146  1  0  0  0
 68 82  1  0  0  0
 71 73  2  0  0  0
 71 75  1  0  0  0
 71147  1  0  0  0
 72 75  2  0  0  0
 72 76  1  0  0  0
 72148  1  0  0  0
 73 74  1  0  0  0
 73 80  1  0  0  0
 74 76  2  0  0  0
 74 81  1  0  0  0
 75 85  1  0  0  0
 76 84  1  0  0  0
 77 82  1  0  0  0
 77 83  1  0  0  0
 77 87  2  0  0  0
 78 80  1  0  0  0
 78149  1  0  0  0
 78150  1  0  0  0
 78151  1  0  0  0
 79152  1  0  0  0
 79153  1  0  0  0
 79154  1  0  0  0
 79 83  1  0  0  0
 80155  1  0  0  0
 80156  1  0  0  0
 81 86  1  0  0  0
 81157  1  0  0  0
 81158  1  0  0  0
 82159  1  0  0  0
 82160  1  0  0  0
 83 85  1  0  0  0
 83161  1  0  0  0
 84162  1  0  0  0
 84163  1  0  0  0
 85164  1  0  0  0
 86165  1  0  0  0
M  ISO  4   1 100  68 101  82 101  86 100
M  END
> <chiral flag>
0

> <version>
0

> <s_m_source_file>
/data/baiqing/PycharmProjects/Reinvent-master-3.2/result/LINK_invent/BTK/process_docking_weight1_custom_product_contain_oxygen_bond_distance_aromatic_linkinvent_7_9_3/rearranged_h_0107.sdf

> <i_m_source_file_index>
72

> <r_mmod_Potential_Energy-OPLS-2005>
61.5530242919922

> <r_mmod_Stretch_Energy-OPLS-2005>
43.1792411804199

> <r_mmod_Bend_Energy-OPLS-2005>
125.80899810791

> <r_mmod_Torsional_Energy-OPLS-2005>
262.984344482422

> <r_mmod_Improper_Torsional_Energy-OPLS-2005>
27.3000640869141

> <r_mmod_Van_der_Waal_Energy-OPLS-2005>
158.614181518555

> <r_mmod_Electrostatic_Energy-OPLS-2005>
-351.5654296875

> <r_mmod_Solvation_Energy-OPLS-2005>
-221.664627075195

> <b_mmod_Minimization_Converged-OPLS-2005>
0

> <r_mmod_RMS_Derivative-OPLS-2005>
4.11921644210815

$$$$
72
                    3D
 Structure written by MMmdl.
158166  0  0  1  0            999 V2000
  -30.6233  -14.5882   20.4722 C   0  0  0  0  0  0
  -30.4449  -12.3335   19.4625 C   0  0  0  0  0  0
  -29.5114  -12.3884   18.2317 C   0  0  0  0  0  0
  -28.0194  -12.3349   18.6291 C   0  0  0  0  0  0
  -27.6571  -13.1991   19.8690 C   0  0  2  0  0  0
  -28.7023  -13.0340   20.9928 C   0  0  0  0  0  0
  -25.2592  -13.8135   20.5674 C   0  0  0  0  0  0
  -24.1823  -13.0431   20.9149 C   0  0  0  0  0  0
  -24.6363  -11.6891   20.8727 C   0  0  0  0  0  0
  -23.9024  -10.4277   21.0390 C   0  0  0  0  0  0
  -24.3588   -9.4193   21.9161 C   0  0  0  0  0  0
  -23.6274   -8.2229   22.0746 C   0  0  0  0  0  0
  -22.4256   -8.0256   21.3545 C   0  0  0  0  0  0
  -21.9879   -9.0221   20.4637 C   0  0  0  0  0  0
  -22.7200  -10.2103   20.3038 C   0  0  0  0  0  0
  -21.6854   -6.0709   22.5282 C   0  0  0  0  0  0
  -21.4013   -6.5625   23.8207 C   0  0  0  0  0  0
  -21.3657   -5.6787   24.9178 C   0  0  0  0  0  0
  -21.6049   -4.3056   24.7244 C   0  0  0  0  0  0
  -21.8819   -3.8131   23.4376 C   0  0  0  0  0  0
  -21.9192   -4.6938   22.3416 C   0  0  0  0  0  0
  -22.7852  -13.5224   21.1833 C   0  0  0  0  0  0
  -22.1655   -4.2108   21.0992 F   0  0  0  0  0  0
  -21.5638   -3.4548   25.7763 F   0  0  0  0  0  0
  -30.0191  -13.3631   20.4259 N   0  0  0  0  0  0
  -26.3004  -12.9278   20.3367 N   0  0  0  0  0  0
  -25.9298  -11.6455   20.5813 N   0  0  0  0  0  0
  -22.0509  -12.8208   22.0404 N   0  0  0  0  0  0
  -25.4375  -15.1842   20.4081 N   0  0  0  0  0  0
  -31.7850  -14.7643   20.0938 O   0  0  0  0  0  0
  -21.6633   -6.8845   21.4233 O   0  0  0  0  0  0
  -22.3539  -14.5540   20.6693 O   0  0  0  0  0  0
  -24.6185  -31.8657   23.2089 C   0  0  0  0  0  0
  -25.9062  -32.4807   23.8396 C   0  0  1  0  0  0
  -27.2295  -27.3824   20.1119 C   0  0  0  0  0  0
  -25.5900  -33.8607   24.2318 N   0  0  0  0  0  0
  -23.4085  -30.4896   21.5502 C   0  0  2  0  0  0
  -24.8552  -28.9527   20.1130 C   0  0  0  0  0  0
  -22.7419  -29.4657   22.4972 C   0  0  0  0  0  0
  -18.0276  -28.1382   22.8502 C   0  0  0  0  0  0
  -24.1486  -36.7306   23.2641 C   0  0  0  0  0  0
  -25.9426  -30.8143   21.3721 C   0  0  0  0  0  0
  -26.0166  -29.4454   20.7187 C   0  0  0  0  0  0
  -27.2030  -28.6677   20.7157 C   0  0  0  0  0  0
  -26.0499  -26.9310   19.4718 C   0  0  0  0  0  0
  -24.8700  -27.6977   19.4847 C   0  0  0  0  0  0
  -23.6193  -29.8240   20.1643 C   0  0  0  0  0  0
  -25.4108  -36.3104   24.0337 C   0  0  1  0  0  0
  -20.5866  -28.3678   23.1298 C   0  0  2  0  0  0
  -20.6772  -26.9407   22.5412 C   0  0  0  0  0  0
  -19.5749  -26.6390   21.5213 C   0  0  0  0  0  0
  -18.1924  -26.7932   22.1625 C   0  0  0  0  0  0
  -19.1527  -28.8849   23.2900 C   0  0  0  0  0  0
  -18.9454  -30.1455   23.8911 C   0  0  0  0  0  0
  -17.6457  -30.6591   24.0560 C   0  0  0  0  0  0
  -25.9038  -34.9463   23.5127 C   0  0  0  0  0  0
  -16.5347  -29.9091   23.6329 C   0  0  0  0  0  0
  -16.7265  -28.6502   23.0360 C   0  0  0  0  0  0
  -26.4483  -31.6598   25.0740 C   0  0  0  0  0  0
  -25.3728  -31.3684   26.1469 C   0  0  0  0  0  0
  -27.0343  -30.3046   24.6145 C   0  0  0  0  0  0
  -27.6054  -32.4318   25.7498 C   0  0  0  0  0  0
  -27.5575  -37.1811   24.8462 C   0  0  0  0  0  0
  -21.4148  -29.3042   22.3707 N   0  0  0  0  0  0
  -26.4291  -37.3790   23.9404 N   0  0  0  0  0  0
  -24.6752  -31.0708   22.1019 N   0  0  0  0  0  0
  -23.4169  -28.8190   23.3028 O   0  0  0  0  0  0
  -28.3875  -26.6135   20.1768 O   0  0  0  0  0  0
  -26.5601  -34.8918   22.4689 O   0  0  0  0  0  0
  -23.5366  -32.1430   23.7446 O   0  0  0  0  0  0
  -29.2598  -19.6404   19.3303 C   0  0  0  0  0  0
  -29.9253  -18.1036   21.0947 C   0  0  0  0  0  0
  -29.3073  -17.2261   18.8982 C   0  0  0  0  0  0
  -29.0714  -18.5557   18.4611 C   0  0  0  0  0  0
  -29.7403  -16.9727   20.2400 C   0  0  0  0  0  0
  -29.6814  -19.4422   20.6577 C   0  0  0  0  0  0
  -29.1051  -24.3092   20.8996 C   0  0  0  0  0  0
  -29.0387  -16.1002   17.9127 C   0  0  0  0  0  0
  -29.5353  -22.8722   20.4819 C   0  0  0  0  0  0
  -28.3230  -25.1860   19.8828 C   0  0  0  0  0  0
  -29.0265  -21.7048   21.3940 C   0  0  0  0  0  0
  -28.6202  -18.8362   17.1696 N   0  0  0  0  0  0
  -29.8037  -15.6275   20.7945 N   0  0  0  0  0  0
  -29.3903  -24.7451   22.0206 O   0  0  0  0  0  0
  -29.8692  -20.5231   21.5133 O   0  0  0  0  0  0
  -31.4843  -12.4617   19.1545 H   0  0  0  0  0  0
  -30.3946  -11.3507   19.9329 H   0  0  0  0  0  0
  -29.7373  -11.5421   17.5822 H   0  0  0  0  0  0
  -29.7201  -13.2606   17.6211 H   0  0  0  0  0  0
  -27.7829  -11.2902   18.8346 H   0  0  0  0  0  0
  -27.3937  -12.6192   17.7815 H   0  0  0  0  0  0
  -27.6814  -14.2376   19.5519 H   0  0  0  0  0  0
  -28.7028  -12.0107   21.3736 H   0  0  0  0  0  0
  -28.4599  -13.6654   21.8481 H   0  0  0  0  0  0
  -25.2736   -9.5689   22.4714 H   0  0  0  0  0  0
  -23.9981   -7.4633   22.7485 H   0  0  0  0  0  0
  -21.0804   -8.8743   19.8944 H   0  0  0  0  0  0
  -22.3650  -10.9637   19.6146 H   0  0  0  0  0  0
  -21.1989   -7.6125   23.9701 H   0  0  0  0  0  0
  -21.1490   -6.0521   25.9074 H   0  0  0  0  0  0
  -22.0596   -2.7590   23.2902 H   0  0  0  0  0  0
  -22.4145  -11.9848   22.4724 H   0  0  0  0  0  0
  -21.1143  -13.1233   22.2696 H   0  0  0  0  0  0
  -24.6749  -15.8450   20.5048 H   0  0  0  0  0  0
  -26.2980  -15.6195   20.1036 H   0  0  0  0  0  0
  -26.7127  -32.5504   23.1149 H   0  0  0  0  0  0
  -25.0070  -33.9773   25.0481 H   0  0  0  0  0  0
  -22.6995  -31.3085   21.4097 H   0  0  0  0  0  0
  -23.3752  -35.9634   23.3310 H   0  0  0  0  0  0
  -24.3581  -36.8921   22.2055 H   0  0  0  0  0  0
  -23.7230  -37.6509   23.6656 H   0  0  0  0  0  0
  -26.0619  -31.5791   20.6029 H   0  0  0  0  0  0
  -26.8278  -30.8661   21.9942 H   0  0  0  0  0  0
  -28.0945  -29.0386   21.2024 H   0  0  0  0  0  0
  -26.0085  -25.9881   18.9487 H   0  0  0  0  0  0
  -23.9798  -27.3202   19.0006 H   0  0  0  0  0  0
  -23.7266  -30.5998   19.4052 H   0  0  0  0  0  0
  -22.7430  -29.2454   19.8678 H   0  0  0  0  0  0
  -25.1287  -36.1978   25.0833 H   0  0  0  0  0  0
  -20.9960  -28.3257   24.1416 H   0  0  0  0  0  0
  -20.5697  -26.2279   23.3605 H   0  0  0  0  0  0
  -21.6639  -26.7467   22.1191 H   0  0  0  0  0  0
  -19.6911  -25.6304   21.1238 H   0  0  0  0  0  0
  -19.6682  -27.3202   20.6743 H   0  0  0  0  0  0
  -17.4193  -26.6684   21.4022 H   0  0  0  0  0  0
  -18.0316  -26.0064   22.9010 H   0  0  0  0  0  0
  -19.7928  -30.7269   24.2277 H   0  0  0  0  0  0
  -17.5010  -31.6272   24.5159 H   0  0  0  0  0  0
  -15.5343  -30.2996   23.7660 H   0  0  0  0  0  0
  -15.8662  -28.0828   22.7072 H   0  0  0  0  0  0
  -24.5913  -30.7034   25.7775 H   0  0  0  0  0  0
  -24.8904  -32.2825   26.4937 H   0  0  0  0  0  0
  -25.8066  -30.8825   27.0220 H   0  0  0  0  0  0
  -26.2916  -29.6779   24.1196 H   0  0  0  0  0  0
  -27.4114  -29.7308   25.4623 H   0  0  0  0  0  0
  -27.8742  -30.4382   23.9321 H   0  0  0  0  0  0
  -27.2699  -33.3625   26.2084 H   0  0  0  0  0  0
  -28.3860  -32.6867   25.0315 H   0  0  0  0  0  0
  -28.0732  -31.8435   26.5404 H   0  0  0  0  0  0
  -28.2595  -38.0114   24.7527 H   0  0  0  0  0  0
  -28.1082  -36.2641   24.6283 H   0  0  0  0  0  0
  -27.2290  -37.1452   25.8869 H   0  0  0  0  0  0
  -20.9309  -29.8757   21.6923 H   0  0  0  0  0  0
  -26.0184  -38.2873   24.1409 H   0  0  0  0  0  0
  -29.0762  -20.6360   18.9609 H   0  0  0  0  0  0
  -30.2266  -17.9399   22.1196 H   0  0  0  0  0  0
  -29.2562  -16.3898   16.8854 H   0  0  0  0  0  0
  -27.9968  -15.7878   17.9589 H   0  0  0  0  0  0
  -29.6842  -15.2596   18.1059 H   0  0  0  0  0  0
  -30.6246  -22.8698   20.4815 H   0  0  0  0  0  0
  -29.2291  -22.7031   19.4516 H   0  0  0  0  0  0
  -27.3076  -24.7998   19.9044 H   0  0  0  0  0  0
  -28.7173  -25.0105   18.8823 H   0  0  0  0  0  0
  -28.0179  -21.4157   21.0951 H   0  0  0  0  0  0
  -28.9155  -22.0782   22.4120 H   0  0  0  0  0  0
  -28.1757  -19.7317   16.9896 H   0  0  0  0  0  0
  -28.2386  -18.0825   16.6083 H   0  0  0  0  0  0
  -28.9457  -15.3223   21.2282 H   0  0  0  0  0  0
  1 25  1  0  0  0
  1 30  2  0  0  0
  1 83  1  0  0  0
  2  3  1  0  0  0
  2 25  1  0  0  0
  2 86  1  0  0  0
  2 87  1  0  0  0
  3  4  1  0  0  0
  3 88  1  0  0  0
  3 89  1  0  0  0
  4  5  1  0  0  0
  4 90  1  0  0  0
  4 91  1  0  0  0
  5  6  1  0  0  0
  5 26  1  0  0  0
  5 92  1  0  0  0
  6 25  1  0  0  0
  6 93  1  0  0  0
  6 94  1  0  0  0
  7  8  2  0  0  0
  7 26  1  0  0  0
  7 29  1  0  0  0
  8  9  1  0  0  0
  8 22  1  0  0  0
  9 10  1  0  0  0
  9 27  2  0  0  0
 10 11  2  0  0  0
 10 15  1  0  0  0
 11 12  1  0  0  0
 11 95  1  0  0  0
 12 13  2  0  0  0
 12 96  1  0  0  0
 13 14  1  0  0  0
 13 31  1  0  0  0
 14 15  2  0  0  0
 14 97  1  0  0  0
 15 98  1  0  0  0
 16 17  2  0  0  0
 16 21  1  0  0  0
 16 31  1  0  0  0
 17 18  1  0  0  0
 17 99  1  0  0  0
 18 19  2  0  0  0
 18100  1  0  0  0
 19 20  1  0  0  0
 19 24  1  0  0  0
 20 21  2  0  0  0
 20101  1  0  0  0
 21 23  1  0  0  0
 22 28  1  0  0  0
 22 32  2  0  0  0
 26 27  1  0  0  0
 28102  1  0  0  0
 28103  1  0  0  0
 29104  1  0  0  0
 29105  1  0  0  0
 33 34  1  0  0  0
 33 66  1  0  0  0
 33 70  2  0  0  0
 34 36  1  0  0  0
 34 59  1  0  0  0
 34106  1  0  0  0
 35 44  2  0  0  0
 35 45  1  0  0  0
 35 68  1  0  0  0
 36 56  1  0  0  0
 36107  1  0  0  0
 37 39  1  0  0  0
 37 47  1  0  0  0
 37 66  1  0  0  0
 37108  1  0  0  0
 38 43  2  0  0  0
 38 46  1  0  0  0
 38 47  1  0  0  0
 39 64  1  0  0  0
 39 67  2  0  0  0
 40 52  1  0  0  0
 40 53  2  0  0  0
 40 58  1  0  0  0
 41109  1  0  0  0
 41110  1  0  0  0
 41111  1  0  0  0
 41 48  1  0  0  0
 42 43  1  0  0  0
 42 66  1  0  0  0
 42112  1  0  0  0
 42113  1  0  0  0
 43 44  1  0  0  0
 44114  1  0  0  0
 45 46  2  0  0  0
 45115  1  0  0  0
 46116  1  0  0  0
 47117  1  0  0  0
 47118  1  0  0  0
 48 56  1  0  0  0
 48 65  1  0  0  0
 48119  1  0  0  0
 49 50  1  0  0  0
 49 53  1  0  0  0
 49 64  1  0  0  0
 49120  1  0  0  0
 50 51  1  0  0  0
 50121  1  0  0  0
 50122  1  0  0  0
 51 52  1  0  0  0
 51123  1  0  0  0
 51124  1  0  0  0
 52125  1  0  0  0
 52126  1  0  0  0
 53 54  1  0  0  0
 54 55  2  0  0  0
 54127  1  0  0  0
 55 57  1  0  0  0
 55128  1  0  0  0
 56 69  2  0  0  0
 57 58  2  0  0  0
 57129  1  0  0  0
 58130  1  0  0  0
 59 60  1  0  0  0
 59 61  1  0  0  0
 59 62  1  0  0  0
 60131  1  0  0  0
 60132  1  0  0  0
 60133  1  0  0  0
 61134  1  0  0  0
 61135  1  0  0  0
 61136  1  0  0  0
 62137  1  0  0  0
 62138  1  0  0  0
 62139  1  0  0  0
 63 65  1  0  0  0
 63140  1  0  0  0
 63141  1  0  0  0
 63142  1  0  0  0
 64143  1  0  0  0
 65144  1  0  0  0
 68 80  1  0  0  0
 71 74  2  0  0  0
 71 76  1  0  0  0
 71145  1  0  0  0
 72 75  1  0  0  0
 72 76  2  0  0  0
 72146  1  0  0  0
 73 74  1  0  0  0
 73 75  2  0  0  0
 73 78  1  0  0  0
 74 82  1  0  0  0
 75 83  1  0  0  0
 76 85  1  0  0  0
 77 79  1  0  0  0
 77 80  1  0  0  0
 77 84  2  0  0  0
 78147  1  0  0  0
 78148  1  0  0  0
 78149  1  0  0  0
 79 81  1  0  0  0
 79150  1  0  0  0
 79151  1  0  0  0
 80152  1  0  0  0
 80153  1  0  0  0
 81 85  1  0  0  0
 81154  1  0  0  0
 81155  1  0  0  0
 82156  1  0  0  0
 82157  1  0  0  0
 83158  1  0  0  0
M  ISO  4   1 100  68 101  80 101  83 100
M  END
> <chiral flag>
0

> <version>
0

> <s_m_source_file>
/data/baiqing/PycharmProjects/Reinvent-master-3.2/result/LINK_invent/BTK/process_docking_weight1_custom_product_contain_oxygen_bond_distance_aromatic_linkinvent_7_9_3/rearranged_h_0107.sdf

> <i_m_source_file_index>
73

> <r_mmod_Potential_Energy-OPLS-2005>
32.694896697998

> <r_mmod_Stretch_Energy-OPLS-2005>
57.2255096435547

> <r_mmod_Bend_Energy-OPLS-2005>
123.670799255371

> <r_mmod_Torsional_Energy-OPLS-2005>
264.222351074219

> <r_mmod_Improper_Torsional_Energy-OPLS-2005>
8.86743640899658

> <r_mmod_Van_der_Waal_Energy-OPLS-2005>
156.574172973633

> <r_mmod_Electrostatic_Energy-OPLS-2005>
-359.064910888672

> <r_mmod_Solvation_Energy-OPLS-2005>
-252.120742797852

> <b_mmod_Minimization_Converged-OPLS-2005>
0

> <r_mmod_RMS_Derivative-OPLS-2005>
2.07683849334717

$$$$
73
                    3D
 Structure written by MMmdl.
165174  0  0  1  0            999 V2000
  -30.7186  -14.4596   20.6270 C   0  0  0  0  0  0
  -30.4257  -12.3262   19.4060 C   0  0  0  0  0  0
  -29.4909  -12.5187   18.1963 C   0  0  0  0  0  0
  -28.0141  -12.3697   18.6138 C   0  0  0  0  0  0
  -27.6600  -13.2079   19.8714 C   0  0  2  0  0  0
  -28.7028  -12.9817   20.9872 C   0  0  0  0  0  0
  -25.2575  -13.8164   20.5684 C   0  0  0  0  0  0
  -24.1837  -13.0442   20.9201 C   0  0  0  0  0  0
  -24.6393  -11.6915   20.8745 C   0  0  0  0  0  0
  -23.9065  -10.4301   21.0418 C   0  0  0  0  0  0
  -24.3616   -9.4212   21.9194 C   0  0  0  0  0  0
  -23.6303   -8.2237   22.0754 C   0  0  0  0  0  0
  -22.4283   -8.0282   21.3549 C   0  0  0  0  0  0
  -21.9923   -9.0255   20.4648 C   0  0  0  0  0  0
  -22.7244  -10.2141   20.3065 C   0  0  0  0  0  0
  -21.6847   -6.0744   22.5289 C   0  0  0  0  0  0
  -21.3999   -6.5642   23.8226 C   0  0  0  0  0  0
  -21.3663   -5.6786   24.9184 C   0  0  0  0  0  0
  -21.6054   -4.3051   24.7227 C   0  0  0  0  0  0
  -21.8820   -3.8151   23.4343 C   0  0  0  0  0  0
  -21.9191   -4.6972   22.3403 C   0  0  0  0  0  0
  -22.7857  -13.5241   21.1872 C   0  0  0  0  0  0
  -22.1662   -4.2160   21.0978 F   0  0  0  0  0  0
  -21.5639   -3.4532   25.7736 F   0  0  0  0  0  0
  -30.0316  -13.3002   20.4359 N   0  0  0  0  0  0
  -26.3014  -12.9340   20.3353 N   0  0  0  0  0  0
  -25.9318  -11.6501   20.5762 N   0  0  0  0  0  0
  -22.0476  -12.8244   22.0422 N   0  0  0  0  0  0
  -25.4272  -15.1882   20.4081 N   0  0  0  0  0  0
  -31.8251  -14.6750   20.1252 O   0  0  0  0  0  0
  -21.6633   -6.8890   21.4253 O   0  0  0  0  0  0
  -22.3552  -14.5552   20.6723 O   0  0  0  0  0  0
  -24.6162  -31.8681   23.2115 C   0  0  0  0  0  0
  -25.9057  -32.4817   23.8411 C   0  0  1  0  0  0
  -27.2287  -27.4260   20.0955 C   0  0  0  0  0  0
  -25.5922  -33.8615   24.2344 N   0  0  0  0  0  0
  -23.4039  -30.4921   21.5529 C   0  0  2  0  0  0
  -24.8491  -28.9589   20.1155 C   0  0  0  0  0  0
  -22.7413  -29.4660   22.4999 C   0  0  0  0  0  0
  -18.0265  -28.1370   22.8486 C   0  0  0  0  0  0
  -24.1495  -36.7314   23.2634 C   0  0  0  0  0  0
  -25.9345  -30.8298   21.3658 C   0  0  0  0  0  0
  -26.0115  -29.4649   20.7113 C   0  0  0  0  0  0
  -27.2067  -28.7066   20.6969 C   0  0  0  0  0  0
  -26.0532  -26.9477   19.4757 C   0  0  0  0  0  0
  -24.8642  -27.6988   19.4949 C   0  0  0  0  0  0
  -23.6124  -29.8264   20.1673 C   0  0  0  0  0  0
  -25.4109  -36.3104   24.0341 C   0  0  1  0  0  0
  -20.5858  -28.3659   23.1314 C   0  0  2  0  0  0
  -20.6759  -26.9399   22.5408 C   0  0  0  0  0  0
  -19.5741  -26.6375   21.5203 C   0  0  0  0  0  0
  -18.1920  -26.7916   22.1618 C   0  0  0  0  0  0
  -19.1514  -28.8832   23.2893 C   0  0  0  0  0  0
  -18.9442  -30.1437   23.8903 C   0  0  0  0  0  0
  -17.6445  -30.6577   24.0554 C   0  0  0  0  0  0
  -25.9039  -34.9469   23.5131 C   0  0  0  0  0  0
  -16.5334  -29.9074   23.6333 C   0  0  0  0  0  0
  -16.7252  -28.6492   23.0353 C   0  0  0  0  0  0
  -26.4468  -31.6588   25.0739 C   0  0  0  0  0  0
  -25.3739  -31.3701   26.1497 C   0  0  0  0  0  0
  -27.0283  -30.3025   24.6119 C   0  0  0  0  0  0
  -27.6066  -32.4282   25.7492 C   0  0  0  0  0  0
  -27.5584  -37.1810   24.8459 C   0  0  0  0  0  0
  -21.4141  -29.3031   22.3738 N   0  0  0  0  0  0
  -26.4290  -37.3791   23.9413 N   0  0  0  0  0  0
  -24.6703  -31.0773   22.1018 N   0  0  0  0  0  0
  -23.4184  -28.8197   23.3040 O   0  0  0  0  0  0
  -28.3775  -26.6582   20.1014 O   0  0  0  0  0  0
  -26.5590  -34.8918   22.4684 O   0  0  0  0  0  0
  -23.5353  -32.1439   23.7497 O   0  0  0  0  0  0
  -31.6482  -18.6924   21.0479 C   0  0  0  0  0  0
  -31.5485  -20.0294   20.6109 C   0  0  0  0  0  0
  -29.1371  -19.8954   20.7690 C   0  0  0  0  0  0
  -30.5009  -17.9376   21.3733 C   0  0  0  0  0  0
  -29.2286  -18.5480   21.2086 C   0  0  0  0  0  0
  -30.2920  -20.6661   20.4925 C   0  0  0  0  0  0
  -29.0886  -24.2008   19.9847 C   0  0  0  0  0  0
  -29.4079  -23.0467   20.6484 C   0  0  0  0  0  0
  -29.5329  -24.3633   18.5704 C   0  0  0  0  0  0
  -30.2068  -23.1678   17.8966 C   0  0  0  0  0  0
  -31.0056  -22.3274   18.8991 C   0  0  0  0  0  0
  -27.9500  -17.7968   21.5349 C   0  0  0  0  0  0
  -28.9645  -22.8261   22.0938 C   0  0  0  0  0  0
  -30.7052  -16.5532   22.0171 C   0  0  0  0  0  0
  -28.2120  -25.3119   20.6075 C   0  0  0  0  0  0
  -30.2046  -22.0256   20.0877 N   0  0  0  0  0  0
  -30.0919  -15.3828   21.3783 N   0  0  0  0  0  0
  -29.3640  -25.3807   17.8920 O   0  0  0  0  0  0
  -31.4680  -12.4397   19.1003 H   0  0  0  0  0  0
  -30.3404  -11.3117   19.7977 H   0  0  0  0  0  0
  -29.7348  -11.7989   17.4137 H   0  0  0  0  0  0
  -29.6506  -13.5067   17.7623 H   0  0  0  0  0  0
  -27.8327  -11.3123   18.8119 H   0  0  0  0  0  0
  -27.3593  -12.6401   17.7848 H   0  0  0  0  0  0
  -27.7063  -14.2576   19.5786 H   0  0  0  0  0  0
  -28.6874  -11.9418   21.3155 H   0  0  0  0  0  0
  -28.4524  -13.5619   21.8761 H   0  0  0  0  0  0
  -25.2768   -9.5686   22.4764 H   0  0  0  0  0  0
  -24.0028   -7.4618   22.7458 H   0  0  0  0  0  0
  -21.0858   -8.8772   19.8946 H   0  0  0  0  0  0
  -22.3717  -10.9674   19.6163 H   0  0  0  0  0  0
  -21.1972   -7.6147   23.9740 H   0  0  0  0  0  0
  -21.1487   -6.0506   25.9094 H   0  0  0  0  0  0
  -22.0593   -2.7613   23.2826 H   0  0  0  0  0  0
  -22.4058  -11.9902   22.4832 H   0  0  0  0  0  0
  -21.1092  -13.1287   22.2596 H   0  0  0  0  0  0
  -24.6552  -15.8384   20.5113 H   0  0  0  0  0  0
  -26.2747  -15.6269   20.0719 H   0  0  0  0  0  0
  -26.7128  -32.5521   23.1177 H   0  0  0  0  0  0
  -25.0108  -33.9779   25.0517 H   0  0  0  0  0  0
  -22.6921  -31.3091   21.4148 H   0  0  0  0  0  0
  -23.3751  -35.9649   23.3274 H   0  0  0  0  0  0
  -24.3602  -36.8949   22.2054 H   0  0  0  0  0  0
  -23.7242  -37.6515   23.6651 H   0  0  0  0  0  0
  -26.0475  -31.5956   20.5974 H   0  0  0  0  0  0
  -26.8231  -30.8828   21.9838 H   0  0  0  0  0  0
  -28.1038  -29.0911   21.1625 H   0  0  0  0  0  0
  -26.0494  -25.9923   18.9697 H   0  0  0  0  0  0
  -23.9723  -27.3066   19.0249 H   0  0  0  0  0  0
  -23.7225  -30.6027   19.4088 H   0  0  0  0  0  0
  -22.7361  -29.2476   19.8701 H   0  0  0  0  0  0
  -25.1279  -36.1969   25.0834 H   0  0  0  0  0  0
  -20.9935  -28.3211   24.1438 H   0  0  0  0  0  0
  -20.5656  -26.2268   23.3590 H   0  0  0  0  0  0
  -21.6632  -26.7446   22.1201 H   0  0  0  0  0  0
  -19.6902  -25.6285   21.1239 H   0  0  0  0  0  0
  -19.6687  -27.3179   20.6727 H   0  0  0  0  0  0
  -17.4194  -26.6648   21.4019 H   0  0  0  0  0  0
  -18.0330  -26.0052   22.9012 H   0  0  0  0  0  0
  -19.7914  -30.7242   24.2285 H   0  0  0  0  0  0
  -17.4999  -31.6263   24.5143 H   0  0  0  0  0  0
  -15.5336  -30.2974   23.7658 H   0  0  0  0  0  0
  -15.8649  -28.0809   22.7075 H   0  0  0  0  0  0
  -24.5891  -30.7074   25.7824 H   0  0  0  0  0  0
  -24.8962  -32.2866   26.4974 H   0  0  0  0  0  0
  -25.8102  -30.8835   27.0235 H   0  0  0  0  0  0
  -26.2827  -29.6802   24.1156 H   0  0  0  0  0  0
  -27.4018  -29.7243   25.4579 H   0  0  0  0  0  0
  -27.8680  -30.4323   23.9290 H   0  0  0  0  0  0
  -27.2722  -33.3583   26.2096 H   0  0  0  0  0  0
  -28.3873  -32.6832   25.0310 H   0  0  0  0  0  0
  -28.0736  -31.8377   26.5388 H   0  0  0  0  0  0
  -28.2586  -38.0121   24.7526 H   0  0  0  0  0  0
  -28.1095  -36.2656   24.6252 H   0  0  0  0  0  0
  -27.2312  -37.1421   25.8864 H   0  0  0  0  0  0
  -20.9298  -29.8780   21.6985 H   0  0  0  0  0  0
  -26.0177  -38.2869   24.1409 H   0  0  0  0  0  0
  -32.6305  -18.2588   21.1705 H   0  0  0  0  0  0
  -32.4586  -20.5764   20.4077 H   0  0  0  0  0  0
  -28.1654  -20.3565   20.6610 H   0  0  0  0  0  0
  -30.8541  -23.5110   17.0893 H   0  0  0  0  0  0
  -29.4269  -22.5564   17.4440 H   0  0  0  0  0  0
  -31.9033  -22.8668   19.2046 H   0  0  0  0  0  0
  -31.3444  -21.4205   18.3956 H   0  0  0  0  0  0
  -27.0714  -18.4346   21.4315 H   0  0  0  0  0  0
  -27.9667  -17.4250   22.5595 H   0  0  0  0  0  0
  -27.8241  -16.9503   20.8606 H   0  0  0  0  0  0
  -29.3412  -23.6287   22.7280 H   0  0  0  0  0  0
  -29.3283  -21.9023   22.5394 H   0  0  0  0  0  0
  -27.8765  -22.8206   22.1619 H   0  0  0  0  0  0
  -30.3032  -16.6086   23.0294 H   0  0  0  0  0  0
  -31.7715  -16.3689   22.1582 H   0  0  0  0  0  0
  -28.4151  -25.3794   21.6755 H   0  0  0  0  0  0
  -27.1871  -24.9491   20.5414 H   0  0  0  0  0  0
  -29.1692  -15.1321   21.6966 H   0  0  0  0  0  0
  1 25  1  0  0  0
  1 30  2  0  0  0
  1 87  1  0  0  0
  2  3  1  0  0  0
  2 25  1  0  0  0
  2 89  1  0  0  0
  2 90  1  0  0  0
  3  4  1  0  0  0
  3 91  1  0  0  0
  3 92  1  0  0  0
  4  5  1  0  0  0
  4 93  1  0  0  0
  4 94  1  0  0  0
  5  6  1  0  0  0
  5 26  1  0  0  0
  5 95  1  0  0  0
  6 25  1  0  0  0
  6 96  1  0  0  0
  6 97  1  0  0  0
  7  8  2  0  0  0
  7 26  1  0  0  0
  7 29  1  0  0  0
  8  9  1  0  0  0
  8 22  1  0  0  0
  9 10  1  0  0  0
  9 27  2  0  0  0
 10 11  2  0  0  0
 10 15  1  0  0  0
 11 12  1  0  0  0
 11 98  1  0  0  0
 12 13  2  0  0  0
 12 99  1  0  0  0
 13 14  1  0  0  0
 13 31  1  0  0  0
 14 15  2  0  0  0
 14100  1  0  0  0
 15101  1  0  0  0
 16 17  2  0  0  0
 16 21  1  0  0  0
 16 31  1  0  0  0
 17 18  1  0  0  0
 17102  1  0  0  0
 18 19  2  0  0  0
 18103  1  0  0  0
 19 20  1  0  0  0
 19 24  1  0  0  0
 20 21  2  0  0  0
 20104  1  0  0  0
 21 23  1  0  0  0
 22 28  1  0  0  0
 22 32  2  0  0  0
 26 27  1  0  0  0
 28105  1  0  0  0
 28106  1  0  0  0
 29107  1  0  0  0
 29108  1  0  0  0
 33 34  1  0  0  0
 33 66  1  0  0  0
 33 70  2  0  0  0
 34 36  1  0  0  0
 34 59  1  0  0  0
 34109  1  0  0  0
 35 44  2  0  0  0
 35 45  1  0  0  0
 35 68  1  0  0  0
 36 56  1  0  0  0
 36110  1  0  0  0
 37 39  1  0  0  0
 37 47  1  0  0  0
 37 66  1  0  0  0
 37111  1  0  0  0
 38 43  2  0  0  0
 38 46  1  0  0  0
 38 47  1  0  0  0
 39 64  1  0  0  0
 39 67  2  0  0  0
 40 52  1  0  0  0
 40 53  2  0  0  0
 40 58  1  0  0  0
 41112  1  0  0  0
 41113  1  0  0  0
 41114  1  0  0  0
 41 48  1  0  0  0
 42 43  1  0  0  0
 42 66  1  0  0  0
 42115  1  0  0  0
 42116  1  0  0  0
 43 44  1  0  0  0
 44117  1  0  0  0
 45 46  2  0  0  0
 45118  1  0  0  0
 46119  1  0  0  0
 47120  1  0  0  0
 47121  1  0  0  0
 48 56  1  0  0  0
 48 65  1  0  0  0
 48122  1  0  0  0
 49 50  1  0  0  0
 49 53  1  0  0  0
 49 64  1  0  0  0
 49123  1  0  0  0
 50 51  1  0  0  0
 50124  1  0  0  0
 50125  1  0  0  0
 51 52  1  0  0  0
 51126  1  0  0  0
 51127  1  0  0  0
 52128  1  0  0  0
 52129  1  0  0  0
 53 54  1  0  0  0
 54 55  2  0  0  0
 54130  1  0  0  0
 55 57  1  0  0  0
 55131  1  0  0  0
 56 69  2  0  0  0
 57 58  2  0  0  0
 57132  1  0  0  0
 58133  1  0  0  0
 59 60  1  0  0  0
 59 61  1  0  0  0
 59 62  1  0  0  0
 60134  1  0  0  0
 60135  1  0  0  0
 60136  1  0  0  0
 61137  1  0  0  0
 61138  1  0  0  0
 61139  1  0  0  0
 62140  1  0  0  0
 62141  1  0  0  0
 62142  1  0  0  0
 63 65  1  0  0  0
 63143  1  0  0  0
 63144  1  0  0  0
 63145  1  0  0  0
 64146  1  0  0  0
 65147  1  0  0  0
 68 85  1  0  0  0
 71 72  2  0  0  0
 71 74  1  0  0  0
 71148  1  0  0  0
 72 76  1  0  0  0
 72149  1  0  0  0
 73 75  1  0  0  0
 73 76  2  0  0  0
 73150  1  0  0  0
 74 75  2  0  0  0
 74 84  1  0  0  0
 75 82  1  0  0  0
 76 86  1  0  0  0
 77 78  2  0  0  0
 77 79  1  0  0  0
 77 85  1  0  0  0
 78 83  1  0  0  0
 78 86  1  0  0  0
 79 80  1  0  0  0
 79 88  2  0  0  0
 80 81  1  0  0  0
 80151  1  0  0  0
 80152  1  0  0  0
 81 86  1  0  0  0
 81153  1  0  0  0
 81154  1  0  0  0
 82155  1  0  0  0
 82156  1  0  0  0
 82157  1  0  0  0
 83158  1  0  0  0
 83159  1  0  0  0
 83160  1  0  0  0
 84 87  1  0  0  0
 84161  1  0  0  0
 84162  1  0  0  0
 85163  1  0  0  0
 85164  1  0  0  0
 87165  1  0  0  0
M  ISO  4   1 100  68 101  85 101  87 100
M  END
> <chiral flag>
0

> <version>
0

> <s_m_source_file>
/data/baiqing/PycharmProjects/Reinvent-master-3.2/result/LINK_invent/BTK/process_docking_weight1_custom_product_contain_oxygen_bond_distance_aromatic_linkinvent_7_9_3/rearranged_h_0107.sdf

> <i_m_source_file_index>
74

> <r_mmod_Potential_Energy-OPLS-2005>
-60.4753036499023

> <r_mmod_Stretch_Energy-OPLS-2005>
46.177303314209

> <r_mmod_Bend_Energy-OPLS-2005>
105.815635681152

> <r_mmod_Torsional_Energy-OPLS-2005>
209.592803955078

> <r_mmod_Improper_Torsional_Energy-OPLS-2005>
2.98563432693481

> <r_mmod_Van_der_Waal_Energy-OPLS-2005>
175.120742797852

> <r_mmod_Electrostatic_Energy-OPLS-2005>
-388.318450927734

> <r_mmod_Solvation_Energy-OPLS-2005>
-224.614486694336

> <b_mmod_Minimization_Converged-OPLS-2005>
0

> <r_mmod_RMS_Derivative-OPLS-2005>
1.5125937461853

$$$$
74
                    3D
 Structure written by MMmdl.
165174  0  0  1  0            999 V2000
  -30.5912  -14.7790   20.4379 C   0  0  0  0  0  0
  -30.4410  -12.4749   19.4688 C   0  0  0  0  0  0
  -29.5112  -12.5089   18.2348 C   0  0  0  0  0  0
  -28.0397  -12.3235   18.6550 C   0  0  0  0  0  0
  -27.6428  -13.2307   19.8496 C   0  0  2  0  0  0
  -28.6913  -13.1783   20.9829 C   0  0  0  0  0  0
  -25.2527  -13.8203   20.5712 C   0  0  0  0  0  0
  -24.1812  -13.0449   20.9215 C   0  0  0  0  0  0
  -24.6402  -11.6925   20.8748 C   0  0  0  0  0  0
  -23.9078  -10.4296   21.0400 C   0  0  0  0  0  0
  -24.3620   -9.4223   21.9200 C   0  0  0  0  0  0
  -23.6286   -8.2264   22.0778 C   0  0  0  0  0  0
  -22.4291   -8.0286   21.3533 C   0  0  0  0  0  0
  -21.9947   -9.0239   20.4606 C   0  0  0  0  0  0
  -22.7262  -10.2128   20.3031 C   0  0  0  0  0  0
  -21.6866   -6.0747   22.5283 C   0  0  0  0  0  0
  -21.4019   -6.5645   23.8216 C   0  0  0  0  0  0
  -21.3648   -5.6792   24.9175 C   0  0  0  0  0  0
  -21.6033   -4.3055   24.7218 C   0  0  0  0  0  0
  -21.8826   -3.8151   23.4342 C   0  0  0  0  0  0
  -21.9202   -4.6975   22.3402 C   0  0  0  0  0  0
  -22.7833  -13.5223   21.1882 C   0  0  0  0  0  0
  -22.1669   -4.2159   21.0978 F   0  0  0  0  0  0
  -21.5614   -3.4535   25.7724 F   0  0  0  0  0  0
  -29.9886  -13.5392   20.3941 N   0  0  0  0  0  0
  -26.2954  -12.9401   20.3295 N   0  0  0  0  0  0
  -25.9333  -11.6548   20.5757 N   0  0  0  0  0  0
  -22.0477  -12.8198   22.0424 N   0  0  0  0  0  0
  -25.4225  -15.1924   20.4123 N   0  0  0  0  0  0
  -31.7842  -14.8941   20.1457 O   0  0  0  0  0  0
  -21.6652   -6.8885   21.4241 O   0  0  0  0  0  0
  -22.3516  -14.5527   20.6732 O   0  0  0  0  0  0
  -24.6326  -31.8533   23.1961 C   0  0  0  0  0  0
  -25.9137  -32.4749   23.8321 C   0  0  1  0  0  0
  -27.2233  -27.2438   20.1427 C   0  0  0  0  0  0
  -25.5928  -33.8552   24.2249 N   0  0  0  0  0  0
  -23.4311  -30.4738   21.5397 C   0  0  2  0  0  0
  -24.8803  -28.9129   20.1148 C   0  0  0  0  0  0
  -22.7511  -29.4592   22.4907 C   0  0  0  0  0  0
  -18.0290  -28.1382   22.8480 C   0  0  0  0  0  0
  -24.1488  -36.7282   23.2644 C   0  0  0  0  0  0
  -25.9774  -30.7624   21.3767 C   0  0  0  0  0  0
  -26.0527  -29.3810   20.7225 C   0  0  0  0  0  0
  -27.2301  -28.5621   20.7179 C   0  0  0  0  0  0
  -26.0297  -26.8440   19.5066 C   0  0  0  0  0  0
  -24.8743  -27.6530   19.4947 C   0  0  0  0  0  0
  -23.6514  -29.8029   20.1581 C   0  0  0  0  0  0
  -25.4116  -36.3070   24.0327 C   0  0  1  0  0  0
  -20.5897  -28.3700   23.1264 C   0  0  2  0  0  0
  -20.6776  -26.9415   22.5411 C   0  0  0  0  0  0
  -19.5751  -26.6380   21.5212 C   0  0  0  0  0  0
  -18.1931  -26.7923   22.1624 C   0  0  0  0  0  0
  -19.1544  -28.8856   23.2867 C   0  0  0  0  0  0
  -18.9466  -30.1456   23.8888 C   0  0  0  0  0  0
  -17.6465  -30.6586   24.0557 C   0  0  0  0  0  0
  -25.9054  -34.9438   23.5093 C   0  0  0  0  0  0
  -16.5356  -29.9081   23.6330 C   0  0  0  0  0  0
  -16.7277  -28.6498   23.0355 C   0  0  0  0  0  0
  -26.4500  -31.6579   25.0718 C   0  0  0  0  0  0
  -25.3724  -31.3728   26.1440 C   0  0  0  0  0  0
  -27.0350  -30.2994   24.6213 C   0  0  0  0  0  0
  -27.6047  -32.4329   25.7498 C   0  0  0  0  0  0
  -27.5576  -37.1798   24.8468 C   0  0  0  0  0  0
  -21.4216  -29.3044   22.3651 N   0  0  0  0  0  0
  -26.4291  -37.3769   23.9407 N   0  0  0  0  0  0
  -24.6997  -31.0486   22.0940 N   0  0  0  0  0  0
  -23.4202  -28.8143   23.3022 O   0  0  0  0  0  0
  -28.3146  -26.3407   20.1487 O   0  0  0  0  0  0
  -26.5636  -34.8916   22.4668 O   0  0  0  0  0  0
  -23.5473  -32.1361   23.7247 O   0  0  0  0  0  0
  -27.6718  -19.2971   23.7958 C   0  0  0  0  0  0
  -27.9777  -20.1355   22.7171 C   0  0  0  0  0  0
  -28.9383  -17.5588   22.7411 C   0  0  0  0  0  0
  -29.2218  -18.3366   21.5845 C   0  0  0  0  0  0
  -28.1723  -17.9896   23.8380 C   0  0  0  0  0  0
  -28.7972  -19.7710   21.6081 C   0  0  0  0  0  0
  -26.9108  -17.1213   25.8159 C   0  0  0  0  0  0
  -29.0384  -22.2982   21.0214 C   0  0  0  0  0  0
  -27.0150  -15.9946   26.8306 C   0  0  0  0  0  0
  -28.3953  -15.4005   26.5645 C   0  0  0  0  0  0
  -28.7894  -15.9342   25.1855 C   0  0  0  0  0  0
  -29.9799  -17.4257   20.5130 C   0  0  0  0  0  0
  -28.7511  -23.5596   20.0568 C   0  0  0  0  0  0
  -28.1214  -24.9386   20.6910 C   0  0  0  0  0  0
  -27.9392  -17.0997   24.9424 N   0  0  0  0  0  0
  -28.9963  -20.9315   20.6726 N   0  0  0  0  0  0
  -29.7708  -15.8902   20.5926 N   0  0  0  0  0  0
  -25.9637  -17.9136   25.8371 O   0  0  0  0  0  0
  -29.3935  -22.6077   22.1621 O   0  0  0  0  0  0
  -31.4789  -12.6125   19.1598 H   0  0  0  0  0  0
  -30.3996  -11.5011   19.9593 H   0  0  0  0  0  0
  -29.7964  -11.7317   17.5246 H   0  0  0  0  0  0
  -29.6244  -13.4599   17.7121 H   0  0  0  0  0  0
  -27.9083  -11.2764   18.9304 H   0  0  0  0  0  0
  -27.3760  -12.4983   17.8067 H   0  0  0  0  0  0
  -27.6308  -14.2477   19.4590 H   0  0  0  0  0  0
  -28.7345  -12.1837   21.4284 H   0  0  0  0  0  0
  -28.4223  -13.8629   21.7892 H   0  0  0  0  0  0
  -25.2750   -9.5726   22.4801 H   0  0  0  0  0  0
  -23.9980   -7.4676   22.7532 H   0  0  0  0  0  0
  -21.0899   -8.8750   19.8882 H   0  0  0  0  0  0
  -22.3732  -10.9665   19.6131 H   0  0  0  0  0  0
  -21.2016   -7.6152   23.9726 H   0  0  0  0  0  0
  -21.1454   -6.0511   25.9079 H   0  0  0  0  0  0
  -22.0610   -2.7616   23.2833 H   0  0  0  0  0  0
  -22.4085  -11.9842   22.4787 H   0  0  0  0  0  0
  -21.1081  -13.1198   22.2600 H   0  0  0  0  0  0
  -24.6553  -15.8461   20.5250 H   0  0  0  0  0  0
  -26.2650  -15.6333   20.0685 H   0  0  0  0  0  0
  -26.7204  -32.5395   23.1064 H   0  0  0  0  0  0
  -25.0055  -33.9684   25.0381 H   0  0  0  0  0  0
  -22.7284  -31.2962   21.3904 H   0  0  0  0  0  0
  -23.3752  -35.9613   23.3306 H   0  0  0  0  0  0
  -24.3577  -36.8907   22.2059 H   0  0  0  0  0  0
  -23.7237  -37.6481   23.6668 H   0  0  0  0  0  0
  -26.1154  -31.5209   20.6053 H   0  0  0  0  0  0
  -26.8548  -30.8157   22.0095 H   0  0  0  0  0  0
  -28.1316  -28.9198   21.1954 H   0  0  0  0  0  0
  -25.9829  -25.8783   19.0228 H   0  0  0  0  0  0
  -23.9772  -27.2900   19.0126 H   0  0  0  0  0  0
  -23.7784  -30.5769   19.4005 H   0  0  0  0  0  0
  -22.7693  -29.2373   19.8528 H   0  0  0  0  0  0
  -25.1298  -36.1918   25.0820 H   0  0  0  0  0  0
  -20.9984  -28.3274   24.1386 H   0  0  0  0  0  0
  -20.5664  -26.2312   23.3619 H   0  0  0  0  0  0
  -21.6644  -26.7425   22.1212 H   0  0  0  0  0  0
  -19.6914  -25.6288   21.1246 H   0  0  0  0  0  0
  -19.6686  -27.3184   20.6736 H   0  0  0  0  0  0
  -17.4202  -26.6665   21.4029 H   0  0  0  0  0  0
  -18.0335  -26.0067   22.9024 H   0  0  0  0  0  0
  -19.7945  -30.7272   24.2255 H   0  0  0  0  0  0
  -17.5022  -31.6264   24.5160 H   0  0  0  0  0  0
  -15.5358  -30.2981   23.7659 H   0  0  0  0  0  0
  -15.8677  -28.0813   22.7080 H   0  0  0  0  0  0
  -24.5904  -30.7070   25.7769 H   0  0  0  0  0  0
  -24.8909  -32.2896   26.4854 H   0  0  0  0  0  0
  -25.8045  -30.8917   27.0224 H   0  0  0  0  0  0
  -26.2935  -29.6741   24.1228 H   0  0  0  0  0  0
  -27.4016  -29.7261   25.4737 H   0  0  0  0  0  0
  -27.8820  -30.4265   23.9467 H   0  0  0  0  0  0
  -27.2644  -33.3635   26.2052 H   0  0  0  0  0  0
  -28.3869  -32.6881   25.0336 H   0  0  0  0  0  0
  -28.0700  -31.8471   26.5436 H   0  0  0  0  0  0
  -28.2599  -38.0091   24.7507 H   0  0  0  0  0  0
  -28.1067  -36.2620   24.6302 H   0  0  0  0  0  0
  -27.2294  -37.1459   25.8872 H   0  0  0  0  0  0
  -20.9408  -29.8765   21.6851 H   0  0  0  0  0  0
  -26.0169  -38.2845   24.1404 H   0  0  0  0  0  0
  -27.0730  -19.7012   24.5988 H   0  0  0  0  0  0
  -27.5408  -21.1197   22.7887 H   0  0  0  0  0  0
  -29.3197  -16.5548   22.8037 H   0  0  0  0  0  0
  -26.2259  -15.2673   26.6381 H   0  0  0  0  0  0
  -26.9119  -16.3626   27.8517 H   0  0  0  0  0  0
  -28.3903  -14.3100   26.5944 H   0  0  0  0  0  0
  -29.1027  -15.7500   27.3183 H   0  0  0  0  0  0
  -28.5936  -15.1767   24.4241 H   0  0  0  0  0  0
  -29.8490  -16.1912   25.1469 H   0  0  0  0  0  0
  -29.6864  -17.7595   19.5173 H   0  0  0  0  0  0
  -31.0475  -17.6340   20.5956 H   0  0  0  0  0  0
  -28.1229  -23.2310   19.2289 H   0  0  0  0  0  0
  -29.7142  -23.8087   19.6125 H   0  0  0  0  0  0
  -28.4925  -25.0132   21.7129 H   0  0  0  0  0  0
  -27.0546  -24.7575   20.8220 H   0  0  0  0  0  0
  -28.9656  -20.7198   19.6840 H   0  0  0  0  0  0
  -28.8092  -15.6344   20.7504 H   0  0  0  0  0  0
  1 25  1  0  0  0
  1 30  2  0  0  0
  1 87  1  0  0  0
  2  3  1  0  0  0
  2 25  1  0  0  0
  2 90  1  0  0  0
  2 91  1  0  0  0
  3  4  1  0  0  0
  3 92  1  0  0  0
  3 93  1  0  0  0
  4  5  1  0  0  0
  4 94  1  0  0  0
  4 95  1  0  0  0
  5  6  1  0  0  0
  5 26  1  0  0  0
  5 96  1  0  0  0
  6 25  1  0  0  0
  6 97  1  0  0  0
  6 98  1  0  0  0
  7  8  2  0  0  0
  7 26  1  0  0  0
  7 29  1  0  0  0
  8  9  1  0  0  0
  8 22  1  0  0  0
  9 10  1  0  0  0
  9 27  2  0  0  0
 10 11  2  0  0  0
 10 15  1  0  0  0
 11 12  1  0  0  0
 11 99  1  0  0  0
 12 13  2  0  0  0
 12100  1  0  0  0
 13 14  1  0  0  0
 13 31  1  0  0  0
 14 15  2  0  0  0
 14101  1  0  0  0
 15102  1  0  0  0
 16 17  2  0  0  0
 16 21  1  0  0  0
 16 31  1  0  0  0
 17 18  1  0  0  0
 17103  1  0  0  0
 18 19  2  0  0  0
 18104  1  0  0  0
 19 20  1  0  0  0
 19 24  1  0  0  0
 20 21  2  0  0  0
 20105  1  0  0  0
 21 23  1  0  0  0
 22 28  1  0  0  0
 22 32  2  0  0  0
 26 27  1  0  0  0
 28106  1  0  0  0
 28107  1  0  0  0
 29108  1  0  0  0
 29109  1  0  0  0
 33 34  1  0  0  0
 33 66  1  0  0  0
 33 70  2  0  0  0
 34 36  1  0  0  0
 34 59  1  0  0  0
 34110  1  0  0  0
 35 44  2  0  0  0
 35 45  1  0  0  0
 35 68  1  0  0  0
 36 56  1  0  0  0
 36111  1  0  0  0
 37 39  1  0  0  0
 37 47  1  0  0  0
 37 66  1  0  0  0
 37112  1  0  0  0
 38 43  2  0  0  0
 38 46  1  0  0  0
 38 47  1  0  0  0
 39 64  1  0  0  0
 39 67  2  0  0  0
 40 52  1  0  0  0
 40 53  2  0  0  0
 40 58  1  0  0  0
 41113  1  0  0  0
 41114  1  0  0  0
 41115  1  0  0  0
 41 48  1  0  0  0
 42 43  1  0  0  0
 42 66  1  0  0  0
 42116  1  0  0  0
 42117  1  0  0  0
 43 44  1  0  0  0
 44118  1  0  0  0
 45 46  2  0  0  0
 45119  1  0  0  0
 46120  1  0  0  0
 47121  1  0  0  0
 47122  1  0  0  0
 48 56  1  0  0  0
 48 65  1  0  0  0
 48123  1  0  0  0
 49 50  1  0  0  0
 49 53  1  0  0  0
 49 64  1  0  0  0
 49124  1  0  0  0
 50 51  1  0  0  0
 50125  1  0  0  0
 50126  1  0  0  0
 51 52  1  0  0  0
 51127  1  0  0  0
 51128  1  0  0  0
 52129  1  0  0  0
 52130  1  0  0  0
 53 54  1  0  0  0
 54 55  2  0  0  0
 54131  1  0  0  0
 55 57  1  0  0  0
 55132  1  0  0  0
 56 69  2  0  0  0
 57 58  2  0  0  0
 57133  1  0  0  0
 58134  1  0  0  0
 59 60  1  0  0  0
 59 61  1  0  0  0
 59 62  1  0  0  0
 60135  1  0  0  0
 60136  1  0  0  0
 60137  1  0  0  0
 61138  1  0  0  0
 61139  1  0  0  0
 61140  1  0  0  0
 62141  1  0  0  0
 62142  1  0  0  0
 62143  1  0  0  0
 63 65  1  0  0  0
 63144  1  0  0  0
 63145  1  0  0  0
 63146  1  0  0  0
 64147  1  0  0  0
 65148  1  0  0  0
 68 84  1  0  0  0
 71 72  2  0  0  0
 71 75  1  0  0  0
 71149  1  0  0  0
 72 76  1  0  0  0
 72150  1  0  0  0
 73 74  1  0  0  0
 73 75  2  0  0  0
 73151  1  0  0  0
 74 76  2  0  0  0
 74 82  1  0  0  0
 75 85  1  0  0  0
 76 86  1  0  0  0
 77 79  1  0  0  0
 77 85  1  0  0  0
 77 88  2  0  0  0
 78 83  1  0  0  0
 78 86  1  0  0  0
 78 89  2  0  0  0
 79 80  1  0  0  0
 79152  1  0  0  0
 79153  1  0  0  0
 80 81  1  0  0  0
 80154  1  0  0  0
 80155  1  0  0  0
 81 85  1  0  0  0
 81156  1  0  0  0
 81157  1  0  0  0
 82 87  1  0  0  0
 82158  1  0  0  0
 82159  1  0  0  0
 83 84  1  0  0  0
 83160  1  0  0  0
 83161  1  0  0  0
 84162  1  0  0  0
 84163  1  0  0  0
 86164  1  0  0  0
 87165  1  0  0  0
M  ISO  4   1 100  68 101  84 101  87 100
M  END
> <chiral flag>
0

> <version>
0

> <s_m_source_file>
/data/baiqing/PycharmProjects/Reinvent-master-3.2/result/LINK_invent/BTK/process_docking_weight1_custom_product_contain_oxygen_bond_distance_aromatic_linkinvent_7_9_3/rearranged_h_0107.sdf

> <i_m_source_file_index>
75

> <r_mmod_Potential_Energy-OPLS-2005>
299.911071777344

> <r_mmod_Stretch_Energy-OPLS-2005>
166.448287963867

> <r_mmod_Bend_Energy-OPLS-2005>
250.972122192383

> <r_mmod_Torsional_Energy-OPLS-2005>
299.595092773438

> <r_mmod_Improper_Torsional_Energy-OPLS-2005>
5.78241157531738

> <r_mmod_Van_der_Waal_Energy-OPLS-2005>
158.020751953125

> <r_mmod_Electrostatic_Energy-OPLS-2005>
-420.684875488281

> <r_mmod_Solvation_Energy-OPLS-2005>
-258.410491943359

> <b_mmod_Minimization_Converged-OPLS-2005>
0

> <r_mmod_RMS_Derivative-OPLS-2005>
1.17083537578583

$$$$
75
                    3D
 Structure written by MMmdl.
160168  0  0  1  0            999 V2000
  -30.5843  -14.6325   20.4786 C   0  0  0  0  0  0
  -30.4399  -12.3888   19.4320 C   0  0  0  0  0  0
  -29.4991  -12.5259   18.2132 C   0  0  0  0  0  0
  -28.0215  -12.3679   18.6241 C   0  0  0  0  0  0
  -27.6581  -13.2101   19.8740 C   0  0  2  0  0  0
  -28.7086  -13.0231   20.9932 C   0  0  0  0  0  0
  -25.2595  -13.8142   20.5718 C   0  0  0  0  0  0
  -24.1846  -13.0437   20.9200 C   0  0  0  0  0  0
  -24.6387  -11.6899   20.8729 C   0  0  0  0  0  0
  -23.9049  -10.4302   21.0395 C   0  0  0  0  0  0
  -24.3609   -9.4223   21.9175 C   0  0  0  0  0  0
  -23.6301   -8.2253   22.0739 C   0  0  0  0  0  0
  -22.4271   -8.0285   21.3536 C   0  0  0  0  0  0
  -21.9902   -9.0264   20.4625 C   0  0  0  0  0  0
  -22.7224  -10.2146   20.3048 C   0  0  0  0  0  0
  -21.6854   -6.0747   22.5289 C   0  0  0  0  0  0
  -21.4012   -6.5650   23.8226 C   0  0  0  0  0  0
  -21.3658   -5.6792   24.9171 C   0  0  0  0  0  0
  -21.6049   -4.3060   24.7215 C   0  0  0  0  0  0
  -21.8817   -3.8159   23.4334 C   0  0  0  0  0  0
  -21.9199   -4.6973   22.3398 C   0  0  0  0  0  0
  -22.7860  -13.5227   21.1862 C   0  0  0  0  0  0
  -22.1669   -4.2167   21.0971 F   0  0  0  0  0  0
  -21.5630   -3.4537   25.7730 F   0  0  0  0  0  0
  -30.0195  -13.3862   20.4323 N   0  0  0  0  0  0
  -26.3022  -12.9319   20.3385 N   0  0  0  0  0  0
  -25.9322  -11.6477   20.5763 N   0  0  0  0  0  0
  -22.0518  -12.8230   22.0404 N   0  0  0  0  0  0
  -25.4341  -15.1863   20.4167 N   0  0  0  0  0  0
  -31.7230  -14.8417   20.0499 O   0  0  0  0  0  0
  -21.6638   -6.8878   21.4243 O   0  0  0  0  0  0
  -22.3576  -14.5561   20.6719 O   0  0  0  0  0  0
  -24.6257  -31.8583   23.1999 C   0  0  0  0  0  0
  -25.9078  -32.4767   23.8358 C   0  0  1  0  0  0
  -27.2216  -27.3208   20.1190 C   0  0  0  0  0  0
  -25.5885  -33.8573   24.2302 N   0  0  0  0  0  0
  -23.4187  -30.4825   21.5442 C   0  0  2  0  0  0
  -24.8632  -28.9304   20.1119 C   0  0  0  0  0  0
  -22.7476  -29.4617   22.4925 C   0  0  0  0  0  0
  -18.0295  -28.1370   22.8497 C   0  0  0  0  0  0
  -24.1477  -36.7313   23.2646 C   0  0  0  0  0  0
  -25.9605  -30.7919   21.3619 C   0  0  0  0  0  0
  -26.0332  -29.4162   20.7126 C   0  0  0  0  0  0
  -27.2180  -28.6237   20.7003 C   0  0  0  0  0  0
  -26.0322  -26.8799   19.4993 C   0  0  0  0  0  0
  -24.8648  -27.6685   19.4947 C   0  0  0  0  0  0
  -23.6332  -29.8159   20.1589 C   0  0  0  0  0  0
  -25.4082  -36.3094   24.0364 C   0  0  1  0  0  0
  -20.5889  -28.3658   23.1294 C   0  0  2  0  0  0
  -20.6772  -26.9368   22.5423 C   0  0  0  0  0  0
  -19.5745  -26.6352   21.5226 C   0  0  0  0  0  0
  -18.1927  -26.7939   22.1619 C   0  0  0  0  0  0
  -19.1545  -28.8844   23.2906 C   0  0  0  0  0  0
  -18.9474  -30.1454   23.8891 C   0  0  0  0  0  0
  -17.6473  -30.6575   24.0584 C   0  0  0  0  0  0
  -25.9001  -34.9455   23.5139 C   0  0  0  0  0  0
  -16.5359  -29.9088   23.6316 C   0  0  0  0  0  0
  -16.7283  -28.6513   23.0319 C   0  0  0  0  0  0
  -26.4455  -31.6570   25.0721 C   0  0  0  0  0  0
  -25.3735  -31.3739   26.1501 C   0  0  0  0  0  0
  -27.0260  -30.3008   24.6087 C   0  0  0  0  0  0
  -27.6005  -32.4297   25.7502 C   0  0  0  0  0  0
  -27.5582  -37.1800   24.8473 C   0  0  0  0  0  0
  -21.4177  -29.3048   22.3712 N   0  0  0  0  0  0
  -26.4271  -37.3771   23.9447 N   0  0  0  0  0  0
  -24.6893  -31.0608   22.0938 N   0  0  0  0  0  0
  -23.4216  -28.8110   23.2939 O   0  0  0  0  0  0
  -28.3384  -26.4809   20.1208 O   0  0  0  0  0  0
  -26.5582  -34.8925   22.4701 O   0  0  0  0  0  0
  -23.5414  -32.1373   23.7329 O   0  0  0  0  0  0
  -30.1778  -17.7148   19.5302 C   0  0  0  0  0  0
  -28.9141  -17.8789   21.5727 C   0  0  0  0  0  0
  -28.5267  -19.2337   21.2530 C   0  0  0  0  0  0
  -29.6751  -17.0680   20.6812 C   0  0  0  0  0  0
  -29.9171  -19.0937   19.2874 C   0  0  0  0  0  0
  -29.1182  -19.9133   20.1391 C   0  0  0  0  0  0
  -28.5641  -17.2685   22.9202 C   0  0  0  0  0  0
  -27.3942  -19.9201   22.0304 C   0  0  0  0  0  0
  -28.6922  -23.8492   19.8843 C   0  0  0  0  0  0
  -28.1900  -25.1256   20.6981 C   0  0  0  0  0  0
  -28.6324  -22.4180   20.5905 C   0  0  0  0  0  0
  -30.3929  -19.6502   18.1059 N   0  0  0  0  0  0
  -29.7658  -15.6282   20.9287 N   0  0  0  0  0  0
  -26.3888  -19.0601   22.5397 O   0  0  0  0  0  0
  -28.9245  -21.2631   19.7225 O   0  0  0  0  0  0
  -31.4779  -12.5297   19.1262 H   0  0  0  0  0  0
  -30.3844  -11.3829   19.8508 H   0  0  0  0  0  0
  -29.7566  -11.7911   17.4495 H   0  0  0  0  0  0
  -29.6423  -13.5050   17.7505 H   0  0  0  0  0  0
  -27.8414  -11.3106   18.8217 H   0  0  0  0  0  0
  -27.3684  -12.6365   17.7925 H   0  0  0  0  0  0
  -27.6823  -14.2529   19.5606 H   0  0  0  0  0  0
  -28.7240  -11.9838   21.3257 H   0  0  0  0  0  0
  -28.4588  -13.6120   21.8770 H   0  0  0  0  0  0
  -25.2745   -9.5716   22.4751 H   0  0  0  0  0  0
  -24.0019   -7.4638   22.7451 H   0  0  0  0  0  0
  -21.0838   -8.8774   19.8930 H   0  0  0  0  0  0
  -22.3668  -10.9692   19.6171 H   0  0  0  0  0  0
  -21.1992   -7.6156   23.9726 H   0  0  0  0  0  0
  -21.1483   -6.0519   25.9077 H   0  0  0  0  0  0
  -22.0591   -2.7622   23.2825 H   0  0  0  0  0  0
  -22.4127  -11.9869   22.4755 H   0  0  0  0  0  0
  -21.1152  -13.1254   22.2638 H   0  0  0  0  0  0
  -24.6757  -15.8438   20.5517 H   0  0  0  0  0  0
  -26.2914  -15.6305   20.1179 H   0  0  0  0  0  0
  -26.7129  -32.5417   23.1101 H   0  0  0  0  0  0
  -25.0120  -33.9730   25.0504 H   0  0  0  0  0  0
  -22.7130  -31.3052   21.3995 H   0  0  0  0  0  0
  -23.3720  -35.9653   23.3260 H   0  0  0  0  0  0
  -24.3610  -36.8955   22.2074 H   0  0  0  0  0  0
  -23.7231  -37.6517   23.6666 H   0  0  0  0  0  0
  -26.0752  -31.5389   20.5751 H   0  0  0  0  0  0
  -26.8525  -30.8569   21.9739 H   0  0  0  0  0  0
  -28.1247  -29.0002   21.1553 H   0  0  0  0  0  0
  -26.0063  -25.9124   19.0225 H   0  0  0  0  0  0
  -23.9698  -27.2940   19.0169 H   0  0  0  0  0  0
  -23.7634  -30.5987   19.4106 H   0  0  0  0  0  0
  -22.7510  -29.2563   19.8441 H   0  0  0  0  0  0
  -25.1232  -36.1952   25.0850 H   0  0  0  0  0  0
  -20.9999  -28.3204   24.1404 H   0  0  0  0  0  0
  -20.5646  -26.2251   23.3609 H   0  0  0  0  0  0
  -21.6635  -26.7395   22.1206 H   0  0  0  0  0  0
  -19.6898  -25.6266   21.1238 H   0  0  0  0  0  0
  -19.6687  -27.3185   20.6778 H   0  0  0  0  0  0
  -17.4195  -26.6699   21.4017 H   0  0  0  0  0  0
  -18.0299  -26.0097   22.9013 H   0  0  0  0  0  0
  -19.7957  -30.7301   24.2194 H   0  0  0  0  0  0
  -17.5030  -31.6243   24.5204 H   0  0  0  0  0  0
  -15.5357  -30.3004   23.7648 H   0  0  0  0  0  0
  -15.8683  -28.0879   22.6967 H   0  0  0  0  0  0
  -24.5911  -30.7033   25.7935 H   0  0  0  0  0  0
  -24.8917  -32.2925   26.4867 H   0  0  0  0  0  0
  -25.8116  -30.9040   27.0310 H   0  0  0  0  0  0
  -26.2823  -29.6812   24.1073 H   0  0  0  0  0  0
  -27.4003  -29.7172   25.4499 H   0  0  0  0  0  0
  -27.8648  -30.4346   23.9253 H   0  0  0  0  0  0
  -27.2596  -33.3601   26.2051 H   0  0  0  0  0  0
  -28.3835  -32.6835   25.0344 H   0  0  0  0  0  0
  -28.0631  -31.8445   26.5464 H   0  0  0  0  0  0
  -28.2541  -38.0144   24.7508 H   0  0  0  0  0  0
  -28.1111  -36.2671   24.6228 H   0  0  0  0  0  0
  -27.2350  -37.1385   25.8887 H   0  0  0  0  0  0
  -20.9294  -29.8860   21.7051 H   0  0  0  0  0  0
  -26.0147  -38.2835   24.1424 H   0  0  0  0  0  0
  -30.7444  -17.1406   18.8095 H   0  0  0  0  0  0
  -28.5376  -18.0420   23.6881 H   0  0  0  0  0  0
  -29.3355  -16.5692   23.2399 H   0  0  0  0  0  0
  -27.6084  -16.7443   22.8909 H   0  0  0  0  0  0
  -26.8196  -20.5345   21.3421 H   0  0  0  0  0  0
  -27.7987  -20.5583   22.8188 H   0  0  0  0  0  0
  -29.7190  -24.0169   19.5585 H   0  0  0  0  0  0
  -28.0967  -23.7947   18.9738 H   0  0  0  0  0  0
  -28.7430  -25.1542   21.6373 H   0  0  0  0  0  0
  -27.1559  -24.9547   21.0020 H   0  0  0  0  0  0
  -27.6288  -22.3546   20.9964 H   0  0  0  0  0  0
  -29.3161  -22.4006   21.4422 H   0  0  0  0  0  0
  -30.3091  -19.0301   17.3053 H   0  0  0  0  0  0
  -29.9881  -20.5635   17.9140 H   0  0  0  0  0  0
  -28.9656  -15.2630   21.4215 H   0  0  0  0  0  0
  -25.6885  -19.6059   22.8823 H   0  0  0  0  0  0
  1 25  1  0  0  0
  1 30  2  0  0  0
  1 83  1  0  0  0
  2  3  1  0  0  0
  2 25  1  0  0  0
  2 86  1  0  0  0
  2 87  1  0  0  0
  3  4  1  0  0  0
  3 88  1  0  0  0
  3 89  1  0  0  0
  4  5  1  0  0  0
  4 90  1  0  0  0
  4 91  1  0  0  0
  5  6  1  0  0  0
  5 26  1  0  0  0
  5 92  1  0  0  0
  6 25  1  0  0  0
  6 93  1  0  0  0
  6 94  1  0  0  0
  7  8  2  0  0  0
  7 26  1  0  0  0
  7 29  1  0  0  0
  8  9  1  0  0  0
  8 22  1  0  0  0
  9 10  1  0  0  0
  9 27  2  0  0  0
 10 11  2  0  0  0
 10 15  1  0  0  0
 11 12  1  0  0  0
 11 95  1  0  0  0
 12 13  2  0  0  0
 12 96  1  0  0  0
 13 14  1  0  0  0
 13 31  1  0  0  0
 14 15  2  0  0  0
 14 97  1  0  0  0
 15 98  1  0  0  0
 16 17  2  0  0  0
 16 21  1  0  0  0
 16 31  1  0  0  0
 17 18  1  0  0  0
 17 99  1  0  0  0
 18 19  2  0  0  0
 18100  1  0  0  0
 19 20  1  0  0  0
 19 24  1  0  0  0
 20 21  2  0  0  0
 20101  1  0  0  0
 21 23  1  0  0  0
 22 28  1  0  0  0
 22 32  2  0  0  0
 26 27  1  0  0  0
 28102  1  0  0  0
 28103  1  0  0  0
 29104  1  0  0  0
 29105  1  0  0  0
 33 34  1  0  0  0
 33 66  1  0  0  0
 33 70  2  0  0  0
 34 36  1  0  0  0
 34 59  1  0  0  0
 34106  1  0  0  0
 35 44  2  0  0  0
 35 45  1  0  0  0
 35 68  1  0  0  0
 36 56  1  0  0  0
 36107  1  0  0  0
 37 39  1  0  0  0
 37 47  1  0  0  0
 37 66  1  0  0  0
 37108  1  0  0  0
 38 43  2  0  0  0
 38 46  1  0  0  0
 38 47  1  0  0  0
 39 64  1  0  0  0
 39 67  2  0  0  0
 40 52  1  0  0  0
 40 53  2  0  0  0
 40 58  1  0  0  0
 41109  1  0  0  0
 41110  1  0  0  0
 41111  1  0  0  0
 41 48  1  0  0  0
 42 43  1  0  0  0
 42 66  1  0  0  0
 42112  1  0  0  0
 42113  1  0  0  0
 43 44  1  0  0  0
 44114  1  0  0  0
 45 46  2  0  0  0
 45115  1  0  0  0
 46116  1  0  0  0
 47117  1  0  0  0
 47118  1  0  0  0
 48 56  1  0  0  0
 48 65  1  0  0  0
 48119  1  0  0  0
 49 50  1  0  0  0
 49 53  1  0  0  0
 49 64  1  0  0  0
 49120  1  0  0  0
 50 51  1  0  0  0
 50121  1  0  0  0
 50122  1  0  0  0
 51 52  1  0  0  0
 51123  1  0  0  0
 51124  1  0  0  0
 52125  1  0  0  0
 52126  1  0  0  0
 53 54  1  0  0  0
 54 55  2  0  0  0
 54127  1  0  0  0
 55 57  1  0  0  0
 55128  1  0  0  0
 56 69  2  0  0  0
 57 58  2  0  0  0
 57129  1  0  0  0
 58130  1  0  0  0
 59 60  1  0  0  0
 59 61  1  0  0  0
 59 62  1  0  0  0
 60131  1  0  0  0
 60132  1  0  0  0
 60133  1  0  0  0
 61134  1  0  0  0
 61135  1  0  0  0
 61136  1  0  0  0
 62137  1  0  0  0
 62138  1  0  0  0
 62139  1  0  0  0
 63 65  1  0  0  0
 63140  1  0  0  0
 63141  1  0  0  0
 63142  1  0  0  0
 64143  1  0  0  0
 65144  1  0  0  0
 68 80  1  0  0  0
 71 74  2  0  0  0
 71 75  1  0  0  0
 71145  1  0  0  0
 72 73  2  0  0  0
 72 74  1  0  0  0
 72 77  1  0  0  0
 73 76  1  0  0  0
 73 78  1  0  0  0
 74 83  1  0  0  0
 75 76  2  0  0  0
 75 82  1  0  0  0
 76 85  1  0  0  0
 77146  1  0  0  0
 77147  1  0  0  0
 77148  1  0  0  0
 78 84  1  0  0  0
 78149  1  0  0  0
 78150  1  0  0  0
 79 80  1  0  0  0
 79 81  1  0  0  0
 79151  1  0  0  0
 79152  1  0  0  0
 80153  1  0  0  0
 80154  1  0  0  0
 81 85  1  0  0  0
 81155  1  0  0  0
 81156  1  0  0  0
 82157  1  0  0  0
 82158  1  0  0  0
 83159  1  0  0  0
 84160  1  0  0  0
M  ISO  4   1 100  68 101  80 101  83 100
M  END
> <chiral flag>
0

> <version>
0

> <s_m_source_file>
/data/baiqing/PycharmProjects/Reinvent-master-3.2/result/LINK_invent/BTK/process_docking_weight1_custom_product_contain_oxygen_bond_distance_aromatic_linkinvent_7_9_3/rearranged_h_0107.sdf

> <i_m_source_file_index>
76

> <r_mmod_Potential_Energy-OPLS-2005>
97.284049987793

> <r_mmod_Stretch_Energy-OPLS-2005>
84.3291091918945

> <r_mmod_Bend_Energy-OPLS-2005>
165.224670410156

> <r_mmod_Torsional_Energy-OPLS-2005>
270.477264404297

> <r_mmod_Improper_Torsional_Energy-OPLS-2005>
9.77428340911865

> <r_mmod_Van_der_Waal_Energy-OPLS-2005>
155.234359741211

> <r_mmod_Electrostatic_Energy-OPLS-2005>
-400.493743896484

> <r_mmod_Solvation_Energy-OPLS-2005>
-234.301696777344

> <b_mmod_Minimization_Converged-OPLS-2005>
0

> <r_mmod_RMS_Derivative-OPLS-2005>
5.07051706314087

$$$$
76
                    3D
 Structure written by MMmdl.
169177  0  0  1  0            999 V2000
  -30.7234  -14.4326   20.5694 C   0  0  0  0  0  0
  -30.4151  -12.2811   19.4223 C   0  0  0  0  0  0
  -29.5029  -12.5129   18.2024 C   0  0  0  0  0  0
  -28.0169  -12.3813   18.5983 C   0  0  0  0  0  0
  -27.6591  -13.2085   19.8641 C   0  0  2  0  0  0
  -28.7017  -12.9812   20.9853 C   0  0  0  0  0  0
  -25.2541  -13.8178   20.5629 C   0  0  0  0  0  0
  -24.1820  -13.0416   20.9163 C   0  0  0  0  0  0
  -24.6404  -11.6897   20.8689 C   0  0  0  0  0  0
  -23.9100  -10.4254   21.0360 C   0  0  0  0  0  0
  -24.3661   -9.4184   21.9147 C   0  0  0  0  0  0
  -23.6311   -8.2228   22.0762 C   0  0  0  0  0  0
  -22.4265   -8.0247   21.3548 C   0  0  0  0  0  0
  -21.9907   -9.0227   20.4643 C   0  0  0  0  0  0
  -22.7248  -10.2088   20.3027 C   0  0  0  0  0  0
  -21.6840   -6.0712   22.5279 C   0  0  0  0  0  0
  -21.4009   -6.5635   23.8203 C   0  0  0  0  0  0
  -21.3664   -5.6797   24.9161 C   0  0  0  0  0  0
  -21.6079   -4.3062   24.7227 C   0  0  0  0  0  0
  -21.8814   -3.8149   23.4355 C   0  0  0  0  0  0
  -21.9188   -4.6956   22.3388 C   0  0  0  0  0  0
  -22.7836  -13.5160   21.1808 C   0  0  0  0  0  0
  -22.1635   -4.2165   21.0971 F   0  0  0  0  0  0
  -21.5643   -3.4556   25.7743 F   0  0  0  0  0  0
  -30.0392  -13.2642   20.4414 N   0  0  0  0  0  0
  -26.2979  -12.9353   20.3269 N   0  0  0  0  0  0
  -25.9323  -11.6521   20.5762 N   0  0  0  0  0  0
  -22.0489  -12.8140   22.0377 N   0  0  0  0  0  0
  -25.4228  -15.1900   20.3960 N   0  0  0  0  0  0
  -31.8743  -14.5779   20.1497 O   0  0  0  0  0  0
  -21.6625   -6.8832   21.4220 O   0  0  0  0  0  0
  -22.3486  -14.5449   20.6615 O   0  0  0  0  0  0
  -24.6171  -31.8723   23.2067 C   0  0  0  0  0  0
  -25.9061  -32.4835   23.8393 C   0  0  1  0  0  0
  -27.2350  -27.4462   20.0938 C   0  0  0  0  0  0
  -25.5905  -33.8636   24.2318 N   0  0  0  0  0  0
  -23.4044  -30.4891   21.5495 C   0  0  2  0  0  0
  -24.8493  -28.9573   20.1183 C   0  0  0  0  0  0
  -22.7450  -29.4663   22.5034 C   0  0  0  0  0  0
  -18.0273  -28.1401   22.8479 C   0  0  0  0  0  0
  -24.1475  -36.7311   23.2633 C   0  0  0  0  0  0
  -25.9326  -30.8319   21.3645 C   0  0  0  0  0  0
  -26.0076  -29.4669   20.7163 C   0  0  0  0  0  0
  -27.2009  -28.7165   20.7046 C   0  0  0  0  0  0
  -26.0543  -26.9429   19.4957 C   0  0  0  0  0  0
  -24.8665  -27.6924   19.5080 C   0  0  0  0  0  0
  -23.6129  -29.8202   20.1653 C   0  0  0  0  0  0
  -25.4091  -36.3115   24.0338 C   0  0  1  0  0  0
  -20.5859  -28.3670   23.1339 C   0  0  2  0  0  0
  -20.6769  -26.9408   22.5430 C   0  0  0  0  0  0
  -19.5739  -26.6400   21.5241 C   0  0  0  0  0  0
  -18.1916  -26.7945   22.1633 C   0  0  0  0  0  0
  -19.1517  -28.8850   23.2893 C   0  0  0  0  0  0
  -18.9466  -30.1464   23.8902 C   0  0  0  0  0  0
  -17.6467  -30.6594   24.0567 C   0  0  0  0  0  0
  -25.9056  -34.9490   23.5144 C   0  0  0  0  0  0
  -16.5357  -29.9105   23.6325 C   0  0  0  0  0  0
  -16.7260  -28.6530   23.0319 C   0  0  0  0  0  0
  -26.4483  -31.6595   25.0726 C   0  0  0  0  0  0
  -25.3735  -31.3724   26.1463 C   0  0  0  0  0  0
  -27.0319  -30.3029   24.6120 C   0  0  0  0  0  0
  -27.6086  -32.4298   25.7467 C   0  0  0  0  0  0
  -27.5600  -37.1767   24.8449 C   0  0  0  0  0  0
  -21.4168  -29.3036   22.3761 N   0  0  0  0  0  0
  -26.4265  -37.3817   23.9468 N   0  0  0  0  0  0
  -24.6691  -31.0797   22.0982 N   0  0  0  0  0  0
  -23.4227  -28.8245   23.3096 O   0  0  0  0  0  0
  -28.4211  -26.7463   20.1236 O   0  0  0  0  0  0
  -26.5638  -34.8948   22.4712 O   0  0  0  0  0  0
  -23.5363  -32.1509   23.7438 O   0  0  0  0  0  0
  -31.5273  -20.5865   18.9248 C   0  0  0  0  0  0
  -30.9038  -21.6796   19.5420 C   0  0  0  0  0  0
  -31.0106  -19.2864   19.0727 C   0  0  0  0  0  0
  -29.8373  -19.0766   19.8481 C   0  0  0  0  0  0
  -29.6838  -21.5079   20.2299 C   0  0  0  0  0  0
  -29.1265  -20.2133   20.3170 C   0  0  0  0  0  0
  -30.2959  -16.7548   20.9091 C   0  0  0  0  0  0
  -31.7619  -18.1640   18.3796 C   0  0  0  0  0  0
  -25.5465  -21.2076   17.9882 C   0  0  0  0  0  0
  -29.2983  -17.6696   20.1696 C   0  0  0  0  0  0
  -26.5789  -21.3236   19.1158 C   0  0  0  0  0  0
  -29.7482  -24.7249   19.9452 C   0  0  0  0  0  0
  -26.8571  -19.9808   19.8208 C   0  0  0  0  0  0
  -28.4303  -25.4228   19.5984 C   0  0  0  0  0  0
  -29.6556  -23.7437   21.1363 C   0  0  0  0  0  0
  -29.9534  -15.4596   20.9549 N   0  0  0  0  0  0
  -31.3453  -17.1964   21.3908 O   0  0  0  0  0  0
  -28.9647  -22.5401   20.8031 O   0  0  0  0  0  0
  -27.8624  -20.0867   20.8331 O   0  0  0  0  0  0
  -31.4647  -12.3601   19.1356 H   0  0  0  0  0  0
  -30.2819  -11.2730   19.8187 H   0  0  0  0  0  0
  -29.7485  -11.8049   17.4109 H   0  0  0  0  0  0
  -29.6943  -13.5041   17.7902 H   0  0  0  0  0  0
  -27.8111  -11.3262   18.7754 H   0  0  0  0  0  0
  -27.3820  -12.6777   17.7638 H   0  0  0  0  0  0
  -27.6979  -14.2575   19.5702 H   0  0  0  0  0  0
  -28.6685  -11.9464   21.3258 H   0  0  0  0  0  0
  -28.4736  -13.5884   21.8619 H   0  0  0  0  0  0
  -25.2825   -9.5693   22.4722 H   0  0  0  0  0  0
  -24.0042   -7.4629   22.7510 H   0  0  0  0  0  0
  -21.0822   -8.8703   19.8956 H   0  0  0  0  0  0
  -22.3676  -10.9609   19.6149 H   0  0  0  0  0  0
  -21.1965   -7.6143   23.9708 H   0  0  0  0  0  0
  -21.1506   -6.0520   25.9063 H   0  0  0  0  0  0
  -22.0590   -2.7620   23.2848 H   0  0  0  0  0  0
  -22.4106  -11.9848   22.4877 H   0  0  0  0  0  0
  -21.1121  -13.1183   22.2603 H   0  0  0  0  0  0
  -24.6478  -15.8395   20.4745 H   0  0  0  0  0  0
  -26.2505  -15.6202   20.0054 H   0  0  0  0  0  0
  -26.7150  -32.5544   23.1173 H   0  0  0  0  0  0
  -24.9973  -33.9781   25.0403 H   0  0  0  0  0  0
  -22.6940  -31.3047   21.4050 H   0  0  0  0  0  0
  -23.3776  -35.9597   23.3225 H   0  0  0  0  0  0
  -24.3626  -36.9015   22.2071 H   0  0  0  0  0  0
  -23.7158  -37.6458   23.6707 H   0  0  0  0  0  0
  -26.0493  -31.5921   20.5912 H   0  0  0  0  0  0
  -26.8222  -30.8863   21.9813 H   0  0  0  0  0  0
  -28.0972  -29.1067   21.1674 H   0  0  0  0  0  0
  -26.0232  -25.9796   19.0099 H   0  0  0  0  0  0
  -23.9760  -27.2900   19.0466 H   0  0  0  0  0  0
  -23.7344  -30.5930   19.4059 H   0  0  0  0  0  0
  -22.7395  -29.2398   19.8639 H   0  0  0  0  0  0
  -25.1241  -36.1957   25.0826 H   0  0  0  0  0  0
  -20.9899  -28.3227   24.1479 H   0  0  0  0  0  0
  -20.5699  -26.2289   23.3617 H   0  0  0  0  0  0
  -21.6639  -26.7481   22.1198 H   0  0  0  0  0  0
  -19.6900  -25.6327   21.1246 H   0  0  0  0  0  0
  -19.6671  -27.3242   20.6800 H   0  0  0  0  0  0
  -17.4185  -26.6696   21.4030 H   0  0  0  0  0  0
  -18.0281  -26.0088   22.9031 H   0  0  0  0  0  0
  -19.7953  -30.7273   24.2261 H   0  0  0  0  0  0
  -17.5035  -31.6271   24.5190 H   0  0  0  0  0  0
  -15.5355  -30.3015   23.7667 H   0  0  0  0  0  0
  -15.8662  -28.0883   22.7005 H   0  0  0  0  0  0
  -24.5862  -30.7133   25.7781 H   0  0  0  0  0  0
  -24.8974  -32.2894   26.4954 H   0  0  0  0  0  0
  -25.8049  -30.8829   27.0198 H   0  0  0  0  0  0
  -26.2867  -29.6748   24.1216 H   0  0  0  0  0  0
  -27.4144  -29.7306   25.4585 H   0  0  0  0  0  0
  -27.8683  -30.4359   23.9249 H   0  0  0  0  0  0
  -27.2750  -33.3602   26.2069 H   0  0  0  0  0  0
  -28.3867  -32.6838   25.0256 H   0  0  0  0  0  0
  -28.0777  -31.8397   26.5345 H   0  0  0  0  0  0
  -28.2513  -38.0168   24.7671 H   0  0  0  0  0  0
  -28.1202  -36.2729   24.6018 H   0  0  0  0  0  0
  -27.2387  -37.1082   25.8858 H   0  0  0  0  0  0
  -20.9384  -29.8775   21.6961 H   0  0  0  0  0  0
  -26.0153  -38.2877   24.1556 H   0  0  0  0  0  0
  -32.4267  -20.7572   18.3486 H   0  0  0  0  0  0
  -31.3717  -22.6408   19.4226 H   0  0  0  0  0  0
  -32.1626  -18.5151   17.4282 H   0  0  0  0  0  0
  -31.1342  -17.3028   18.1561 H   0  0  0  0  0  0
  -32.6025  -17.8451   18.9980 H   0  0  0  0  0  0
  -25.2973  -22.1915   17.5905 H   0  0  0  0  0  0
  -24.6246  -20.7428   18.3425 H   0  0  0  0  0  0
  -25.9315  -20.6043   17.1629 H   0  0  0  0  0  0
  -28.9906  -17.1914   19.2384 H   0  0  0  0  0  0
  -28.4065  -17.7186   20.7951 H   0  0  0  0  0  0
  -26.2332  -22.0528   19.8505 H   0  0  0  0  0  0
  -27.4954  -21.7303   18.6859 H   0  0  0  0  0  0
  -30.5222  -25.4663   20.1570 H   0  0  0  0  0  0
  -30.0738  -24.2111   19.0447 H   0  0  0  0  0  0
  -27.1313  -19.2165   19.0897 H   0  0  0  0  0  0
  -25.9404  -19.6281   20.2924 H   0  0  0  0  0  0
  -27.5981  -24.8258   19.9768 H   0  0  0  0  0  0
  -28.3307  -25.4842   18.5142 H   0  0  0  0  0  0
  -29.1149  -24.2127   21.9593 H   0  0  0  0  0  0
  -30.6395  -23.5012   21.5381 H   0  0  0  0  0  0
  -28.9720  -15.2484   21.0013 H   0  0  0  0  0  0
  1 25  1  0  0  0
  1 30  2  0  0  0
  1 86  1  0  0  0
  2  3  1  0  0  0
  2 25  1  0  0  0
  2 90  1  0  0  0
  2 91  1  0  0  0
  3  4  1  0  0  0
  3 92  1  0  0  0
  3 93  1  0  0  0
  4  5  1  0  0  0
  4 94  1  0  0  0
  4 95  1  0  0  0
  5  6  1  0  0  0
  5 26  1  0  0  0
  5 96  1  0  0  0
  6 25  1  0  0  0
  6 97  1  0  0  0
  6 98  1  0  0  0
  7  8  2  0  0  0
  7 26  1  0  0  0
  7 29  1  0  0  0
  8  9  1  0  0  0
  8 22  1  0  0  0
  9 10  1  0  0  0
  9 27  2  0  0  0
 10 11  2  0  0  0
 10 15  1  0  0  0
 11 12  1  0  0  0
 11 99  1  0  0  0
 12 13  2  0  0  0
 12100  1  0  0  0
 13 14  1  0  0  0
 13 31  1  0  0  0
 14 15  2  0  0  0
 14101  1  0  0  0
 15102  1  0  0  0
 16 17  2  0  0  0
 16 21  1  0  0  0
 16 31  1  0  0  0
 17 18  1  0  0  0
 17103  1  0  0  0
 18 19  2  0  0  0
 18104  1  0  0  0
 19 20  1  0  0  0
 19 24  1  0  0  0
 20 21  2  0  0  0
 20105  1  0  0  0
 21 23  1  0  0  0
 22 28  1  0  0  0
 22 32  2  0  0  0
 26 27  1  0  0  0
 28106  1  0  0  0
 28107  1  0  0  0
 29108  1  0  0  0
 29109  1  0  0  0
 33 34  1  0  0  0
 33 66  1  0  0  0
 33 70  2  0  0  0
 34 36  1  0  0  0
 34 59  1  0  0  0
 34110  1  0  0  0
 35 44  2  0  0  0
 35 45  1  0  0  0
 35 68  1  0  0  0
 36 56  1  0  0  0
 36111  1  0  0  0
 37 39  1  0  0  0
 37 47  1  0  0  0
 37 66  1  0  0  0
 37112  1  0  0  0
 38 43  2  0  0  0
 38 46  1  0  0  0
 38 47  1  0  0  0
 39 64  1  0  0  0
 39 67  2  0  0  0
 40 52  1  0  0  0
 40 53  2  0  0  0
 40 58  1  0  0  0
 41113  1  0  0  0
 41114  1  0  0  0
 41115  1  0  0  0
 41 48  1  0  0  0
 42 43  1  0  0  0
 42 66  1  0  0  0
 42116  1  0  0  0
 42117  1  0  0  0
 43 44  1  0  0  0
 44118  1  0  0  0
 45 46  2  0  0  0
 45119  1  0  0  0
 46120  1  0  0  0
 47121  1  0  0  0
 47122  1  0  0  0
 48 56  1  0  0  0
 48 65  1  0  0  0
 48123  1  0  0  0
 49 50  1  0  0  0
 49 53  1  0  0  0
 49 64  1  0  0  0
 49124  1  0  0  0
 50 51  1  0  0  0
 50125  1  0  0  0
 50126  1  0  0  0
 51 52  1  0  0  0
 51127  1  0  0  0
 51128  1  0  0  0
 52129  1  0  0  0
 52130  1  0  0  0
 53 54  1  0  0  0
 54 55  2  0  0  0
 54131  1  0  0  0
 55 57  1  0  0  0
 55132  1  0  0  0
 56 69  2  0  0  0
 57 58  2  0  0  0
 57133  1  0  0  0
 58134  1  0  0  0
 59 60  1  0  0  0
 59 61  1  0  0  0
 59 62  1  0  0  0
 60135  1  0  0  0
 60136  1  0  0  0
 60137  1  0  0  0
 61138  1  0  0  0
 61139  1  0  0  0
 61140  1  0  0  0
 62141  1  0  0  0
 62142  1  0  0  0
 62143  1  0  0  0
 63 65  1  0  0  0
 63144  1  0  0  0
 63145  1  0  0  0
 63146  1  0  0  0
 64147  1  0  0  0
 65148  1  0  0  0
 68 84  1  0  0  0
 71 72  2  0  0  0
 71 73  1  0  0  0
 71149  1  0  0  0
 72 75  1  0  0  0
 72150  1  0  0  0
 73 74  2  0  0  0
 73 78  1  0  0  0
 74 76  1  0  0  0
 74 80  1  0  0  0
 75 76  2  0  0  0
 75 88  1  0  0  0
 76 89  1  0  0  0
 77 80  1  0  0  0
 77 86  1  0  0  0
 77 87  2  0  0  0
 78151  1  0  0  0
 78152  1  0  0  0
 78153  1  0  0  0
 79 81  1  0  0  0
 79154  1  0  0  0
 79155  1  0  0  0
 79156  1  0  0  0
 80157  1  0  0  0
 80158  1  0  0  0
 81 83  1  0  0  0
 81159  1  0  0  0
 81160  1  0  0  0
 82 84  1  0  0  0
 82 85  1  0  0  0
 82161  1  0  0  0
 82162  1  0  0  0
 83 89  1  0  0  0
 83163  1  0  0  0
 83164  1  0  0  0
 84165  1  0  0  0
 84166  1  0  0  0
 85 88  1  0  0  0
 85167  1  0  0  0
 85168  1  0  0  0
 86169  1  0  0  0
M  ISO  4   1 100  68 101  84 101  86 100
M  END
> <chiral flag>
0

> <version>
0

> <s_m_source_file>
/data/baiqing/PycharmProjects/Reinvent-master-3.2/result/LINK_invent/BTK/process_docking_weight1_custom_product_contain_oxygen_bond_distance_aromatic_linkinvent_7_9_3/rearranged_h_0107.sdf

> <i_m_source_file_index>
77

> <r_mmod_Potential_Energy-OPLS-2005>
-53.5585556030273

> <r_mmod_Stretch_Energy-OPLS-2005>
36.4576110839844

> <r_mmod_Bend_Energy-OPLS-2005>
104.949661254883

> <r_mmod_Torsional_Energy-OPLS-2005>
279.562438964844

> <r_mmod_Improper_Torsional_Energy-OPLS-2005>
7.22365713119507

> <r_mmod_Van_der_Waal_Energy-OPLS-2005>
170.769241333008

> <r_mmod_Electrostatic_Energy-OPLS-2005>
-432.127624511719

> <r_mmod_Solvation_Energy-OPLS-2005>
-233.865798950195

> <b_mmod_Minimization_Converged-OPLS-2005>
0

> <r_mmod_RMS_Derivative-OPLS-2005>
5.84846067428589

$$$$
77
                    3D
 Structure written by MMmdl.
166175  0  0  1  0            999 V2000
  -30.6082  -14.6503   20.5420 C   0  0  0  0  0  0
  -30.4556  -12.4194   19.4407 C   0  0  0  0  0  0
  -29.5104  -12.5402   18.2193 C   0  0  0  0  0  0
  -28.0278  -12.3729   18.6212 C   0  0  0  0  0  0
  -27.6592  -13.1992   19.8811 C   0  0  2  0  0  0
  -28.7109  -12.9504   20.9838 C   0  0  0  0  0  0
  -25.2574  -13.8072   20.5708 C   0  0  0  0  0  0
  -24.1808  -13.0368   20.9139 C   0  0  0  0  0  0
  -24.6372  -11.6846   20.8710 C   0  0  0  0  0  0
  -23.9037  -10.4255   21.0393 C   0  0  0  0  0  0
  -24.3594   -9.4185   21.9179 C   0  0  0  0  0  0
  -23.6273   -8.2222   22.0750 C   0  0  0  0  0  0
  -22.4254   -8.0265   21.3543 C   0  0  0  0  0  0
  -21.9884   -9.0234   20.4644 C   0  0  0  0  0  0
  -22.7209  -10.2108   20.3048 C   0  0  0  0  0  0
  -21.6843   -6.0725   22.5280 C   0  0  0  0  0  0
  -21.4008   -6.5630   23.8212 C   0  0  0  0  0  0
  -21.3658   -5.6784   24.9175 C   0  0  0  0  0  0
  -21.6047   -4.3046   24.7225 C   0  0  0  0  0  0
  -21.8820   -3.8139   23.4345 C   0  0  0  0  0  0
  -21.9188   -4.6955   22.3402 C   0  0  0  0  0  0
  -22.7848  -13.5200   21.1821 C   0  0  0  0  0  0
  -22.1655   -4.2143   21.0978 F   0  0  0  0  0  0
  -21.5637   -3.4531   25.7736 F   0  0  0  0  0  0
  -30.0145  -13.4020   20.4576 N   0  0  0  0  0  0
  -26.3015  -12.9241   20.3407 N   0  0  0  0  0  0
  -25.9306  -11.6408   20.5757 N   0  0  0  0  0  0
  -22.0493  -12.8212   22.0396 N   0  0  0  0  0  0
  -25.4294  -15.1777   20.4243 N   0  0  0  0  0  0
  -31.7460  -14.8324   20.0932 O   0  0  0  0  0  0
  -21.6621   -6.8865   21.4240 O   0  0  0  0  0  0
  -22.3545  -14.5520   20.6684 O   0  0  0  0  0  0
  -24.6248  -31.8615   23.2046 C   0  0  0  0  0  0
  -25.9102  -32.4787   23.8368 C   0  0  1  0  0  0
  -27.2330  -27.3415   20.1028 C   0  0  0  0  0  0
  -25.5924  -33.8586   24.2293 N   0  0  0  0  0  0
  -23.4174  -30.4865   21.5474 C   0  0  2  0  0  0
  -24.8641  -28.9461   20.1123 C   0  0  0  0  0  0
  -22.7465  -29.4634   22.4947 C   0  0  0  0  0  0
  -18.0283  -28.1380   22.8486 C   0  0  0  0  0  0
  -24.1490  -36.7298   23.2638 C   0  0  0  0  0  0
  -25.9579  -30.7983   21.3734 C   0  0  0  0  0  0
  -26.0332  -29.4281   20.7140 C   0  0  0  0  0  0
  -27.2191  -28.6376   20.7010 C   0  0  0  0  0  0
  -26.0351  -26.9087   19.4826 C   0  0  0  0  0  0
  -24.8659  -27.6900   19.4903 C   0  0  0  0  0  0
  -23.6308  -29.8230   20.1622 C   0  0  0  0  0  0
  -25.4112  -36.3088   24.0332 C   0  0  1  0  0  0
  -20.5883  -28.3684   23.1285 C   0  0  2  0  0  0
  -20.6772  -26.9409   22.5408 C   0  0  0  0  0  0
  -19.5750  -26.6383   21.5209 C   0  0  0  0  0  0
  -18.1930  -26.7924   22.1622 C   0  0  0  0  0  0
  -19.1535  -28.8848   23.2881 C   0  0  0  0  0  0
  -18.9460  -30.1450   23.8899 C   0  0  0  0  0  0
  -17.6461  -30.6584   24.0562 C   0  0  0  0  0  0
  -25.9049  -34.9457   23.5112 C   0  0  0  0  0  0
  -16.5351  -29.9084   23.6329 C   0  0  0  0  0  0
  -16.7271  -28.6499   23.0352 C   0  0  0  0  0  0
  -26.4495  -31.6589   25.0729 C   0  0  0  0  0  0
  -25.3735  -31.3720   26.1460 C   0  0  0  0  0  0
  -27.0336  -30.3015   24.6171 C   0  0  0  0  0  0
  -27.6058  -32.4320   25.7498 C   0  0  0  0  0  0
  -27.5580  -37.1804   24.8464 C   0  0  0  0  0  0
  -21.4181  -29.3042   22.3685 N   0  0  0  0  0  0
  -26.4291  -37.3780   23.9410 N   0  0  0  0  0  0
  -24.6855  -31.0644   22.0988 N   0  0  0  0  0  0
  -23.4198  -28.8170   23.3015 O   0  0  0  0  0  0
  -28.3660  -26.5127   20.1436 O   0  0  0  0  0  0
  -26.5614  -34.8920   22.4676 O   0  0  0  0  0  0
  -23.5417  -32.1405   23.7388 O   0  0  0  0  0  0
  -29.4827  -19.4914   19.6178 C   0  0  0  0  0  0
  -30.9212  -19.5355   21.5282 C   0  0  0  0  0  0
  -30.0927  -17.3333   20.7222 C   0  0  0  0  0  0
  -29.4213  -18.0637   19.6857 C   0  0  0  0  0  0
  -30.1846  -20.2788   20.5643 C   0  0  0  0  0  0
  -30.8789  -18.1153   21.6095 C   0  0  0  0  0  0
  -29.3265  -24.0297   20.1338 C   0  0  0  0  0  0
  -29.1463  -22.6680   20.3254 C   0  0  0  0  0  0
  -30.7190  -24.5412   20.0593 C   0  0  0  0  0  0
  -29.7622  -15.8810   21.0853 C   0  0  0  0  0  0
  -31.8380  -23.5111   19.9276 C   0  0  0  0  0  0
  -31.5564  -22.2528   20.7594 C   0  0  0  0  0  0
  -27.7379  -22.0851   20.4030 C   0  0  0  0  0  0
  -27.0653  -17.7090   18.8237 C   0  0  0  0  0  0
  -28.5494  -17.3659   18.6481 C   0  0  0  0  0  0
  -28.1703  -25.0700   19.8882 C   0  0  0  0  0  0
  -28.7513  -15.7582   21.8400 N   0  0  0  0  0  0
  -30.2081  -21.7243   20.5252 N   0  0  0  0  0  0
  -31.0296  -25.7360   20.0677 O   0  0  0  0  0  0
  -31.5559  -17.5098   22.6171 F   0  0  0  0  0  0
  -31.4896  -12.5784   19.1298 H   0  0  0  0  0  0
  -30.4328  -11.4064   19.8460 H   0  0  0  0  0  0
  -29.7772  -11.8017   17.4620 H   0  0  0  0  0  0
  -29.6490  -13.5168   17.7525 H   0  0  0  0  0  0
  -27.8516  -11.3136   18.8122 H   0  0  0  0  0  0
  -27.3764  -12.6428   17.7891 H   0  0  0  0  0  0
  -27.6959  -14.2497   19.5955 H   0  0  0  0  0  0
  -28.7518  -11.8818   21.2013 H   0  0  0  0  0  0
  -28.4370  -13.3718   21.9465 H   0  0  0  0  0  0
  -25.2742   -9.5665   22.4747 H   0  0  0  0  0  0
  -23.9991   -7.4610   22.7463 H   0  0  0  0  0  0
  -21.0818   -8.8744   19.8949 H   0  0  0  0  0  0
  -22.3670  -10.9645   19.6154 H   0  0  0  0  0  0
  -21.1990   -7.6137   23.9712 H   0  0  0  0  0  0
  -21.1488   -6.0515   25.9079 H   0  0  0  0  0  0
  -22.0603   -2.7601   23.2844 H   0  0  0  0  0  0
  -22.4105  -11.9864   22.4768 H   0  0  0  0  0  0
  -21.1121  -13.1253   22.2618 H   0  0  0  0  0  0
  -24.6764  -15.8385   20.5783 H   0  0  0  0  0  0
  -26.3234  -15.6229   20.2603 H   0  0  0  0  0  0
  -26.7170  -32.5466   23.1120 H   0  0  0  0  0  0
  -25.0076  -33.9732   25.0442 H   0  0  0  0  0  0
  -22.7107  -31.3067   21.4063 H   0  0  0  0  0  0
  -23.3750  -35.9633   23.3301 H   0  0  0  0  0  0
  -24.3584  -36.8917   22.2053 H   0  0  0  0  0  0
  -23.7244  -37.6503   23.6657 H   0  0  0  0  0  0
  -26.0883  -31.5641   20.6073 H   0  0  0  0  0  0
  -26.8386  -30.8451   22.0026 H   0  0  0  0  0  0
  -28.1166  -29.0062   21.1782 H   0  0  0  0  0  0
  -25.9647  -25.9529   18.9865 H   0  0  0  0  0  0
  -23.9701  -27.3136   19.0156 H   0  0  0  0  0  0
  -23.7475  -30.6002   19.4060 H   0  0  0  0  0  0
  -22.7516  -29.2506   19.8607 H   0  0  0  0  0  0
  -25.1292  -36.1945   25.0824 H   0  0  0  0  0  0
  -20.9977  -28.3255   24.1405 H   0  0  0  0  0  0
  -20.5670  -26.2295   23.3606 H   0  0  0  0  0  0
  -21.6642  -26.7439   22.1205 H   0  0  0  0  0  0
  -19.6912  -25.6295   21.1236 H   0  0  0  0  0  0
  -19.6686  -27.3195   20.6739 H   0  0  0  0  0  0
  -17.4199  -26.6669   21.4024 H   0  0  0  0  0  0
  -18.0333  -26.0064   22.9017 H   0  0  0  0  0  0
  -19.7937  -30.7262   24.2273 H   0  0  0  0  0  0
  -17.5017  -31.6266   24.5162 H   0  0  0  0  0  0
  -15.5352  -30.2989   23.7650 H   0  0  0  0  0  0
  -15.8669  -28.0819   22.7071 H   0  0  0  0  0  0
  -24.5913  -30.7063   25.7795 H   0  0  0  0  0  0
  -24.8923  -32.2882   26.4890 H   0  0  0  0  0  0
  -25.8067  -30.8900   27.0233 H   0  0  0  0  0  0
  -26.2905  -29.6766   24.1200 H   0  0  0  0  0  0
  -27.4045  -29.7267   25.4669 H   0  0  0  0  0  0
  -27.8771  -30.4304   23.9384 H   0  0  0  0  0  0
  -27.2669  -33.3619   26.2079 H   0  0  0  0  0  0
  -28.3867  -32.6881   25.0324 H   0  0  0  0  0  0
  -28.0727  -31.8442   26.5412 H   0  0  0  0  0  0
  -28.2598  -38.0103   24.7512 H   0  0  0  0  0  0
  -28.1076  -36.2633   24.6286 H   0  0  0  0  0  0
  -27.2299  -37.1451   25.8867 H   0  0  0  0  0  0
  -20.9355  -29.8774   21.6907 H   0  0  0  0  0  0
  -26.0175  -38.2857   24.1407 H   0  0  0  0  0  0
  -28.9435  -19.9999   18.8311 H   0  0  0  0  0  0
  -31.5029  -20.0555   22.2741 H   0  0  0  0  0  0
  -32.7876  -23.9551   20.2259 H   0  0  0  0  0  0
  -31.9274  -23.2465   18.8743 H   0  0  0  0  0  0
  -31.6667  -22.4819   21.8205 H   0  0  0  0  0  0
  -32.3211  -21.5136   20.5160 H   0  0  0  0  0  0
  -27.1266  -22.6523   21.1047 H   0  0  0  0  0  0
  -27.7010  -21.0573   20.7589 H   0  0  0  0  0  0
  -27.2568  -22.1223   19.4249 H   0  0  0  0  0  0
  -26.4459  -17.1382   18.1314 H   0  0  0  0  0  0
  -26.8732  -18.7665   18.6412 H   0  0  0  0  0  0
  -26.7326  -17.4891   19.8371 H   0  0  0  0  0  0
  -28.6853  -16.2857   18.6656 H   0  0  0  0  0  0
  -28.8763  -17.6785   17.6551 H   0  0  0  0  0  0
  -27.3092  -24.7502   20.4730 H   0  0  0  0  0  0
  -27.9042  -24.9522   18.8374 H   0  0  0  0  0  0
  -28.5745  -14.7869   22.0599 H   0  0  0  0  0  0
  1 25  1  0  0  0
  1 30  2  0  0  0
  1 80  1  0  0  0
  2  3  1  0  0  0
  2 25  1  0  0  0
  2 91  1  0  0  0
  2 92  1  0  0  0
  3  4  1  0  0  0
  3 93  1  0  0  0
  3 94  1  0  0  0
  4  5  1  0  0  0
  4 95  1  0  0  0
  4 96  1  0  0  0
  5  6  1  0  0  0
  5 26  1  0  0  0
  5 97  1  0  0  0
  6 25  1  0  0  0
  6 98  1  0  0  0
  6 99  1  0  0  0
  7  8  2  0  0  0
  7 26  1  0  0  0
  7 29  1  0  0  0
  8  9  1  0  0  0
  8 22  1  0  0  0
  9 10  1  0  0  0
  9 27  2  0  0  0
 10 11  2  0  0  0
 10 15  1  0  0  0
 11 12  1  0  0  0
 11100  1  0  0  0
 12 13  2  0  0  0
 12101  1  0  0  0
 13 14  1  0  0  0
 13 31  1  0  0  0
 14 15  2  0  0  0
 14102  1  0  0  0
 15103  1  0  0  0
 16 17  2  0  0  0
 16 21  1  0  0  0
 16 31  1  0  0  0
 17 18  1  0  0  0
 17104  1  0  0  0
 18 19  2  0  0  0
 18105  1  0  0  0
 19 20  1  0  0  0
 19 24  1  0  0  0
 20 21  2  0  0  0
 20106  1  0  0  0
 21 23  1  0  0  0
 22 28  1  0  0  0
 22 32  2  0  0  0
 26 27  1  0  0  0
 28107  1  0  0  0
 28108  1  0  0  0
 29109  1  0  0  0
 29110  1  0  0  0
 33 34  1  0  0  0
 33 66  1  0  0  0
 33 70  2  0  0  0
 34 36  1  0  0  0
 34 59  1  0  0  0
 34111  1  0  0  0
 35 44  2  0  0  0
 35 45  1  0  0  0
 35 68  1  0  0  0
 36 56  1  0  0  0
 36112  1  0  0  0
 37 39  1  0  0  0
 37 47  1  0  0  0
 37 66  1  0  0  0
 37113  1  0  0  0
 38 43  2  0  0  0
 38 46  1  0  0  0
 38 47  1  0  0  0
 39 64  1  0  0  0
 39 67  2  0  0  0
 40 52  1  0  0  0
 40 53  2  0  0  0
 40 58  1  0  0  0
 41114  1  0  0  0
 41115  1  0  0  0
 41116  1  0  0  0
 41 48  1  0  0  0
 42 43  1  0  0  0
 42 66  1  0  0  0
 42117  1  0  0  0
 42118  1  0  0  0
 43 44  1  0  0  0
 44119  1  0  0  0
 45 46  2  0  0  0
 45120  1  0  0  0
 46121  1  0  0  0
 47122  1  0  0  0
 47123  1  0  0  0
 48 56  1  0  0  0
 48 65  1  0  0  0
 48124  1  0  0  0
 49 50  1  0  0  0
 49 53  1  0  0  0
 49 64  1  0  0  0
 49125  1  0  0  0
 50 51  1  0  0  0
 50126  1  0  0  0
 50127  1  0  0  0
 51 52  1  0  0  0
 51128  1  0  0  0
 51129  1  0  0  0
 52130  1  0  0  0
 52131  1  0  0  0
 53 54  1  0  0  0
 54 55  2  0  0  0
 54132  1  0  0  0
 55 57  1  0  0  0
 55133  1  0  0  0
 56 69  2  0  0  0
 57 58  2  0  0  0
 57134  1  0  0  0
 58135  1  0  0  0
 59 60  1  0  0  0
 59 61  1  0  0  0
 59 62  1  0  0  0
 60136  1  0  0  0
 60137  1  0  0  0
 60138  1  0  0  0
 61139  1  0  0  0
 61140  1  0  0  0
 61141  1  0  0  0
 62142  1  0  0  0
 62143  1  0  0  0
 62144  1  0  0  0
 63 65  1  0  0  0
 63145  1  0  0  0
 63146  1  0  0  0
 63147  1  0  0  0
 64148  1  0  0  0
 65149  1  0  0  0
 68 86  1  0  0  0
 71 74  2  0  0  0
 71 75  1  0  0  0
 71150  1  0  0  0
 72 75  2  0  0  0
 72 76  1  0  0  0
 72151  1  0  0  0
 73 74  1  0  0  0
 73 76  2  0  0  0
 73 80  1  0  0  0
 74 85  1  0  0  0
 75 88  1  0  0  0
 76 90  1  0  0  0
 77 78  2  0  0  0
 77 79  1  0  0  0
 77 86  1  0  0  0
 78 83  1  0  0  0
 78 88  1  0  0  0
 79 81  1  0  0  0
 79 89  2  0  0  0
 80 87  2  0  0  0
 81 82  1  0  0  0
 81152  1  0  0  0
 81153  1  0  0  0
 82 88  1  0  0  0
 82154  1  0  0  0
 82155  1  0  0  0
 83156  1  0  0  0
 83157  1  0  0  0
 83158  1  0  0  0
 84 85  1  0  0  0
 84159  1  0  0  0
 84160  1  0  0  0
 84161  1  0  0  0
 85162  1  0  0  0
 85163  1  0  0  0
 86164  1  0  0  0
 86165  1  0  0  0
 87166  1  0  0  0
M  ISO  4   1 100  68 101  80 100  86 101
M  END
> <chiral flag>
0

> <version>
0

> <s_m_source_file>
/data/baiqing/PycharmProjects/Reinvent-master-3.2/result/LINK_invent/BTK/process_docking_weight1_custom_product_contain_oxygen_bond_distance_aromatic_linkinvent_7_9_3/rearranged_h_0107.sdf

> <i_m_source_file_index>
78

> <r_mmod_Potential_Energy-OPLS-2005>
259.706878662109

> <r_mmod_Stretch_Energy-OPLS-2005>
95.9467697143555

> <r_mmod_Bend_Energy-OPLS-2005>
152.100112915039

> <r_mmod_Torsional_Energy-OPLS-2005>
200.414077758789

> <r_mmod_Improper_Torsional_Energy-OPLS-2005>
5.66045045852661

> <r_mmod_Van_der_Waal_Energy-OPLS-2005>
175.904586791992

> <r_mmod_Electrostatic_Energy-OPLS-2005>
-203.445922851562

> <r_mmod_Solvation_Energy-OPLS-2005>
-209.88069152832

> <b_mmod_Minimization_Converged-OPLS-2005>
0

> <r_mmod_RMS_Derivative-OPLS-2005>
0.537352621555328

$$$$
78
                    3D
 Structure written by MMmdl.
157165  0  0  1  0            999 V2000
  -30.6388  -14.8863   20.3741 C   0  0  0  0  0  0
  -30.4041  -12.5612   19.4834 C   0  0  0  0  0  0
  -29.4835  -12.5184   18.2443 C   0  0  0  0  0  0
  -28.0257  -12.3079   18.6735 C   0  0  0  0  0  0
  -27.6213  -13.2341   19.8525 C   0  0  2  0  0  0
  -28.6850  -13.2624   20.9784 C   0  0  0  0  0  0
  -25.2477  -13.7932   20.6180 C   0  0  0  0  0  0
  -24.1686  -13.0177   20.9272 C   0  0  0  0  0  0
  -24.6370  -11.6727   20.8633 C   0  0  0  0  0  0
  -23.9101  -10.4101   21.0253 C   0  0  0  0  0  0
  -24.3660   -9.4139   21.9119 C   0  0  0  0  0  0
  -23.6358   -8.2174   22.0830 C   0  0  0  0  0  0
  -22.4333   -8.0187   21.3583 C   0  0  0  0  0  0
  -21.9908   -9.0166   20.4703 C   0  0  0  0  0  0
  -22.7232  -10.2032   20.3017 C   0  0  0  0  0  0
  -21.6848   -6.0831   22.5318 C   0  0  0  0  0  0
  -21.3965   -6.5770   23.8231 C   0  0  0  0  0  0
  -21.3616   -5.6886   24.9144 C   0  0  0  0  0  0
  -21.6042   -4.3176   24.7106 C   0  0  0  0  0  0
  -21.8882   -3.8268   23.4210 C   0  0  0  0  0  0
  -21.9179   -4.7089   22.3310 C   0  0  0  0  0  0
  -22.7736  -13.5011   21.1853 C   0  0  0  0  0  0
  -22.1715   -4.2344   21.0847 F   0  0  0  0  0  0
  -21.5534   -3.4615   25.7570 F   0  0  0  0  0  0
  -29.9382  -13.6857   20.3353 N   0  0  0  0  0  0
  -26.2869  -12.9271   20.3524 N   0  0  0  0  0  0
  -25.9304  -11.6406   20.5637 N   0  0  0  0  0  0
  -22.0373  -12.8036   22.0491 N   0  0  0  0  0  0
  -25.4269  -15.1550   20.5316 N   0  0  0  0  0  0
  -31.8552  -14.8069   20.1975 O   0  0  0  0  0  0
  -21.6641   -6.8909   21.4242 O   0  0  0  0  0  0
  -22.3450  -14.5313   20.6680 O   0  0  0  0  0  0
  -24.6320  -31.8517   23.1919 C   0  0  0  0  0  0
  -25.9137  -32.4748   23.8302 C   0  0  1  0  0  0
  -27.2437  -27.2256   20.1453 C   0  0  0  0  0  0
  -25.5899  -33.8541   24.2233 N   0  0  0  0  0  0
  -23.4345  -30.4660   21.5376 C   0  0  2  0  0  0
  -24.8897  -28.8942   20.1220 C   0  0  0  0  0  0
  -22.7521  -29.4576   22.4936 C   0  0  0  0  0  0
  -18.0275  -28.1397   22.8465 C   0  0  0  0  0  0
  -24.1484  -36.7268   23.2639 C   0  0  0  0  0  0
  -25.9819  -30.7528   21.3761 C   0  0  0  0  0  0
  -26.0647  -29.3665   20.7244 C   0  0  0  0  0  0
  -27.2466  -28.5530   20.7068 C   0  0  0  0  0  0
  -26.0411  -26.8171   19.5274 C   0  0  0  0  0  0
  -24.8871  -27.6306   19.5074 C   0  0  0  0  0  0
  -23.6595  -29.7860   20.1604 C   0  0  0  0  0  0
  -25.4118  -36.3065   24.0322 C   0  0  1  0  0  0
  -20.5886  -28.3703   23.1282 C   0  0  2  0  0  0
  -20.6782  -26.9423   22.5424 C   0  0  0  0  0  0
  -19.5767  -26.6391   21.5218 C   0  0  0  0  0  0
  -18.1935  -26.7936   22.1611 C   0  0  0  0  0  0
  -19.1530  -28.8874   23.2859 C   0  0  0  0  0  0
  -18.9454  -30.1480   23.8879 C   0  0  0  0  0  0
  -17.6450  -30.6597   24.0558 C   0  0  0  0  0  0
  -25.9060  -34.9429   23.5091 C   0  0  0  0  0  0
  -16.5342  -29.9098   23.6327 C   0  0  0  0  0  0
  -16.7267  -28.6518   23.0346 C   0  0  0  0  0  0
  -26.4501  -31.6587   25.0705 C   0  0  0  0  0  0
  -25.3708  -31.3727   26.1409 C   0  0  0  0  0  0
  -27.0373  -30.3004   24.6223 C   0  0  0  0  0  0
  -27.6054  -32.4326   25.7479 C   0  0  0  0  0  0
  -27.5582  -37.1788   24.8466 C   0  0  0  0  0  0
  -21.4232  -29.3013   22.3664 N   0  0  0  0  0  0
  -26.4292  -37.3768   23.9419 N   0  0  0  0  0  0
  -24.7014  -31.0444   22.0903 N   0  0  0  0  0  0
  -23.4200  -28.8108   23.3038 O   0  0  0  0  0  0
  -28.3658  -26.3559   20.1158 O   0  0  0  0  0  0
  -26.5645  -34.8906   22.4669 O   0  0  0  0  0  0
  -23.5454  -32.1323   23.7208 O   0  0  0  0  0  0
  -29.2410  -19.6413   20.3502 C   0  0  0  0  0  0
  -27.3056  -20.9607   19.6956 C   0  0  0  0  0  0
  -28.5806  -18.3705   19.9912 C   0  0  0  0  0  0
  -27.3268  -18.5236   19.2826 C   0  0  0  0  0  0
  -26.6632  -19.7915   19.2784 C   0  0  0  0  0  0
  -28.6326  -20.9755   20.1441 C   0  0  0  0  0  0
  -26.6386  -17.3820   18.5602 C   0  0  0  0  0  0
  -28.9468  -16.8949   20.4925 C   0  0  0  0  0  0
  -27.4756  -16.5075   17.6361 C   0  0  0  0  0  0
  -28.2993  -24.9283   20.6237 C   0  0  0  0  0  0
  -28.7498  -23.5753   19.8043 C   0  0  0  0  0  0
  -25.3270  -19.9912   18.9000 N   0  0  0  0  0  0
  -30.1244  -16.2028   20.2629 N   0  0  0  0  0  0
  -25.4149  -17.2044   18.5306 O   0  0  0  0  0  0
  -28.0458  -16.3314   21.1117 O   0  0  0  0  0  0
  -29.1833  -22.2663   20.4615 O   0  0  0  0  0  0
  -31.4391  -12.6629   19.1726 H   0  0  0  0  0  0
  -30.3613  -11.6189   20.0298 H   0  0  0  0  0  0
  -29.8014  -11.7227   17.5667 H   0  0  0  0  0  0
  -29.5530  -13.4443   17.6725 H   0  0  0  0  0  0
  -27.9129  -11.2574   18.9471 H   0  0  0  0  0  0
  -27.3615  -12.4707   17.8223 H   0  0  0  0  0  0
  -27.5978  -14.2343   19.4327 H   0  0  0  0  0  0
  -28.7911  -12.2777   21.4460 H   0  0  0  0  0  0
  -28.3973  -13.9369   21.7861 H   0  0  0  0  0  0
  -25.2850   -9.5652   22.4631 H   0  0  0  0  0  0
  -24.0070   -7.4691   22.7642 H   0  0  0  0  0  0
  -21.0781   -8.8656   19.9105 H   0  0  0  0  0  0
  -22.3690  -10.9514   19.6143 H   0  0  0  0  0  0
  -21.2038   -7.6288   23.9726 H   0  0  0  0  0  0
  -21.1355   -6.0617   25.9065 H   0  0  0  0  0  0
  -22.0679   -2.7748   23.2580 H   0  0  0  0  0  0
  -22.3926  -11.9680   22.4957 H   0  0  0  0  0  0
  -21.1074  -13.1222   22.2718 H   0  0  0  0  0  0
  -24.6825  -15.8109   20.7279 H   0  0  0  0  0  0
  -26.3570  -15.5597   20.6535 H   0  0  0  0  0  0
  -26.7192  -32.5400   23.1029 H   0  0  0  0  0  0
  -25.0042  -33.9696   25.0373 H   0  0  0  0  0  0
  -22.7284  -31.2832   21.3819 H   0  0  0  0  0  0
  -23.3758  -35.9591   23.3307 H   0  0  0  0  0  0
  -24.3553  -36.8891   22.2051 H   0  0  0  0  0  0
  -23.7222  -37.6450   23.6675 H   0  0  0  0  0  0
  -26.1183  -31.5088   20.6011 H   0  0  0  0  0  0
  -26.8569  -30.8121   22.0138 H   0  0  0  0  0  0
  -28.1500  -28.9227   21.1735 H   0  0  0  0  0  0
  -25.9944  -25.8441   19.0602 H   0  0  0  0  0  0
  -23.9915  -27.2648   19.0269 H   0  0  0  0  0  0
  -23.7850  -30.5527   19.3939 H   0  0  0  0  0  0
  -22.7799  -29.2157   19.8559 H   0  0  0  0  0  0
  -25.1305  -36.1897   25.0811 H   0  0  0  0  0  0
  -20.9942  -28.3281   24.1423 H   0  0  0  0  0  0
  -20.5689  -26.2305   23.3619 H   0  0  0  0  0  0
  -21.6649  -26.7467   22.1209 H   0  0  0  0  0  0
  -19.6929  -25.6297   21.1260 H   0  0  0  0  0  0
  -19.6713  -27.3186   20.6738 H   0  0  0  0  0  0
  -17.4205  -26.6663   21.4013 H   0  0  0  0  0  0
  -18.0341  -26.0099   22.9030 H   0  0  0  0  0  0
  -19.7944  -30.7297   24.2243 H   0  0  0  0  0  0
  -17.5017  -31.6271   24.5169 H   0  0  0  0  0  0
  -15.5350  -30.2995   23.7689 H   0  0  0  0  0  0
  -15.8666  -28.0848   22.7078 H   0  0  0  0  0  0
  -24.5889  -30.7085   25.7700 H   0  0  0  0  0  0
  -24.8891  -32.2889   26.4822 H   0  0  0  0  0  0
  -25.7996  -30.8880   27.0193 H   0  0  0  0  0  0
  -26.2976  -29.6711   24.1252 H   0  0  0  0  0  0
  -27.4046  -29.7301   25.4768 H   0  0  0  0  0  0
  -27.8853  -30.4271   23.9490 H   0  0  0  0  0  0
  -27.2680  -33.3630   26.2050 H   0  0  0  0  0  0
  -28.3870  -32.6871   25.0311 H   0  0  0  0  0  0
  -28.0727  -31.8452   26.5392 H   0  0  0  0  0  0
  -28.2595  -38.0091   24.7529 H   0  0  0  0  0  0
  -28.1086  -36.2617   24.6287 H   0  0  0  0  0  0
  -27.2301  -37.1427   25.8870 H   0  0  0  0  0  0
  -20.9449  -29.8700   21.6813 H   0  0  0  0  0  0
  -26.0163  -38.2838   24.1420 H   0  0  0  0  0  0
  -30.2109  -19.5852   20.8335 H   0  0  0  0  0  0
  -26.7376  -21.8799   19.6757 H   0  0  0  0  0  0
  -28.4875  -16.3410   17.9862 H   0  0  0  0  0  0
  -27.5238  -16.9925   16.6674 H   0  0  0  0  0  0
  -26.9968  -15.5377   17.5033 H   0  0  0  0  0  0
  -28.9598  -24.9615   21.4889 H   0  0  0  0  0  0
  -27.3117  -24.7536   21.0485 H   0  0  0  0  0  0
  -29.6364  -23.8614   19.2392 H   0  0  0  0  0  0
  -28.0043  -23.3915   19.0314 H   0  0  0  0  0  0
  -24.7242  -19.9417   19.7225 H   0  0  0  0  0  0
  -24.9553  -19.2935   18.2565 H   0  0  0  0  0  0
  -30.8447  -16.8346   19.9578 H   0  0  0  0  0  0
  1 25  1  0  0  0
  1 30  2  0  0  0
  1 83  1  0  0  0
  2  3  1  0  0  0
  2 25  1  0  0  0
  2 87  1  0  0  0
  2 88  1  0  0  0
  3  4  1  0  0  0
  3 89  1  0  0  0
  3 90  1  0  0  0
  4  5  1  0  0  0
  4 91  1  0  0  0
  4 92  1  0  0  0
  5  6  1  0  0  0
  5 26  1  0  0  0
  5 93  1  0  0  0
  6 25  1  0  0  0
  6 94  1  0  0  0
  6 95  1  0  0  0
  7  8  2  0  0  0
  7 26  1  0  0  0
  7 29  1  0  0  0
  8  9  1  0  0  0
  8 22  1  0  0  0
  9 10  1  0  0  0
  9 27  2  0  0  0
 10 11  2  0  0  0
 10 15  1  0  0  0
 11 12  1  0  0  0
 11 96  1  0  0  0
 12 13  2  0  0  0
 12 97  1  0  0  0
 13 14  1  0  0  0
 13 31  1  0  0  0
 14 15  2  0  0  0
 14 98  1  0  0  0
 15 99  1  0  0  0
 16 17  2  0  0  0
 16 21  1  0  0  0
 16 31  1  0  0  0
 17 18  1  0  0  0
 17100  1  0  0  0
 18 19  2  0  0  0
 18101  1  0  0  0
 19 20  1  0  0  0
 19 24  1  0  0  0
 20 21  2  0  0  0
 20102  1  0  0  0
 21 23  1  0  0  0
 22 28  1  0  0  0
 22 32  2  0  0  0
 26 27  1  0  0  0
 28103  1  0  0  0
 28104  1  0  0  0
 29105  1  0  0  0
 29106  1  0  0  0
 33 34  1  0  0  0
 33 66  1  0  0  0
 33 70  2  0  0  0
 34 36  1  0  0  0
 34 59  1  0  0  0
 34107  1  0  0  0
 35 44  2  0  0  0
 35 45  1  0  0  0
 35 68  1  0  0  0
 36 56  1  0  0  0
 36108  1  0  0  0
 37 39  1  0  0  0
 37 47  1  0  0  0
 37 66  1  0  0  0
 37109  1  0  0  0
 38 43  2  0  0  0
 38 46  1  0  0  0
 38 47  1  0  0  0
 39 64  1  0  0  0
 39 67  2  0  0  0
 40 52  1  0  0  0
 40 53  2  0  0  0
 40 58  1  0  0  0
 41110  1  0  0  0
 41111  1  0  0  0
 41112  1  0  0  0
 41 48  1  0  0  0
 42 43  1  0  0  0
 42 66  1  0  0  0
 42113  1  0  0  0
 42114  1  0  0  0
 43 44  1  0  0  0
 44115  1  0  0  0
 45 46  2  0  0  0
 45116  1  0  0  0
 46117  1  0  0  0
 47118  1  0  0  0
 47119  1  0  0  0
 48 56  1  0  0  0
 48 65  1  0  0  0
 48120  1  0  0  0
 49 50  1  0  0  0
 49 53  1  0  0  0
 49 64  1  0  0  0
 49121  1  0  0  0
 50 51  1  0  0  0
 50122  1  0  0  0
 50123  1  0  0  0
 51 52  1  0  0  0
 51124  1  0  0  0
 51125  1  0  0  0
 52126  1  0  0  0
 52127  1  0  0  0
 53 54  1  0  0  0
 54 55  2  0  0  0
 54128  1  0  0  0
 55 57  1  0  0  0
 55129  1  0  0  0
 56 69  2  0  0  0
 57 58  2  0  0  0
 57130  1  0  0  0
 58131  1  0  0  0
 59 60  1  0  0  0
 59 61  1  0  0  0
 59 62  1  0  0  0
 60132  1  0  0  0
 60133  1  0  0  0
 60134  1  0  0  0
 61135  1  0  0  0
 61136  1  0  0  0
 61137  1  0  0  0
 62138  1  0  0  0
 62139  1  0  0  0
 62140  1  0  0  0
 63 65  1  0  0  0
 63141  1  0  0  0
 63142  1  0  0  0
 63143  1  0  0  0
 64144  1  0  0  0
 65145  1  0  0  0
 68 80  1  0  0  0
 71 73  2  0  0  0
 71 76  1  0  0  0
 71146  1  0  0  0
 72 75  1  0  0  0
 72 76  2  0  0  0
 72147  1  0  0  0
 73 74  1  0  0  0
 73 78  1  0  0  0
 74 75  2  0  0  0
 74 77  1  0  0  0
 75 82  1  0  0  0
 76 86  1  0  0  0
 77 79  1  0  0  0
 77 84  2  0  0  0
 78 83  1  0  0  0
 78 85  2  0  0  0
 79148  1  0  0  0
 79149  1  0  0  0
 79150  1  0  0  0
 80 81  1  0  0  0
 80151  1  0  0  0
 80152  1  0  0  0
 81 86  1  0  0  0
 81153  1  0  0  0
 81154  1  0  0  0
 82155  1  0  0  0
 82156  1  0  0  0
 83157  1  0  0  0
M  ISO  4   1 100  68 101  80 101  83 100
M  END
> <chiral flag>
0

> <version>
0

> <s_m_source_file>
/data/baiqing/PycharmProjects/Reinvent-master-3.2/result/LINK_invent/BTK/process_docking_weight1_custom_product_contain_oxygen_bond_distance_aromatic_linkinvent_7_9_3/rearranged_h_0107.sdf

> <i_m_source_file_index>
79

> <r_mmod_Potential_Energy-OPLS-2005>
414.348907470703

> <r_mmod_Stretch_Energy-OPLS-2005>
182.782745361328

> <r_mmod_Bend_Energy-OPLS-2005>
300.148345947266

> <r_mmod_Torsional_Energy-OPLS-2005>
347.633148193359

> <r_mmod_Improper_Torsional_Energy-OPLS-2005>
20.5623111724854

> <r_mmod_Van_der_Waal_Energy-OPLS-2005>
152.909973144531

> <r_mmod_Electrostatic_Energy-OPLS-2005>
-510.677307128906

> <r_mmod_Solvation_Energy-OPLS-2005>
-215.337142944336

> <b_mmod_Minimization_Converged-OPLS-2005>
0

> <r_mmod_RMS_Derivative-OPLS-2005>
10.4661836624146

$$$$
79
                    3D
 Structure written by MMmdl.
158166  0  0  1  0            999 V2000
  -30.7289  -14.4740   20.5671 C   0  0  0  0  0  0
  -30.4121  -12.3100   19.4237 C   0  0  0  0  0  0
  -29.4881  -12.4991   18.2051 C   0  0  0  0  0  0
  -28.0118  -12.3601   18.6221 C   0  0  0  0  0  0
  -27.6575  -13.2122   19.8702 C   0  0  2  0  0  0
  -28.7020  -13.0227   20.9940 C   0  0  0  0  0  0
  -25.2570  -13.8176   20.5689 C   0  0  0  0  0  0
  -24.1831  -13.0445   20.9193 C   0  0  0  0  0  0
  -24.6393  -11.6914   20.8750 C   0  0  0  0  0  0
  -23.9066  -10.4295   21.0420 C   0  0  0  0  0  0
  -24.3615   -9.4207   21.9198 C   0  0  0  0  0  0
  -23.6290   -8.2242   22.0760 C   0  0  0  0  0  0
  -22.4273   -8.0283   21.3545 C   0  0  0  0  0  0
  -21.9917   -9.0260   20.4648 C   0  0  0  0  0  0
  -22.7243  -10.2142   20.3063 C   0  0  0  0  0  0
  -21.6848   -6.0742   22.5281 C   0  0  0  0  0  0
  -21.4009   -6.5646   23.8214 C   0  0  0  0  0  0
  -21.3659   -5.6799   24.9177 C   0  0  0  0  0  0
  -21.6044   -4.3062   24.7227 C   0  0  0  0  0  0
  -21.8819   -3.8156   23.4346 C   0  0  0  0  0  0
  -21.9189   -4.6971   22.3403 C   0  0  0  0  0  0
  -22.7853  -13.5237   21.1850 C   0  0  0  0  0  0
  -22.1659   -4.2158   21.0980 F   0  0  0  0  0  0
  -21.5631   -3.4544   25.7737 F   0  0  0  0  0  0
  -30.0287  -13.3143   20.4296 N   0  0  0  0  0  0
  -26.3007  -12.9358   20.3366 N   0  0  0  0  0  0
  -25.9320  -11.6512   20.5783 N   0  0  0  0  0  0
  -22.0491  -12.8222   22.0399 N   0  0  0  0  0  0
  -25.4284  -15.1897   20.4080 N   0  0  0  0  0  0
  -31.8635  -14.6117   20.1026 O   0  0  0  0  0  0
  -21.6634   -6.8885   21.4243 O   0  0  0  0  0  0
  -22.3546  -14.5551   20.6708 O   0  0  0  0  0  0
  -24.6174  -31.8678   23.2119 C   0  0  0  0  0  0
  -25.9064  -32.4822   23.8409 C   0  0  1  0  0  0
  -27.2222  -27.4108   20.0901 C   0  0  0  0  0  0
  -25.5913  -33.8621   24.2332 N   0  0  0  0  0  0
  -23.4046  -30.4954   21.5534 C   0  0  2  0  0  0
  -24.8474  -28.9673   20.1108 C   0  0  0  0  0  0
  -22.7422  -29.4661   22.4983 C   0  0  0  0  0  0
  -18.0278  -28.1376   22.8499 C   0  0  0  0  0  0
  -24.1484  -36.7310   23.2638 C   0  0  0  0  0  0
  -25.9388  -30.8253   21.3703 C   0  0  0  0  0  0
  -26.0122  -29.4614   20.7110 C   0  0  0  0  0  0
  -27.2022  -28.6915   20.6980 C   0  0  0  0  0  0
  -26.0362  -26.9536   19.4634 C   0  0  0  0  0  0
  -24.8560  -27.7137   19.4834 C   0  0  0  0  0  0
  -23.6118  -29.8361   20.1657 C   0  0  0  0  0  0
  -25.4108  -36.3111   24.0336 C   0  0  1  0  0  0
  -20.5871  -28.3667   23.1310 C   0  0  2  0  0  0
  -20.6762  -26.9400   22.5414 C   0  0  0  0  0  0
  -19.5737  -26.6385   21.5213 C   0  0  0  0  0  0
  -18.1921  -26.7926   22.1623 C   0  0  0  0  0  0
  -19.1528  -28.8838   23.2904 C   0  0  0  0  0  0
  -18.9454  -30.1447   23.8908 C   0  0  0  0  0  0
  -17.6454  -30.6583   24.0568 C   0  0  0  0  0  0
  -25.9039  -34.9476   23.5130 C   0  0  0  0  0  0
  -16.5347  -29.9083   23.6326 C   0  0  0  0  0  0
  -16.7266  -28.6497   23.0356 C   0  0  0  0  0  0
  -26.4481  -31.6602   25.0740 C   0  0  0  0  0  0
  -25.3740  -31.3696   26.1477 C   0  0  0  0  0  0
  -27.0322  -30.3048   24.6131 C   0  0  0  0  0  0
  -27.6055  -32.4319   25.7506 C   0  0  0  0  0  0
  -27.5583  -37.1809   24.8465 C   0  0  0  0  0  0
  -21.4148  -29.3037   22.3717 N   0  0  0  0  0  0
  -26.4295  -37.3797   23.9410 N   0  0  0  0  0  0
  -24.6721  -31.0768   22.1029 N   0  0  0  0  0  0
  -23.4188  -28.8195   23.3024 O   0  0  0  0  0  0
  -28.3703  -26.6303   20.1357 O   0  0  0  0  0  0
  -26.5596  -34.8926   22.4689 O   0  0  0  0  0  0
  -23.5358  -32.1439   23.7497 O   0  0  0  0  0  0
  -31.7209  -19.3957   21.7808 C   0  0  0  0  0  0
  -31.8626  -16.9747   21.9550 C   0  0  0  0  0  0
  -29.8947  -18.0118   20.9546 C   0  0  0  0  0  0
  -32.4285  -18.2463   22.1855 C   0  0  0  0  0  0
  -30.4451  -19.3073   21.1703 C   0  0  0  0  0  0
  -30.6062  -16.8368   21.3223 C   0  0  0  0  0  0
  -34.5818  -17.4384   23.2107 C   0  0  0  0  0  0
  -33.7470  -18.4177   22.8219 C   0  0  0  0  0  0
  -29.9260  -21.7865   20.9633 C   0  0  0  0  0  0
  -28.9817  -22.7848   20.2622 C   0  0  0  0  0  0
  -29.2924  -24.2976   20.4957 C   0  0  0  0  0  0
  -28.1913  -25.2129   19.9138 C   0  0  0  0  0  0
  -29.7134  -20.4672   20.7268 N   0  0  0  0  0  0
  -30.0609  -15.5295   21.0858 N   0  0  0  0  0  0
  -30.8010  -22.2228   21.7139 O   0  0  0  0  0  0
  -31.4572  -12.3909   19.1206 H   0  0  0  0  0  0
  -30.3014  -11.3063   19.8366 H   0  0  0  0  0  0
  -29.7271  -11.7664   17.4330 H   0  0  0  0  0  0
  -29.6561  -13.4809   17.7598 H   0  0  0  0  0  0
  -27.8264  -11.3056   18.8301 H   0  0  0  0  0  0
  -27.3586  -12.6235   17.7893 H   0  0  0  0  0  0
  -27.6939  -14.2554   19.5564 H   0  0  0  0  0  0
  -28.6801  -11.9974   21.3667 H   0  0  0  0  0  0
  -28.4697  -13.6532   21.8536 H   0  0  0  0  0  0
  -25.2759   -9.5681   22.4778 H   0  0  0  0  0  0
  -23.9999   -7.4634   22.7478 H   0  0  0  0  0  0
  -21.0853   -8.8779   19.8949 H   0  0  0  0  0  0
  -22.3706  -10.9683   19.6172 H   0  0  0  0  0  0
  -21.2003   -7.6157   23.9719 H   0  0  0  0  0  0
  -21.1481   -6.0530   25.9078 H   0  0  0  0  0  0
  -22.0601   -2.7618   23.2843 H   0  0  0  0  0  0
  -22.4100  -11.9870   22.4768 H   0  0  0  0  0  0
  -21.1111  -13.1252   22.2609 H   0  0  0  0  0  0
  -24.6610  -15.8445   20.5135 H   0  0  0  0  0  0
  -26.2778  -15.6271   20.0736 H   0  0  0  0  0  0
  -26.7131  -32.5529   23.1167 H   0  0  0  0  0  0
  -25.0075  -33.9783   25.0485 H   0  0  0  0  0  0
  -22.6942  -31.3138   21.4186 H   0  0  0  0  0  0
  -23.3757  -35.9631   23.3297 H   0  0  0  0  0  0
  -24.3571  -36.8933   22.2052 H   0  0  0  0  0  0
  -23.7223  -37.6507   23.6656 H   0  0  0  0  0  0
  -26.0585  -31.5939   20.6052 H   0  0  0  0  0  0
  -26.8242  -30.8726   21.9929 H   0  0  0  0  0  0
  -28.0979  -29.0659   21.1738 H   0  0  0  0  0  0
  -25.9905  -26.0039   18.9511 H   0  0  0  0  0  0
  -23.9634  -27.3307   19.0077 H   0  0  0  0  0  0
  -23.7205  -30.6153   19.4103 H   0  0  0  0  0  0
  -22.7337  -29.2598   19.8681 H   0  0  0  0  0  0
  -25.1281  -36.1981   25.0832 H   0  0  0  0  0  0
  -20.9971  -28.3236   24.1425 H   0  0  0  0  0  0
  -20.5670  -26.2271   23.3602 H   0  0  0  0  0  0
  -21.6631  -26.7434   22.1208 H   0  0  0  0  0  0
  -19.6898  -25.6301   21.1228 H   0  0  0  0  0  0
  -19.6681  -27.3202   20.6750 H   0  0  0  0  0  0
  -17.4194  -26.6697   21.4018 H   0  0  0  0  0  0
  -18.0306  -26.0055   22.9004 H   0  0  0  0  0  0
  -19.7930  -30.7262   24.2278 H   0  0  0  0  0  0
  -17.5010  -31.6263   24.5173 H   0  0  0  0  0  0
  -15.5346  -30.2987   23.7637 H   0  0  0  0  0  0
  -15.8670  -28.0815   22.7062 H   0  0  0  0  0  0
  -24.5919  -30.7043   25.7803 H   0  0  0  0  0  0
  -24.8923  -32.2846   26.4936 H   0  0  0  0  0  0
  -25.8091  -30.8854   27.0230 H   0  0  0  0  0  0
  -26.2874  -29.6801   24.1184 H   0  0  0  0  0  0
  -27.4090  -29.7290   25.4599 H   0  0  0  0  0  0
  -27.8712  -30.4370   23.9293 H   0  0  0  0  0  0
  -27.2682  -33.3619   26.2097 H   0  0  0  0  0  0
  -28.3857  -32.6878   25.0326 H   0  0  0  0  0  0
  -28.0728  -31.8433   26.5410 H   0  0  0  0  0  0
  -28.2596  -38.0111   24.7528 H   0  0  0  0  0  0
  -28.1084  -36.2643   24.6277 H   0  0  0  0  0  0
  -27.2298  -37.1447   25.8866 H   0  0  0  0  0  0
  -20.9300  -29.8777   21.6961 H   0  0  0  0  0  0
  -26.0189  -38.2874   24.1424 H   0  0  0  0  0  0
  -32.1956  -20.3501   21.9447 H   0  0  0  0  0  0
  -32.3976  -16.0873   22.2575 H   0  0  0  0  0  0
  -28.9286  -17.9160   20.4795 H   0  0  0  0  0  0
  -35.5281  -17.6811   23.6733 H   0  0  0  0  0  0
  -34.3571  -16.3902   23.0835 H   0  0  0  0  0  0
  -34.0640  -19.4384   22.9917 H   0  0  0  0  0  0
  -27.9703  -22.5681   20.6074 H   0  0  0  0  0  0
  -28.9924  -22.5760   19.1919 H   0  0  0  0  0  0
  -30.2556  -24.5508   20.0516 H   0  0  0  0  0  0
  -29.3828  -24.4932   21.5649 H   0  0  0  0  0  0
  -27.2598  -24.8806   20.3753 H   0  0  0  0  0  0
  -28.1043  -25.0333   18.8411 H   0  0  0  0  0  0
  -28.9115  -20.2742   20.1421 H   0  0  0  0  0  0
  -29.0763  -15.3958   21.2601 H   0  0  0  0  0  0
  1 25  1  0  0  0
  1 30  2  0  0  0
  1 84  1  0  0  0
  2  3  1  0  0  0
  2 25  1  0  0  0
  2 86  1  0  0  0
  2 87  1  0  0  0
  3  4  1  0  0  0
  3 88  1  0  0  0
  3 89  1  0  0  0
  4  5  1  0  0  0
  4 90  1  0  0  0
  4 91  1  0  0  0
  5  6  1  0  0  0
  5 26  1  0  0  0
  5 92  1  0  0  0
  6 25  1  0  0  0
  6 93  1  0  0  0
  6 94  1  0  0  0
  7  8  2  0  0  0
  7 26  1  0  0  0
  7 29  1  0  0  0
  8  9  1  0  0  0
  8 22  1  0  0  0
  9 10  1  0  0  0
  9 27  2  0  0  0
 10 11  2  0  0  0
 10 15  1  0  0  0
 11 12  1  0  0  0
 11 95  1  0  0  0
 12 13  2  0  0  0
 12 96  1  0  0  0
 13 14  1  0  0  0
 13 31  1  0  0  0
 14 15  2  0  0  0
 14 97  1  0  0  0
 15 98  1  0  0  0
 16 17  2  0  0  0
 16 21  1  0  0  0
 16 31  1  0  0  0
 17 18  1  0  0  0
 17 99  1  0  0  0
 18 19  2  0  0  0
 18100  1  0  0  0
 19 20  1  0  0  0
 19 24  1  0  0  0
 20 21  2  0  0  0
 20101  1  0  0  0
 21 23  1  0  0  0
 22 28  1  0  0  0
 22 32  2  0  0  0
 26 27  1  0  0  0
 28102  1  0  0  0
 28103  1  0  0  0
 29104  1  0  0  0
 29105  1  0  0  0
 33 34  1  0  0  0
 33 66  1  0  0  0
 33 70  2  0  0  0
 34 36  1  0  0  0
 34 59  1  0  0  0
 34106  1  0  0  0
 35 44  2  0  0  0
 35 45  1  0  0  0
 35 68  1  0  0  0
 36 56  1  0  0  0
 36107  1  0  0  0
 37 39  1  0  0  0
 37 47  1  0  0  0
 37 66  1  0  0  0
 37108  1  0  0  0
 38 43  2  0  0  0
 38 46  1  0  0  0
 38 47  1  0  0  0
 39 64  1  0  0  0
 39 67  2  0  0  0
 40 52  1  0  0  0
 40 53  2  0  0  0
 40 58  1  0  0  0
 41109  1  0  0  0
 41110  1  0  0  0
 41111  1  0  0  0
 41 48  1  0  0  0
 42 43  1  0  0  0
 42 66  1  0  0  0
 42112  1  0  0  0
 42113  1  0  0  0
 43 44  1  0  0  0
 44114  1  0  0  0
 45 46  2  0  0  0
 45115  1  0  0  0
 46116  1  0  0  0
 47117  1  0  0  0
 47118  1  0  0  0
 48 56  1  0  0  0
 48 65  1  0  0  0
 48119  1  0  0  0
 49 50  1  0  0  0
 49 53  1  0  0  0
 49 64  1  0  0  0
 49120  1  0  0  0
 50 51  1  0  0  0
 50121  1  0  0  0
 50122  1  0  0  0
 51 52  1  0  0  0
 51123  1  0  0  0
 51124  1  0  0  0
 52125  1  0  0  0
 52126  1  0  0  0
 53 54  1  0  0  0
 54 55  2  0  0  0
 54127  1  0  0  0
 55 57  1  0  0  0
 55128  1  0  0  0
 56 69  2  0  0  0
 57 58  2  0  0  0
 57129  1  0  0  0
 58130  1  0  0  0
 59 60  1  0  0  0
 59 61  1  0  0  0
 59 62  1  0  0  0
 60131  1  0  0  0
 60132  1  0  0  0
 60133  1  0  0  0
 61134  1  0  0  0
 61135  1  0  0  0
 61136  1  0  0  0
 62137  1  0  0  0
 62138  1  0  0  0
 62139  1  0  0  0
 63 65  1  0  0  0
 63140  1  0  0  0
 63141  1  0  0  0
 63142  1  0  0  0
 64143  1  0  0  0
 65144  1  0  0  0
 68 82  1  0  0  0
 71 74  2  0  0  0
 71 75  1  0  0  0
 71145  1  0  0  0
 72 74  1  0  0  0
 72 76  2  0  0  0
 72146  1  0  0  0
 73 75  2  0  0  0
 73 76  1  0  0  0
 73147  1  0  0  0
 74 78  1  0  0  0
 75 83  1  0  0  0
 76 84  1  0  0  0
 77 78  2  0  0  0
 77148  1  0  0  0
 77149  1  0  0  0
 78150  1  0  0  0
 79 80  1  0  0  0
 79 83  1  0  0  0
 79 85  2  0  0  0
 80 81  1  0  0  0
 80151  1  0  0  0
 80152  1  0  0  0
 81 82  1  0  0  0
 81153  1  0  0  0
 81154  1  0  0  0
 82155  1  0  0  0
 82156  1  0  0  0
 83157  1  0  0  0
 84158  1  0  0  0
M  ISO  4   1 100  68 101  82 101  84 100
M  END
> <chiral flag>
0

> <version>
0

> <s_m_source_file>
/data/baiqing/PycharmProjects/Reinvent-master-3.2/result/LINK_invent/BTK/process_docking_weight1_custom_product_contain_oxygen_bond_distance_aromatic_linkinvent_7_9_3/rearranged_h_0107.sdf

> <i_m_source_file_index>
80

> <r_mmod_Potential_Energy-OPLS-2005>
-68.1949691772461

> <r_mmod_Stretch_Energy-OPLS-2005>
43.762393951416

> <r_mmod_Bend_Energy-OPLS-2005>
103.650398254395

> <r_mmod_Torsional_Energy-OPLS-2005>
225.37580871582

> <r_mmod_Improper_Torsional_Energy-OPLS-2005>
3.69360041618347

> <r_mmod_Van_der_Waal_Energy-OPLS-2005>
171.117004394531

> <r_mmod_Electrostatic_Energy-OPLS-2005>
-394.142456054688

> <r_mmod_Solvation_Energy-OPLS-2005>
-239.181137084961

> <b_mmod_Minimization_Converged-OPLS-2005>
0

> <r_mmod_RMS_Derivative-OPLS-2005>
0.708360016345978

$$$$
80
                    3D
 Structure written by MMmdl.
161169  0  0  1  0            999 V2000
  -30.7294  -14.4998   20.5270 C   0  0  0  0  0  0
  -30.4175  -12.3149   19.4373 C   0  0  0  0  0  0
  -29.4951  -12.4800   18.2129 C   0  0  0  0  0  0
  -28.0204  -12.3378   18.6348 C   0  0  0  0  0  0
  -27.6578  -13.2139   19.8644 C   0  0  2  0  0  0
  -28.7028  -13.0599   20.9938 C   0  0  0  0  0  0
  -25.2586  -13.8171   20.5707 C   0  0  0  0  0  0
  -24.1844  -13.0450   20.9196 C   0  0  0  0  0  0
  -24.6400  -11.6912   20.8758 C   0  0  0  0  0  0
  -23.9072  -10.4299   21.0418 C   0  0  0  0  0  0
  -24.3616   -9.4209   21.9195 C   0  0  0  0  0  0
  -23.6287   -8.2248   22.0763 C   0  0  0  0  0  0
  -22.4264   -8.0290   21.3553 C   0  0  0  0  0  0
  -21.9906   -9.0271   20.4655 C   0  0  0  0  0  0
  -22.7243  -10.2149   20.3065 C   0  0  0  0  0  0
  -21.6851   -6.0733   22.5279 C   0  0  0  0  0  0
  -21.4015   -6.5639   23.8212 C   0  0  0  0  0  0
  -21.3656   -5.6795   24.9178 C   0  0  0  0  0  0
  -21.6042   -4.3060   24.7232 C   0  0  0  0  0  0
  -21.8821   -3.8147   23.4355 C   0  0  0  0  0  0
  -21.9189   -4.6959   22.3408 C   0  0  0  0  0  0
  -22.7866  -13.5257   21.1844 C   0  0  0  0  0  0
  -22.1665   -4.2147   21.0988 F   0  0  0  0  0  0
  -21.5615   -3.4545   25.7742 F   0  0  0  0  0  0
  -30.0290  -13.3367   20.4245 N   0  0  0  0  0  0
  -26.3017  -12.9354   20.3344 N   0  0  0  0  0  0
  -25.9331  -11.6507   20.5784 N   0  0  0  0  0  0
  -22.0492  -12.8276   22.0394 N   0  0  0  0  0  0
  -25.4320  -15.1893   20.4139 N   0  0  0  0  0  0
  -31.8835  -14.6107   20.1088 O   0  0  0  0  0  0
  -21.6629   -6.8876   21.4237 O   0  0  0  0  0  0
  -22.3565  -14.5566   20.6676 O   0  0  0  0  0  0
  -24.6174  -31.8676   23.2106 C   0  0  0  0  0  0
  -25.9065  -32.4812   23.8398 C   0  0  1  0  0  0
  -27.2289  -27.4026   20.0985 C   0  0  0  0  0  0
  -25.5906  -33.8607   24.2331 N   0  0  0  0  0  0
  -23.4066  -30.4943   21.5517 C   0  0  2  0  0  0
  -24.8524  -28.9625   20.1134 C   0  0  0  0  0  0
  -22.7426  -29.4664   22.4973 C   0  0  0  0  0  0
  -18.0286  -28.1389   22.8500 C   0  0  0  0  0  0
  -24.1484  -36.7300   23.2638 C   0  0  0  0  0  0
  -25.9406  -30.8220   21.3718 C   0  0  0  0  0  0
  -26.0157  -29.4561   20.7154 C   0  0  0  0  0  0
  -27.2047  -28.6831   20.7071 C   0  0  0  0  0  0
  -26.0427  -26.9442   19.4730 C   0  0  0  0  0  0
  -24.8620  -27.7061   19.4895 C   0  0  0  0  0  0
  -23.6173  -29.8334   20.1644 C   0  0  0  0  0  0
  -25.4105  -36.3104   24.0339 C   0  0  1  0  0  0
  -20.5880  -28.3672   23.1316 C   0  0  2  0  0  0
  -20.6773  -26.9405   22.5417 C   0  0  0  0  0  0
  -19.5741  -26.6400   21.5218 C   0  0  0  0  0  0
  -18.1924  -26.7935   22.1637 C   0  0  0  0  0  0
  -19.1539  -28.8846   23.2908 C   0  0  0  0  0  0
  -18.9463  -30.1449   23.8919 C   0  0  0  0  0  0
  -17.6465  -30.6595   24.0565 C   0  0  0  0  0  0
  -25.9032  -34.9465   23.5135 C   0  0  0  0  0  0
  -16.5357  -29.9094   23.6329 C   0  0  0  0  0  0
  -16.7270  -28.6509   23.0354 C   0  0  0  0  0  0
  -26.4489  -31.6598   25.0730 C   0  0  0  0  0  0
  -25.3752  -31.3735   26.1485 C   0  0  0  0  0  0
  -27.0314  -30.3025   24.6132 C   0  0  0  0  0  0
  -27.6063  -32.4326   25.7497 C   0  0  0  0  0  0
  -27.5572  -37.1811   24.8465 C   0  0  0  0  0  0
  -21.4153  -29.3044   22.3719 N   0  0  0  0  0  0
  -26.4284  -37.3788   23.9413 N   0  0  0  0  0  0
  -24.6729  -31.0754   22.1026 N   0  0  0  0  0  0
  -23.4187  -28.8190   23.3009 O   0  0  0  0  0  0
  -28.3815  -26.6248   20.1421 O   0  0  0  0  0  0
  -26.5591  -34.8923   22.4696 O   0  0  0  0  0  0
  -23.5359  -32.1449   23.7484 O   0  0  0  0  0  0
  -28.4118  -19.3850   22.8965 C   0  0  0  0  0  0
  -30.1730  -19.4503   20.7404 C   0  0  0  0  0  0
  -28.9652  -18.1727   22.4241 C   0  0  0  0  0  0
  -29.8684  -18.1926   21.3290 C   0  0  0  0  0  0
  -28.7491  -20.6388   22.3239 C   0  0  0  0  0  0
  -29.6225  -20.6690   21.2098 C   0  0  0  0  0  0
  -28.6045  -16.8922   23.1613 C   0  0  0  0  0  0
  -27.3965  -21.8419   23.9184 C   0  0  0  0  0  0
  -30.6330  -16.9559   20.8037 C   0  0  0  0  0  0
  -29.3353  -24.2720   20.4375 C   0  0  0  0  0  0
  -28.2122  -25.2053   19.9143 C   0  0  0  0  0  0
  -29.0199  -22.7725   20.1535 C   0  0  0  0  0  0
  -30.0531  -15.5997   20.9178 N   0  0  0  0  0  0
  -28.3107  -21.8463   22.8298 O   0  0  0  0  0  0
  -30.0301  -21.8607   20.6256 O   0  0  0  0  0  0
  -31.4628  -12.3937   19.1338 H   0  0  0  0  0  0
  -30.3096  -11.3186   19.8678 H   0  0  0  0  0  0
  -29.7393  -11.7324   17.4571 H   0  0  0  0  0  0
  -29.6596  -13.4520   17.7439 H   0  0  0  0  0  0
  -27.8528  -11.2864   18.8735 H   0  0  0  0  0  0
  -27.3609  -12.5659   17.7962 H   0  0  0  0  0  0
  -27.6853  -14.2504   19.5263 H   0  0  0  0  0  0
  -28.6813  -12.0486   21.4043 H   0  0  0  0  0  0
  -28.4731  -13.7255   21.8270 H   0  0  0  0  0  0
  -25.2759   -9.5672   22.4770 H   0  0  0  0  0  0
  -23.9987   -7.4634   22.7488 H   0  0  0  0  0  0
  -21.0827   -8.8798   19.8970 H   0  0  0  0  0  0
  -22.3706  -10.9687   19.6174 H   0  0  0  0  0  0
  -21.2022   -7.6150   23.9716 H   0  0  0  0  0  0
  -21.1465   -6.0526   25.9077 H   0  0  0  0  0  0
  -22.0599   -2.7606   23.2856 H   0  0  0  0  0  0
  -22.4093  -11.9955   22.4817 H   0  0  0  0  0  0
  -21.1110  -13.1318   22.2561 H   0  0  0  0  0  0
  -24.6670  -15.8450   20.5270 H   0  0  0  0  0  0
  -26.2814  -15.6283   20.0816 H   0  0  0  0  0  0
  -26.7131  -32.5513   23.1159 H   0  0  0  0  0  0
  -25.0062  -33.9772   25.0477 H   0  0  0  0  0  0
  -22.6957  -31.3113   21.4133 H   0  0  0  0  0  0
  -23.3738  -35.9639   23.3318 H   0  0  0  0  0  0
  -24.3569  -36.8889   22.2043 H   0  0  0  0  0  0
  -23.7257  -37.6520   23.6640 H   0  0  0  0  0  0
  -26.0643  -31.5896   20.6061 H   0  0  0  0  0  0
  -26.8249  -30.8707   21.9948 H   0  0  0  0  0  0
  -28.0975  -29.0556   21.1890 H   0  0  0  0  0  0
  -25.9987  -25.9930   18.9631 H   0  0  0  0  0  0
  -23.9691  -27.3208   19.0172 H   0  0  0  0  0  0
  -23.7307  -30.6114   19.4088 H   0  0  0  0  0  0
  -22.7399  -29.2584   19.8628 H   0  0  0  0  0  0
  -25.1296  -36.1959   25.0829 H   0  0  0  0  0  0
  -20.9983  -28.3246   24.1428 H   0  0  0  0  0  0
  -20.5687  -26.2268   23.3603 H   0  0  0  0  0  0
  -21.6638  -26.7445   22.1195 H   0  0  0  0  0  0
  -19.6888  -25.6317   21.1225 H   0  0  0  0  0  0
  -19.6684  -27.3229   20.6761 H   0  0  0  0  0  0
  -17.4191  -26.6687   21.4045 H   0  0  0  0  0  0
  -18.0318  -26.0087   22.9037 H   0  0  0  0  0  0
  -19.7939  -30.7259   24.2298 H   0  0  0  0  0  0
  -17.5024  -31.6278   24.5165 H   0  0  0  0  0  0
  -15.5356  -30.3002   23.7650 H   0  0  0  0  0  0
  -15.8667  -28.0831   22.7061 H   0  0  0  0  0  0
  -24.5894  -30.7120   25.7834 H   0  0  0  0  0  0
  -24.8987  -32.2906   26.4955 H   0  0  0  0  0  0
  -25.8095  -30.8886   27.0236 H   0  0  0  0  0  0
  -26.2864  -29.6798   24.1169 H   0  0  0  0  0  0
  -27.4055  -29.7266   25.4609 H   0  0  0  0  0  0
  -27.8718  -30.4329   23.9310 H   0  0  0  0  0  0
  -27.2668  -33.3608   26.2109 H   0  0  0  0  0  0
  -28.3852  -32.6920   25.0314 H   0  0  0  0  0  0
  -28.0757  -31.8435   26.5391 H   0  0  0  0  0  0
  -28.2619  -38.0081   24.7490 H   0  0  0  0  0  0
  -28.1053  -36.2622   24.6331 H   0  0  0  0  0  0
  -27.2289  -37.1488   25.8868 H   0  0  0  0  0  0
  -20.9298  -29.8772   21.6959 H   0  0  0  0  0  0
  -26.0178  -38.2867   24.1412 H   0  0  0  0  0  0
  -27.7471  -19.3343   23.7450 H   0  0  0  0  0  0
  -30.8744  -19.4891   19.9192 H   0  0  0  0  0  0
  -28.0486  -17.0973   24.0766 H   0  0  0  0  0  0
  -29.5029  -16.3465   23.4513 H   0  0  0  0  0  0
  -27.9819  -16.2499   22.5386 H   0  0  0  0  0  0
  -27.8257  -21.3723   24.8042 H   0  0  0  0  0  0
  -27.1478  -22.8709   24.1809 H   0  0  0  0  0  0
  -26.4662  -21.3373   23.6550 H   0  0  0  0  0  0
  -31.6012  -16.9566   21.3102 H   0  0  0  0  0  0
  -30.8508  -17.1233   19.7471 H   0  0  0  0  0  0
  -29.4600  -24.4210   21.5104 H   0  0  0  0  0  0
  -30.2826  -24.5418   19.9718 H   0  0  0  0  0  0
  -27.2963  -24.8681   20.4023 H   0  0  0  0  0  0
  -28.0917  -25.0415   18.8418 H   0  0  0  0  0  0
  -28.9497  -22.6321   19.0747 H   0  0  0  0  0  0
  -28.0289  -22.5250   20.5323 H   0  0  0  0  0  0
  -29.0875  -15.5095   21.1900 H   0  0  0  0  0  0
  1 25  1  0  0  0
  1 30  2  0  0  0
  1 83  1  0  0  0
  2  3  1  0  0  0
  2 25  1  0  0  0
  2 86  1  0  0  0
  2 87  1  0  0  0
  3  4  1  0  0  0
  3 88  1  0  0  0
  3 89  1  0  0  0
  4  5  1  0  0  0
  4 90  1  0  0  0
  4 91  1  0  0  0
  5  6  1  0  0  0
  5 26  1  0  0  0
  5 92  1  0  0  0
  6 25  1  0  0  0
  6 93  1  0  0  0
  6 94  1  0  0  0
  7  8  2  0  0  0
  7 26  1  0  0  0
  7 29  1  0  0  0
  8  9  1  0  0  0
  8 22  1  0  0  0
  9 10  1  0  0  0
  9 27  2  0  0  0
 10 11  2  0  0  0
 10 15  1  0  0  0
 11 12  1  0  0  0
 11 95  1  0  0  0
 12 13  2  0  0  0
 12 96  1  0  0  0
 13 14  1  0  0  0
 13 31  1  0  0  0
 14 15  2  0  0  0
 14 97  1  0  0  0
 15 98  1  0  0  0
 16 17  2  0  0  0
 16 21  1  0  0  0
 16 31  1  0  0  0
 17 18  1  0  0  0
 17 99  1  0  0  0
 18 19  2  0  0  0
 18100  1  0  0  0
 19 20  1  0  0  0
 19 24  1  0  0  0
 20 21  2  0  0  0
 20101  1  0  0  0
 21 23  1  0  0  0
 22 28  1  0  0  0
 22 32  2  0  0  0
 26 27  1  0  0  0
 28102  1  0  0  0
 28103  1  0  0  0
 29104  1  0  0  0
 29105  1  0  0  0
 33 34  1  0  0  0
 33 66  1  0  0  0
 33 70  2  0  0  0
 34 36  1  0  0  0
 34 59  1  0  0  0
 34106  1  0  0  0
 35 44  2  0  0  0
 35 45  1  0  0  0
 35 68  1  0  0  0
 36 56  1  0  0  0
 36107  1  0  0  0
 37 39  1  0  0  0
 37 47  1  0  0  0
 37 66  1  0  0  0
 37108  1  0  0  0
 38 43  2  0  0  0
 38 46  1  0  0  0
 38 47  1  0  0  0
 39 64  1  0  0  0
 39 67  2  0  0  0
 40 52  1  0  0  0
 40 53  2  0  0  0
 40 58  1  0  0  0
 41109  1  0  0  0
 41110  1  0  0  0
 41111  1  0  0  0
 41 48  1  0  0  0
 42 43  1  0  0  0
 42 66  1  0  0  0
 42112  1  0  0  0
 42113  1  0  0  0
 43 44  1  0  0  0
 44114  1  0  0  0
 45 46  2  0  0  0
 45115  1  0  0  0
 46116  1  0  0  0
 47117  1  0  0  0
 47118  1  0  0  0
 48 56  1  0  0  0
 48 65  1  0  0  0
 48119  1  0  0  0
 49 50  1  0  0  0
 49 53  1  0  0  0
 49 64  1  0  0  0
 49120  1  0  0  0
 50 51  1  0  0  0
 50121  1  0  0  0
 50122  1  0  0  0
 51 52  1  0  0  0
 51123  1  0  0  0
 51124  1  0  0  0
 52125  1  0  0  0
 52126  1  0  0  0
 53 54  1  0  0  0
 54 55  2  0  0  0
 54127  1  0  0  0
 55 57  1  0  0  0
 55128  1  0  0  0
 56 69  2  0  0  0
 57 58  2  0  0  0
 57129  1  0  0  0
 58130  1  0  0  0
 59 60  1  0  0  0
 59 61  1  0  0  0
 59 62  1  0  0  0
 60131  1  0  0  0
 60132  1  0  0  0
 60133  1  0  0  0
 61134  1  0  0  0
 61135  1  0  0  0
 61136  1  0  0  0
 62137  1  0  0  0
 62138  1  0  0  0
 62139  1  0  0  0
 63 65  1  0  0  0
 63140  1  0  0  0
 63141  1  0  0  0
 63142  1  0  0  0
 64143  1  0  0  0
 65144  1  0  0  0
 68 81  1  0  0  0
 71 73  2  0  0  0
 71 75  1  0  0  0
 71145  1  0  0  0
 72 74  2  0  0  0
 72 76  1  0  0  0
 72146  1  0  0  0
 73 74  1  0  0  0
 73 77  1  0  0  0
 74 79  1  0  0  0
 75 76  2  0  0  0
 75 84  1  0  0  0
 76 85  1  0  0  0
 77147  1  0  0  0
 77148  1  0  0  0
 77149  1  0  0  0
 78 84  1  0  0  0
 78150  1  0  0  0
 78151  1  0  0  0
 78152  1  0  0  0
 79 83  1  0  0  0
 79153  1  0  0  0
 79154  1  0  0  0
 80 81  1  0  0  0
 80 82  1  0  0  0
 80155  1  0  0  0
 80156  1  0  0  0
 81157  1  0  0  0
 81158  1  0  0  0
 82 85  1  0  0  0
 82159  1  0  0  0
 82160  1  0  0  0
 83161  1  0  0  0
M  ISO  4   1 100  68 101  81 101  83 100
M  END
> <chiral flag>
0

> <version>
0

> <s_m_source_file>
/data/baiqing/PycharmProjects/Reinvent-master-3.2/result/LINK_invent/BTK/process_docking_weight1_custom_product_contain_oxygen_bond_distance_aromatic_linkinvent_7_9_3/rearranged_h_0107.sdf

> <i_m_source_file_index>
81

> <r_mmod_Potential_Energy-OPLS-2005>
-62.0280799865723

> <r_mmod_Stretch_Energy-OPLS-2005>
45.3476219177246

> <r_mmod_Bend_Energy-OPLS-2005>
118.849975585938

> <r_mmod_Torsional_Energy-OPLS-2005>
217.435745239258

> <r_mmod_Improper_Torsional_Energy-OPLS-2005>
5.06735038757324

> <r_mmod_Van_der_Waal_Energy-OPLS-2005>
167.546447753906

> <r_mmod_Electrostatic_Energy-OPLS-2005>
-422.877807617188

> <r_mmod_Solvation_Energy-OPLS-2005>
-215.291213989258

> <b_mmod_Minimization_Converged-OPLS-2005>
0

> <r_mmod_RMS_Derivative-OPLS-2005>
1.94898235797882

$$$$
81
                    3D
 Structure written by MMmdl.
162170  0  0  1  0            999 V2000
  -30.6787  -14.4835   20.5744 C   0  0  0  0  0  0
  -30.4357  -12.3136   19.4156 C   0  0  0  0  0  0
  -29.4988  -12.5135   18.2045 C   0  0  0  0  0  0
  -28.0199  -12.3691   18.6198 C   0  0  0  0  0  0
  -27.6668  -13.2011   19.8803 C   0  0  2  0  0  0
  -28.7114  -12.9604   20.9950 C   0  0  0  0  0  0
  -25.2589  -13.8157   20.5661 C   0  0  0  0  0  0
  -24.1847  -13.0451   20.9188 C   0  0  0  0  0  0
  -24.6392  -11.6915   20.8758 C   0  0  0  0  0  0
  -23.9052  -10.4301   21.0421 C   0  0  0  0  0  0
  -24.3605   -9.4221   21.9210 C   0  0  0  0  0  0
  -23.6282   -8.2248   22.0778 C   0  0  0  0  0  0
  -22.4267   -8.0288   21.3549 C   0  0  0  0  0  0
  -21.9897   -9.0266   20.4652 C   0  0  0  0  0  0
  -22.7224  -10.2148   20.3066 C   0  0  0  0  0  0
  -21.6844   -6.0729   22.5278 C   0  0  0  0  0  0
  -21.3998   -6.5621   23.8217 C   0  0  0  0  0  0
  -21.3661   -5.6778   24.9185 C   0  0  0  0  0  0
  -21.6051   -4.3041   24.7231 C   0  0  0  0  0  0
  -21.8815   -3.8139   23.4348 C   0  0  0  0  0  0
  -21.9189   -4.6954   22.3407 C   0  0  0  0  0  0
  -22.7869  -13.5254   21.1847 C   0  0  0  0  0  0
  -22.1663   -4.2150   21.0977 F   0  0  0  0  0  0
  -21.5636   -3.4528   25.7737 F   0  0  0  0  0  0
  -30.0444  -13.2838   20.4495 N   0  0  0  0  0  0
  -26.3040  -12.9321   20.3370 N   0  0  0  0  0  0
  -25.9319  -11.6488   20.5775 N   0  0  0  0  0  0
  -22.0486  -12.8253   22.0388 N   0  0  0  0  0  0
  -25.4267  -15.1857   20.3948 N   0  0  0  0  0  0
  -31.7888  -14.7176   20.0882 O   0  0  0  0  0  0
  -21.6632   -6.8885   21.4249 O   0  0  0  0  0  0
  -22.3572  -14.5569   20.6701 O   0  0  0  0  0  0
  -24.6144  -31.8654   23.2070 C   0  0  0  0  0  0
  -25.9047  -32.4799   23.8347 C   0  0  1  0  0  0
  -27.2367  -27.4218   20.0767 C   0  0  0  0  0  0
  -25.5893  -33.8597   24.2284 N   0  0  0  0  0  0
  -23.4016  -30.4870   21.5505 C   0  0  2  0  0  0
  -24.8454  -28.9481   20.1149 C   0  0  0  0  0  0
  -22.7382  -29.4651   22.5001 C   0  0  0  0  0  0
  -18.0260  -28.1367   22.8500 C   0  0  0  0  0  0
  -24.1497  -36.7327   23.2622 C   0  0  0  0  0  0
  -25.9323  -30.8227   21.3654 C   0  0  0  0  0  0
  -26.0062  -29.4565   20.7095 C   0  0  0  0  0  0
  -27.2000  -28.6979   20.6918 C   0  0  0  0  0  0
  -26.0484  -26.9245   19.4939 C   0  0  0  0  0  0
  -24.8612  -27.6803   19.5100 C   0  0  0  0  0  0
  -23.6087  -29.8170   20.1665 C   0  0  0  0  0  0
  -25.4104  -36.3097   24.0322 C   0  0  1  0  0  0
  -20.5845  -28.3666   23.1317 C   0  0  2  0  0  0
  -20.6774  -26.9408   22.5411 C   0  0  0  0  0  0
  -19.5749  -26.6380   21.5211 C   0  0  0  0  0  0
  -18.1920  -26.7915   22.1608 C   0  0  0  0  0  0
  -19.1512  -28.8830   23.2902 C   0  0  0  0  0  0
  -18.9445  -30.1441   23.8912 C   0  0  0  0  0  0
  -17.6450  -30.6591   24.0564 C   0  0  0  0  0  0
  -25.9031  -34.9459   23.5100 C   0  0  0  0  0  0
  -16.5343  -29.9098   23.6313 C   0  0  0  0  0  0
  -16.7248  -28.6503   23.0355 C   0  0  0  0  0  0
  -26.4407  -31.6577   25.0707 C   0  0  0  0  0  0
  -25.3643  -31.3771   26.1452 C   0  0  0  0  0  0
  -27.0190  -30.2975   24.6134 C   0  0  0  0  0  0
  -27.5946  -32.4313   25.7504 C   0  0  0  0  0  0
  -27.5586  -37.1823   24.8446 C   0  0  0  0  0  0
  -21.4115  -29.3032   22.3727 N   0  0  0  0  0  0
  -26.4293  -37.3785   23.9403 N   0  0  0  0  0  0
  -24.6674  -31.0729   22.0992 N   0  0  0  0  0  0
  -23.4138  -28.8221   23.3072 O   0  0  0  0  0  0
  -28.4241  -26.7100   20.0933 O   0  0  0  0  0  0
  -26.5605  -34.8914   22.4673 O   0  0  0  0  0  0
  -23.5341  -32.1417   23.7470 O   0  0  0  0  0  0
  -28.6758  -17.3842   20.5192 C   0  0  0  0  0  0
  -30.9701  -17.7026   21.2513 C   0  0  0  0  0  0
  -28.4823  -18.7845   20.4147 C   0  0  0  0  0  0
  -29.8999  -16.8294   20.9507 C   0  0  0  0  0  0
  -30.7828  -19.1061   21.1773 C   0  0  0  0  0  0
  -29.5440  -19.6594   20.7648 C   0  0  0  0  0  0
  -27.1994  -19.3182   19.9222 C   0  0  0  0  0  0
  -26.3731  -18.6964   19.0618 C   0  0  0  0  0  0
  -28.5351  -24.2223   19.9335 C   0  0  0  0  0  0
  -25.0662  -19.2803   18.5698 C   0  0  0  0  0  0
  -29.6959  -23.2253   19.7098 C   0  0  0  0  0  0
  -28.6245  -25.5873   19.2088 C   0  0  0  0  0  0
  -29.3257  -21.7248   19.5508 C   0  0  0  0  0  0
  -31.8183  -19.9673   21.5436 N   0  0  0  0  0  0
  -29.9441  -15.4239   21.1997 N   0  0  0  0  0  0
  -27.5728  -23.9390   20.6542 O   0  0  0  0  0  0
  -29.3802  -21.0365   20.8063 O   0  0  0  0  0  0
  -31.4778  -12.4269   19.1113 H   0  0  0  0  0  0
  -30.3473  -11.2977   19.8064 H   0  0  0  0  0  0
  -29.7406  -11.7929   17.4213 H   0  0  0  0  0  0
  -29.6618  -13.5015   17.7715 H   0  0  0  0  0  0
  -27.8358  -11.3121   18.8143 H   0  0  0  0  0  0
  -27.3676  -12.6464   17.7913 H   0  0  0  0  0  0
  -27.7162  -14.2506   19.5944 H   0  0  0  0  0  0
  -28.6909  -11.9156   21.3084 H   0  0  0  0  0  0
  -28.4688  -13.5287   21.8938 H   0  0  0  0  0  0
  -25.2750   -9.5706   22.4788 H   0  0  0  0  0  0
  -24.0005   -7.4645   22.7491 H   0  0  0  0  0  0
  -21.0846   -8.8781   19.8944 H   0  0  0  0  0  0
  -22.3696  -10.9695   19.6175 H   0  0  0  0  0  0
  -21.1968   -7.6128   23.9719 H   0  0  0  0  0  0
  -21.1489   -6.0507   25.9093 H   0  0  0  0  0  0
  -22.0583   -2.7603   23.2845 H   0  0  0  0  0  0
  -22.4072  -11.9903   22.4780 H   0  0  0  0  0  0
  -21.1112  -13.1300   22.2576 H   0  0  0  0  0  0
  -24.6450  -15.8313   20.4552 H   0  0  0  0  0  0
  -26.2524  -15.6013   19.9873 H   0  0  0  0  0  0
  -26.7126  -32.5477   23.1106 H   0  0  0  0  0  0
  -25.0025  -33.9720   25.0423 H   0  0  0  0  0  0
  -22.6894  -31.3035   21.4129 H   0  0  0  0  0  0
  -23.3749  -35.9669   23.3221 H   0  0  0  0  0  0
  -24.3591  -36.9014   22.2047 H   0  0  0  0  0  0
  -23.7260  -37.6509   23.6684 H   0  0  0  0  0  0
  -26.0542  -31.5922   20.6007 H   0  0  0  0  0  0
  -26.8166  -30.8658   21.9902 H   0  0  0  0  0  0
  -28.0990  -29.0898   21.1469 H   0  0  0  0  0  0
  -26.0077  -25.9471   19.0382 H   0  0  0  0  0  0
  -23.9648  -27.2737   19.0628 H   0  0  0  0  0  0
  -23.7175  -30.5910   19.4051 H   0  0  0  0  0  0
  -22.7313  -29.2376   19.8723 H   0  0  0  0  0  0
  -25.1285  -36.1942   25.0817 H   0  0  0  0  0  0
  -20.9915  -28.3264   24.1441 H   0  0  0  0  0  0
  -20.5695  -26.2273   23.3582 H   0  0  0  0  0  0
  -21.6657  -26.7467   22.1225 H   0  0  0  0  0  0
  -19.6912  -25.6297   21.1235 H   0  0  0  0  0  0
  -19.6684  -27.3187   20.6739 H   0  0  0  0  0  0
  -17.4183  -26.6650   21.4012 H   0  0  0  0  0  0
  -18.0321  -26.0059   22.9003 H   0  0  0  0  0  0
  -19.7917  -30.7263   24.2289 H   0  0  0  0  0  0
  -17.5006  -31.6260   24.5196 H   0  0  0  0  0  0
  -15.5345  -30.3018   23.7632 H   0  0  0  0  0  0
  -15.8640  -28.0834   22.7071 H   0  0  0  0  0  0
  -24.5944  -30.6895   25.7914 H   0  0  0  0  0  0
  -24.8651  -32.2940   26.4604 H   0  0  0  0  0  0
  -25.8029  -30.9270   27.0374 H   0  0  0  0  0  0
  -26.2770  -29.6866   24.0966 H   0  0  0  0  0  0
  -27.3627  -29.7092   25.4653 H   0  0  0  0  0  0
  -27.8756  -30.4192   23.9499 H   0  0  0  0  0  0
  -27.2491  -33.3619   26.2021 H   0  0  0  0  0  0
  -28.3794  -32.6857   25.0373 H   0  0  0  0  0  0
  -28.0532  -31.8463   26.5484 H   0  0  0  0  0  0
  -28.2582  -38.0143   24.7528 H   0  0  0  0  0  0
  -28.1108  -36.2672   24.6242 H   0  0  0  0  0  0
  -27.2299  -37.1466   25.8847 H   0  0  0  0  0  0
  -20.9258  -29.8762   21.6977 H   0  0  0  0  0  0
  -26.0164  -38.2855   24.1418 H   0  0  0  0  0  0
  -27.8504  -16.7228   20.3052 H   0  0  0  0  0  0
  -31.9142  -17.2950   21.5855 H   0  0  0  0  0  0
  -26.9084  -20.2842   20.3087 H   0  0  0  0  0  0
  -26.6299  -17.7240   18.6641 H   0  0  0  0  0  0
  -24.8936  -20.2765   18.9785 H   0  0  0  0  0  0
  -24.2319  -18.6405   18.8576 H   0  0  0  0  0  0
  -25.0785  -19.3586   17.4818 H   0  0  0  0  0  0
  -30.4080  -23.3337   20.5281 H   0  0  0  0  0  0
  -30.2242  -23.5454   18.8119 H   0  0  0  0  0  0
  -27.9456  -25.6021   18.3579 H   0  0  0  0  0  0
  -29.6227  -25.6801   18.7823 H   0  0  0  0  0  0
  -30.0361  -21.2631   18.8630 H   0  0  0  0  0  0
  -28.3424  -21.6258   19.0899 H   0  0  0  0  0  0
  -32.5125  -19.6229   22.1991 H   0  0  0  0  0  0
  -31.5439  -20.9249   21.7419 H   0  0  0  0  0  0
  -29.0873  -15.0355   21.5615 H   0  0  0  0  0  0
  1 25  1  0  0  0
  1 30  2  0  0  0
  1 85  1  0  0  0
  2  3  1  0  0  0
  2 25  1  0  0  0
  2 88  1  0  0  0
  2 89  1  0  0  0
  3  4  1  0  0  0
  3 90  1  0  0  0
  3 91  1  0  0  0
  4  5  1  0  0  0
  4 92  1  0  0  0
  4 93  1  0  0  0
  5  6  1  0  0  0
  5 26  1  0  0  0
  5 94  1  0  0  0
  6 25  1  0  0  0
  6 95  1  0  0  0
  6 96  1  0  0  0
  7  8  2  0  0  0
  7 26  1  0  0  0
  7 29  1  0  0  0
  8  9  1  0  0  0
  8 22  1  0  0  0
  9 10  1  0  0  0
  9 27  2  0  0  0
 10 11  2  0  0  0
 10 15  1  0  0  0
 11 12  1  0  0  0
 11 97  1  0  0  0
 12 13  2  0  0  0
 12 98  1  0  0  0
 13 14  1  0  0  0
 13 31  1  0  0  0
 14 15  2  0  0  0
 14 99  1  0  0  0
 15100  1  0  0  0
 16 17  2  0  0  0
 16 21  1  0  0  0
 16 31  1  0  0  0
 17 18  1  0  0  0
 17101  1  0  0  0
 18 19  2  0  0  0
 18102  1  0  0  0
 19 20  1  0  0  0
 19 24  1  0  0  0
 20 21  2  0  0  0
 20103  1  0  0  0
 21 23  1  0  0  0
 22 28  1  0  0  0
 22 32  2  0  0  0
 26 27  1  0  0  0
 28104  1  0  0  0
 28105  1  0  0  0
 29106  1  0  0  0
 29107  1  0  0  0
 33 34  1  0  0  0
 33 66  1  0  0  0
 33 70  2  0  0  0
 34 36  1  0  0  0
 34 59  1  0  0  0
 34108  1  0  0  0
 35 44  2  0  0  0
 35 45  1  0  0  0
 35 68  1  0  0  0
 36 56  1  0  0  0
 36109  1  0  0  0
 37 39  1  0  0  0
 37 47  1  0  0  0
 37 66  1  0  0  0
 37110  1  0  0  0
 38 43  2  0  0  0
 38 46  1  0  0  0
 38 47  1  0  0  0
 39 64  1  0  0  0
 39 67  2  0  0  0
 40 52  1  0  0  0
 40 53  2  0  0  0
 40 58  1  0  0  0
 41111  1  0  0  0
 41112  1  0  0  0
 41113  1  0  0  0
 41 48  1  0  0  0
 42 43  1  0  0  0
 42 66  1  0  0  0
 42114  1  0  0  0
 42115  1  0  0  0
 43 44  1  0  0  0
 44116  1  0  0  0
 45 46  2  0  0  0
 45117  1  0  0  0
 46118  1  0  0  0
 47119  1  0  0  0
 47120  1  0  0  0
 48 56  1  0  0  0
 48 65  1  0  0  0
 48121  1  0  0  0
 49 50  1  0  0  0
 49 53  1  0  0  0
 49 64  1  0  0  0
 49122  1  0  0  0
 50 51  1  0  0  0
 50123  1  0  0  0
 50124  1  0  0  0
 51 52  1  0  0  0
 51125  1  0  0  0
 51126  1  0  0  0
 52127  1  0  0  0
 52128  1  0  0  0
 53 54  1  0  0  0
 54 55  2  0  0  0
 54129  1  0  0  0
 55 57  1  0  0  0
 55130  1  0  0  0
 56 69  2  0  0  0
 57 58  2  0  0  0
 57131  1  0  0  0
 58132  1  0  0  0
 59 60  1  0  0  0
 59 61  1  0  0  0
 59 62  1  0  0  0
 60133  1  0  0  0
 60134  1  0  0  0
 60135  1  0  0  0
 61136  1  0  0  0
 61137  1  0  0  0
 61138  1  0  0  0
 62139  1  0  0  0
 62140  1  0  0  0
 62141  1  0  0  0
 63 65  1  0  0  0
 63142  1  0  0  0
 63143  1  0  0  0
 63144  1  0  0  0
 64145  1  0  0  0
 65146  1  0  0  0
 68 82  1  0  0  0
 71 73  2  0  0  0
 71 74  1  0  0  0
 71147  1  0  0  0
 72 74  2  0  0  0
 72 75  1  0  0  0
 72148  1  0  0  0
 73 76  1  0  0  0
 73 77  1  0  0  0
 74 85  1  0  0  0
 75 76  2  0  0  0
 75 84  1  0  0  0
 76 87  1  0  0  0
 77 78  2  0  0  0
 77149  1  0  0  0
 78 80  1  0  0  0
 78150  1  0  0  0
 79 81  1  0  0  0
 79 82  1  0  0  0
 79 86  2  0  0  0
 80151  1  0  0  0
 80152  1  0  0  0
 80153  1  0  0  0
 81 83  1  0  0  0
 81154  1  0  0  0
 81155  1  0  0  0
 82156  1  0  0  0
 82157  1  0  0  0
 83 87  1  0  0  0
 83158  1  0  0  0
 83159  1  0  0  0
 84160  1  0  0  0
 84161  1  0  0  0
 85162  1  0  0  0
M  ISO  4   1 100  68 101  82 101  85 100
M  END
> <chiral flag>
0

> <version>
0

> <s_m_source_file>
/data/baiqing/PycharmProjects/Reinvent-master-3.2/result/LINK_invent/BTK/process_docking_weight1_custom_product_contain_oxygen_bond_distance_aromatic_linkinvent_7_9_3/rearranged_h_0107.sdf

> <i_m_source_file_index>
82

> <r_mmod_Potential_Energy-OPLS-2005>
6.87863636016846

> <r_mmod_Stretch_Energy-OPLS-2005>
41.5225296020508

> <r_mmod_Bend_Energy-OPLS-2005>
109.53572845459

> <r_mmod_Torsional_Energy-OPLS-2005>
273.969543457031

> <r_mmod_Improper_Torsional_Energy-OPLS-2005>
9.79614067077637

> <r_mmod_Van_der_Waal_Energy-OPLS-2005>
143.415405273438

> <r_mmod_Electrostatic_Energy-OPLS-2005>
-346.699401855469

> <r_mmod_Solvation_Energy-OPLS-2005>
-238.417129516602

> <b_mmod_Minimization_Converged-OPLS-2005>
0

> <r_mmod_RMS_Derivative-OPLS-2005>
2.75174236297607

$$$$
82
                    3D
 Structure written by MMmdl.
170180  0  0  1  0            999 V2000
  -30.7551  -14.3766   20.6780 C   0  0  0  0  0  0
  -30.4175  -12.2947   19.3909 C   0  0  0  0  0  0
  -29.4803  -12.5183   18.1889 C   0  0  0  0  0  0
  -28.0052  -12.3751   18.6079 C   0  0  0  0  0  0
  -27.6637  -13.1986   19.8773 C   0  0  2  0  0  0
  -28.7025  -12.9402   20.9896 C   0  0  0  0  0  0
  -25.2596  -13.8147   20.5642 C   0  0  0  0  0  0
  -24.1838  -13.0442   20.9158 C   0  0  0  0  0  0
  -24.6378  -11.6903   20.8732 C   0  0  0  0  0  0
  -23.9044  -10.4291   21.0412 C   0  0  0  0  0  0
  -24.3607   -9.4207   21.9187 C   0  0  0  0  0  0
  -23.6280   -8.2246   22.0758 C   0  0  0  0  0  0
  -22.4266   -8.0280   21.3545 C   0  0  0  0  0  0
  -21.9900   -9.0252   20.4650 C   0  0  0  0  0  0
  -22.7221  -10.2131   20.3058 C   0  0  0  0  0  0
  -21.6852   -6.0730   22.5278 C   0  0  0  0  0  0
  -21.4010   -6.5637   23.8210 C   0  0  0  0  0  0
  -21.3656   -5.6790   24.9168 C   0  0  0  0  0  0
  -21.6047   -4.3055   24.7225 C   0  0  0  0  0  0
  -21.8819   -3.8142   23.4349 C   0  0  0  0  0  0
  -21.9190   -4.6960   22.3403 C   0  0  0  0  0  0
  -22.7864  -13.5254   21.1828 C   0  0  0  0  0  0
  -22.1659   -4.2145   21.0983 F   0  0  0  0  0  0
  -21.5633   -3.4544   25.7739 F   0  0  0  0  0  0
  -30.0401  -13.2445   20.4472 N   0  0  0  0  0  0
  -26.3031  -12.9302   20.3371 N   0  0  0  0  0  0
  -25.9302  -11.6470   20.5770 N   0  0  0  0  0  0
  -22.0504  -12.8246   22.0387 N   0  0  0  0  0  0
  -25.4345  -15.1856   20.3996 N   0  0  0  0  0  0
  -31.8085  -14.6394   20.0868 O   0  0  0  0  0  0
  -21.6637   -6.8873   21.4239 O   0  0  0  0  0  0
  -22.3552  -14.5575   20.6694 O   0  0  0  0  0  0
  -24.6085  -31.8702   23.2141 C   0  0  0  0  0  0
  -25.8996  -32.4837   23.8412 C   0  0  1  0  0  0
  -27.2461  -27.4822   20.0931 C   0  0  0  0  0  0
  -25.5862  -33.8638   24.2349 N   0  0  0  0  0  0
  -23.3946  -30.4924   21.5538 C   0  0  2  0  0  0
  -24.8433  -28.9611   20.1208 C   0  0  0  0  0  0
  -22.7372  -29.4662   22.5034 C   0  0  0  0  0  0
  -18.0246  -28.1384   22.8488 C   0  0  0  0  0  0
  -24.1472  -36.7336   23.2643 C   0  0  0  0  0  0
  -25.9152  -30.8539   21.3572 C   0  0  0  0  0  0
  -25.9967  -29.4881   20.7131 C   0  0  0  0  0  0
  -27.2005  -28.7582   20.6990 C   0  0  0  0  0  0
  -26.0784  -26.9602   19.5012 C   0  0  0  0  0  0
  -24.8748  -27.6927   19.5136 C   0  0  0  0  0  0
  -23.6018  -29.8214   20.1691 C   0  0  0  0  0  0
  -25.4096  -36.3131   24.0346 C   0  0  1  0  0  0
  -20.5836  -28.3651   23.1357 C   0  0  2  0  0  0
  -20.6728  -26.9384   22.5474 C   0  0  0  0  0  0
  -19.5738  -26.6391   21.5228 C   0  0  0  0  0  0
  -18.1891  -26.7942   22.1586 C   0  0  0  0  0  0
  -19.1499  -28.8829   23.2924 C   0  0  0  0  0  0
  -18.9435  -30.1435   23.8946 C   0  0  0  0  0  0
  -17.6436  -30.6583   24.0585 C   0  0  0  0  0  0
  -25.9022  -34.9487   23.5148 C   0  0  0  0  0  0
  -16.5327  -29.9101   23.6317 C   0  0  0  0  0  0
  -16.7237  -28.6524   23.0330 C   0  0  0  0  0  0
  -26.4453  -31.6588   25.0711 C   0  0  0  0  0  0
  -25.3754  -31.3681   26.1483 C   0  0  0  0  0  0
  -27.0276  -30.3032   24.6045 C   0  0  0  0  0  0
  -27.6046  -32.4303   25.7454 C   0  0  0  0  0  0
  -27.5591  -37.1806   24.8449 C   0  0  0  0  0  0
  -21.4107  -29.3020   22.3771 N   0  0  0  0  0  0
  -26.4288  -37.3811   23.9416 N   0  0  0  0  0  0
  -24.6578  -31.0851   22.1016 N   0  0  0  0  0  0
  -23.4157  -28.8203   23.3062 O   0  0  0  0  0  0
  -28.3901  -26.7275   20.0207 O   0  0  0  0  0  0
  -26.5607  -34.8926   22.4720 O   0  0  0  0  0  0
  -23.5293  -32.1429   23.7576 O   0  0  0  0  0  0
  -32.3646  -19.7514   24.1945 C   0  0  0  0  0  0
  -31.5282  -20.8481   24.4693 C   0  0  0  0  0  0
  -29.6584  -19.6950   23.4139 C   0  0  0  0  0  0
  -29.9625  -17.4558   22.4886 C   0  0  0  0  0  0
  -32.1518  -16.3881   22.5536 C   0  0  0  0  0  0
  -31.8609  -18.6153   23.5200 C   0  0  0  0  0  0
  -30.4926  -18.5887   23.1411 C   0  0  0  0  0  0
  -30.1765  -20.8313   24.0701 C   0  0  0  0  0  0
  -32.6923  -17.5072   23.2196 C   0  0  0  0  0  0
  -30.7891  -16.3557   22.1812 C   0  0  0  0  0  0
  -29.5799  -25.4738   21.6506 C   0  0  0  0  0  0
  -29.1785  -26.6472   21.1335 C   0  0  0  0  0  0
  -30.4875  -25.3989   22.8630 C   0  0  0  0  0  0
  -29.1773  -24.1197   21.0878 C   0  0  0  0  0  0
  -29.9359  -24.4220   23.9175 C   0  0  0  0  0  0
  -28.6746  -23.1767   22.1990 C   0  0  0  0  0  0
  -34.1640  -17.4883   23.6031 C   0  0  0  0  0  0
  -29.3100  -22.0537   24.3208 C   0  0  0  0  0  0
  -30.2038  -15.2164   21.5691 N   0  0  0  0  0  0
  -29.6439  -23.0941   23.3213 N   0  3  2  0  0  0
  -31.4588  -12.4022   19.0832 H   0  0  0  0  0  0
  -30.3257  -11.2734   19.7633 H   0  0  0  0  0  0
  -29.7127  -11.8068   17.3954 H   0  0  0  0  0  0
  -29.6457  -13.5117   17.7684 H   0  0  0  0  0  0
  -27.8123  -11.3170   18.7898 H   0  0  0  0  0  0
  -27.3506  -12.6640   17.7849 H   0  0  0  0  0  0
  -27.7219  -14.2527   19.6044 H   0  0  0  0  0  0
  -28.6704  -11.8945   21.2987 H   0  0  0  0  0  0
  -28.4480  -13.5056   21.8859 H   0  0  0  0  0  0
  -25.2757   -9.5685   22.4755 H   0  0  0  0  0  0
  -23.9989   -7.4642   22.7487 H   0  0  0  0  0  0
  -21.0829   -8.8765   19.8959 H   0  0  0  0  0  0
  -22.3680  -10.9669   19.6170 H   0  0  0  0  0  0
  -21.1998   -7.6147   23.9708 H   0  0  0  0  0  0
  -21.1478   -6.0524   25.9069 H   0  0  0  0  0  0
  -22.0604   -2.7606   23.2852 H   0  0  0  0  0  0
  -22.4115  -11.9891   22.4748 H   0  0  0  0  0  0
  -21.1131  -13.1282   22.2623 H   0  0  0  0  0  0
  -24.6684  -15.8443   20.4867 H   0  0  0  0  0  0
  -26.2892  -15.6159   20.0688 H   0  0  0  0  0  0
  -26.7066  -32.5583   23.1187 H   0  0  0  0  0  0
  -24.9962  -33.9810   25.0450 H   0  0  0  0  0  0
  -22.6810  -31.3070   21.4149 H   0  0  0  0  0  0
  -23.3738  -35.9667   23.3300 H   0  0  0  0  0  0
  -24.3556  -36.8962   22.2057 H   0  0  0  0  0  0
  -23.7209  -37.6531   23.6662 H   0  0  0  0  0  0
  -26.0091  -31.6171   20.5836 H   0  0  0  0  0  0
  -26.8091  -30.9191   21.9660 H   0  0  0  0  0  0
  -28.0858  -29.1925   21.1392 H   0  0  0  0  0  0
  -26.1069  -25.9889   19.0285 H   0  0  0  0  0  0
  -23.9875  -27.2807   19.0535 H   0  0  0  0  0  0
  -23.7051  -30.5946   19.4066 H   0  0  0  0  0  0
  -22.7289  -29.2352   19.8763 H   0  0  0  0  0  0
  -25.1270  -36.2006   25.0843 H   0  0  0  0  0  0
  -20.9909  -28.3218   24.1485 H   0  0  0  0  0  0
  -20.5559  -26.2274   23.3672 H   0  0  0  0  0  0
  -21.6611  -26.7395   22.1309 H   0  0  0  0  0  0
  -19.6896  -25.6305   21.1246 H   0  0  0  0  0  0
  -19.6719  -27.3220   20.6773 H   0  0  0  0  0  0
  -17.4195  -26.6749   21.3944 H   0  0  0  0  0  0
  -18.0227  -26.0054   22.8938 H   0  0  0  0  0  0
  -19.7914  -30.7240   24.2340 H   0  0  0  0  0  0
  -17.4991  -31.6258   24.5191 H   0  0  0  0  0  0
  -15.5331  -30.3024   23.7633 H   0  0  0  0  0  0
  -15.8625  -28.0875   22.7014 H   0  0  0  0  0  0
  -24.6008  -30.6894   25.7870 H   0  0  0  0  0  0
  -24.8843  -32.2822   26.4833 H   0  0  0  0  0  0
  -25.8162  -30.8985   27.0287 H   0  0  0  0  0  0
  -26.2794  -29.6799   24.1125 H   0  0  0  0  0  0
  -27.4074  -29.7244   25.4476 H   0  0  0  0  0  0
  -27.8611  -30.4343   23.9143 H   0  0  0  0  0  0
  -27.2636  -33.3534   26.2146 H   0  0  0  0  0  0
  -28.3781  -32.6973   25.0243 H   0  0  0  0  0  0
  -28.0800  -31.8371   26.5272 H   0  0  0  0  0  0
  -28.2618  -38.0092   24.7488 H   0  0  0  0  0  0
  -28.1074  -36.2628   24.6263 H   0  0  0  0  0  0
  -27.2328  -37.1456   25.8858 H   0  0  0  0  0  0
  -20.9254  -29.8769   21.7024 H   0  0  0  0  0  0
  -26.0193  -38.2892   24.1448 H   0  0  0  0  0  0
  -33.3966  -19.8056   24.5097 H   0  0  0  0  0  0
  -31.9381  -21.7096   24.9791 H   0  0  0  0  0  0
  -28.6200  -19.6754   23.1098 H   0  0  0  0  0  0
  -28.9168  -17.4345   22.2165 H   0  0  0  0  0  0
  -32.7904  -15.5414   22.3459 H   0  0  0  0  0  0
  -29.4825  -27.6084   21.5226 H   0  0  0  0  0  0
  -30.6182  -26.3888   23.3019 H   0  0  0  0  0  0
  -31.4740  -25.0708   22.5315 H   0  0  0  0  0  0
  -30.0452  -23.6783   20.5959 H   0  0  0  0  0  0
  -28.4111  -24.2292   20.3193 H   0  0  0  0  0  0
  -29.0302  -24.8277   24.3714 H   0  0  0  0  0  0
  -30.6703  -24.3159   24.7175 H   0  0  0  0  0  0
  -28.5035  -22.1829   21.7825 H   0  0  0  0  0  0
  -27.7127  -23.5279   22.5768 H   0  0  0  0  0  0
  -34.6577  -16.5782   23.2618 H   0  0  0  0  0  0
  -34.2794  -17.5418   24.6860 H   0  0  0  0  0  0
  -34.6897  -18.3335   23.1576 H   0  0  0  0  0  0
  -29.5054  -22.4050   25.3346 H   0  0  0  0  0  0
  -28.2497  -21.7969   24.2924 H   0  0  0  0  0  0
  -29.2604  -14.9893   21.8455 H   0  0  0  0  0  0
  -30.5128  -22.7724   22.9229 H   0  0  0  0  0  0
  1 25  1  0  0  0
  1 30  2  0  0  0
  1 89  1  0  0  0
  2  3  1  0  0  0
  2 25  1  0  0  0
  2 91  1  0  0  0
  2 92  1  0  0  0
  3  4  1  0  0  0
  3 93  1  0  0  0
  3 94  1  0  0  0
  4  5  1  0  0  0
  4 95  1  0  0  0
  4 96  1  0  0  0
  5  6  1  0  0  0
  5 26  1  0  0  0
  5 97  1  0  0  0
  6 25  1  0  0  0
  6 98  1  0  0  0
  6 99  1  0  0  0
  7  8  2  0  0  0
  7 26  1  0  0  0
  7 29  1  0  0  0
  8  9  1  0  0  0
  8 22  1  0  0  0
  9 10  1  0  0  0
  9 27  2  0  0  0
 10 11  2  0  0  0
 10 15  1  0  0  0
 11 12  1  0  0  0
 11100  1  0  0  0
 12 13  2  0  0  0
 12101  1  0  0  0
 13 14  1  0  0  0
 13 31  1  0  0  0
 14 15  2  0  0  0
 14102  1  0  0  0
 15103  1  0  0  0
 16 17  2  0  0  0
 16 21  1  0  0  0
 16 31  1  0  0  0
 17 18  1  0  0  0
 17104  1  0  0  0
 18 19  2  0  0  0
 18105  1  0  0  0
 19 20  1  0  0  0
 19 24  1  0  0  0
 20 21  2  0  0  0
 20106  1  0  0  0
 21 23  1  0  0  0
 22 28  1  0  0  0
 22 32  2  0  0  0
 26 27  1  0  0  0
 28107  1  0  0  0
 28108  1  0  0  0
 29109  1  0  0  0
 29110  1  0  0  0
 33 34  1  0  0  0
 33 66  1  0  0  0
 33 70  2  0  0  0
 34 36  1  0  0  0
 34 59  1  0  0  0
 34111  1  0  0  0
 35 44  2  0  0  0
 35 45  1  0  0  0
 35 68  1  0  0  0
 36 56  1  0  0  0
 36112  1  0  0  0
 37 39  1  0  0  0
 37 47  1  0  0  0
 37 66  1  0  0  0
 37113  1  0  0  0
 38 43  2  0  0  0
 38 46  1  0  0  0
 38 47  1  0  0  0
 39 64  1  0  0  0
 39 67  2  0  0  0
 40 52  1  0  0  0
 40 53  2  0  0  0
 40 58  1  0  0  0
 41114  1  0  0  0
 41115  1  0  0  0
 41116  1  0  0  0
 41 48  1  0  0  0
 42 43  1  0  0  0
 42 66  1  0  0  0
 42117  1  0  0  0
 42118  1  0  0  0
 43 44  1  0  0  0
 44119  1  0  0  0
 45 46  2  0  0  0
 45120  1  0  0  0
 46121  1  0  0  0
 47122  1  0  0  0
 47123  1  0  0  0
 48 56  1  0  0  0
 48 65  1  0  0  0
 48124  1  0  0  0
 49 50  1  0  0  0
 49 53  1  0  0  0
 49 64  1  0  0  0
 49125  1  0  0  0
 50 51  1  0  0  0
 50126  1  0  0  0
 50127  1  0  0  0
 51 52  1  0  0  0
 51128  1  0  0  0
 51129  1  0  0  0
 52130  1  0  0  0
 52131  1  0  0  0
 53 54  1  0  0  0
 54 55  2  0  0  0
 54132  1  0  0  0
 55 57  1  0  0  0
 55133  1  0  0  0
 56 69  2  0  0  0
 57 58  2  0  0  0
 57134  1  0  0  0
 58135  1  0  0  0
 59 60  1  0  0  0
 59 61  1  0  0  0
 59 62  1  0  0  0
 60136  1  0  0  0
 60137  1  0  0  0
 60138  1  0  0  0
 61139  1  0  0  0
 61140  1  0  0  0
 61141  1  0  0  0
 62142  1  0  0  0
 62143  1  0  0  0
 62144  1  0  0  0
 63 65  1  0  0  0
 63145  1  0  0  0
 63146  1  0  0  0
 63147  1  0  0  0
 64148  1  0  0  0
 65149  1  0  0  0
 68 82  1  0  0  0
 71 72  2  0  0  0
 71 76  1  0  0  0
 71150  1  0  0  0
 72 78  1  0  0  0
 72151  1  0  0  0
 73 77  1  0  0  0
 73 78  2  0  0  0
 73152  1  0  0  0
 74 77  1  0  0  0
 74 80  2  0  0  0
 74153  1  0  0  0
 75 79  2  0  0  0
 75 80  1  0  0  0
 75154  1  0  0  0
 76 77  2  0  0  0
 76 79  1  0  0  0
 78 88  1  0  0  0
 79 87  1  0  0  0
 80 89  1  0  0  0
 81 82  2  0  0  0
 81 83  1  0  0  0
 81 84  1  0  0  0
 82155  1  0  0  0
 83 85  1  0  0  0
 83156  1  0  0  0
 83157  1  0  0  0
 84 86  1  0  0  0
 84158  1  0  0  0
 84159  1  0  0  0
 85 90  1  0  0  0
 85160  1  0  0  0
 85161  1  0  0  0
 86 90  1  0  0  0
 86162  1  0  0  0
 86163  1  0  0  0
 87164  1  0  0  0
 87165  1  0  0  0
 87166  1  0  0  0
 88167  1  0  0  0
 88168  1  0  0  0
 88 90  1  0  0  0
 89169  1  0  0  0
 90170  1  0  0  0
M  CHG  1  90   1
M  ISO  4   1 100  68 101  82 101  89 100
M  END
> <chiral flag>
0

> <version>
0

> <s_m_source_file>
/data/baiqing/PycharmProjects/Reinvent-master-3.2/result/LINK_invent/BTK/process_docking_weight1_custom_product_contain_oxygen_bond_distance_aromatic_linkinvent_7_9_3/rearranged_h_0107.sdf

> <i_m_source_file_index>
83

> <r_mmod_Potential_Energy-OPLS-2005>
-175.715667724609

> <r_mmod_Stretch_Energy-OPLS-2005>
33.8543319702148

> <r_mmod_Bend_Energy-OPLS-2005>
93.4720840454102

> <r_mmod_Torsional_Energy-OPLS-2005>
222.789093017578

> <r_mmod_Improper_Torsional_Energy-OPLS-2005>
2.04277467727661

> <r_mmod_Van_der_Waal_Energy-OPLS-2005>
180.735122680664

> <r_mmod_Electrostatic_Energy-OPLS-2005>
-283.459045410156

> <r_mmod_Solvation_Energy-OPLS-2005>
-431.24365234375

> <b_mmod_Minimization_Converged-OPLS-2005>
0

> <r_mmod_RMS_Derivative-OPLS-2005>
1.45665800571442

$$$$
83
                    3D
 Structure written by MMmdl.
158167  0  0  1  0            999 V2000
  -30.5825  -14.9128   20.5206 C   0  0  0  0  0  0
  -30.4448  -12.5467   19.6015 C   0  0  0  0  0  0
  -29.5753  -12.5278   18.3201 C   0  0  0  0  0  0
  -28.0962  -12.2998   18.6983 C   0  0  0  0  0  0
  -27.6438  -13.2395   19.8518 C   0  0  2  0  0  0
  -28.6559  -13.2678   21.0193 C   0  0  0  0  0  0
  -25.2479  -13.8189   20.5740 C   0  0  0  0  0  0
  -24.1782  -13.0461   20.9281 C   0  0  0  0  0  0
  -24.6396  -11.6938   20.8765 C   0  0  0  0  0  0
  -23.9103  -10.4322   21.0458 C   0  0  0  0  0  0
  -24.3650   -9.4217   21.9247 C   0  0  0  0  0  0
  -23.6350   -8.2226   22.0752 C   0  0  0  0  0  0
  -22.4318   -8.0301   21.3526 C   0  0  0  0  0  0
  -21.9962   -9.0296   20.4630 C   0  0  0  0  0  0
  -22.7284  -10.2184   20.3087 C   0  0  0  0  0  0
  -21.6887   -6.0745   22.5239 C   0  0  0  0  0  0
  -21.4067   -6.5629   23.8186 C   0  0  0  0  0  0
  -21.3648   -5.6753   24.9129 C   0  0  0  0  0  0
  -21.6048   -4.3019   24.7164 C   0  0  0  0  0  0
  -21.8827   -3.8128   23.4278 C   0  0  0  0  0  0
  -21.9205   -4.6967   22.3348 C   0  0  0  0  0  0
  -22.7789  -13.5229   21.1967 C   0  0  0  0  0  0
  -22.1655   -4.2144   21.0929 F   0  0  0  0  0  0
  -21.5640   -3.4497   25.7674 F   0  0  0  0  0  0
  -29.9650  -13.6594   20.4701 N   0  0  0  0  0  0
  -26.2931  -12.9443   20.3252 N   0  0  0  0  0  0
  -25.9320  -11.6574   20.5707 N   0  0  0  0  0  0
  -22.0417  -12.8224   22.0499 N   0  0  0  0  0  0
  -25.4189  -15.1933   20.4192 N   0  0  0  0  0  0
  -31.7122  -15.0086   20.0186 O   0  0  0  0  0  0
  -21.6693   -6.8885   21.4200 O   0  0  0  0  0  0
  -22.3506  -14.5575   20.6849 O   0  0  0  0  0  0
  -24.6431  -31.8447   23.1967 C   0  0  0  0  0  0
  -25.9239  -32.4681   23.8366 C   0  0  1  0  0  0
  -27.1829  -27.1113   20.1517 C   0  0  0  0  0  0
  -25.6039  -33.8509   24.2300 N   0  0  0  0  0  0
  -23.4472  -30.4729   21.5269 C   0  0  2  0  0  0
  -24.8895  -28.8962   20.0974 C   0  0  0  0  0  0
  -22.7541  -29.4580   22.4707 C   0  0  0  0  0  0
  -18.0348  -28.1304   22.8468 C   0  0  0  0  0  0
  -24.1458  -36.7121   23.2657 C   0  0  0  0  0  0
  -26.0069  -30.6981   21.4179 C   0  0  0  0  0  0
  -26.0641  -29.3215   20.7281 C   0  0  0  0  0  0
  -27.2070  -28.4387   20.7492 C   0  0  0  0  0  0
  -25.9884  -26.7867   19.4795 C   0  0  0  0  0  0
  -24.8687  -27.6440   19.4580 C   0  0  0  0  0  0
  -23.6778  -29.8149   20.1388 C   0  0  0  0  0  0
  -25.4140  -36.3051   24.0377 C   0  0  1  0  0  0
  -20.5966  -28.3723   23.1080 C   0  0  2  0  0  0
  -20.6804  -26.9393   22.5318 C   0  0  0  0  0  0
  -19.5758  -26.6310   21.5138 C   0  0  0  0  0  0
  -18.1963  -26.7858   22.1593 C   0  0  0  0  0  0
  -19.1628  -28.8824   23.2755 C   0  0  0  0  0  0
  -18.9555  -30.1415   23.8787 C   0  0  0  0  0  0
  -17.6586  -30.6516   24.0527 C   0  0  0  0  0  0
  -25.9128  -34.9418   23.5150 C   0  0  0  0  0  0
  -16.5452  -29.9031   23.6272 C   0  0  0  0  0  0
  -16.7366  -28.6396   23.0355 C   0  0  0  0  0  0
  -26.4625  -31.6606   25.0830 C   0  0  0  0  0  0
  -25.3813  -31.3717   26.1485 C   0  0  0  0  0  0
  -27.0602  -30.2995   24.6598 C   0  0  0  0  0  0
  -27.6186  -32.4434   25.7506 C   0  0  0  0  0  0
  -27.5566  -37.1724   24.8501 C   0  0  0  0  0  0
  -21.4257  -29.3060   22.3420 N   0  0  0  0  0  0
  -26.4270  -37.3780   23.9475 N   0  0  0  0  0  0
  -24.7152  -31.0294   22.0981 N   0  0  0  0  0  0
  -23.4167  -28.8113   23.2855 O   0  0  0  0  0  0
  -28.2207  -26.1244   20.2928 O   0  0  0  0  0  0
  -26.5612  -34.8913   22.4675 O   0  0  0  0  0  0
  -23.5545  -32.1376   23.7160 O   0  0  0  0  0  0
  -29.2183  -19.7920   22.0643 C   0  0  0  0  0  0
  -29.0375  -19.6951   19.7430 C   0  0  0  0  0  0
  -29.5737  -18.3975   22.1099 C   0  0  0  0  0  0
  -29.3480  -18.2482   19.7982 C   0  0  0  0  0  0
  -28.9561  -20.5836   20.8869 C   0  0  0  0  0  0
  -29.6839  -17.4989   21.0003 C   0  0  0  0  0  0
  -28.5128  -22.6768   22.2222 C   0  0  0  0  0  0
  -27.2427  -23.5214   22.3593 C   0  0  0  0  0  0
  -26.5684  -23.3516   20.9978 C   0  0  0  0  0  0
  -27.8067  -23.1369   20.1316 C   0  0  2  0  0  0
  -30.2002  -15.6563   22.6871 C   0  0  0  0  0  0
  -28.3083  -24.6964   19.6718 C   0  0  0  0  0  0
  -28.6404  -22.1187   20.9902 N   0  0  0  0  0  0
  -30.0044  -15.9895   21.2559 N   0  0  0  0  0  0
  -29.3132  -22.5817   23.1557 O   0  0  0  0  0  0
  -31.5088  -12.6384   19.3737 H   0  0  0  0  0  0
  -30.3533  -11.6049   20.1459 H   0  0  0  0  0  0
  -29.9398  -11.7549   17.6414 H   0  0  0  0  0  0
  -29.6776  -13.4811   17.7979 H   0  0  0  0  0  0
  -27.9935  -11.2599   19.0128 H   0  0  0  0  0  0
  -27.4543  -12.4174   17.8271 H   0  0  0  0  0  0
  -27.6191  -14.2388   19.4229 H   0  0  0  0  0  0
  -28.7090  -12.2929   21.5099 H   0  0  0  0  0  0
  -28.3207  -13.9690   21.7845 H   0  0  0  0  0  0
  -25.2775   -9.5700   22.4873 H   0  0  0  0  0  0
  -24.0048   -7.4582   22.7433 H   0  0  0  0  0  0
  -21.0929   -8.8856   19.8917 H   0  0  0  0  0  0
  -22.3784  -10.9779   19.6222 H   0  0  0  0  0  0
  -21.2119   -7.6143   23.9693 H   0  0  0  0  0  0
  -21.1480   -6.0482   25.9032 H   0  0  0  0  0  0
  -22.0648   -2.7600   23.2767 H   0  0  0  0  0  0
  -22.3982  -11.9882   22.4944 H   0  0  0  0  0  0
  -21.1027  -13.1249   22.2641 H   0  0  0  0  0  0
  -24.6662  -15.8528   20.5830 H   0  0  0  0  0  0
  -26.2743  -15.6389   20.1104 H   0  0  0  0  0  0
  -26.7291  -32.5223   23.1055 H   0  0  0  0  0  0
  -25.0467  -33.9672   25.0641 H   0  0  0  0  0  0
  -22.7528  -31.2984   21.3730 H   0  0  0  0  0  0
  -23.3887  -35.9264   23.3356 H   0  0  0  0  0  0
  -24.3470  -36.8682   22.2034 H   0  0  0  0  0  0
  -23.7001  -37.6262   23.6622 H   0  0  0  0  0  0
  -26.2224  -31.4818   20.6935 H   0  0  0  0  0  0
  -26.8443  -30.6884   22.1042 H   0  0  0  0  0  0
  -28.0887  -28.7481   21.2905 H   0  0  0  0  0  0
  -25.8677  -25.8195   19.0133 H   0  0  0  0  0  0
  -23.9664  -27.3066   18.9673 H   0  0  0  0  0  0
  -23.8362  -30.5957   19.3947 H   0  0  0  0  0  0
  -22.7873  -29.2744   19.8114 H   0  0  0  0  0  0
  -25.1310  -36.1926   25.0862 H   0  0  0  0  0  0
  -21.0151  -28.3340   24.1174 H   0  0  0  0  0  0
  -20.5582  -26.2399   23.3583 H   0  0  0  0  0  0
  -21.6656  -26.7221   22.1186 H   0  0  0  0  0  0
  -19.6903  -25.6190   21.1187 H   0  0  0  0  0  0
  -19.6639  -27.3060   20.6612 H   0  0  0  0  0  0
  -17.4210  -26.6618   21.4018 H   0  0  0  0  0  0
  -18.0382  -25.9959   22.8964 H   0  0  0  0  0  0
  -19.8078  -30.7223   24.2075 H   0  0  0  0  0  0
  -17.5157  -31.6183   24.5143 H   0  0  0  0  0  0
  -15.5447  -30.2937   23.7569 H   0  0  0  0  0  0
  -15.8773  -28.0650   22.7178 H   0  0  0  0  0  0
  -24.5987  -30.7130   25.7716 H   0  0  0  0  0  0
  -24.9040  -32.2859   26.5014 H   0  0  0  0  0  0
  -25.8083  -30.8740   27.0209 H   0  0  0  0  0  0
  -26.3338  -29.6554   24.1633 H   0  0  0  0  0  0
  -27.4188  -29.7434   25.5296 H   0  0  0  0  0  0
  -27.9234  -30.4240   24.0041 H   0  0  0  0  0  0
  -27.2872  -33.3810   26.1956 H   0  0  0  0  0  0
  -28.3954  -32.6891   25.0262 H   0  0  0  0  0  0
  -28.0932  -31.8687   26.5452 H   0  0  0  0  0  0
  -28.2646  -37.9984   24.7649 H   0  0  0  0  0  0
  -28.1006  -36.2534   24.6281 H   0  0  0  0  0  0
  -27.2214  -37.1288   25.8874 H   0  0  0  0  0  0
  -20.9447  -29.8853   21.6670 H   0  0  0  0  0  0
  -26.0184  -38.2827   24.1633 H   0  0  0  0  0  0
  -29.1343  -20.2311   23.0440 H   0  0  0  0  0  0
  -28.8341  -20.1141   18.7655 H   0  0  0  0  0  0
  -29.7457  -18.0352   23.1089 H   0  0  0  0  0  0
  -29.2863  -17.7098   18.8641 H   0  0  0  0  0  0
  -27.5204  -24.5591   22.5473 H   0  0  0  0  0  0
  -26.6159  -23.1843   23.1838 H   0  0  0  0  0  0
  -25.9639  -24.2076   20.7007 H   0  0  0  0  0  0
  -25.9091  -22.4819   20.9780 H   0  0  0  0  0  0
  -27.5269  -22.5971   19.2220 H   0  0  0  0  0  0
  -29.2615  -15.7477   23.2339 H   0  0  0  0  0  0
  -30.9432  -16.3091   23.1471 H   0  0  0  0  0  0
  -30.5663  -14.6475   22.9101 H   0  0  0  0  0  0
  -27.8501  -24.8187   18.6899 H   0  0  0  0  0  0
  -29.3676  -24.6001   19.4357 H   0  0  0  0  0  0
  1 25  1  0  0  0
  1 30  2  0  0  0
  1 84  1  0  0  0
  2  3  1  0  0  0
  2 25  1  0  0  0
  2 86  1  0  0  0
  2 87  1  0  0  0
  3  4  1  0  0  0
  3 88  1  0  0  0
  3 89  1  0  0  0
  4  5  1  0  0  0
  4 90  1  0  0  0
  4 91  1  0  0  0
  5  6  1  0  0  0
  5 26  1  0  0  0
  5 92  1  0  0  0
  6 25  1  0  0  0
  6 93  1  0  0  0
  6 94  1  0  0  0
  7  8  2  0  0  0
  7 26  1  0  0  0
  7 29  1  0  0  0
  8  9  1  0  0  0
  8 22  1  0  0  0
  9 10  1  0  0  0
  9 27  2  0  0  0
 10 11  2  0  0  0
 10 15  1  0  0  0
 11 12  1  0  0  0
 11 95  1  0  0  0
 12 13  2  0  0  0
 12 96  1  0  0  0
 13 14  1  0  0  0
 13 31  1  0  0  0
 14 15  2  0  0  0
 14 97  1  0  0  0
 15 98  1  0  0  0
 16 17  2  0  0  0
 16 21  1  0  0  0
 16 31  1  0  0  0
 17 18  1  0  0  0
 17 99  1  0  0  0
 18 19  2  0  0  0
 18100  1  0  0  0
 19 20  1  0  0  0
 19 24  1  0  0  0
 20 21  2  0  0  0
 20101  1  0  0  0
 21 23  1  0  0  0
 22 28  1  0  0  0
 22 32  2  0  0  0
 26 27  1  0  0  0
 28102  1  0  0  0
 28103  1  0  0  0
 29104  1  0  0  0
 29105  1  0  0  0
 33 34  1  0  0  0
 33 66  1  0  0  0
 33 70  2  0  0  0
 34 36  1  0  0  0
 34 59  1  0  0  0
 34106  1  0  0  0
 35 44  2  0  0  0
 35 45  1  0  0  0
 35 68  1  0  0  0
 36 56  1  0  0  0
 36107  1  0  0  0
 37 39  1  0  0  0
 37 47  1  0  0  0
 37 66  1  0  0  0
 37108  1  0  0  0
 38 43  2  0  0  0
 38 46  1  0  0  0
 38 47  1  0  0  0
 39 64  1  0  0  0
 39 67  2  0  0  0
 40 52  1  0  0  0
 40 53  2  0  0  0
 40 58  1  0  0  0
 41109  1  0  0  0
 41110  1  0  0  0
 41111  1  0  0  0
 41 48  1  0  0  0
 42 43  1  0  0  0
 42 66  1  0  0  0
 42112  1  0  0  0
 42113  1  0  0  0
 43 44  1  0  0  0
 44114  1  0  0  0
 45 46  2  0  0  0
 45115  1  0  0  0
 46116  1  0  0  0
 47117  1  0  0  0
 47118  1  0  0  0
 48 56  1  0  0  0
 48 65  1  0  0  0
 48119  1  0  0  0
 49 50  1  0  0  0
 49 53  1  0  0  0
 49 64  1  0  0  0
 49120  1  0  0  0
 50 51  1  0  0  0
 50121  1  0  0  0
 50122  1  0  0  0
 51 52  1  0  0  0
 51123  1  0  0  0
 51124  1  0  0  0
 52125  1  0  0  0
 52126  1  0  0  0
 53 54  1  0  0  0
 54 55  2  0  0  0
 54127  1  0  0  0
 55 57  1  0  0  0
 55128  1  0  0  0
 56 69  2  0  0  0
 57 58  2  0  0  0
 57129  1  0  0  0
 58130  1  0  0  0
 59 60  1  0  0  0
 59 61  1  0  0  0
 59 62  1  0  0  0
 60131  1  0  0  0
 60132  1  0  0  0
 60133  1  0  0  0
 61134  1  0  0  0
 61135  1  0  0  0
 61136  1  0  0  0
 62137  1  0  0  0
 62138  1  0  0  0
 62139  1  0  0  0
 63 65  1  0  0  0
 63140  1  0  0  0
 63141  1  0  0  0
 63142  1  0  0  0
 64143  1  0  0  0
 65144  1  0  0  0
 68 82  1  0  0  0
 71 73  2  0  0  0
 71 75  1  0  0  0
 71145  1  0  0  0
 72 74  1  0  0  0
 72 75  2  0  0  0
 72146  1  0  0  0
 73 76  1  0  0  0
 73147  1  0  0  0
 74 76  2  0  0  0
 74148  1  0  0  0
 75 83  1  0  0  0
 76 84  1  0  0  0
 77 78  1  0  0  0
 77 83  1  0  0  0
 77 85  2  0  0  0
 78 79  1  0  0  0
 78149  1  0  0  0
 78150  1  0  0  0
 79 80  1  0  0  0
 79151  1  0  0  0
 79152  1  0  0  0
 80 82  1  0  0  0
 80 83  1  0  0  0
 80153  1  0  0  0
 81 84  1  0  0  0
 81154  1  0  0  0
 81155  1  0  0  0
 81156  1  0  0  0
 82157  1  0  0  0
 82158  1  0  0  0
M  ISO  4   1 100  68 101  82 101  84 100
M  END
> <chiral flag>
0

> <version>
0

> <s_m_source_file>
/data/baiqing/PycharmProjects/Reinvent-master-3.2/result/LINK_invent/BTK/process_docking_weight1_custom_product_contain_oxygen_bond_distance_aromatic_linkinvent_7_9_3/rearranged_h_0107.sdf

> <i_m_source_file_index>
84

> <r_mmod_Potential_Energy-OPLS-2005>
904.963195800781

> <r_mmod_Stretch_Energy-OPLS-2005>
281.045989990234

> <r_mmod_Bend_Energy-OPLS-2005>
406.035522460938

> <r_mmod_Torsional_Energy-OPLS-2005>
352.921020507812

> <r_mmod_Improper_Torsional_Energy-OPLS-2005>
6.63455057144165

> <r_mmod_Van_der_Waal_Energy-OPLS-2005>
152.98486328125

> <r_mmod_Electrostatic_Energy-OPLS-2005>
-285.306640625

> <r_mmod_Solvation_Energy-OPLS-2005>
-207.217590332031

> <b_mmod_Minimization_Converged-OPLS-2005>
0

> <r_mmod_RMS_Derivative-OPLS-2005>
9.53279876708984

$$$$
84
                    3D
 Structure written by MMmdl.
158166  0  0  1  0            999 V2000
  -30.6175  -14.5400   20.6840 C   0  0  0  0  0  0
  -30.4208  -12.3870   19.4473 C   0  0  0  0  0  0
  -29.4950  -12.5544   18.2166 C   0  0  0  0  0  0
  -28.0086  -12.3995   18.6038 C   0  0  0  0  0  0
  -27.6450  -13.1957   19.8851 C   0  0  2  0  0  0
  -28.6709  -12.9689   21.0130 C   0  0  0  0  0  0
  -25.2544  -13.8065   20.5701 C   0  0  0  0  0  0
  -24.1741  -13.0360   20.9163 C   0  0  0  0  0  0
  -24.6284  -11.6845   20.8678 C   0  0  0  0  0  0
  -23.8948  -10.4254   21.0418 C   0  0  0  0  0  0
  -24.3564   -9.4185   21.9191 C   0  0  0  0  0  0
  -23.6274   -8.2205   22.0746 C   0  0  0  0  0  0
  -22.4251   -8.0236   21.3559 C   0  0  0  0  0  0
  -21.9859   -9.0191   20.4627 C   0  0  0  0  0  0
  -22.7153  -10.2081   20.3055 C   0  0  0  0  0  0
  -21.6826   -6.0702   22.5301 C   0  0  0  0  0  0
  -21.3988   -6.5620   23.8212 C   0  0  0  0  0  0
  -21.3659   -5.6777   24.9171 C   0  0  0  0  0  0
  -21.6055   -4.3050   24.7236 C   0  0  0  0  0  0
  -21.8811   -3.8142   23.4360 C   0  0  0  0  0  0
  -21.9179   -4.6942   22.3408 C   0  0  0  0  0  0
  -22.7818  -13.5213   21.1832 C   0  0  0  0  0  0
  -22.1665   -4.2121   21.0988 F   0  0  0  0  0  0
  -21.5628   -3.4542   25.7752 F   0  0  0  0  0  0
  -29.9923  -13.3352   20.4916 N   0  0  0  0  0  0
  -26.2885  -12.9171   20.3375 N   0  0  0  0  0  0
  -25.9194  -11.6348   20.5735 N   0  0  0  0  0  0
  -22.0455  -12.8219   22.0400 N   0  0  0  0  0  0
  -25.4271  -15.1716   20.4197 N   0  0  0  0  0  0
  -31.6826  -14.8168   20.1219 O   0  0  0  0  0  0
  -21.6608   -6.8838   21.4266 O   0  0  0  0  0  0
  -22.3526  -14.5579   20.6726 O   0  0  0  0  0  0
  -24.6192  -31.8753   23.2111 C   0  0  0  0  0  0
  -25.9022  -32.4873   23.8473 C   0  0  1  0  0  0
  -27.1630  -27.3508   20.1950 C   0  0  0  0  0  0
  -25.5863  -33.8696   24.2355 N   0  0  0  0  0  0
  -23.4095  -30.5042   21.5547 C   0  0  2  0  0  0
  -24.8472  -28.9714   20.1216 C   0  0  0  0  0  0
  -22.7313  -29.4867   22.4933 C   0  0  0  0  0  0
  -18.0269  -28.1323   22.8254 C   0  0  0  0  0  0
  -24.1475  -36.7338   23.2653 C   0  0  0  0  0  0
  -25.9449  -30.8315   21.3678 C   0  0  0  0  0  0
  -26.0138  -29.4577   20.7244 C   0  0  0  0  0  0
  -27.1798  -28.6539   20.7566 C   0  0  0  0  0  0
  -25.9874  -26.9129   19.5470 C   0  0  0  0  0  0
  -24.8325  -27.7013   19.5259 C   0  0  0  0  0  0
  -23.6186  -29.8480   20.1689 C   0  0  0  0  0  0
  -25.4105  -36.3170   24.0368 C   0  0  1  0  0  0
  -20.5813  -28.3949   23.1183 C   0  0  2  0  0  0
  -20.7051  -26.9785   22.5220 C   0  0  0  0  0  0
  -19.5884  -26.6439   21.5283 C   0  0  0  0  0  0
  -18.2130  -26.7682   22.1764 C   0  0  0  0  0  0
  -19.1372  -28.8946   23.2752 C   0  0  0  0  0  0
  -18.9032  -30.1495   23.8895 C   0  0  0  0  0  0
  -17.5979  -30.6433   24.0621 C   0  0  0  0  0  0
  -25.9043  -34.9539   23.5161 C   0  0  0  0  0  0
  -16.5065  -29.8961   23.5937 C   0  0  0  0  0  0
  -16.7182  -28.6473   22.9841 C   0  0  0  0  0  0
  -26.4451  -31.6629   25.0757 C   0  0  0  0  0  0
  -25.3719  -31.3703   26.1486 C   0  0  0  0  0  0
  -27.0255  -30.3107   24.6055 C   0  0  0  0  0  0
  -27.6036  -32.4292   25.7505 C   0  0  0  0  0  0
  -27.5584  -37.1850   24.8475 C   0  0  0  0  0  0
  -21.4001  -29.3548   22.3721 N   0  0  0  0  0  0
  -26.4287  -37.3852   23.9424 N   0  0  0  0  0  0
  -24.6796  -31.0792   22.1075 N   0  0  0  0  0  0
  -23.3982  -28.8301   23.2945 O   0  0  0  0  0  0
  -28.2612  -26.5165   20.3423 O   0  0  0  0  0  0
  -26.5560  -34.8984   22.4697 O   0  0  0  0  0  0
  -23.5347  -32.1497   23.7407 O   0  0  0  0  0  0
  -29.3645  -17.6726   22.2862 C   0  0  0  0  0  0
  -28.6740  -18.8952   22.0920 C   0  0  0  0  0  0
  -28.5278  -16.8594   20.1670 C   0  0  0  0  0  0
  -27.7394  -18.0295   20.0276 C   0  0  0  0  0  0
  -29.3346  -16.6393   21.3104 C   0  0  0  0  0  0
  -27.8350  -19.1044   20.9666 C   0  0  0  0  0  0
  -26.7680  -18.0877   18.8484 C   0  0  0  0  0  0
  -26.8303  -22.8499   20.7881 C   0  0  0  0  0  0
  -27.2680  -24.2669   21.2802 C   0  0  0  0  0  0
  -27.5436  -21.5900   21.3837 C   0  0  0  0  0  0
  -28.0824  -25.0726   20.1937 C   0  0  0  0  0  0
  -30.0314  -15.4011   21.5626 N   0  0  0  0  0  0
  -27.0983  -20.3056   20.7953 N   0  0  0  0  0  0
  -31.4622  -12.5472   19.1536 H   0  0  0  0  0  0
  -30.3623  -11.3742   19.8390 H   0  0  0  0  0  0
  -29.7621  -11.8312   17.4422 H   0  0  0  0  0  0
  -29.6315  -13.5357   17.7705 H   0  0  0  0  0  0
  -27.7916  -11.3435   18.7475 H   0  0  0  0  0  0
  -27.3734  -12.7197   17.7783 H   0  0  0  0  0  0
  -27.6712  -14.2415   19.6186 H   0  0  0  0  0  0
  -28.6735  -11.9192   21.3128 H   0  0  0  0  0  0
  -28.3827  -13.5174   21.9160 H   0  0  0  0  0  0
  -25.2689   -9.5656   22.4793 H   0  0  0  0  0  0
  -23.9949   -7.4586   22.7492 H   0  0  0  0  0  0
  -21.0761   -8.8713   19.8963 H   0  0  0  0  0  0
  -22.3601  -10.9636   19.6197 H   0  0  0  0  0  0
  -21.1984   -7.6127   23.9707 H   0  0  0  0  0  0
  -21.1496   -6.0511   25.9058 H   0  0  0  0  0  0
  -22.0599   -2.7615   23.2864 H   0  0  0  0  0  0
  -22.4026  -11.9880   22.4839 H   0  0  0  0  0  0
  -21.1131  -13.1362   22.2615 H   0  0  0  0  0  0
  -24.6816  -15.8479   20.5548 H   0  0  0  0  0  0
  -26.3129  -15.6152   20.2183 H   0  0  0  0  0  0
  -26.7059  -32.5578   23.1236 H   0  0  0  0  0  0
  -25.0155  -33.9872   25.0601 H   0  0  0  0  0  0
  -22.7101  -31.3312   21.4098 H   0  0  0  0  0  0
  -23.3774  -35.9628   23.3306 H   0  0  0  0  0  0
  -24.3593  -36.8928   22.2061 H   0  0  0  0  0  0
  -23.7155  -37.6536   23.6634 H   0  0  0  0  0  0
  -26.0083  -31.5875   20.5843 H   0  0  0  0  0  0
  -26.8457  -30.9151   21.9634 H   0  0  0  0  0  0
  -28.0776  -28.9865   21.2574 H   0  0  0  0  0  0
  -25.9034  -25.9511   19.0772 H   0  0  0  0  0  0
  -23.9397  -27.3127   19.0564 H   0  0  0  0  0  0
  -23.7089  -30.6082   19.4004 H   0  0  0  0  0  0
  -22.7434  -29.2613   19.8801 H   0  0  0  0  0  0
  -25.1257  -36.2119   25.0865 H   0  0  0  0  0  0
  -20.9911  -28.3462   24.1333 H   0  0  0  0  0  0
  -20.6865  -26.2309   23.3113 H   0  0  0  0  0  0
  -21.6827  -26.8705   22.0501 H   0  0  0  0  0  0
  -19.7155  -25.6070   21.1815 H   0  0  0  0  0  0
  -19.6702  -27.3164   20.6734 H   0  0  0  0  0  0
  -17.4318  -26.5640   21.4395 H   0  0  0  0  0  0
  -18.0923  -26.0114   22.9490 H   0  0  0  0  0  0
  -19.7264  -30.7450   24.2645 H   0  0  0  0  0  0
  -17.4281  -31.5870   24.5697 H   0  0  0  0  0  0
  -15.5013  -30.2783   23.7099 H   0  0  0  0  0  0
  -15.8664  -28.0956   22.6153 H   0  0  0  0  0  0
  -24.5942  -30.6972   25.7849 H   0  0  0  0  0  0
  -24.8858  -32.2832   26.4937 H   0  0  0  0  0  0
  -25.8090  -30.8927   27.0282 H   0  0  0  0  0  0
  -26.2805  -29.6929   24.1019 H   0  0  0  0  0  0
  -27.3997  -29.7215   25.4455 H   0  0  0  0  0  0
  -27.8654  -30.4474   23.9226 H   0  0  0  0  0  0
  -27.2732  -33.3646   26.2065 H   0  0  0  0  0  0
  -28.3894  -32.6760   25.0325 H   0  0  0  0  0  0
  -28.0682  -31.8421   26.5442 H   0  0  0  0  0  0
  -28.2626  -38.0127   24.7544 H   0  0  0  0  0  0
  -28.1036  -36.2669   24.6273 H   0  0  0  0  0  0
  -27.2310  -37.1497   25.8877 H   0  0  0  0  0  0
  -20.9156  -29.9785   21.7421 H   0  0  0  0  0  0
  -26.0199  -38.2944   24.1435 H   0  0  0  0  0  0
  -29.9461  -17.5683   23.1928 H   0  0  0  0  0  0
  -28.7575  -19.6748   22.8358 H   0  0  0  0  0  0
  -28.4900  -16.1221   19.3817 H   0  0  0  0  0  0
  -26.9305  -17.2301   18.2003 H   0  0  0  0  0  0
  -26.9040  -18.9809   18.2413 H   0  0  0  0  0  0
  -25.7248  -18.0625   19.1848 H   0  0  0  0  0  0
  -26.9469  -22.8158   19.7115 H   0  0  0  0  0  0
  -25.7597  -22.7366   20.9314 H   0  0  0  0  0  0
  -26.3749  -24.8422   21.5683 H   0  0  0  0  0  0
  -27.8290  -24.1877   22.2209 H   0  0  0  0  0  0
  -27.3402  -21.5781   22.4470 H   0  0  0  0  0  0
  -28.6343  -21.6854   21.2509 H   0  0  0  0  0  0
  -27.7051  -24.8451   19.1955 H   0  0  0  0  0  0
  -29.0783  -24.6397   20.2005 H   0  0  0  0  0  0
  -30.3827  -15.3068   22.5050 H   0  0  0  0  0  0
  -26.3895  -20.3551   20.0739 H   0  0  0  0  0  0
  1 25  1  0  0  0
  1 30  2  0  0  0
  1 82  1  0  0  0
  2  3  1  0  0  0
  2 25  1  0  0  0
  2 84  1  0  0  0
  2 85  1  0  0  0
  3  4  1  0  0  0
  3 86  1  0  0  0
  3 87  1  0  0  0
  4  5  1  0  0  0
  4 88  1  0  0  0
  4 89  1  0  0  0
  5  6  1  0  0  0
  5 26  1  0  0  0
  5 90  1  0  0  0
  6 25  1  0  0  0
  6 91  1  0  0  0
  6 92  1  0  0  0
  7  8  2  0  0  0
  7 26  1  0  0  0
  7 29  1  0  0  0
  8  9  1  0  0  0
  8 22  1  0  0  0
  9 10  1  0  0  0
  9 27  2  0  0  0
 10 11  2  0  0  0
 10 15  1  0  0  0
 11 12  1  0  0  0
 11 93  1  0  0  0
 12 13  2  0  0  0
 12 94  1  0  0  0
 13 14  1  0  0  0
 13 31  1  0  0  0
 14 15  2  0  0  0
 14 95  1  0  0  0
 15 96  1  0  0  0
 16 17  2  0  0  0
 16 21  1  0  0  0
 16 31  1  0  0  0
 17 18  1  0  0  0
 17 97  1  0  0  0
 18 19  2  0  0  0
 18 98  1  0  0  0
 19 20  1  0  0  0
 19 24  1  0  0  0
 20 21  2  0  0  0
 20 99  1  0  0  0
 21 23  1  0  0  0
 22 28  1  0  0  0
 22 32  2  0  0  0
 26 27  1  0  0  0
 28100  1  0  0  0
 28101  1  0  0  0
 29102  1  0  0  0
 29103  1  0  0  0
 33 34  1  0  0  0
 33 66  1  0  0  0
 33 70  2  0  0  0
 34 36  1  0  0  0
 34 59  1  0  0  0
 34104  1  0  0  0
 35 44  2  0  0  0
 35 45  1  0  0  0
 35 68  1  0  0  0
 36 56  1  0  0  0
 36105  1  0  0  0
 37 39  1  0  0  0
 37 47  1  0  0  0
 37 66  1  0  0  0
 37106  1  0  0  0
 38 43  2  0  0  0
 38 46  1  0  0  0
 38 47  1  0  0  0
 39 64  1  0  0  0
 39 67  2  0  0  0
 40 52  1  0  0  0
 40 53  2  0  0  0
 40 58  1  0  0  0
 41107  1  0  0  0
 41108  1  0  0  0
 41109  1  0  0  0
 41 48  1  0  0  0
 42 43  1  0  0  0
 42 66  1  0  0  0
 42110  1  0  0  0
 42111  1  0  0  0
 43 44  1  0  0  0
 44112  1  0  0  0
 45 46  2  0  0  0
 45113  1  0  0  0
 46114  1  0  0  0
 47115  1  0  0  0
 47116  1  0  0  0
 48 56  1  0  0  0
 48 65  1  0  0  0
 48117  1  0  0  0
 49 50  1  0  0  0
 49 53  1  0  0  0
 49 64  1  0  0  0
 49118  1  0  0  0
 50 51  1  0  0  0
 50119  1  0  0  0
 50120  1  0  0  0
 51 52  1  0  0  0
 51121  1  0  0  0
 51122  1  0  0  0
 52123  1  0  0  0
 52124  1  0  0  0
 53 54  1  0  0  0
 54 55  2  0  0  0
 54125  1  0  0  0
 55 57  1  0  0  0
 55126  1  0  0  0
 56 69  2  0  0  0
 57 58  2  0  0  0
 57127  1  0  0  0
 58128  1  0  0  0
 59 60  1  0  0  0
 59 61  1  0  0  0
 59 62  1  0  0  0
 60129  1  0  0  0
 60130  1  0  0  0
 60131  1  0  0  0
 61132  1  0  0  0
 61133  1  0  0  0
 61134  1  0  0  0
 62135  1  0  0  0
 62136  1  0  0  0
 62137  1  0  0  0
 63 65  1  0  0  0
 63138  1  0  0  0
 63139  1  0  0  0
 63140  1  0  0  0
 64141  1  0  0  0
 65142  1  0  0  0
 68 81  1  0  0  0
 71 72  2  0  0  0
 71 75  1  0  0  0
 71143  1  0  0  0
 72 76  1  0  0  0
 72144  1  0  0  0
 73 74  1  0  0  0
 73 75  2  0  0  0
 73145  1  0  0  0
 74 76  2  0  0  0
 74 77  1  0  0  0
 75 82  1  0  0  0
 76 83  1  0  0  0
 77146  1  0  0  0
 77147  1  0  0  0
 77148  1  0  0  0
 78 79  1  0  0  0
 78 80  1  0  0  0
 78149  1  0  0  0
 78150  1  0  0  0
 79 81  1  0  0  0
 79151  1  0  0  0
 79152  1  0  0  0
 80 83  1  0  0  0
 80153  1  0  0  0
 80154  1  0  0  0
 81155  1  0  0  0
 81156  1  0  0  0
 82157  1  0  0  0
 83158  1  0  0  0
M  ISO  4   1 100  68 101  81 101  82 100
M  END
> <chiral flag>
0

> <version>
0

> <s_m_source_file>
/data/baiqing/PycharmProjects/Reinvent-master-3.2/result/LINK_invent/BTK/process_docking_weight1_custom_product_contain_oxygen_bond_distance_aromatic_linkinvent_7_9_3/rearranged_h_0107.sdf

> <i_m_source_file_index>
85

> <r_mmod_Potential_Energy-OPLS-2005>
16.1002655029297

> <r_mmod_Stretch_Energy-OPLS-2005>
54.3238563537598

> <r_mmod_Bend_Energy-OPLS-2005>
128.150512695312

> <r_mmod_Torsional_Energy-OPLS-2005>
271.515777587891

> <r_mmod_Improper_Torsional_Energy-OPLS-2005>
4.04139757156372

> <r_mmod_Van_der_Waal_Energy-OPLS-2005>
147.493301391602

> <r_mmod_Electrostatic_Energy-OPLS-2005>
-427.774566650391

> <r_mmod_Solvation_Energy-OPLS-2005>
-208.021820068359

> <b_mmod_Minimization_Converged-OPLS-2005>
0

> <r_mmod_RMS_Derivative-OPLS-2005>
18.2796192169189

$$$$
85
                    3D
 Structure written by MMmdl.
159168  0  0  1  0            999 V2000
  -30.6233  -14.6373   20.4919 C   0  0  0  0  0  0
  -30.4370  -12.3874   19.4554 C   0  0  0  0  0  0
  -29.5081  -12.5025   18.2262 C   0  0  0  0  0  0
  -28.0299  -12.3457   18.6370 C   0  0  0  0  0  0
  -27.6529  -13.2177   19.8645 C   0  0  2  0  0  0
  -28.6977  -13.0732   20.9945 C   0  0  0  0  0  0
  -25.2551  -13.8171   20.5691 C   0  0  0  0  0  0
  -24.1816  -13.0429   20.9167 C   0  0  0  0  0  0
  -24.6393  -11.6904   20.8726 C   0  0  0  0  0  0
  -23.9064  -10.4288   21.0399 C   0  0  0  0  0  0
  -24.3614   -9.4206   21.9180 C   0  0  0  0  0  0
  -23.6289   -8.2242   22.0752 C   0  0  0  0  0  0
  -22.4271   -8.0279   21.3542 C   0  0  0  0  0  0
  -21.9904   -9.0253   20.4646 C   0  0  0  0  0  0
  -22.7232  -10.2133   20.3053 C   0  0  0  0  0  0
  -21.6855   -6.0734   22.5278 C   0  0  0  0  0  0
  -21.4017   -6.5638   23.8212 C   0  0  0  0  0  0
  -21.3658   -5.6790   24.9174 C   0  0  0  0  0  0
  -21.6043   -4.3054   24.7223 C   0  0  0  0  0  0
  -21.8819   -3.8144   23.4346 C   0  0  0  0  0  0
  -21.9194   -4.6961   22.3402 C   0  0  0  0  0  0
  -22.7840  -13.5223   21.1842 C   0  0  0  0  0  0
  -22.1660   -4.2145   21.0979 F   0  0  0  0  0  0
  -21.5628   -3.4538   25.7738 F   0  0  0  0  0  0
  -30.0144  -13.4113   20.4310 N   0  0  0  0  0  0
  -26.2988  -12.9358   20.3335 N   0  0  0  0  0  0
  -25.9326  -11.6509   20.5762 N   0  0  0  0  0  0
  -22.0490  -12.8221   22.0410 N   0  0  0  0  0  0
  -25.4248  -15.1897   20.4171 N   0  0  0  0  0  0
  -31.7875  -14.7911   20.1115 O   0  0  0  0  0  0
  -21.6638   -6.8875   21.4240 O   0  0  0  0  0  0
  -22.3516  -14.5529   20.6698 O   0  0  0  0  0  0
  -24.6247  -31.8605   23.2029 C   0  0  0  0  0  0
  -25.9097  -32.4782   23.8356 C   0  0  1  0  0  0
  -27.2246  -27.3290   20.1217 C   0  0  0  0  0  0
  -25.5918  -33.8583   24.2282 N   0  0  0  0  0  0
  -23.4183  -30.4828   21.5454 C   0  0  2  0  0  0
  -24.8657  -28.9366   20.1134 C   0  0  0  0  0  0
  -22.7468  -29.4624   22.4946 C   0  0  0  0  0  0
  -18.0284  -28.1383   22.8491 C   0  0  0  0  0  0
  -24.1490  -36.7301   23.2638 C   0  0  0  0  0  0
  -25.9578  -30.7941   21.3724 C   0  0  0  0  0  0
  -26.0335  -29.4210   20.7174 C   0  0  0  0  0  0
  -27.2186  -28.6290   20.7107 C   0  0  0  0  0  0
  -26.0401  -26.8964   19.4876 C   0  0  0  0  0  0
  -24.8701  -27.6791   19.4891 C   0  0  0  0  0  0
  -23.6328  -29.8154   20.1614 C   0  0  0  0  0  0
  -25.4114  -36.3087   24.0328 C   0  0  1  0  0  0
  -20.5884  -28.3686   23.1291 C   0  0  2  0  0  0
  -20.6774  -26.9411   22.5414 C   0  0  0  0  0  0
  -19.5749  -26.6384   21.5217 C   0  0  0  0  0  0
  -18.1929  -26.7926   22.1631 C   0  0  0  0  0  0
  -19.1536  -28.8851   23.2886 C   0  0  0  0  0  0
  -18.9459  -30.1454   23.8900 C   0  0  0  0  0  0
  -17.6459  -30.6585   24.0566 C   0  0  0  0  0  0
  -25.9049  -34.9454   23.5105 C   0  0  0  0  0  0
  -16.5350  -29.9086   23.6329 C   0  0  0  0  0  0
  -16.7272  -28.6504   23.0351 C   0  0  0  0  0  0
  -26.4485  -31.6587   25.0721 C   0  0  0  0  0  0
  -25.3724  -31.3734   26.1456 C   0  0  0  0  0  0
  -27.0318  -30.3009   24.6166 C   0  0  0  0  0  0
  -27.6051  -32.4316   25.7485 C   0  0  0  0  0  0
  -27.5581  -37.1805   24.8464 C   0  0  0  0  0  0
  -21.4183  -29.3039   22.3685 N   0  0  0  0  0  0
  -26.4295  -37.3778   23.9404 N   0  0  0  0  0  0
  -24.6856  -31.0621   22.0974 N   0  0  0  0  0  0
  -23.4195  -28.8170   23.3026 O   0  0  0  0  0  0
  -28.3419  -26.4869   20.1337 O   0  0  0  0  0  0
  -26.5622  -34.8920   22.4675 O   0  0  0  0  0  0
  -23.5412  -32.1401   23.7361 O   0  0  0  0  0  0
  -31.0061  -19.2380   19.9187 C   0  0  0  0  0  0
  -31.0357  -17.8292   20.1323 C   0  0  0  0  0  0
  -28.7374  -19.3418   20.6794 C   0  0  0  0  0  0
  -29.8549  -20.0520   20.1626 C   0  0  0  0  0  0
  -29.9027  -17.1304   20.6154 C   0  0  0  0  0  0
  -28.7603  -17.9289   20.8922 C   0  0  0  0  0  0
  -29.8173  -24.2746   18.9270 C   0  0  0  0  0  0
  -29.0473  -23.9735   19.9894 C   0  0  0  0  0  0
  -30.6888  -23.2783   18.3027 C   0  0  0  0  0  0
  -30.9520  -21.9639   19.0458 C   0  0  0  0  0  0
  -29.0149  -22.5071   20.5911 C   0  0  2  0  0  0
  -29.4401  -22.5344   22.0686 C   0  0  0  0  0  0
  -28.1418  -25.0959   20.6056 C   0  0  0  0  0  0
  -29.8326  -21.4727   19.8651 N   0  0  0  0  0  0
  -29.8164  -15.6868   20.8386 N   0  0  0  0  0  0
  -31.2315  -23.4728   17.2125 O   0  0  0  0  0  0
  -27.6455  -17.3148   21.3583 F   0  0  0  0  0  0
  -31.4787  -12.5094   19.1536 H   0  0  0  0  0  0
  -30.3696  -11.3930   19.8993 H   0  0  0  0  0  0
  -29.7705  -11.7467   17.4845 H   0  0  0  0  0  0
  -29.6545  -13.4695   17.7422 H   0  0  0  0  0  0
  -27.8638  -11.2931   18.8691 H   0  0  0  0  0  0
  -27.3768  -12.5767   17.7945 H   0  0  0  0  0  0
  -27.6694  -14.2527   19.5225 H   0  0  0  0  0  0
  -28.7065  -12.0526   21.3797 H   0  0  0  0  0  0
  -28.4446  -13.7091   21.8442 H   0  0  0  0  0  0
  -25.2764   -9.5681   22.4749 H   0  0  0  0  0  0
  -23.9998   -7.4636   22.7474 H   0  0  0  0  0  0
  -21.0833   -8.8774   19.8956 H   0  0  0  0  0  0
  -22.3692  -10.9670   19.6160 H   0  0  0  0  0  0
  -21.2013   -7.6147   23.9715 H   0  0  0  0  0  0
  -21.1478   -6.0521   25.9076 H   0  0  0  0  0  0
  -22.0601   -2.7606   23.2850 H   0  0  0  0  0  0
  -22.4111  -11.9882   22.4795 H   0  0  0  0  0  0
  -21.1114  -13.1256   22.2630 H   0  0  0  0  0  0
  -24.6665  -15.8445   20.5712 H   0  0  0  0  0  0
  -26.2993  -15.6500   20.1982 H   0  0  0  0  0  0
  -26.7167  -32.5458   23.1109 H   0  0  0  0  0  0
  -25.0054  -33.9729   25.0419 H   0  0  0  0  0  0
  -22.7115  -31.3025   21.4020 H   0  0  0  0  0  0
  -23.3745  -35.9641   23.3306 H   0  0  0  0  0  0
  -24.3579  -36.8914   22.2051 H   0  0  0  0  0  0
  -23.7252  -37.6509   23.6656 H   0  0  0  0  0  0
  -26.0858  -31.5563   20.6025 H   0  0  0  0  0  0
  -26.8395  -30.8454   21.9997 H   0  0  0  0  0  0
  -28.1166  -28.9963   21.1875 H   0  0  0  0  0  0
  -26.0102  -25.9394   18.9864 H   0  0  0  0  0  0
  -23.9777  -27.3054   19.0061 H   0  0  0  0  0  0
  -23.7505  -30.5909   19.4037 H   0  0  0  0  0  0
  -22.7534  -29.2432   19.8603 H   0  0  0  0  0  0
  -25.1292  -36.1944   25.0822 H   0  0  0  0  0  0
  -20.9974  -28.3260   24.1414 H   0  0  0  0  0  0
  -20.5681  -26.2294   23.3611 H   0  0  0  0  0  0
  -21.6642  -26.7444   22.1204 H   0  0  0  0  0  0
  -19.6911  -25.6297   21.1240 H   0  0  0  0  0  0
  -19.6684  -27.3199   20.6751 H   0  0  0  0  0  0
  -17.4197  -26.6671   21.4035 H   0  0  0  0  0  0
  -18.0333  -26.0067   22.9028 H   0  0  0  0  0  0
  -19.7934  -30.7272   24.2267 H   0  0  0  0  0  0
  -17.5012  -31.6263   24.5170 H   0  0  0  0  0  0
  -15.5350  -30.2990   23.7647 H   0  0  0  0  0  0
  -15.8674  -28.0824   22.7063 H   0  0  0  0  0  0
  -24.5881  -30.7102   25.7789 H   0  0  0  0  0  0
  -24.8940  -32.2909   26.4895 H   0  0  0  0  0  0
  -25.8048  -30.8897   27.0223 H   0  0  0  0  0  0
  -26.2885  -29.6769   24.1191 H   0  0  0  0  0  0
  -27.4015  -29.7255   25.4664 H   0  0  0  0  0  0
  -27.8755  -30.4292   23.9382 H   0  0  0  0  0  0
  -27.2664  -33.3615   26.2068 H   0  0  0  0  0  0
  -28.3855  -32.6878   25.0308 H   0  0  0  0  0  0
  -28.0724  -31.8439   26.5397 H   0  0  0  0  0  0
  -28.2603  -38.0098   24.7501 H   0  0  0  0  0  0
  -28.1071  -36.2629   24.6297 H   0  0  0  0  0  0
  -27.2298  -37.1463   25.8867 H   0  0  0  0  0  0
  -20.9360  -29.8760   21.6895 H   0  0  0  0  0  0
  -26.0178  -38.2855   24.1399 H   0  0  0  0  0  0
  -31.9222  -19.6741   19.5508 H   0  0  0  0  0  0
  -31.9489  -17.2981   19.9092 H   0  0  0  0  0  0
  -27.8218  -19.8701   20.8959 H   0  0  0  0  0  0
  -29.8163  -25.2675   18.5045 H   0  0  0  0  0  0
  -31.8330  -22.0956   19.6747 H   0  0  0  0  0  0
  -31.2047  -21.2306   18.2794 H   0  0  0  0  0  0
  -27.9728  -22.1871   20.5398 H   0  0  0  0  0  0
  -30.4587  -22.9076   22.1814 H   0  0  0  0  0  0
  -29.4007  -21.5424   22.5190 H   0  0  0  0  0  0
  -28.7864  -23.1673   22.6678 H   0  0  0  0  0  0
  -28.3253  -25.1241   21.6786 H   0  0  0  0  0  0
  -27.1098  -24.7633   20.5003 H   0  0  0  0  0  0
  -28.9121  -15.3945   21.1776 H   0  0  0  0  0  0
  1 25  1  0  0  0
  1 30  2  0  0  0
  1 85  1  0  0  0
  2  3  1  0  0  0
  2 25  1  0  0  0
  2 88  1  0  0  0
  2 89  1  0  0  0
  3  4  1  0  0  0
  3 90  1  0  0  0
  3 91  1  0  0  0
  4  5  1  0  0  0
  4 92  1  0  0  0
  4 93  1  0  0  0
  5  6  1  0  0  0
  5 26  1  0  0  0
  5 94  1  0  0  0
  6 25  1  0  0  0
  6 95  1  0  0  0
  6 96  1  0  0  0
  7  8  2  0  0  0
  7 26  1  0  0  0
  7 29  1  0  0  0
  8  9  1  0  0  0
  8 22  1  0  0  0
  9 10  1  0  0  0
  9 27  2  0  0  0
 10 11  2  0  0  0
 10 15  1  0  0  0
 11 12  1  0  0  0
 11 97  1  0  0  0
 12 13  2  0  0  0
 12 98  1  0  0  0
 13 14  1  0  0  0
 13 31  1  0  0  0
 14 15  2  0  0  0
 14 99  1  0  0  0
 15100  1  0  0  0
 16 17  2  0  0  0
 16 21  1  0  0  0
 16 31  1  0  0  0
 17 18  1  0  0  0
 17101  1  0  0  0
 18 19  2  0  0  0
 18102  1  0  0  0
 19 20  1  0  0  0
 19 24  1  0  0  0
 20 21  2  0  0  0
 20103  1  0  0  0
 21 23  1  0  0  0
 22 28  1  0  0  0
 22 32  2  0  0  0
 26 27  1  0  0  0
 28104  1  0  0  0
 28105  1  0  0  0
 29106  1  0  0  0
 29107  1  0  0  0
 33 34  1  0  0  0
 33 66  1  0  0  0
 33 70  2  0  0  0
 34 36  1  0  0  0
 34 59  1  0  0  0
 34108  1  0  0  0
 35 44  2  0  0  0
 35 45  1  0  0  0
 35 68  1  0  0  0
 36 56  1  0  0  0
 36109  1  0  0  0
 37 39  1  0  0  0
 37 47  1  0  0  0
 37 66  1  0  0  0
 37110  1  0  0  0
 38 43  2  0  0  0
 38 46  1  0  0  0
 38 47  1  0  0  0
 39 64  1  0  0  0
 39 67  2  0  0  0
 40 52  1  0  0  0
 40 53  2  0  0  0
 40 58  1  0  0  0
 41111  1  0  0  0
 41112  1  0  0  0
 41113  1  0  0  0
 41 48  1  0  0  0
 42 43  1  0  0  0
 42 66  1  0  0  0
 42114  1  0  0  0
 42115  1  0  0  0
 43 44  1  0  0  0
 44116  1  0  0  0
 45 46  2  0  0  0
 45117  1  0  0  0
 46118  1  0  0  0
 47119  1  0  0  0
 47120  1  0  0  0
 48 56  1  0  0  0
 48 65  1  0  0  0
 48121  1  0  0  0
 49 50  1  0  0  0
 49 53  1  0  0  0
 49 64  1  0  0  0
 49122  1  0  0  0
 50 51  1  0  0  0
 50123  1  0  0  0
 50124  1  0  0  0
 51 52  1  0  0  0
 51125  1  0  0  0
 51126  1  0  0  0
 52127  1  0  0  0
 52128  1  0  0  0
 53 54  1  0  0  0
 54 55  2  0  0  0
 54129  1  0  0  0
 55 57  1  0  0  0
 55130  1  0  0  0
 56 69  2  0  0  0
 57 58  2  0  0  0
 57131  1  0  0  0
 58132  1  0  0  0
 59 60  1  0  0  0
 59 61  1  0  0  0
 59 62  1  0  0  0
 60133  1  0  0  0
 60134  1  0  0  0
 60135  1  0  0  0
 61136  1  0  0  0
 61137  1  0  0  0
 61138  1  0  0  0
 62139  1  0  0  0
 62140  1  0  0  0
 62141  1  0  0  0
 63 65  1  0  0  0
 63142  1  0  0  0
 63143  1  0  0  0
 63144  1  0  0  0
 64145  1  0  0  0
 65146  1  0  0  0
 68 83  1  0  0  0
 71 72  2  0  0  0
 71 74  1  0  0  0
 71147  1  0  0  0
 72 75  1  0  0  0
 72148  1  0  0  0
 73 74  2  0  0  0
 73 76  1  0  0  0
 73149  1  0  0  0
 74 84  1  0  0  0
 75 76  2  0  0  0
 75 85  1  0  0  0
 76 87  1  0  0  0
 77 78  2  0  0  0
 77 79  1  0  0  0
 77150  1  0  0  0
 78 81  1  0  0  0
 78 83  1  0  0  0
 79 80  1  0  0  0
 79 86  2  0  0  0
 80 84  1  0  0  0
 80151  1  0  0  0
 80152  1  0  0  0
 81 82  1  0  0  0
 81 84  1  0  0  0
 81153  1  0  0  0
 82154  1  0  0  0
 82155  1  0  0  0
 82156  1  0  0  0
 83157  1  0  0  0
 83158  1  0  0  0
 85159  1  0  0  0
M  ISO  4   1 100  68 101  83 101  85 100
M  END
> <chiral flag>
0

> <version>
0

> <s_m_source_file>
/data/baiqing/PycharmProjects/Reinvent-master-3.2/result/LINK_invent/BTK/process_docking_weight1_custom_product_contain_oxygen_bond_distance_aromatic_linkinvent_7_9_3/rearranged_h_0107.sdf

> <i_m_source_file_index>
86

> <r_mmod_Potential_Energy-OPLS-2005>
17.3929004669189

> <r_mmod_Stretch_Energy-OPLS-2005>
83.0969772338867

> <r_mmod_Bend_Energy-OPLS-2005>
145.624755859375

> <r_mmod_Torsional_Energy-OPLS-2005>
222.254776000977

> <r_mmod_Improper_Torsional_Energy-OPLS-2005>
4.70899391174316

> <r_mmod_Van_der_Waal_Energy-OPLS-2005>
157.372589111328

> <r_mmod_Electrostatic_Energy-OPLS-2005>
-422.167205810547

> <r_mmod_Solvation_Energy-OPLS-2005>
-218.961227416992

> <b_mmod_Minimization_Converged-OPLS-2005>
0

> <r_mmod_RMS_Derivative-OPLS-2005>
0.501945376396179

$$$$
86
                    3D
 Structure written by MMmdl.
165174  0  0  1  0            999 V2000
  -30.6176  -14.6503   20.5033 C   0  0  0  0  0  0
  -30.4432  -12.4020   19.4522 C   0  0  0  0  0  0
  -29.5109  -12.5109   18.2248 C   0  0  0  0  0  0
  -28.0339  -12.3440   18.6366 C   0  0  0  0  0  0
  -27.6545  -13.2151   19.8635 C   0  0  2  0  0  0
  -28.7000  -13.0731   20.9926 C   0  0  0  0  0  0
  -25.2568  -13.8166   20.5690 C   0  0  0  0  0  0
  -24.1832  -13.0431   20.9180 C   0  0  0  0  0  0
  -24.6400  -11.6903   20.8735 C   0  0  0  0  0  0
  -23.9068  -10.4288   21.0402 C   0  0  0  0  0  0
  -24.3619   -9.4203   21.9179 C   0  0  0  0  0  0
  -23.6290   -8.2243   22.0754 C   0  0  0  0  0  0
  -22.4269   -8.0287   21.3549 C   0  0  0  0  0  0
  -21.9902   -9.0261   20.4651 C   0  0  0  0  0  0
  -22.7238  -10.2134   20.3053 C   0  0  0  0  0  0
  -21.6855   -6.0733   22.5277 C   0  0  0  0  0  0
  -21.4020   -6.5635   23.8211 C   0  0  0  0  0  0
  -21.3657   -5.6787   24.9173 C   0  0  0  0  0  0
  -21.6041   -4.3049   24.7223 C   0  0  0  0  0  0
  -21.8822   -3.8143   23.4343 C   0  0  0  0  0  0
  -21.9194   -4.6960   22.3399 C   0  0  0  0  0  0
  -22.7855  -13.5229   21.1842 C   0  0  0  0  0  0
  -22.1663   -4.2147   21.0976 F   0  0  0  0  0  0
  -21.5620   -3.4533   25.7735 F   0  0  0  0  0  0
  -30.0144  -13.4213   20.4292 N   0  0  0  0  0  0
  -26.2999  -12.9343   20.3321 N   0  0  0  0  0  0
  -25.9328  -11.6500   20.5750 N   0  0  0  0  0  0
  -22.0495  -12.8236   22.0404 N   0  0  0  0  0  0
  -25.4266  -15.1894   20.4137 N   0  0  0  0  0  0
  -31.7818  -14.8195   20.1283 O   0  0  0  0  0  0
  -21.6639   -6.8881   21.4242 O   0  0  0  0  0  0
  -22.3539  -14.5534   20.6688 O   0  0  0  0  0  0
  -24.6272  -31.8600   23.2035 C   0  0  0  0  0  0
  -25.9120  -32.4780   23.8360 C   0  0  1  0  0  0
  -27.2206  -27.3158   20.1093 C   0  0  0  0  0  0
  -25.5933  -33.8579   24.2288 N   0  0  0  0  0  0
  -23.4201  -30.4864   21.5465 C   0  0  2  0  0  0
  -24.8649  -28.9449   20.1104 C   0  0  0  0  0  0
  -22.7475  -29.4631   22.4930 C   0  0  0  0  0  0
  -18.0288  -28.1388   22.8479 C   0  0  0  0  0  0
  -24.1488  -36.7291   23.2637 C   0  0  0  0  0  0
  -25.9630  -30.7899   21.3755 C   0  0  0  0  0  0
  -26.0362  -29.4183   20.7150 C   0  0  0  0  0  0
  -27.2166  -28.6155   20.7055 C   0  0  0  0  0  0
  -26.0225  -26.9013   19.4779 C   0  0  0  0  0  0
  -24.8601  -27.6914   19.4847 C   0  0  0  0  0  0
  -23.6343  -29.8259   20.1606 C   0  0  0  0  0  0
  -25.4112  -36.3080   24.0328 C   0  0  1  0  0  0
  -20.5888  -28.3695   23.1275 C   0  0  2  0  0  0
  -20.6776  -26.9415   22.5411 C   0  0  0  0  0  0
  -19.5756  -26.6387   21.5205 C   0  0  0  0  0  0
  -18.1932  -26.7934   22.1611 C   0  0  0  0  0  0
  -19.1540  -28.8859   23.2875 C   0  0  0  0  0  0
  -18.9465  -30.1456   23.8901 C   0  0  0  0  0  0
  -17.6465  -30.6588   24.0567 C   0  0  0  0  0  0
  -25.9051  -34.9450   23.5109 C   0  0  0  0  0  0
  -16.5356  -29.9090   23.6326 C   0  0  0  0  0  0
  -16.7273  -28.6506   23.0347 C   0  0  0  0  0  0
  -26.4502  -31.6585   25.0728 C   0  0  0  0  0  0
  -25.3738  -31.3735   26.1459 C   0  0  0  0  0  0
  -27.0337  -30.3004   24.6189 C   0  0  0  0  0  0
  -27.6067  -32.4316   25.7492 C   0  0  0  0  0  0
  -27.5582  -37.1798   24.8459 C   0  0  0  0  0  0
  -21.4189  -29.3048   22.3667 N   0  0  0  0  0  0
  -26.4288  -37.3776   23.9410 N   0  0  0  0  0  0
  -24.6891  -31.0616   22.0986 N   0  0  0  0  0  0
  -23.4197  -28.8160   23.3002 O   0  0  0  0  0  0
  -28.3326  -26.4546   20.1637 O   0  0  0  0  0  0
  -26.5620  -34.8916   22.4672 O   0  0  0  0  0  0
  -23.5434  -32.1400   23.7367 O   0  0  0  0  0  0
  -30.4147  -19.3406   21.7982 C   0  0  0  0  0  0
  -29.3645  -19.3133   19.6469 C   0  0  0  0  0  0
  -30.4495  -17.9136   21.8240 C   0  0  0  0  0  0
  -29.3967  -17.8800   19.6510 C   0  0  0  0  0  0
  -29.8656  -20.0970   20.7215 C   0  0  0  0  0  0
  -29.9461  -17.1425   20.7422 C   0  0  0  0  0  0
  -29.1755  -23.9042   20.2810 C   0  0  0  0  0  0
  -28.9309  -22.5383   20.3807 C   0  0  0  0  0  0
  -30.5769  -24.3678   20.4410 C   0  0  0  0  0  0
  -31.6731  -23.3051   20.4516 C   0  0  0  0  0  0
  -31.2267  -22.0277   21.1748 C   0  0  0  0  0  0
  -31.0090  -17.2164   23.0517 C   0  0  0  0  0  0
  -28.8187  -17.1358   18.4599 C   0  0  0  0  0  0
  -27.5131  -22.0035   20.2107 C   0  0  0  0  0  0
  -28.0895  -25.0028   19.9457 C   0  0  0  0  0  0
  -29.9202  -21.5468   20.7095 N   0  0  0  0  0  0
  -29.7949  -15.6912   20.8464 N   0  0  0  0  0  0
  -30.9185  -25.5503   20.5349 O   0  0  0  0  0  0
  -31.4831  -12.5346   19.1495 H   0  0  0  0  0  0
  -30.3859  -11.4070   19.8960 H   0  0  0  0  0  0
  -29.7783  -11.7593   17.4809 H   0  0  0  0  0  0
  -29.6500  -13.4802   17.7437 H   0  0  0  0  0  0
  -27.8750  -11.2903   18.8692 H   0  0  0  0  0  0
  -27.3795  -12.5716   17.7944 H   0  0  0  0  0  0
  -27.6706  -14.2493   19.5205 H   0  0  0  0  0  0
  -28.7151  -12.0512   21.3746 H   0  0  0  0  0  0
  -28.4430  -13.7038   21.8451 H   0  0  0  0  0  0
  -25.2765   -9.5673   22.4752 H   0  0  0  0  0  0
  -23.9998   -7.4630   22.7469 H   0  0  0  0  0  0
  -21.0829   -8.8786   19.8958 H   0  0  0  0  0  0
  -22.3702  -10.9675   19.6161 H   0  0  0  0  0  0
  -21.2023   -7.6146   23.9717 H   0  0  0  0  0  0
  -21.1470   -6.0515   25.9075 H   0  0  0  0  0  0
  -22.0603   -2.7606   23.2848 H   0  0  0  0  0  0
  -22.4099  -11.9897   22.4801 H   0  0  0  0  0  0
  -21.1117  -13.1280   22.2604 H   0  0  0  0  0  0
  -24.6585  -15.8407   20.5316 H   0  0  0  0  0  0
  -26.2771  -15.6379   20.1005 H   0  0  0  0  0  0
  -26.7185  -32.5450   23.1104 H   0  0  0  0  0  0
  -25.0076  -33.9723   25.0431 H   0  0  0  0  0  0
  -22.7142  -31.3075   21.4058 H   0  0  0  0  0  0
  -23.3750  -35.9625   23.3294 H   0  0  0  0  0  0
  -24.3584  -36.8920   22.2054 H   0  0  0  0  0  0
  -23.7242  -37.6490   23.6665 H   0  0  0  0  0  0
  -26.0966  -31.5550   20.6096 H   0  0  0  0  0  0
  -26.8428  -30.8362   22.0055 H   0  0  0  0  0  0
  -28.1141  -28.9736   21.1906 H   0  0  0  0  0  0
  -25.9443  -25.9477   18.9785 H   0  0  0  0  0  0
  -23.9619  -27.3239   19.0075 H   0  0  0  0  0  0
  -23.7559  -30.6046   19.4066 H   0  0  0  0  0  0
  -22.7531  -29.2583   19.8555 H   0  0  0  0  0  0
  -25.1290  -36.1930   25.0821 H   0  0  0  0  0  0
  -20.9984  -28.3278   24.1394 H   0  0  0  0  0  0
  -20.5657  -26.2308   23.3614 H   0  0  0  0  0  0
  -21.6650  -26.7433   22.1222 H   0  0  0  0  0  0
  -19.6918  -25.6297   21.1238 H   0  0  0  0  0  0
  -19.6697  -27.3194   20.6734 H   0  0  0  0  0  0
  -17.4203  -26.6682   21.4011 H   0  0  0  0  0  0
  -18.0328  -26.0075   22.9006 H   0  0  0  0  0  0
  -19.7945  -30.7267   24.2275 H   0  0  0  0  0  0
  -17.5023  -31.6267   24.5174 H   0  0  0  0  0  0
  -15.5359  -30.2994   23.7651 H   0  0  0  0  0  0
  -15.8672  -28.0826   22.7062 H   0  0  0  0  0  0
  -24.5922  -30.7063   25.7805 H   0  0  0  0  0  0
  -24.8917  -32.2904   26.4858 H   0  0  0  0  0  0
  -25.8070  -30.8943   27.0249 H   0  0  0  0  0  0
  -26.2909  -29.6755   24.1216 H   0  0  0  0  0  0
  -27.4028  -29.7259   25.4697 H   0  0  0  0  0  0
  -27.8785  -30.4275   23.9415 H   0  0  0  0  0  0
  -27.2683  -33.3614   26.2077 H   0  0  0  0  0  0
  -28.3871  -32.6882   25.0314 H   0  0  0  0  0  0
  -28.0744  -31.8439   26.5402 H   0  0  0  0  0  0
  -28.2597  -38.0097   24.7509 H   0  0  0  0  0  0
  -28.1080  -36.2632   24.6270 H   0  0  0  0  0  0
  -27.2309  -37.1435   25.8863 H   0  0  0  0  0  0
  -20.9360  -29.8779   21.6889 H   0  0  0  0  0  0
  -26.0168  -38.2848   24.1422 H   0  0  0  0  0  0
  -30.8110  -19.8694   22.6529 H   0  0  0  0  0  0
  -28.9527  -19.8267   18.7896 H   0  0  0  0  0  0
  -32.5700  -23.7071   20.9227 H   0  0  0  0  0  0
  -31.9322  -23.0759   19.4183 H   0  0  0  0  0  0
  -31.1727  -22.2159   22.2483 H   0  0  0  0  0  0
  -32.0024  -21.2743   21.0275 H   0  0  0  0  0  0
  -31.3886  -17.9299   23.7834 H   0  0  0  0  0  0
  -31.8300  -16.5557   22.7722 H   0  0  0  0  0  0
  -30.2364  -16.6183   23.5360 H   0  0  0  0  0  0
  -28.6041  -17.8115   17.6319 H   0  0  0  0  0  0
  -27.8912  -16.6344   18.7348 H   0  0  0  0  0  0
  -29.5221  -16.3850   18.0983 H   0  0  0  0  0  0
  -26.8236  -22.5330   20.8689 H   0  0  0  0  0  0
  -27.4059  -20.9486   20.4566 H   0  0  0  0  0  0
  -27.1742  -22.1447   19.1836 H   0  0  0  0  0  0
  -27.1975  -24.7319   20.5098 H   0  0  0  0  0  0
  -27.8543  -24.8624   18.8902 H   0  0  0  0  0  0
  -28.8676  -15.3866   21.0978 H   0  0  0  0  0  0
  1 25  1  0  0  0
  1 30  2  0  0  0
  1 87  1  0  0  0
  2  3  1  0  0  0
  2 25  1  0  0  0
  2 89  1  0  0  0
  2 90  1  0  0  0
  3  4  1  0  0  0
  3 91  1  0  0  0
  3 92  1  0  0  0
  4  5  1  0  0  0
  4 93  1  0  0  0
  4 94  1  0  0  0
  5  6  1  0  0  0
  5 26  1  0  0  0
  5 95  1  0  0  0
  6 25  1  0  0  0
  6 96  1  0  0  0
  6 97  1  0  0  0
  7  8  2  0  0  0
  7 26  1  0  0  0
  7 29  1  0  0  0
  8  9  1  0  0  0
  8 22  1  0  0  0
  9 10  1  0  0  0
  9 27  2  0  0  0
 10 11  2  0  0  0
 10 15  1  0  0  0
 11 12  1  0  0  0
 11 98  1  0  0  0
 12 13  2  0  0  0
 12 99  1  0  0  0
 13 14  1  0  0  0
 13 31  1  0  0  0
 14 15  2  0  0  0
 14100  1  0  0  0
 15101  1  0  0  0
 16 17  2  0  0  0
 16 21  1  0  0  0
 16 31  1  0  0  0
 17 18  1  0  0  0
 17102  1  0  0  0
 18 19  2  0  0  0
 18103  1  0  0  0
 19 20  1  0  0  0
 19 24  1  0  0  0
 20 21  2  0  0  0
 20104  1  0  0  0
 21 23  1  0  0  0
 22 28  1  0  0  0
 22 32  2  0  0  0
 26 27  1  0  0  0
 28105  1  0  0  0
 28106  1  0  0  0
 29107  1  0  0  0
 29108  1  0  0  0
 33 34  1  0  0  0
 33 66  1  0  0  0
 33 70  2  0  0  0
 34 36  1  0  0  0
 34 59  1  0  0  0
 34109  1  0  0  0
 35 44  2  0  0  0
 35 45  1  0  0  0
 35 68  1  0  0  0
 36 56  1  0  0  0
 36110  1  0  0  0
 37 39  1  0  0  0
 37 47  1  0  0  0
 37 66  1  0  0  0
 37111  1  0  0  0
 38 43  2  0  0  0
 38 46  1  0  0  0
 38 47  1  0  0  0
 39 64  1  0  0  0
 39 67  2  0  0  0
 40 52  1  0  0  0
 40 53  2  0  0  0
 40 58  1  0  0  0
 41112  1  0  0  0
 41113  1  0  0  0
 41114  1  0  0  0
 41 48  1  0  0  0
 42 43  1  0  0  0
 42 66  1  0  0  0
 42115  1  0  0  0
 42116  1  0  0  0
 43 44  1  0  0  0
 44117  1  0  0  0
 45 46  2  0  0  0
 45118  1  0  0  0
 46119  1  0  0  0
 47120  1  0  0  0
 47121  1  0  0  0
 48 56  1  0  0  0
 48 65  1  0  0  0
 48122  1  0  0  0
 49 50  1  0  0  0
 49 53  1  0  0  0
 49 64  1  0  0  0
 49123  1  0  0  0
 50 51  1  0  0  0
 50124  1  0  0  0
 50125  1  0  0  0
 51 52  1  0  0  0
 51126  1  0  0  0
 51127  1  0  0  0
 52128  1  0  0  0
 52129  1  0  0  0
 53 54  1  0  0  0
 54 55  2  0  0  0
 54130  1  0  0  0
 55 57  1  0  0  0
 55131  1  0  0  0
 56 69  2  0  0  0
 57 58  2  0  0  0
 57132  1  0  0  0
 58133  1  0  0  0
 59 60  1  0  0  0
 59 61  1  0  0  0
 59 62  1  0  0  0
 60134  1  0  0  0
 60135  1  0  0  0
 60136  1  0  0  0
 61137  1  0  0  0
 61138  1  0  0  0
 61139  1  0  0  0
 62140  1  0  0  0
 62141  1  0  0  0
 62142  1  0  0  0
 63 65  1  0  0  0
 63143  1  0  0  0
 63144  1  0  0  0
 63145  1  0  0  0
 64146  1  0  0  0
 65147  1  0  0  0
 68 85  1  0  0  0
 71 73  2  0  0  0
 71 75  1  0  0  0
 71148  1  0  0  0
 72 74  1  0  0  0
 72 75  2  0  0  0
 72149  1  0  0  0
 73 76  1  0  0  0
 73 82  1  0  0  0
 74 76  2  0  0  0
 74 83  1  0  0  0
 75 86  1  0  0  0
 76 87  1  0  0  0
 77 78  2  0  0  0
 77 79  1  0  0  0
 77 85  1  0  0  0
 78 84  1  0  0  0
 78 86  1  0  0  0
 79 80  1  0  0  0
 79 88  2  0  0  0
 80 81  1  0  0  0
 80150  1  0  0  0
 80151  1  0  0  0
 81 86  1  0  0  0
 81152  1  0  0  0
 81153  1  0  0  0
 82154  1  0  0  0
 82155  1  0  0  0
 82156  1  0  0  0
 83157  1  0  0  0
 83158  1  0  0  0
 83159  1  0  0  0
 84160  1  0  0  0
 84161  1  0  0  0
 84162  1  0  0  0
 85163  1  0  0  0
 85164  1  0  0  0
 87165  1  0  0  0
M  ISO  4   1 100  68 101  85 101  87 100
M  END
> <chiral flag>
0

> <version>
0

> <s_m_source_file>
/data/baiqing/PycharmProjects/Reinvent-master-3.2/result/LINK_invent/BTK/process_docking_weight1_custom_product_contain_oxygen_bond_distance_aromatic_linkinvent_7_9_3/rearranged_h_0107.sdf

> <i_m_source_file_index>
87

> <r_mmod_Potential_Energy-OPLS-2005>
64.6100234985352

> <r_mmod_Stretch_Energy-OPLS-2005>
90.1978073120117

> <r_mmod_Bend_Energy-OPLS-2005>
136.593475341797

> <r_mmod_Torsional_Energy-OPLS-2005>
230.830902099609

> <r_mmod_Improper_Torsional_Energy-OPLS-2005>
5.61652565002441

> <r_mmod_Van_der_Waal_Energy-OPLS-2005>
164.280120849609

> <r_mmod_Electrostatic_Energy-OPLS-2005>
-389.479888916016

> <r_mmod_Solvation_Energy-OPLS-2005>
-225.444793701172

> <b_mmod_Minimization_Converged-OPLS-2005>
0

> <r_mmod_RMS_Derivative-OPLS-2005>
0.831449210643768

$$$$
87
                    3D
 Structure written by MMmdl.
163171  0  0  1  0            999 V2000
  -30.6701  -14.6758   20.4937 C   0  0  0  0  0  0
  -30.4440  -12.4530   19.3974 C   0  0  0  0  0  0
  -29.4913  -12.5506   18.1877 C   0  0  0  0  0  0
  -28.0147  -12.3975   18.6155 C   0  0  0  0  0  0
  -27.6539  -13.2258   19.8801 C   0  0  2  0  0  0
  -28.7290  -13.0164   20.9685 C   0  0  0  0  0  0
  -25.2415  -13.8111   20.5510 C   0  0  0  0  0  0
  -24.1751  -13.0373   20.9090 C   0  0  0  0  0  0
  -24.6408  -11.6885   20.8729 C   0  0  0  0  0  0
  -23.9090  -10.4257   21.0381 C   0  0  0  0  0  0
  -24.3610   -9.4195   21.9173 C   0  0  0  0  0  0
  -23.6272   -8.2255   22.0749 C   0  0  0  0  0  0
  -22.4256   -8.0333   21.3544 C   0  0  0  0  0  0
  -21.9880   -9.0305   20.4658 C   0  0  0  0  0  0
  -22.7249  -10.2150   20.3055 C   0  0  0  0  0  0
  -21.6907   -6.0746   22.5255 C   0  0  0  0  0  0
  -21.4091   -6.5629   23.8202 C   0  0  0  0  0  0
  -21.3575   -5.6768   24.9136 C   0  0  0  0  0  0
  -21.5992   -4.3028   24.7195 C   0  0  0  0  0  0
  -21.8843   -3.8115   23.4322 C   0  0  0  0  0  0
  -21.9234   -4.6956   22.3391 C   0  0  0  0  0  0
  -22.7778  -13.5210   21.1780 C   0  0  0  0  0  0
  -22.1711   -4.2138   21.0969 F   0  0  0  0  0  0
  -21.5522   -3.4511   25.7693 F   0  0  0  0  0  0
  -30.0001  -13.4707   20.3794 N   0  0  0  0  0  0
  -26.2989  -12.9364   20.3452 N   0  0  0  0  0  0
  -25.9356  -11.6523   20.5862 N   0  0  0  0  0  0
  -22.0448  -12.8230   22.0372 N   0  0  0  0  0  0
  -25.3890  -15.1794   20.3585 N   0  0  0  0  0  0
  -31.8785  -14.6868   20.2215 O   0  0  0  0  0  0
  -21.6655   -6.8913   21.4239 O   0  0  0  0  0  0
  -22.3473  -14.5529   20.6654 O   0  0  0  0  0  0
  -24.6221  -31.8565   23.1971 C   0  0  0  0  0  0
  -25.9125  -32.4712   23.8260 C   0  0  1  0  0  0
  -27.2588  -27.3525   20.0847 C   0  0  0  0  0  0
  -25.5993  -33.8526   24.2208 N   0  0  0  0  0  0
  -23.4169  -30.4751   21.5360 C   0  0  2  0  0  0
  -24.8694  -28.9261   20.1074 C   0  0  0  0  0  0
  -22.7408  -29.4625   22.4885 C   0  0  0  0  0  0
  -18.0278  -28.1390   22.8420 C   0  0  0  0  0  0
  -24.1500  -36.7250   23.2611 C   0  0  0  0  0  0
  -25.9532  -30.7936   21.3708 C   0  0  0  0  0  0
  -26.0311  -29.4233   20.7095 C   0  0  0  0  0  0
  -27.2226  -28.6451   20.6902 C   0  0  0  0  0  0
  -26.0661  -26.8895   19.4811 C   0  0  0  0  0  0
  -24.8870  -27.6620   19.4912 C   0  0  0  0  0  0
  -23.6266  -29.7937   20.1588 C   0  0  0  0  0  0
  -25.4127  -36.3029   24.0291 C   0  0  1  0  0  0
  -20.5868  -28.3711   23.1202 C   0  0  2  0  0  0
  -20.6761  -26.9409   22.5379 C   0  0  0  0  0  0
  -19.5769  -26.6365   21.5162 C   0  0  0  0  0  0
  -18.1938  -26.7933   22.1537 C   0  0  0  0  0  0
  -19.1522  -28.8860   23.2819 C   0  0  0  0  0  0
  -18.9482  -30.1452   23.8837 C   0  0  0  0  0  0
  -17.6496  -30.6569   24.0574 C   0  0  0  0  0  0
  -25.9076  -34.9399   23.5041 C   0  0  0  0  0  0
  -16.5384  -29.9072   23.6360 C   0  0  0  0  0  0
  -16.7278  -28.6512   23.0338 C   0  0  0  0  0  0
  -26.4522  -31.6525   25.0623 C   0  0  0  0  0  0
  -25.3785  -31.3858   26.1400 C   0  0  0  0  0  0
  -27.0315  -30.2880   24.6177 C   0  0  0  0  0  0
  -27.6092  -32.4250   25.7376 C   0  0  0  0  0  0
  -27.5607  -37.1738   24.8414 C   0  0  0  0  0  0
  -21.4130  -29.3047   22.3577 N   0  0  0  0  0  0
  -26.4292  -37.3734   23.9397 N   0  0  0  0  0  0
  -24.6816  -31.0578   22.0897 N   0  0  0  0  0  0
  -23.4105  -28.8190   23.3018 O   0  0  0  0  0  0
  -28.4395  -26.6012   20.1379 O   0  0  0  0  0  0
  -26.5612  -34.8882   22.4587 O   0  0  0  0  0  0
  -23.5418  -32.1374   23.7329 O   0  0  0  0  0  0
  -30.6450  -18.3748   20.4288 C   0  0  0  0  0  0
  -31.0690  -16.9698   18.4934 C   0  0  0  0  0  0
  -31.5600  -19.3705   18.4071 C   0  0  0  0  0  0
  -30.5822  -17.0743   19.8240 C   0  0  0  0  0  0
  -31.0542  -19.5392   19.7105 C   0  0  0  0  0  0
  -31.5776  -18.0941   17.8083 C   0  0  0  0  0  0
  -26.7985  -17.5630   22.1730 C   0  0  0  0  0  0
  -27.8276  -17.2936   21.0452 C   0  0  0  0  0  0
  -28.9863  -24.0650   20.3712 C   0  0  0  0  0  0
  -29.5766  -22.7835   19.6520 C   0  0  0  0  0  0
  -28.9196  -16.2562   21.4869 C   0  0  0  0  0  0
  -28.6397  -25.3130   19.4597 C   0  0  0  0  0  0
  -29.8028  -21.4868   20.5214 C   0  0  0  0  0  0
  -29.9999  -15.9078   20.5105 N   0  0  0  0  0  0
  -31.0630  -20.8174   20.2591 O   0  0  0  0  0  0
  -32.0676  -17.9496   16.5522 F   0  0  0  0  0  0
  -31.4677  -12.6095   19.0535 H   0  0  0  0  0  0
  -30.4362  -11.4485   19.8274 H   0  0  0  0  0  0
  -29.7427  -11.8019   17.4382 H   0  0  0  0  0  0
  -29.6232  -13.5166   17.6981 H   0  0  0  0  0  0
  -27.8267  -11.3403   18.7991 H   0  0  0  0  0  0
  -27.3667  -12.6752   17.7847 H   0  0  0  0  0  0
  -27.6776  -14.2765   19.5942 H   0  0  0  0  0  0
  -28.7900  -11.9521   21.2002 H   0  0  0  0  0  0
  -28.5026  -13.4451   21.9379 H   0  0  0  0  0  0
  -25.2788   -9.5644   22.4708 H   0  0  0  0  0  0
  -23.9965   -7.4647   22.7464 H   0  0  0  0  0  0
  -21.0785   -8.8859   19.8990 H   0  0  0  0  0  0
  -22.3753  -10.9677   19.6137 H   0  0  0  0  0  0
  -21.2206   -7.6172   23.9717 H   0  0  0  0  0  0
  -21.1300   -6.0486   25.9033 H   0  0  0  0  0  0
  -22.0701   -2.7579   23.2849 H   0  0  0  0  0  0
  -22.4086  -11.9893   22.4736 H   0  0  0  0  0  0
  -21.1133  -13.1407   22.2666 H   0  0  0  0  0  0
  -24.6127  -15.8279   20.4117 H   0  0  0  0  0  0
  -26.2483  -15.6258   20.0678 H   0  0  0  0  0  0
  -26.7171  -32.5408   23.0990 H   0  0  0  0  0  0
  -25.0251  -33.9645   25.0430 H   0  0  0  0  0  0
  -22.7137  -31.2945   21.3822 H   0  0  0  0  0  0
  -23.3757  -35.9588   23.3231 H   0  0  0  0  0  0
  -24.3600  -36.8915   22.2031 H   0  0  0  0  0  0
  -23.7241  -37.6426   23.6674 H   0  0  0  0  0  0
  -26.0929  -31.5598   20.6070 H   0  0  0  0  0  0
  -26.8284  -30.8290   22.0091 H   0  0  0  0  0  0
  -28.1219  -29.0264   21.1596 H   0  0  0  0  0  0
  -26.0100  -25.9244   19.0043 H   0  0  0  0  0  0
  -23.9942  -27.2730   19.0224 H   0  0  0  0  0  0
  -23.7179  -30.5535   19.3814 H   0  0  0  0  0  0
  -22.7555  -29.1952   19.8822 H   0  0  0  0  0  0
  -25.1291  -36.1849   25.0775 H   0  0  0  0  0  0
  -20.9946  -28.3360   24.1324 H   0  0  0  0  0  0
  -20.5579  -26.2346   23.3603 H   0  0  0  0  0  0
  -21.6656  -26.7405   22.1247 H   0  0  0  0  0  0
  -19.6954  -25.6259   21.1220 H   0  0  0  0  0  0
  -19.6740  -27.3136   20.6656 H   0  0  0  0  0  0
  -17.4197  -26.6629   21.3960 H   0  0  0  0  0  0
  -18.0391  -26.0081   22.8929 H   0  0  0  0  0  0
  -19.7980  -30.7296   24.2139 H   0  0  0  0  0  0
  -17.5072  -31.6248   24.5194 H   0  0  0  0  0  0
  -15.5396  -30.3007   23.7707 H   0  0  0  0  0  0
  -15.8647  -28.0858   22.7070 H   0  0  0  0  0  0
  -24.5900  -30.7218   25.7839 H   0  0  0  0  0  0
  -24.9091  -32.3140   26.4656 H   0  0  0  0  0  0
  -25.8116  -30.9174   27.0238 H   0  0  0  0  0  0
  -26.2887  -29.6602   24.1238 H   0  0  0  0  0  0
  -27.3940  -29.7178   25.4734 H   0  0  0  0  0  0
  -27.8786  -30.4000   23.9416 H   0  0  0  0  0  0
  -27.2675  -33.3522   26.1972 H   0  0  0  0  0  0
  -28.3889  -32.6838   25.0206 H   0  0  0  0  0  0
  -28.0753  -31.8369   26.5276 H   0  0  0  0  0  0
  -28.2566  -38.0102   24.7556 H   0  0  0  0  0  0
  -28.1171  -36.2639   24.6097 H   0  0  0  0  0  0
  -27.2352  -37.1189   25.8823 H   0  0  0  0  0  0
  -20.9300  -29.8769   21.6772 H   0  0  0  0  0  0
  -26.0154  -38.2766   24.1550 H   0  0  0  0  0  0
  -30.3517  -18.4974   21.4609 H   0  0  0  0  0  0
  -31.0684  -16.0215   17.9721 H   0  0  0  0  0  0
  -31.9319  -20.2251   17.8600 H   0  0  0  0  0  0
  -25.9668  -18.1861   21.8409 H   0  0  0  0  0  0
  -27.2591  -18.0902   23.0093 H   0  0  0  0  0  0
  -26.3772  -16.6401   22.5796 H   0  0  0  0  0  0
  -28.2090  -18.2777   20.7713 H   0  0  0  0  0  0
  -27.3288  -16.9503   20.1374 H   0  0  0  0  0  0
  -29.7113  -24.3854   21.1190 H   0  0  0  0  0  0
  -28.0958  -23.7776   20.9287 H   0  0  0  0  0  0
  -30.5230  -23.0523   19.1847 H   0  0  0  0  0  0
  -28.9281  -22.5058   18.8199 H   0  0  0  0  0  0
  -28.3415  -15.3993   21.7850 H   0  0  0  0  0  0
  -29.3981  -16.6012   22.4059 H   0  0  0  0  0  0
  -27.8488  -25.0516   18.7619 H   0  0  0  0  0  0
  -29.5042  -25.4739   18.8161 H   0  0  0  0  0  0
  -28.9667  -20.7974   20.3838 H   0  0  0  0  0  0
  -29.7821  -21.7494   21.5801 H   0  0  0  0  0  0
  1 25  1  0  0  0
  1 30  2  0  0  0
  1 84  1  0  0  0
  2  3  1  0  0  0
  2 25  1  0  0  0
  2 87  1  0  0  0
  2 88  1  0  0  0
  3  4  1  0  0  0
  3 89  1  0  0  0
  3 90  1  0  0  0
  4  5  1  0  0  0
  4 91  1  0  0  0
  4 92  1  0  0  0
  5  6  1  0  0  0
  5 26  1  0  0  0
  5 93  1  0  0  0
  6 25  1  0  0  0
  6 94  1  0  0  0
  6 95  1  0  0  0
  7  8  2  0  0  0
  7 26  1  0  0  0
  7 29  1  0  0  0
  8  9  1  0  0  0
  8 22  1  0  0  0
  9 10  1  0  0  0
  9 27  2  0  0  0
 10 11  2  0  0  0
 10 15  1  0  0  0
 11 12  1  0  0  0
 11 96  1  0  0  0
 12 13  2  0  0  0
 12 97  1  0  0  0
 13 14  1  0  0  0
 13 31  1  0  0  0
 14 15  2  0  0  0
 14 98  1  0  0  0
 15 99  1  0  0  0
 16 17  2  0  0  0
 16 21  1  0  0  0
 16 31  1  0  0  0
 17 18  1  0  0  0
 17100  1  0  0  0
 18 19  2  0  0  0
 18101  1  0  0  0
 19 20  1  0  0  0
 19 24  1  0  0  0
 20 21  2  0  0  0
 20102  1  0  0  0
 21 23  1  0  0  0
 22 28  1  0  0  0
 22 32  2  0  0  0
 26 27  1  0  0  0
 28103  1  0  0  0
 28104  1  0  0  0
 29105  1  0  0  0
 29106  1  0  0  0
 33 34  1  0  0  0
 33 66  1  0  0  0
 33 70  2  0  0  0
 34 36  1  0  0  0
 34 59  1  0  0  0
 34107  1  0  0  0
 35 44  2  0  0  0
 35 45  1  0  0  0
 35 68  1  0  0  0
 36 56  1  0  0  0
 36108  1  0  0  0
 37 39  1  0  0  0
 37 47  1  0  0  0
 37 66  1  0  0  0
 37109  1  0  0  0
 38 43  2  0  0  0
 38 46  1  0  0  0
 38 47  1  0  0  0
 39 64  1  0  0  0
 39 67  2  0  0  0
 40 52  1  0  0  0
 40 53  2  0  0  0
 40 58  1  0  0  0
 41110  1  0  0  0
 41111  1  0  0  0
 41112  1  0  0  0
 41 48  1  0  0  0
 42 43  1  0  0  0
 42 66  1  0  0  0
 42113  1  0  0  0
 42114  1  0  0  0
 43 44  1  0  0  0
 44115  1  0  0  0
 45 46  2  0  0  0
 45116  1  0  0  0
 46117  1  0  0  0
 47118  1  0  0  0
 47119  1  0  0  0
 48 56  1  0  0  0
 48 65  1  0  0  0
 48120  1  0  0  0
 49 50  1  0  0  0
 49 53  1  0  0  0
 49 64  1  0  0  0
 49121  1  0  0  0
 50 51  1  0  0  0
 50122  1  0  0  0
 50123  1  0  0  0
 51 52  1  0  0  0
 51124  1  0  0  0
 51125  1  0  0  0
 52126  1  0  0  0
 52127  1  0  0  0
 53 54  1  0  0  0
 54 55  2  0  0  0
 54128  1  0  0  0
 55 57  1  0  0  0
 55129  1  0  0  0
 56 69  2  0  0  0
 57 58  2  0  0  0
 57130  1  0  0  0
 58131  1  0  0  0
 59 60  1  0  0  0
 59 61  1  0  0  0
 59 62  1  0  0  0
 60132  1  0  0  0
 60133  1  0  0  0
 60134  1  0  0  0
 61135  1  0  0  0
 61136  1  0  0  0
 61137  1  0  0  0
 62138  1  0  0  0
 62139  1  0  0  0
 62140  1  0  0  0
 63 65  1  0  0  0
 63141  1  0  0  0
 63142  1  0  0  0
 63143  1  0  0  0
 64144  1  0  0  0
 65145  1  0  0  0
 68 82  1  0  0  0
 71 74  2  0  0  0
 71 75  1  0  0  0
 71146  1  0  0  0
 72 74  1  0  0  0
 72 76  2  0  0  0
 72147  1  0  0  0
 73 75  2  0  0  0
 73 76  1  0  0  0
 73148  1  0  0  0
 74 84  1  0  0  0
 75 85  1  0  0  0
 76 86  1  0  0  0
 77 78  1  0  0  0
 77149  1  0  0  0
 77150  1  0  0  0
 77151  1  0  0  0
 78 81  1  0  0  0
 78152  1  0  0  0
 78153  1  0  0  0
 79 80  1  0  0  0
 79 82  1  0  0  0
 79154  1  0  0  0
 79155  1  0  0  0
 80 83  1  0  0  0
 80156  1  0  0  0
 80157  1  0  0  0
 81 84  1  0  0  0
 81158  1  0  0  0
 81159  1  0  0  0
 82160  1  0  0  0
 82161  1  0  0  0
 83 85  1  0  0  0
 83162  1  0  0  0
 83163  1  0  0  0
M  ISO  4   1 100  68 101  82 101  84 100
M  END
> <chiral flag>
0

> <version>
0

> <s_m_source_file>
/data/baiqing/PycharmProjects/Reinvent-master-3.2/result/LINK_invent/BTK/process_docking_weight1_custom_product_contain_oxygen_bond_distance_aromatic_linkinvent_7_9_3/rearranged_h_0107.sdf

> <i_m_source_file_index>
88

> <r_mmod_Potential_Energy-OPLS-2005>
331.741668701172

> <r_mmod_Stretch_Energy-OPLS-2005>
84.7222061157227

> <r_mmod_Bend_Energy-OPLS-2005>
171.352920532227

> <r_mmod_Torsional_Energy-OPLS-2005>
317.832794189453

> <r_mmod_Improper_Torsional_Energy-OPLS-2005>
11.9858961105347

> <r_mmod_Van_der_Waal_Energy-OPLS-2005>
159.089965820312

> <r_mmod_Electrostatic_Energy-OPLS-2005>
-276.233795166016

> <r_mmod_Solvation_Energy-OPLS-2005>
-184.989273071289

> <b_mmod_Minimization_Converged-OPLS-2005>
0

> <r_mmod_RMS_Derivative-OPLS-2005>
7.64613056182861

$$$$
88
                    3D
 Structure written by MMmdl.
149157  0  0  1  0            999 V2000
  -30.5671  -14.8191   20.4503 C   0  0  0  0  0  0
  -30.4450  -12.5002   19.4859 C   0  0  0  0  0  0
  -29.5207  -12.5231   18.2460 C   0  0  0  0  0  0
  -28.0465  -12.3369   18.6556 C   0  0  0  0  0  0
  -27.6440  -13.2366   19.8539 C   0  0  2  0  0  0
  -28.6882  -13.1789   20.9907 C   0  0  0  0  0  0
  -25.2515  -13.8201   20.5694 C   0  0  0  0  0  0
  -24.1812  -13.0440   20.9210 C   0  0  0  0  0  0
  -24.6414  -11.6921   20.8757 C   0  0  0  0  0  0
  -23.9092  -10.4294   21.0411 C   0  0  0  0  0  0
  -24.3638   -9.4206   21.9185 C   0  0  0  0  0  0
  -23.6306   -8.2244   22.0755 C   0  0  0  0  0  0
  -22.4284   -8.0291   21.3547 C   0  0  0  0  0  0
  -21.9929   -9.0265   20.4646 C   0  0  0  0  0  0
  -22.7268  -10.2139   20.3056 C   0  0  0  0  0  0
  -21.6852   -6.0748   22.5282 C   0  0  0  0  0  0
  -21.4011   -6.5647   23.8220 C   0  0  0  0  0  0
  -21.3658   -5.6795   24.9179 C   0  0  0  0  0  0
  -21.6043   -4.3060   24.7223 C   0  0  0  0  0  0
  -21.8820   -3.8156   23.4342 C   0  0  0  0  0  0
  -21.9192   -4.6974   22.3403 C   0  0  0  0  0  0
  -22.7830  -13.5221   21.1869 C   0  0  0  0  0  0
  -22.1662   -4.2164   21.0979 F   0  0  0  0  0  0
  -21.5627   -3.4541   25.7734 F   0  0  0  0  0  0
  -29.9850  -13.5636   20.4151 N   0  0  0  0  0  0
  -26.2953  -12.9418   20.3288 N   0  0  0  0  0  0
  -25.9346  -11.6556   20.5750 N   0  0  0  0  0  0
  -22.0477  -12.8207   22.0422 N   0  0  0  0  0  0
  -25.4199  -15.1926   20.4099 N   0  0  0  0  0  0
  -31.7444  -14.9438   20.0968 O   0  0  0  0  0  0
  -21.6644   -6.8891   21.4247 O   0  0  0  0  0  0
  -22.3517  -14.5530   20.6722 O   0  0  0  0  0  0
  -24.6366  -31.8508   23.1934 C   0  0  0  0  0  0
  -25.9162  -32.4740   23.8312 C   0  0  1  0  0  0
  -27.2272  -27.2176   20.1380 C   0  0  0  0  0  0
  -25.5931  -33.8542   24.2232 N   0  0  0  0  0  0
  -23.4393  -30.4699   21.5375 C   0  0  2  0  0  0
  -24.8939  -28.9124   20.1076 C   0  0  0  0  0  0
  -22.7550  -29.4569   22.4881 C   0  0  0  0  0  0
  -18.0305  -28.1393   22.8488 C   0  0  0  0  0  0
  -24.1485  -36.7268   23.2639 C   0  0  0  0  0  0
  -25.9898  -30.7489   21.3842 C   0  0  0  0  0  0
  -26.0679  -29.3678   20.7246 C   0  0  0  0  0  0
  -27.2402  -28.5321   20.7315 C   0  0  0  0  0  0
  -26.0346  -26.8468   19.4830 C   0  0  0  0  0  0
  -24.8851  -27.6614   19.4732 C   0  0  0  0  0  0
  -23.6631  -29.8008   20.1555 C   0  0  0  0  0  0
  -25.4112  -36.3060   24.0323 C   0  0  1  0  0  0
  -20.5914  -28.3713   23.1246 C   0  0  2  0  0  0
  -20.6780  -26.9420   22.5403 C   0  0  0  0  0  0
  -19.5749  -26.6383   21.5213 C   0  0  0  0  0  0
  -18.1935  -26.7937   22.1633 C   0  0  0  0  0  0
  -19.1561  -28.8872   23.2860 C   0  0  0  0  0  0
  -18.9474  -30.1471   23.8884 C   0  0  0  0  0  0
  -17.6471  -30.6590   24.0561 C   0  0  0  0  0  0
  -25.9061  -34.9435   23.5083 C   0  0  0  0  0  0
  -16.5362  -29.9079   23.6337 C   0  0  0  0  0  0
  -16.7290  -28.6497   23.0362 C   0  0  0  0  0  0
  -26.4505  -31.6583   25.0728 C   0  0  0  0  0  0
  -25.3711  -31.3754   26.1440 C   0  0  0  0  0  0
  -27.0357  -30.2985   24.6269 C   0  0  0  0  0  0
  -27.6052  -32.4330   25.7510 C   0  0  0  0  0  0
  -27.5577  -37.1784   24.8463 C   0  0  0  0  0  0
  -21.4250  -29.3045   22.3625 N   0  0  0  0  0  0
  -26.4283  -37.3763   23.9414 N   0  0  0  0  0  0
  -24.7077  -31.0423   22.0939 N   0  0  0  0  0  0
  -23.4225  -28.8115   23.3005 O   0  0  0  0  0  0
  -28.2356  -26.2109   20.2149 O   0  0  0  0  0  0
  -26.5639  -34.8925   22.4661 O   0  0  0  0  0  0
  -23.5496  -32.1352   23.7185 O   0  0  0  0  0  0
  -30.4687  -19.5748   19.8278 C   0  0  0  0  0  0
  -30.7370  -18.1304   19.8482 C   0  0  0  0  0  0
  -29.3518  -20.0147   20.5206 C   0  0  0  0  0  0
  -29.8443  -17.3293   20.5461 C   0  0  0  0  0  0
  -27.8725  -25.0522   20.9792 C   0  0  0  0  0  0
  -28.1150  -23.6615   21.0972 C   0  0  0  0  0  0
  -28.9899  -22.6360   20.3677 C   0  0  0  0  0  0
  -27.3155  -23.0211   22.2423 C   0  0  0  0  0  0
  -28.7939  -21.2996   20.7658 N   0  0  0  0  0  0
  -29.7547  -15.9222   20.7413 N   0  0  0  0  0  0
  -29.8193  -22.9273   19.5039 O   0  0  0  0  0  0
  -28.6388  -18.5003   21.1932 S   0  0  0  0  0  0
  -31.4833  -12.6433   19.1825 H   0  0  0  0  0  0
  -30.4111  -11.5259   19.9757 H   0  0  0  0  0  0
  -29.8143  -11.7442   17.5408 H   0  0  0  0  0  0
  -29.6374  -13.4719   17.7193 H   0  0  0  0  0  0
  -27.9083  -11.2876   18.9194 H   0  0  0  0  0  0
  -27.3913  -12.5245   17.8042 H   0  0  0  0  0  0
  -27.6344  -14.2574   19.4709 H   0  0  0  0  0  0
  -28.7395  -12.1770   21.4189 H   0  0  0  0  0  0
  -28.4089  -13.8436   21.8094 H   0  0  0  0  0  0
  -25.2779   -9.5677   22.4766 H   0  0  0  0  0  0
  -24.0014   -7.4632   22.7469 H   0  0  0  0  0  0
  -21.0862   -8.8793   19.8945 H   0  0  0  0  0  0
  -22.3735  -10.9684   19.6167 H   0  0  0  0  0  0
  -21.2005   -7.6155   23.9730 H   0  0  0  0  0  0
  -21.1476   -6.0522   25.9084 H   0  0  0  0  0  0
  -22.0598   -2.7618   23.2840 H   0  0  0  0  0  0
  -22.4090  -11.9864   22.4802 H   0  0  0  0  0  0
  -21.1090  -13.1221   22.2621 H   0  0  0  0  0  0
  -24.6473  -15.8420   20.5108 H   0  0  0  0  0  0
  -26.2581  -15.6306   20.0498 H   0  0  0  0  0  0
  -26.7241  -32.5380   23.1063 H   0  0  0  0  0  0
  -25.0062  -33.9668   25.0369 H   0  0  0  0  0  0
  -22.7381  -31.2930   21.3862 H   0  0  0  0  0  0
  -23.3758  -35.9589   23.3299 H   0  0  0  0  0  0
  -24.3567  -36.8897   22.2053 H   0  0  0  0  0  0
  -23.7237  -37.6466   23.6670 H   0  0  0  0  0  0
  -26.1355  -31.5088   20.6153 H   0  0  0  0  0  0
  -26.8631  -30.7987   22.0231 H   0  0  0  0  0  0
  -28.1324  -28.8652   21.2431 H   0  0  0  0  0  0
  -25.9764  -25.8750   19.0125 H   0  0  0  0  0  0
  -23.9881  -27.3046   18.9861 H   0  0  0  0  0  0
  -23.7863  -30.5761   19.3987 H   0  0  0  0  0  0
  -22.7827  -29.2325   19.8498 H   0  0  0  0  0  0
  -25.1296  -36.1901   25.0814 H   0  0  0  0  0  0
  -21.0009  -28.3303   24.1367 H   0  0  0  0  0  0
  -20.5663  -26.2328   23.3618 H   0  0  0  0  0  0
  -21.6643  -26.7419   22.1199 H   0  0  0  0  0  0
  -19.6896  -25.6290   21.1242 H   0  0  0  0  0  0
  -19.6675  -27.3193   20.6742 H   0  0  0  0  0  0
  -17.4193  -26.6690   21.4047 H   0  0  0  0  0  0
  -18.0337  -26.0082   22.9031 H   0  0  0  0  0  0
  -19.7947  -30.7291   24.2245 H   0  0  0  0  0  0
  -17.5019  -31.6271   24.5161 H   0  0  0  0  0  0
  -15.5356  -30.2968   23.7667 H   0  0  0  0  0  0
  -15.8697  -28.0801   22.7088 H   0  0  0  0  0  0
  -24.5892  -30.7095   25.7768 H   0  0  0  0  0  0
  -24.8894  -32.2927   26.4835 H   0  0  0  0  0  0
  -25.8008  -30.8954   27.0244 H   0  0  0  0  0  0
  -26.2959  -29.6729   24.1257 H   0  0  0  0  0  0
  -27.3967  -29.7261   25.4826 H   0  0  0  0  0  0
  -27.8874  -30.4229   23.9575 H   0  0  0  0  0  0
  -27.2660  -33.3649   26.2048 H   0  0  0  0  0  0
  -28.3888  -32.6855   25.0353 H   0  0  0  0  0  0
  -28.0693  -31.8478   26.5464 H   0  0  0  0  0  0
  -28.2582  -38.0095   24.7527 H   0  0  0  0  0  0
  -28.1087  -36.2626   24.6267 H   0  0  0  0  0  0
  -27.2294  -37.1408   25.8866 H   0  0  0  0  0  0
  -20.9450  -29.8765   21.6817 H   0  0  0  0  0  0
  -26.0163  -38.2833   24.1431 H   0  0  0  0  0  0
  -31.1323  -20.2424   19.2963 H   0  0  0  0  0  0
  -31.5926  -17.7331   19.3201 H   0  0  0  0  0  0
  -27.1680  -25.4267   21.7088 H   0  0  0  0  0  0
  -26.7673  -23.7388   22.8536 H   0  0  0  0  0  0
  -27.9742  -22.4925   22.9333 H   0  0  0  0  0  0
  -26.5770  -22.3196   21.8522 H   0  0  0  0  0  0
  -28.0408  -21.2659   21.4395 H   0  0  0  0  0  0
  -28.8644  -15.6285   21.1146 H   0  0  0  0  0  0
  1 25  1  0  0  0
  1 30  2  0  0  0
  1 80  1  0  0  0
  2  3  1  0  0  0
  2 25  1  0  0  0
  2 83  1  0  0  0
  2 84  1  0  0  0
  3  4  1  0  0  0
  3 85  1  0  0  0
  3 86  1  0  0  0
  4  5  1  0  0  0
  4 87  1  0  0  0
  4 88  1  0  0  0
  5  6  1  0  0  0
  5 26  1  0  0  0
  5 89  1  0  0  0
  6 25  1  0  0  0
  6 90  1  0  0  0
  6 91  1  0  0  0
  7  8  2  0  0  0
  7 26  1  0  0  0
  7 29  1  0  0  0
  8  9  1  0  0  0
  8 22  1  0  0  0
  9 10  1  0  0  0
  9 27  2  0  0  0
 10 11  2  0  0  0
 10 15  1  0  0  0
 11 12  1  0  0  0
 11 92  1  0  0  0
 12 13  2  0  0  0
 12 93  1  0  0  0
 13 14  1  0  0  0
 13 31  1  0  0  0
 14 15  2  0  0  0
 14 94  1  0  0  0
 15 95  1  0  0  0
 16 17  2  0  0  0
 16 21  1  0  0  0
 16 31  1  0  0  0
 17 18  1  0  0  0
 17 96  1  0  0  0
 18 19  2  0  0  0
 18 97  1  0  0  0
 19 20  1  0  0  0
 19 24  1  0  0  0
 20 21  2  0  0  0
 20 98  1  0  0  0
 21 23  1  0  0  0
 22 28  1  0  0  0
 22 32  2  0  0  0
 26 27  1  0  0  0
 28 99  1  0  0  0
 28100  1  0  0  0
 29101  1  0  0  0
 29102  1  0  0  0
 33 34  1  0  0  0
 33 66  1  0  0  0
 33 70  2  0  0  0
 34 36  1  0  0  0
 34 59  1  0  0  0
 34103  1  0  0  0
 35 44  2  0  0  0
 35 45  1  0  0  0
 35 68  1  0  0  0
 36 56  1  0  0  0
 36104  1  0  0  0
 37 39  1  0  0  0
 37 47  1  0  0  0
 37 66  1  0  0  0
 37105  1  0  0  0
 38 43  2  0  0  0
 38 46  1  0  0  0
 38 47  1  0  0  0
 39 64  1  0  0  0
 39 67  2  0  0  0
 40 52  1  0  0  0
 40 53  2  0  0  0
 40 58  1  0  0  0
 41106  1  0  0  0
 41107  1  0  0  0
 41108  1  0  0  0
 41 48  1  0  0  0
 42 43  1  0  0  0
 42 66  1  0  0  0
 42109  1  0  0  0
 42110  1  0  0  0
 43 44  1  0  0  0
 44111  1  0  0  0
 45 46  2  0  0  0
 45112  1  0  0  0
 46113  1  0  0  0
 47114  1  0  0  0
 47115  1  0  0  0
 48 56  1  0  0  0
 48 65  1  0  0  0
 48116  1  0  0  0
 49 50  1  0  0  0
 49 53  1  0  0  0
 49 64  1  0  0  0
 49117  1  0  0  0
 50 51  1  0  0  0
 50118  1  0  0  0
 50119  1  0  0  0
 51 52  1  0  0  0
 51120  1  0  0  0
 51121  1  0  0  0
 52122  1  0  0  0
 52123  1  0  0  0
 53 54  1  0  0  0
 54 55  2  0  0  0
 54124  1  0  0  0
 55 57  1  0  0  0
 55125  1  0  0  0
 56 69  2  0  0  0
 57 58  2  0  0  0
 57126  1  0  0  0
 58127  1  0  0  0
 59 60  1  0  0  0
 59 61  1  0  0  0
 59 62  1  0  0  0
 60128  1  0  0  0
 60129  1  0  0  0
 60130  1  0  0  0
 61131  1  0  0  0
 61132  1  0  0  0
 61133  1  0  0  0
 62134  1  0  0  0
 62135  1  0  0  0
 62136  1  0  0  0
 63 65  1  0  0  0
 63137  1  0  0  0
 63138  1  0  0  0
 63139  1  0  0  0
 64140  1  0  0  0
 65141  1  0  0  0
 68 75  1  0  0  0
 71 72  1  0  0  0
 71 73  2  0  0  0
 71142  1  0  0  0
 72 74  2  0  0  0
 72143  1  0  0  0
 73 79  1  0  0  0
 73 82  1  0  0  0
 74 80  1  0  0  0
 74 82  1  0  0  0
 75 76  2  0  0  0
 75144  1  0  0  0
 76 77  1  0  0  0
 76 78  1  0  0  0
 77 79  1  0  0  0
 77 81  2  0  0  0
 78145  1  0  0  0
 78146  1  0  0  0
 78147  1  0  0  0
 79148  1  0  0  0
 80149  1  0  0  0
M  ISO  4   1 100  68 101  75 101  80 100
M  END
> <chiral flag>
0

> <version>
0

> <s_m_source_file>
/data/baiqing/PycharmProjects/Reinvent-master-3.2/result/LINK_invent/BTK/process_docking_weight1_custom_product_contain_oxygen_bond_distance_aromatic_linkinvent_7_9_3/rearranged_h_0107.sdf

> <i_m_source_file_index>
89

> <r_mmod_Potential_Energy-OPLS-2005>
304.355926513672

> <r_mmod_Stretch_Energy-OPLS-2005>
144.039138793945

> <r_mmod_Bend_Energy-OPLS-2005>
278.683380126953

> <r_mmod_Torsional_Energy-OPLS-2005>
237.285461425781

> <r_mmod_Improper_Torsional_Energy-OPLS-2005>
3.89391899108887

> <r_mmod_Van_der_Waal_Energy-OPLS-2005>
126.574920654297

> <r_mmod_Electrostatic_Energy-OPLS-2005>
-386.211303710938

> <r_mmod_Solvation_Energy-OPLS-2005>
-227.848526000977

> <b_mmod_Minimization_Converged-OPLS-2005>
0

> <r_mmod_RMS_Derivative-OPLS-2005>
1.1543300151825

$$$$
89
                    3D
 Structure written by MMmdl.
160168  0  0  1  0            999 V2000
  -30.7814  -14.3269   20.7159 C   0  0  0  0  0  0
  -30.4156  -12.2841   19.3833 C   0  0  0  0  0  0
  -29.4801  -12.5323   18.1867 C   0  0  0  0  0  0
  -28.0059  -12.3846   18.6057 C   0  0  0  0  0  0
  -27.6673  -13.2008   19.8800 C   0  0  2  0  0  0
  -28.7026  -12.9286   20.9922 C   0  0  0  0  0  0
  -25.2612  -13.8159   20.5677 C   0  0  0  0  0  0
  -24.1850  -13.0443   20.9161 C   0  0  0  0  0  0
  -24.6394  -11.6907   20.8719 C   0  0  0  0  0  0
  -23.9060  -10.4294   21.0397 C   0  0  0  0  0  0
  -24.3612   -9.4213   21.9181 C   0  0  0  0  0  0
  -23.6289   -8.2249   22.0757 C   0  0  0  0  0  0
  -22.4273   -8.0282   21.3544 C   0  0  0  0  0  0
  -21.9906   -9.0253   20.4644 C   0  0  0  0  0  0
  -22.7233  -10.2132   20.3049 C   0  0  0  0  0  0
  -21.6852   -6.0737   22.5279 C   0  0  0  0  0  0
  -21.4011   -6.5641   23.8212 C   0  0  0  0  0  0
  -21.3657   -5.6792   24.9173 C   0  0  0  0  0  0
  -21.6044   -4.3056   24.7224 C   0  0  0  0  0  0
  -21.8819   -3.8149   23.4345 C   0  0  0  0  0  0
  -21.9194   -4.6966   22.3403 C   0  0  0  0  0  0
  -22.7872  -13.5244   21.1832 C   0  0  0  0  0  0
  -22.1662   -4.2152   21.0980 F   0  0  0  0  0  0
  -21.5630   -3.4539   25.7738 F   0  0  0  0  0  0
  -30.0507  -13.2128   20.4616 N   0  0  0  0  0  0
  -26.3048  -12.9319   20.3376 N   0  0  0  0  0  0
  -25.9316  -11.6480   20.5746 N   0  0  0  0  0  0
  -22.0509  -12.8232   22.0383 N   0  0  0  0  0  0
  -25.4362  -15.1877   20.4108 N   0  0  0  0  0  0
  -31.7738  -14.6573   20.0587 O   0  0  0  0  0  0
  -21.6638   -6.8879   21.4242 O   0  0  0  0  0  0
  -22.3559  -14.5558   20.6694 O   0  0  0  0  0  0
  -24.6109  -31.8708   23.2126 C   0  0  0  0  0  0
  -25.9021  -32.4835   23.8406 C   0  0  1  0  0  0
  -27.2398  -27.4695   20.0735 C   0  0  0  0  0  0
  -25.5890  -33.8635   24.2339 N   0  0  0  0  0  0
  -23.3959  -30.4946   21.5530 C   0  0  2  0  0  0
  -24.8395  -28.9605   20.1182 C   0  0  0  0  0  0
  -22.7377  -29.4678   22.5014 C   0  0  0  0  0  0
  -18.0264  -28.1380   22.8496 C   0  0  0  0  0  0
  -24.1483  -36.7316   23.2636 C   0  0  0  0  0  0
  -25.9210  -30.8421   21.3626 C   0  0  0  0  0  0
  -25.9957  -29.4769   20.7143 C   0  0  0  0  0  0
  -27.1924  -28.7329   20.6991 C   0  0  0  0  0  0
  -26.0597  -26.9514   19.4894 C   0  0  0  0  0  0
  -24.8631  -27.6929   19.5113 C   0  0  0  0  0  0
  -23.6014  -29.8255   20.1675 C   0  0  0  0  0  0
  -25.4106  -36.3123   24.0338 C   0  0  1  0  0  0
  -20.5850  -28.3656   23.1330 C   0  0  2  0  0  0
  -20.6757  -26.9400   22.5417 C   0  0  0  0  0  0
  -19.5737  -26.6393   21.5212 C   0  0  0  0  0  0
  -18.1914  -26.7928   22.1621 C   0  0  0  0  0  0
  -19.1513  -28.8832   23.2914 C   0  0  0  0  0  0
  -18.9447  -30.1440   23.8924 C   0  0  0  0  0  0
  -17.6452  -30.6586   24.0573 C   0  0  0  0  0  0
  -25.9033  -34.9486   23.5138 C   0  0  0  0  0  0
  -16.5340  -29.9094   23.6328 C   0  0  0  0  0  0
  -16.7254  -28.6512   23.0346 C   0  0  0  0  0  0
  -26.4462  -31.6601   25.0720 C   0  0  0  0  0  0
  -25.3737  -31.3686   26.1470 C   0  0  0  0  0  0
  -27.0288  -30.3049   24.6072 C   0  0  0  0  0  0
  -27.6042  -32.4310   25.7489 C   0  0  0  0  0  0
  -27.5586  -37.1812   24.8461 C   0  0  0  0  0  0
  -21.4113  -29.3031   22.3743 N   0  0  0  0  0  0
  -26.4290  -37.3810   23.9415 N   0  0  0  0  0  0
  -24.6607  -31.0830   22.1017 N   0  0  0  0  0  0
  -23.4162  -28.8225   23.3050 O   0  0  0  0  0  0
  -28.4521  -26.8174   20.0617 O   0  0  0  0  0  0
  -26.5600  -34.8933   22.4703 O   0  0  0  0  0  0
  -23.5313  -32.1457   23.7539 O   0  0  0  0  0  0
  -28.9090  -19.2207   21.0905 C   0  0  0  0  0  0
  -31.3646  -17.9775   20.5376 C   0  0  0  0  0  0
  -29.2924  -18.0772   21.8243 C   0  0  0  0  0  0
  -30.5394  -17.4594   21.5563 C   0  0  0  0  0  0
  -29.7474  -19.7475   20.0794 C   0  0  0  0  0  0
  -30.9697  -19.1058   19.7996 C   0  0  0  0  0  0
  -28.3505  -17.5325   22.8858 C   0  0  0  0  0  0
  -31.0059  -16.2231   22.3104 C   0  0  0  0  0  0
  -28.3051  -24.3883   19.9528 C   0  0  0  0  0  0
  -28.8409  -23.1590   19.2068 C   0  0  0  0  0  0
  -28.6475  -25.6906   19.2158 C   0  0  0  0  0  0
  -28.6278  -21.8499   19.9714 C   0  0  0  0  0  0
  -30.3897  -15.0095   21.7958 N   0  0  0  0  0  0
  -29.4261  -20.8606   19.3372 O   0  0  0  0  0  0
  -31.7809  -19.5870   18.8264 F   0  0  0  0  0  0
  -31.4578  -12.3901   19.0763 H   0  0  0  0  0  0
  -30.3167  -11.2565   19.7367 H   0  0  0  0  0  0
  -29.7097  -11.8361   17.3788 H   0  0  0  0  0  0
  -29.6503  -13.5332   17.7870 H   0  0  0  0  0  0
  -27.8125  -11.3256   18.7810 H   0  0  0  0  0  0
  -27.3508  -12.6810   17.7855 H   0  0  0  0  0  0
  -27.7304  -14.2569   19.6161 H   0  0  0  0  0  0
  -28.6574  -11.8830   21.3005 H   0  0  0  0  0  0
  -28.4440  -13.5001   21.8835 H   0  0  0  0  0  0
  -25.2759   -9.5693   22.4754 H   0  0  0  0  0  0
  -24.0000   -7.4643   22.7478 H   0  0  0  0  0  0
  -21.0841   -8.8766   19.8947 H   0  0  0  0  0  0
  -22.3695  -10.9667   19.6153 H   0  0  0  0  0  0
  -21.1998   -7.6148   23.9717 H   0  0  0  0  0  0
  -21.1478   -6.0522   25.9076 H   0  0  0  0  0  0
  -22.0601   -2.7611   23.2845 H   0  0  0  0  0  0
  -22.4113  -11.9880   22.4755 H   0  0  0  0  0  0
  -21.1128  -13.1262   22.2589 H   0  0  0  0  0  0
  -24.6756  -15.8486   20.5243 H   0  0  0  0  0  0
  -26.3006  -15.6246   20.1158 H   0  0  0  0  0  0
  -26.7092  -32.5555   23.1173 H   0  0  0  0  0  0
  -25.0035  -33.9805   25.0479 H   0  0  0  0  0  0
  -22.6839  -31.3110   21.4151 H   0  0  0  0  0  0
  -23.3755  -35.9638   23.3290 H   0  0  0  0  0  0
  -24.3581  -36.8942   22.2053 H   0  0  0  0  0  0
  -23.7215  -37.6509   23.6655 H   0  0  0  0  0  0
  -26.0286  -31.6068   20.5920 H   0  0  0  0  0  0
  -26.8112  -30.8977   21.9770 H   0  0  0  0  0  0
  -28.0887  -29.1342   21.1514 H   0  0  0  0  0  0
  -26.0417  -25.9836   19.0111 H   0  0  0  0  0  0
  -23.9709  -27.2863   19.0555 H   0  0  0  0  0  0
  -23.7079  -30.5996   19.4065 H   0  0  0  0  0  0
  -22.7257  -29.2437   19.8736 H   0  0  0  0  0  0
  -25.1282  -36.1994   25.0830 H   0  0  0  0  0  0
  -20.9942  -28.3219   24.1450 H   0  0  0  0  0  0
  -20.5670  -26.2264   23.3599 H   0  0  0  0  0  0
  -21.6631  -26.7459   22.1203 H   0  0  0  0  0  0
  -19.6899  -25.6311   21.1225 H   0  0  0  0  0  0
  -19.6679  -27.3221   20.6757 H   0  0  0  0  0  0
  -17.4188  -26.6685   21.4018 H   0  0  0  0  0  0
  -18.0307  -26.0061   22.9007 H   0  0  0  0  0  0
  -19.7925  -30.7249   24.2304 H   0  0  0  0  0  0
  -17.5009  -31.6272   24.5167 H   0  0  0  0  0  0
  -15.5345  -30.3009   23.7641 H   0  0  0  0  0  0
  -15.8651  -28.0846   22.7046 H   0  0  0  0  0  0
  -24.5900  -30.7052   25.7794 H   0  0  0  0  0  0
  -24.8942  -32.2835   26.4960 H   0  0  0  0  0  0
  -25.8094  -30.8814   27.0202 H   0  0  0  0  0  0
  -26.2822  -29.6815   24.1132 H   0  0  0  0  0  0
  -27.4077  -29.7275   25.4517 H   0  0  0  0  0  0
  -27.8649  -30.4379   23.9200 H   0  0  0  0  0  0
  -27.2668  -33.3603   26.2091 H   0  0  0  0  0  0
  -28.3847  -32.6875   25.0313 H   0  0  0  0  0  0
  -28.0709  -31.8409   26.5387 H   0  0  0  0  0  0
  -28.2589  -38.0126   24.7550 H   0  0  0  0  0  0
  -28.1100  -36.2662   24.6242 H   0  0  0  0  0  0
  -27.2307  -37.1407   25.8863 H   0  0  0  0  0  0
  -20.9264  -29.8747   21.6964 H   0  0  0  0  0  0
  -26.0181  -38.2885   24.1439 H   0  0  0  0  0  0
  -27.9560  -19.6832   21.3024 H   0  0  0  0  0  0
  -32.3086  -17.5041   20.3093 H   0  0  0  0  0  0
  -27.4210  -18.1012   22.9261 H   0  0  0  0  0  0
  -28.8092  -17.5824   23.8733 H   0  0  0  0  0  0
  -28.0891  -16.4951   22.6764 H   0  0  0  0  0  0
  -30.7704  -16.3194   23.3705 H   0  0  0  0  0  0
  -32.0935  -16.1412   22.2618 H   0  0  0  0  0  0
  -28.7519  -24.4214   20.9473 H   0  0  0  0  0  0
  -27.2292  -24.3006   20.1040 H   0  0  0  0  0  0
  -29.9110  -23.2926   19.0409 H   0  0  0  0  0  0
  -28.3844  -23.0875   18.2188 H   0  0  0  0  0  0
  -28.1228  -25.7762   18.2630 H   0  0  0  0  0  0
  -29.7078  -25.6855   18.9609 H   0  0  0  0  0  0
  -27.5750  -21.5651   19.9616 H   0  0  0  0  0  0
  -28.9359  -21.9788   21.0113 H   0  0  0  0  0  0
  -29.5978  -14.6434   22.3012 H   0  0  0  0  0  0
  1 25  1  0  0  0
  1 30  2  0  0  0
  1 83  1  0  0  0
  2  3  1  0  0  0
  2 25  1  0  0  0
  2 86  1  0  0  0
  2 87  1  0  0  0
  3  4  1  0  0  0
  3 88  1  0  0  0
  3 89  1  0  0  0
  4  5  1  0  0  0
  4 90  1  0  0  0
  4 91  1  0  0  0
  5  6  1  0  0  0
  5 26  1  0  0  0
  5 92  1  0  0  0
  6 25  1  0  0  0
  6 93  1  0  0  0
  6 94  1  0  0  0
  7  8  2  0  0  0
  7 26  1  0  0  0
  7 29  1  0  0  0
  8  9  1  0  0  0
  8 22  1  0  0  0
  9 10  1  0  0  0
  9 27  2  0  0  0
 10 11  2  0  0  0
 10 15  1  0  0  0
 11 12  1  0  0  0
 11 95  1  0  0  0
 12 13  2  0  0  0
 12 96  1  0  0  0
 13 14  1  0  0  0
 13 31  1  0  0  0
 14 15  2  0  0  0
 14 97  1  0  0  0
 15 98  1  0  0  0
 16 17  2  0  0  0
 16 21  1  0  0  0
 16 31  1  0  0  0
 17 18  1  0  0  0
 17 99  1  0  0  0
 18 19  2  0  0  0
 18100  1  0  0  0
 19 20  1  0  0  0
 19 24  1  0  0  0
 20 21  2  0  0  0
 20101  1  0  0  0
 21 23  1  0  0  0
 22 28  1  0  0  0
 22 32  2  0  0  0
 26 27  1  0  0  0
 28102  1  0  0  0
 28103  1  0  0  0
 29104  1  0  0  0
 29105  1  0  0  0
 33 34  1  0  0  0
 33 66  1  0  0  0
 33 70  2  0  0  0
 34 36  1  0  0  0
 34 59  1  0  0  0
 34106  1  0  0  0
 35 44  2  0  0  0
 35 45  1  0  0  0
 35 68  1  0  0  0
 36 56  1  0  0  0
 36107  1  0  0  0
 37 39  1  0  0  0
 37 47  1  0  0  0
 37 66  1  0  0  0
 37108  1  0  0  0
 38 43  2  0  0  0
 38 46  1  0  0  0
 38 47  1  0  0  0
 39 64  1  0  0  0
 39 67  2  0  0  0
 40 52  1  0  0  0
 40 53  2  0  0  0
 40 58  1  0  0  0
 41109  1  0  0  0
 41110  1  0  0  0
 41111  1  0  0  0
 41 48  1  0  0  0
 42 43  1  0  0  0
 42 66  1  0  0  0
 42112  1  0  0  0
 42113  1  0  0  0
 43 44  1  0  0  0
 44114  1  0  0  0
 45 46  2  0  0  0
 45115  1  0  0  0
 46116  1  0  0  0
 47117  1  0  0  0
 47118  1  0  0  0
 48 56  1  0  0  0
 48 65  1  0  0  0
 48119  1  0  0  0
 49 50  1  0  0  0
 49 53  1  0  0  0
 49 64  1  0  0  0
 49120  1  0  0  0
 50 51  1  0  0  0
 50121  1  0  0  0
 50122  1  0  0  0
 51 52  1  0  0  0
 51123  1  0  0  0
 51124  1  0  0  0
 52125  1  0  0  0
 52126  1  0  0  0
 53 54  1  0  0  0
 54 55  2  0  0  0
 54127  1  0  0  0
 55 57  1  0  0  0
 55128  1  0  0  0
 56 69  2  0  0  0
 57 58  2  0  0  0
 57129  1  0  0  0
 58130  1  0  0  0
 59 60  1  0  0  0
 59 61  1  0  0  0
 59 62  1  0  0  0
 60131  1  0  0  0
 60132  1  0  0  0
 60133  1  0  0  0
 61134  1  0  0  0
 61135  1  0  0  0
 61136  1  0  0  0
 62137  1  0  0  0
 62138  1  0  0  0
 62139  1  0  0  0
 63 65  1  0  0  0
 63140  1  0  0  0
 63141  1  0  0  0
 63142  1  0  0  0
 64143  1  0  0  0
 65144  1  0  0  0
 68 81  1  0  0  0
 71 73  2  0  0  0
 71 75  1  0  0  0
 71145  1  0  0  0
 72 74  2  0  0  0
 72 76  1  0  0  0
 72146  1  0  0  0
 73 74  1  0  0  0
 73 77  1  0  0  0
 74 78  1  0  0  0
 75 76  2  0  0  0
 75 84  1  0  0  0
 76 85  1  0  0  0
 77147  1  0  0  0
 77148  1  0  0  0
 77149  1  0  0  0
 78 83  1  0  0  0
 78150  1  0  0  0
 78151  1  0  0  0
 79 80  1  0  0  0
 79 81  1  0  0  0
 79152  1  0  0  0
 79153  1  0  0  0
 80 82  1  0  0  0
 80154  1  0  0  0
 80155  1  0  0  0
 81156  1  0  0  0
 81157  1  0  0  0
 82 84  1  0  0  0
 82158  1  0  0  0
 82159  1  0  0  0
 83160  1  0  0  0
M  ISO  4   1 100  68 101  81 101  83 100
M  END
> <chiral flag>
0

> <version>
0

> <s_m_source_file>
/data/baiqing/PycharmProjects/Reinvent-master-3.2/result/LINK_invent/BTK/process_docking_weight1_custom_product_contain_oxygen_bond_distance_aromatic_linkinvent_7_9_3/rearranged_h_0107.sdf

> <i_m_source_file_index>
90

> <r_mmod_Potential_Energy-OPLS-2005>
-118.609924316406

> <r_mmod_Stretch_Energy-OPLS-2005>
31.100622177124

> <r_mmod_Bend_Energy-OPLS-2005>
96.1908264160156

> <r_mmod_Torsional_Energy-OPLS-2005>
194.047286987305

> <r_mmod_Improper_Torsional_Energy-OPLS-2005>
1.99409699440002

> <r_mmod_Van_der_Waal_Energy-OPLS-2005>
157.068267822266

> <r_mmod_Electrostatic_Energy-OPLS-2005>
-396.985534667969

> <r_mmod_Solvation_Energy-OPLS-2005>
-209.997756958008

> <b_mmod_Minimization_Converged-OPLS-2005>
0

> <r_mmod_RMS_Derivative-OPLS-2005>
0.491566359996796

$$$$
90
                    3D
 Structure written by MMmdl.
151159  0  0  1  0            999 V2000
  -30.6351  -14.6159   21.0827 C   0  0  0  0  0  0
  -31.1856  -14.1839   18.9857 C   0  0  0  0  0  0
  -28.4318  -14.4113   17.3101 C   0  0  0  0  0  0
  -27.2121  -13.4641   18.2913 C   0  0  0  0  0  0
  -27.5049  -13.1261   20.0109 C   0  0  2  0  0  0
  -29.0478  -12.7460   20.8988 C   0  0  0  0  0  0
  -25.1867  -13.7553   20.6515 C   0  0  0  0  0  0
  -24.1145  -12.9930   20.9665 C   0  0  0  0  0  0
  -24.5769  -11.6419   20.9225 C   0  0  0  0  0  0
  -23.8596  -10.3959   21.0642 C   0  0  0  0  0  0
  -24.3313   -9.3943   21.9341 C   0  0  0  0  0  0
  -23.6078   -8.1966   22.0790 C   0  0  0  0  0  0
  -22.4079   -8.0083   21.3542 C   0  0  0  0  0  0
  -21.9676   -9.0023   20.4638 C   0  0  0  0  0  0
  -22.6920  -10.1911   20.3120 C   0  0  0  0  0  0
  -21.6744   -6.0648   22.5300 C   0  0  0  0  0  0
  -21.3942   -6.5592   23.8227 C   0  0  0  0  0  0
  -21.3625   -5.6766   24.9189 C   0  0  0  0  0  0
  -21.6035   -4.3035   24.7258 C   0  0  0  0  0  0
  -21.8824   -3.8110   23.4388 C   0  0  0  0  0  0
  -21.9160   -4.6904   22.3425 C   0  0  0  0  0  0
  -22.7264  -13.4963   21.1966 C   0  0  0  0  0  0
  -22.1651   -4.2105   21.1008 F   0  0  0  0  0  0
  -21.5622   -3.4525   25.7773 F   0  0  0  0  0  0
  -30.5926  -13.4636   20.5197 N   0  0  0  0  0  0
  -26.2285  -12.8358   20.5116 N   0  0  0  0  0  0
  -25.8708  -11.5635   20.6621 N   0  0  0  0  0  0
  -21.9776  -12.8086   22.0497 N   0  0  0  0  0  0
  -25.3433  -15.1327   20.4528 N   0  0  0  0  0  0
  -31.6939  -15.2296   21.1896 O   0  0  0  0  0  0
  -21.6462   -6.8714   21.4234 O   0  0  0  0  0  0
  -22.3240  -14.5360   20.6776 O   0  0  0  0  0  0
  -24.6975  -31.7932   23.1437 C   0  0  0  0  0  0
  -25.9523  -32.4453   23.7998 C   0  0  1  0  0  0
  -27.1616  -26.6525   20.0229 C   0  0  0  0  0  0
  -25.6046  -33.8284   24.1881 N   0  0  0  0  0  0
  -23.5148  -30.4024   21.5124 C   0  0  2  0  0  0
  -24.9367  -28.7370   20.0962 C   0  0  0  0  0  0
  -22.7810  -29.4291   22.4750 C   0  0  0  0  0  0
  -18.0346  -28.1440   22.8466 C   0  0  0  0  0  0
  -24.1478  -36.7150   23.2623 C   0  0  0  0  0  0
  -26.1040  -30.4855   21.4113 C   0  0  0  0  0  0
  -26.1455  -29.0543   20.7272 C   0  0  0  0  0  0
  -27.2459  -28.0363   20.6634 C   0  0  0  0  0  0
  -25.9078  -26.5560   19.3819 C   0  0  0  0  0  0
  -24.8546  -27.5141   19.4176 C   0  0  0  0  0  0
  -23.7518  -29.7138   20.1425 C   0  0  0  0  0  0
  -25.4130  -36.2902   24.0263 C   0  0  1  0  0  0
  -20.5987  -28.3795   23.1160 C   0  0  2  0  0  0
  -20.6822  -26.9457   22.5409 C   0  0  0  0  0  0
  -19.5781  -26.6373   21.5243 C   0  0  0  0  0  0
  -18.1963  -26.7968   22.1639 C   0  0  0  0  0  0
  -19.1615  -28.8948   23.2786 C   0  0  0  0  0  0
  -18.9507  -30.1536   23.8822 C   0  0  0  0  0  0
  -17.6492  -30.6617   24.0551 C   0  0  0  0  0  0
  -25.9154  -34.9303   23.4913 C   0  0  0  0  0  0
  -16.5386  -29.9097   23.6354 C   0  0  0  0  0  0
  -16.7322  -28.6526   23.0365 C   0  0  0  0  0  0
  -26.4619  -31.6547   25.0685 C   0  0  0  0  0  0
  -25.3603  -31.3928   26.1241 C   0  0  0  0  0  0
  -27.0573  -30.2889   24.6641 C   0  0  0  0  0  0
  -27.6038  -32.4427   25.7531 C   0  0  0  0  0  0
  -27.5620  -37.1648   24.8385 C   0  0  0  0  0  0
  -21.4452  -29.3049   22.3517 N   0  0  0  0  0  0
  -26.4216  -37.3721   23.9500 N   0  0  0  0  0  0
  -24.8003  -30.9275   22.0742 N   0  0  0  0  0  0
  -23.4251  -28.7871   23.3081 O   0  0  0  0  0  0
  -28.1016  -25.4128   19.8727 O   0  0  0  0  0  0
  -26.5810  -34.8917   22.4542 O   0  0  0  0  0  0
  -23.5986  -32.1062   23.6351 O   0  0  0  0  0  0
  -30.3545  -15.9932   17.3128 C   0  0  0  0  0  0
  -30.7483  -14.5916   16.6085 C   0  0  0  0  0  0
  -29.5142  -12.9088   18.4496 C   0  0  0  0  0  0
  -29.5082  -16.3160   18.6160 C   0  0  0  0  0  0
  -29.1310  -14.8756   19.3508 C   0  0  0  0  0  0
  -30.3625  -13.0855   17.0557 C   0  0  0  0  0  0
  -28.5704  -22.4811   19.3470 C   0  0  0  0  0  0
  -27.8655  -23.7981   19.7798 C   0  0  0  0  0  0
  -28.9681  -17.9405   19.1953 C   0  0  0  0  0  0
  -28.3053  -20.7775   19.4379 C   0  0  0  0  0  0
  -29.4905  -15.2014   20.7190 N   0  0  0  0  0  0
  -29.0197  -19.4782   18.8989 N   0  0  0  0  0  0
  -28.3308  -17.7419   20.2364 O   0  0  0  0  0  0
  -27.2942  -20.5098   20.0989 O   0  0  0  0  0  0
  -30.7438  -12.0137   16.3193 F   0  0  0  0  0  0
  -31.8133  -15.0832   18.9858 H   0  0  0  0  0  0
  -31.9713  -13.4746   18.6888 H   0  0  0  0  0  0
  -28.3563  -14.0453   16.2720 H   0  0  0  0  0  0
  -27.9349  -15.3804   17.1761 H   0  0  0  0  0  0
  -27.0640  -12.4992   17.7944 H   0  0  0  0  0  0
  -26.2481  -13.9549   18.1662 H   0  0  0  0  0  0
  -27.4376  -14.0606   20.5319 H   0  0  0  0  0  0
  -29.1981  -11.6685   20.8592 H   0  0  0  0  0  0
  -28.8565  -12.8896   21.9647 H   0  0  0  0  0  0
  -25.2423   -9.5459   22.4964 H   0  0  0  0  0  0
  -23.9800   -7.4341   22.7485 H   0  0  0  0  0  0
  -21.0625   -8.8529   19.8924 H   0  0  0  0  0  0
  -22.3439  -10.9505   19.6262 H   0  0  0  0  0  0
  -21.1923   -7.6104   23.9718 H   0  0  0  0  0  0
  -21.1441   -6.0500   25.9094 H   0  0  0  0  0  0
  -22.0648   -2.7584   23.2895 H   0  0  0  0  0  0
  -22.3225  -11.9650   22.4816 H   0  0  0  0  0  0
  -21.0441  -13.1269   22.2630 H   0  0  0  0  0  0
  -24.5698  -15.7845   20.5268 H   0  0  0  0  0  0
  -26.2017  -15.5747   20.1432 H   0  0  0  0  0  0
  -26.7614  -32.4860   23.0707 H   0  0  0  0  0  0
  -25.0094  -33.9295   24.9969 H   0  0  0  0  0  0
  -22.8454  -31.2468   21.3342 H   0  0  0  0  0  0
  -23.3861  -35.9340   23.3001 H   0  0  0  0  0  0
  -24.3602  -36.9125   22.2103 H   0  0  0  0  0  0
  -23.7049  -37.6154   23.6895 H   0  0  0  0  0  0
  -26.3321  -31.2168   20.6351 H   0  0  0  0  0  0
  -26.9509  -30.5275   22.0838 H   0  0  0  0  0  0
  -28.1780  -28.2786   21.1509 H   0  0  0  0  0  0
  -25.7030  -25.6496   18.8274 H   0  0  0  0  0  0
  -23.9378  -27.2779   18.8940 H   0  0  0  0  0  0
  -23.9379  -30.4819   19.3909 H   0  0  0  0  0  0
  -22.8433  -29.2048   19.8159 H   0  0  0  0  0  0
  -25.1296  -36.1607   25.0734 H   0  0  0  0  0  0
  -21.0048  -28.3399   24.1294 H   0  0  0  0  0  0
  -20.5733  -26.2404   23.3665 H   0  0  0  0  0  0
  -21.6671  -26.7428   22.1189 H   0  0  0  0  0  0
  -19.6922  -25.6258   21.1335 H   0  0  0  0  0  0
  -19.6717  -27.3135   20.6736 H   0  0  0  0  0  0
  -17.4235  -26.6730   21.4037 H   0  0  0  0  0  0
  -18.0324  -26.0139   22.9057 H   0  0  0  0  0  0
  -19.7973  -30.7389   24.2151 H   0  0  0  0  0  0
  -17.5027  -31.6289   24.5166 H   0  0  0  0  0  0
  -15.5377  -30.2961   23.7723 H   0  0  0  0  0  0
  -15.8729  -28.0815   22.7109 H   0  0  0  0  0  0
  -24.5766  -30.7343   25.7485 H   0  0  0  0  0  0
  -24.8814  -32.3189   26.4437 H   0  0  0  0  0  0
  -25.7662  -30.9184   27.0178 H   0  0  0  0  0  0
  -26.3306  -29.6468   24.1655 H   0  0  0  0  0  0
  -27.4022  -29.7398   25.5410 H   0  0  0  0  0  0
  -27.9273  -30.4057   24.0174 H   0  0  0  0  0  0
  -27.2542  -33.3754   26.1975 H   0  0  0  0  0  0
  -28.3920  -32.6965   25.0433 H   0  0  0  0  0  0
  -28.0644  -31.8664   26.5564 H   0  0  0  0  0  0
  -28.2300  -38.0264   24.7946 H   0  0  0  0  0  0
  -28.1453  -36.2865   24.5560 H   0  0  0  0  0  0
  -27.2447  -37.0475   25.8764 H   0  0  0  0  0  0
  -20.9772  -29.8735   21.6594 H   0  0  0  0  0  0
  -26.0018  -38.2687   24.1812 H   0  0  0  0  0  0
  -30.6591  -16.8704   16.7619 H   0  0  0  0  0  0
  -31.2850  -14.6740   15.6789 H   0  0  0  0  0  0
  -29.3847  -11.8915   18.7829 H   0  0  0  0  0  0
  -29.5212  -22.6905   18.8797 H   0  0  0  0  0  0
  -26.8862  -23.6165   20.2090 H   0  0  0  0  0  0
  -29.3930  -16.1764   20.9612 H   0  0  0  0  0  0
  -29.6792  -19.6703   18.1558 H   0  0  0  0  0  0
  1 25  1  0  0  0
  1 30  2  0  0  0
  1 81  1  0  0  0
  2  3  1  0  0  0
  2 25  1  0  0  0
  2 86  1  0  0  0
  2 87  1  0  0  0
  3  4  1  0  0  0
  3 88  1  0  0  0
  3 89  1  0  0  0
  4  5  1  0  0  0
  4 90  1  0  0  0
  4 91  1  0  0  0
  5  6  1  0  0  0
  5 26  1  0  0  0
  5 92  1  0  0  0
  6 25  1  0  0  0
  6 93  1  0  0  0
  6 94  1  0  0  0
  7  8  2  0  0  0
  7 26  1  0  0  0
  7 29  1  0  0  0
  8  9  1  0  0  0
  8 22  1  0  0  0
  9 10  1  0  0  0
  9 27  2  0  0  0
 10 11  2  0  0  0
 10 15  1  0  0  0
 11 12  1  0  0  0
 11 95  1  0  0  0
 12 13  2  0  0  0
 12 96  1  0  0  0
 13 14  1  0  0  0
 13 31  1  0  0  0
 14 15  2  0  0  0
 14 97  1  0  0  0
 15 98  1  0  0  0
 16 17  2  0  0  0
 16 21  1  0  0  0
 16 31  1  0  0  0
 17 18  1  0  0  0
 17 99  1  0  0  0
 18 19  2  0  0  0
 18100  1  0  0  0
 19 20  1  0  0  0
 19 24  1  0  0  0
 20 21  2  0  0  0
 20101  1  0  0  0
 21 23  1  0  0  0
 22 28  1  0  0  0
 22 32  2  0  0  0
 26 27  1  0  0  0
 28102  1  0  0  0
 28103  1  0  0  0
 29104  1  0  0  0
 29105  1  0  0  0
 33 34  1  0  0  0
 33 66  1  0  0  0
 33 70  2  0  0  0
 34 36  1  0  0  0
 34 59  1  0  0  0
 34106  1  0  0  0
 35 44  2  0  0  0
 35 45  1  0  0  0
 35 68  1  0  0  0
 36 56  1  0  0  0
 36107  1  0  0  0
 37 39  1  0  0  0
 37 47  1  0  0  0
 37 66  1  0  0  0
 37108  1  0  0  0
 38 43  2  0  0  0
 38 46  1  0  0  0
 38 47  1  0  0  0
 39 64  1  0  0  0
 39 67  2  0  0  0
 40 52  1  0  0  0
 40 53  2  0  0  0
 40 58  1  0  0  0
 41109  1  0  0  0
 41110  1  0  0  0
 41111  1  0  0  0
 41 48  1  0  0  0
 42 43  1  0  0  0
 42 66  1  0  0  0
 42112  1  0  0  0
 42113  1  0  0  0
 43 44  1  0  0  0
 44114  1  0  0  0
 45 46  2  0  0  0
 45115  1  0  0  0
 46116  1  0  0  0
 47117  1  0  0  0
 47118  1  0  0  0
 48 56  1  0  0  0
 48 65  1  0  0  0
 48119  1  0  0  0
 49 50  1  0  0  0
 49 53  1  0  0  0
 49 64  1  0  0  0
 49120  1  0  0  0
 50 51  1  0  0  0
 50121  1  0  0  0
 50122  1  0  0  0
 51 52  1  0  0  0
 51123  1  0  0  0
 51124  1  0  0  0
 52125  1  0  0  0
 52126  1  0  0  0
 53 54  1  0  0  0
 54 55  2  0  0  0
 54127  1  0  0  0
 55 57  1  0  0  0
 55128  1  0  0  0
 56 69  2  0  0  0
 57 58  2  0  0  0
 57129  1  0  0  0
 58130  1  0  0  0
 59 60  1  0  0  0
 59 61  1  0  0  0
 59 62  1  0  0  0
 60131  1  0  0  0
 60132  1  0  0  0
 60133  1  0  0  0
 61134  1  0  0  0
 61135  1  0  0  0
 61136  1  0  0  0
 62137  1  0  0  0
 62138  1  0  0  0
 62139  1  0  0  0
 63 65  1  0  0  0
 63140  1  0  0  0
 63141  1  0  0  0
 63142  1  0  0  0
 64143  1  0  0  0
 65144  1  0  0  0
 68 78  1  0  0  0
 71 72  2  0  0  0
 71 74  1  0  0  0
 71145  1  0  0  0
 72 76  1  0  0  0
 72146  1  0  0  0
 73 75  1  0  0  0
 73 76  2  0  0  0
 73147  1  0  0  0
 74 75  2  0  0  0
 74 79  1  0  0  0
 75 81  1  0  0  0
 76 85  1  0  0  0
 77 78  2  0  0  0
 77 80  1  0  0  0
 77148  1  0  0  0
 78149  1  0  0  0
 79 82  1  0  0  0
 79 83  2  0  0  0
 80 82  1  0  0  0
 80 84  2  0  0  0
 81150  1  0  0  0
 82151  1  0  0  0
M  ISO  4   1 100  68 101  78 101  81 100
M  END
> <chiral flag>
0

> <version>
0

> <s_m_source_file>
/data/baiqing/PycharmProjects/Reinvent-master-3.2/result/LINK_invent/BTK/process_docking_weight1_custom_product_contain_oxygen_bond_distance_aromatic_linkinvent_7_9_3/rearranged_h_0107.sdf

> <i_m_source_file_index>
91

> <r_mmod_Potential_Energy-OPLS-2005>
11753.2919921875

> <r_mmod_Stretch_Energy-OPLS-2005>
6522.70263671875

> <r_mmod_Bend_Energy-OPLS-2005>
899.805297851562

> <r_mmod_Torsional_Energy-OPLS-2005>
383.282745361328

> <r_mmod_Improper_Torsional_Energy-OPLS-2005>
57.2898368835449

> <r_mmod_Van_der_Waal_Energy-OPLS-2005>
2726.3505859375

> <r_mmod_Electrostatic_Energy-OPLS-2005>
-413.822143554688

> <r_mmod_Solvation_Energy-OPLS-2005>
-266.980010986328

> <b_mmod_Minimization_Converged-OPLS-2005>
0

> <r_mmod_RMS_Derivative-OPLS-2005>
11.3074254989624

$$$$
91
                    3D
 Structure written by MMmdl.
164173  0  0  1  0            999 V2000
  -30.7566  -14.3914   20.6366 C   0  0  0  0  0  0
  -30.4141  -12.2845   19.4086 C   0  0  0  0  0  0
  -29.4909  -12.5198   18.1978 C   0  0  0  0  0  0
  -28.0117  -12.3814   18.6100 C   0  0  0  0  0  0
  -27.6641  -13.2059   19.8783 C   0  0  2  0  0  0
  -28.7009  -12.9534   20.9938 C   0  0  0  0  0  0
  -25.2585  -13.8165   20.5637 C   0  0  0  0  0  0
  -24.1837  -13.0441   20.9152 C   0  0  0  0  0  0
  -24.6393  -11.6904   20.8724 C   0  0  0  0  0  0
  -23.9063  -10.4286   21.0395 C   0  0  0  0  0  0
  -24.3612   -9.4202   21.9179 C   0  0  0  0  0  0
  -23.6282   -8.2239   22.0754 C   0  0  0  0  0  0
  -22.4260   -8.0282   21.3546 C   0  0  0  0  0  0
  -21.9895   -9.0261   20.4655 C   0  0  0  0  0  0
  -22.7231  -10.2133   20.3056 C   0  0  0  0  0  0
  -21.6850   -6.0732   22.5279 C   0  0  0  0  0  0
  -21.4027   -6.5639   23.8216 C   0  0  0  0  0  0
  -21.3650   -5.6790   24.9177 C   0  0  0  0  0  0
  -21.6030   -4.3051   24.7228 C   0  0  0  0  0  0
  -21.8819   -3.8143   23.4352 C   0  0  0  0  0  0
  -21.9185   -4.6959   22.3405 C   0  0  0  0  0  0
  -22.7864  -13.5237   21.1838 C   0  0  0  0  0  0
  -22.1646   -4.2140   21.0985 F   0  0  0  0  0  0
  -21.5618   -3.4534   25.7743 F   0  0  0  0  0  0
  -30.0386  -13.2502   20.4529 N   0  0  0  0  0  0
  -26.3031  -12.9333   20.3360 N   0  0  0  0  0  0
  -25.9320  -11.6489   20.5753 N   0  0  0  0  0  0
  -22.0514  -12.8235   22.0416 N   0  0  0  0  0  0
  -25.4321  -15.1886   20.4023 N   0  0  0  0  0  0
  -31.8633  -14.5653   20.1133 O   0  0  0  0  0  0
  -21.6628   -6.8872   21.4239 O   0  0  0  0  0  0
  -22.3546  -14.5546   20.6697 O   0  0  0  0  0  0
  -24.6098  -31.8709   23.2131 C   0  0  0  0  0  0
  -25.9025  -32.4831   23.8392 C   0  0  1  0  0  0
  -27.2321  -27.4703   20.0980 C   0  0  0  0  0  0
  -25.5892  -33.8624   24.2328 N   0  0  0  0  0  0
  -23.3958  -30.4952   21.5526 C   0  0  2  0  0  0
  -24.8417  -28.9635   20.1184 C   0  0  0  0  0  0
  -22.7381  -29.4679   22.5008 C   0  0  0  0  0  0
  -18.0259  -28.1374   22.8493 C   0  0  0  0  0  0
  -24.1482  -36.7323   23.2639 C   0  0  0  0  0  0
  -25.9202  -30.8481   21.3608 C   0  0  0  0  0  0
  -25.9995  -29.4853   20.7085 C   0  0  0  0  0  0
  -27.2005  -28.7469   20.6934 C   0  0  0  0  0  0
  -26.0598  -26.9516   19.5064 C   0  0  0  0  0  0
  -24.8638  -27.6923   19.5176 C   0  0  0  0  0  0
  -23.6018  -29.8263   20.1670 C   0  0  0  0  0  0
  -25.4108  -36.3114   24.0333 C   0  0  1  0  0  0
  -20.5848  -28.3658   23.1325 C   0  0  2  0  0  0
  -20.6755  -26.9398   22.5421 C   0  0  0  0  0  0
  -19.5741  -26.6388   21.5206 C   0  0  0  0  0  0
  -18.1918  -26.7925   22.1616 C   0  0  0  0  0  0
  -19.1510  -28.8831   23.2906 C   0  0  0  0  0  0
  -18.9450  -30.1442   23.8914 C   0  0  0  0  0  0
  -17.6458  -30.6591   24.0565 C   0  0  0  0  0  0
  -25.9037  -34.9478   23.5128 C   0  0  0  0  0  0
  -16.5344  -29.9099   23.6323 C   0  0  0  0  0  0
  -16.7254  -28.6506   23.0355 C   0  0  0  0  0  0
  -26.4469  -31.6603   25.0709 C   0  0  0  0  0  0
  -25.3760  -31.3712   26.1476 C   0  0  0  0  0  0
  -27.0288  -30.3042   24.6074 C   0  0  0  0  0  0
  -27.6035  -32.4322   25.7483 C   0  0  0  0  0  0
  -27.5577  -37.1813   24.8463 C   0  0  0  0  0  0
  -21.4118  -29.3025   22.3734 N   0  0  0  0  0  0
  -26.4294  -37.3801   23.9410 N   0  0  0  0  0  0
  -24.6599  -31.0843   22.1014 N   0  0  0  0  0  0
  -23.4167  -28.8233   23.3052 O   0  0  0  0  0  0
  -28.3993  -26.7509   20.0850 O   0  0  0  0  0  0
  -26.5601  -34.8923   22.4690 O   0  0  0  0  0  0
  -23.5305  -32.1443   23.7558 O   0  0  0  0  0  0
  -29.7322  -18.7630   17.4308 C   0  0  0  0  0  0
  -29.1313  -20.0302   17.3034 C   0  0  0  0  0  0
  -28.4871  -20.0048   19.6789 C   0  0  0  0  0  0
  -29.6959  -18.1406   18.6869 C   0  0  0  0  0  0
  -29.0868  -18.7334   19.7841 C   0  0  0  0  0  0
  -28.5255  -20.6581   18.4174 C   0  0  0  0  0  0
  -28.1205  -23.0790   18.7842 C   0  0  0  0  0  0
  -30.2780  -16.8073   19.0331 C   0  0  0  0  0  0
  -29.1806  -17.8383   20.9995 C   0  0  0  0  0  0
  -30.2497  -16.7805   20.5921 C   0  0  2  0  0  0
  -29.9706  -15.4603   22.6550 C   0  0  0  0  0  0
  -28.9906  -23.1626   20.0522 C   0  0  0  0  0  0
  -29.4700  -24.5903   20.4072 C   0  0  0  0  0  0
  -28.3506  -25.5525   20.8569 C   0  0  0  0  0  0
  -27.9012  -21.9036   18.1806 N   0  0  0  0  0  0
  -30.0936  -15.4344   21.1911 N   0  0  0  0  0  0
  -27.6568  -24.1032   18.2810 O   0  0  0  0  0  0
  -31.4584  -12.3688   19.1051 H   0  0  0  0  0  0
  -30.2992  -11.2650   19.7816 H   0  0  0  0  0  0
  -29.7280  -11.8143   17.4001 H   0  0  0  0  0  0
  -29.6674  -13.5148   17.7870 H   0  0  0  0  0  0
  -27.8138  -11.3248   18.7931 H   0  0  0  0  0  0
  -27.3646  -12.6757   17.7836 H   0  0  0  0  0  0
  -27.7189  -14.2598   19.6063 H   0  0  0  0  0  0
  -28.6661  -11.9128   21.3167 H   0  0  0  0  0  0
  -28.4497  -13.5303   21.8810 H   0  0  0  0  0  0
  -25.2760   -9.5657   22.4761 H   0  0  0  0  0  0
  -23.9975   -7.4617   22.7468 H   0  0  0  0  0  0
  -21.0824   -8.8796   19.8968 H   0  0  0  0  0  0
  -22.3697  -10.9681   19.6167 H   0  0  0  0  0  0
  -21.2048   -7.6150   23.9719 H   0  0  0  0  0  0
  -21.1463   -6.0525   25.9078 H   0  0  0  0  0  0
  -22.0611   -2.7607   23.2863 H   0  0  0  0  0  0
  -22.4097  -11.9888   22.4798 H   0  0  0  0  0  0
  -21.1147  -13.1310   22.2647 H   0  0  0  0  0  0
  -24.6730  -15.8524   20.5083 H   0  0  0  0  0  0
  -26.2927  -15.6202   20.0905 H   0  0  0  0  0  0
  -26.7092  -32.5560   23.1153 H   0  0  0  0  0  0
  -25.0021  -33.9784   25.0453 H   0  0  0  0  0  0
  -22.6822  -31.3108   21.4156 H   0  0  0  0  0  0
  -23.3730  -35.9671   23.3331 H   0  0  0  0  0  0
  -24.3568  -36.8917   22.2049 H   0  0  0  0  0  0
  -23.7247  -37.6540   23.6638 H   0  0  0  0  0  0
  -26.0275  -31.6172   20.5946 H   0  0  0  0  0  0
  -26.8093  -30.8999   21.9777 H   0  0  0  0  0  0
  -28.0976  -29.1470   21.1445 H   0  0  0  0  0  0
  -26.0711  -25.9781   19.0371 H   0  0  0  0  0  0
  -23.9708  -27.2817   19.0662 H   0  0  0  0  0  0
  -23.7085  -30.6008   19.4074 H   0  0  0  0  0  0
  -22.7256  -29.2451   19.8713 H   0  0  0  0  0  0
  -25.1280  -36.1982   25.0825 H   0  0  0  0  0  0
  -20.9924  -28.3224   24.1451 H   0  0  0  0  0  0
  -20.5651  -26.2266   23.3609 H   0  0  0  0  0  0
  -21.6635  -26.7451   22.1223 H   0  0  0  0  0  0
  -19.6916  -25.6301   21.1231 H   0  0  0  0  0  0
  -19.6690  -27.3201   20.6742 H   0  0  0  0  0  0
  -17.4191  -26.6663   21.4021 H   0  0  0  0  0  0
  -18.0333  -26.0058   22.9003 H   0  0  0  0  0  0
  -19.7935  -30.7241   24.2293 H   0  0  0  0  0  0
  -17.5027  -31.6277   24.5162 H   0  0  0  0  0  0
  -15.5352  -30.3018   23.7650 H   0  0  0  0  0  0
  -15.8646  -28.0840   22.7075 H   0  0  0  0  0  0
  -24.5918  -30.7065   25.7837 H   0  0  0  0  0  0
  -24.8972  -32.2874   26.4939 H   0  0  0  0  0  0
  -25.8140  -30.8877   27.0221 H   0  0  0  0  0  0
  -26.2818  -29.6822   24.1126 H   0  0  0  0  0  0
  -27.4054  -29.7255   25.4524 H   0  0  0  0  0  0
  -27.8658  -30.4356   23.9213 H   0  0  0  0  0  0
  -27.2637  -33.3604   26.2094 H   0  0  0  0  0  0
  -28.3841  -32.6926   25.0321 H   0  0  0  0  0  0
  -28.0714  -31.8434   26.5386 H   0  0  0  0  0  0
  -28.2605  -38.0098   24.7495 H   0  0  0  0  0  0
  -28.1054  -36.2627   24.6301 H   0  0  0  0  0  0
  -27.2292  -37.1491   25.8865 H   0  0  0  0  0  0
  -20.9277  -29.8717   21.6928 H   0  0  0  0  0  0
  -26.0179  -38.2878   24.1415 H   0  0  0  0  0  0
  -30.2037  -18.2855   16.5834 H   0  0  0  0  0  0
  -29.1455  -20.5222   16.3408 H   0  0  0  0  0  0
  -28.0025  -20.4557   20.5341 H   0  0  0  0  0  0
  -31.2850  -16.7002   18.6248 H   0  0  0  0  0  0
  -29.6371  -16.0402   18.5959 H   0  0  0  0  0  0
  -28.2060  -17.3808   21.1745 H   0  0  0  0  0  0
  -29.4695  -18.3978   21.8906 H   0  0  0  0  0  0
  -31.2151  -17.1758   20.9160 H   0  0  0  0  0  0
  -28.9317  -15.6281   22.9396 H   0  0  0  0  0  0
  -30.5733  -16.2561   23.0928 H   0  0  0  0  0  0
  -30.2923  -14.5268   23.1242 H   0  0  0  0  0  0
  -29.8700  -22.5320   19.9168 H   0  0  0  0  0  0
  -28.4327  -22.7416   20.8889 H   0  0  0  0  0  0
  -30.2104  -24.5199   21.2042 H   0  0  0  0  0  0
  -30.0076  -25.0132   19.5565 H   0  0  0  0  0  0
  -28.4927  -25.8216   21.9047 H   0  0  0  0  0  0
  -27.3768  -25.0630   20.8058 H   0  0  0  0  0  0
  -27.3906  -21.9755   17.3117 H   0  0  0  0  0  0
  1 25  1  0  0  0
  1 30  2  0  0  0
  1 86  1  0  0  0
  2  3  1  0  0  0
  2 25  1  0  0  0
  2 88  1  0  0  0
  2 89  1  0  0  0
  3  4  1  0  0  0
  3 90  1  0  0  0
  3 91  1  0  0  0
  4  5  1  0  0  0
  4 92  1  0  0  0
  4 93  1  0  0  0
  5  6  1  0  0  0
  5 26  1  0  0  0
  5 94  1  0  0  0
  6 25  1  0  0  0
  6 95  1  0  0  0
  6 96  1  0  0  0
  7  8  2  0  0  0
  7 26  1  0  0  0
  7 29  1  0  0  0
  8  9  1  0  0  0
  8 22  1  0  0  0
  9 10  1  0  0  0
  9 27  2  0  0  0
 10 11  2  0  0  0
 10 15  1  0  0  0
 11 12  1  0  0  0
 11 97  1  0  0  0
 12 13  2  0  0  0
 12 98  1  0  0  0
 13 14  1  0  0  0
 13 31  1  0  0  0
 14 15  2  0  0  0
 14 99  1  0  0  0
 15100  1  0  0  0
 16 17  2  0  0  0
 16 21  1  0  0  0
 16 31  1  0  0  0
 17 18  1  0  0  0
 17101  1  0  0  0
 18 19  2  0  0  0
 18102  1  0  0  0
 19 20  1  0  0  0
 19 24  1  0  0  0
 20 21  2  0  0  0
 20103  1  0  0  0
 21 23  1  0  0  0
 22 28  1  0  0  0
 22 32  2  0  0  0
 26 27  1  0  0  0
 28104  1  0  0  0
 28105  1  0  0  0
 29106  1  0  0  0
 29107  1  0  0  0
 33 34  1  0  0  0
 33 66  1  0  0  0
 33 70  2  0  0  0
 34 36  1  0  0  0
 34 59  1  0  0  0
 34108  1  0  0  0
 35 44  2  0  0  0
 35 45  1  0  0  0
 35 68  1  0  0  0
 36 56  1  0  0  0
 36109  1  0  0  0
 37 39  1  0  0  0
 37 47  1  0  0  0
 37 66  1  0  0  0
 37110  1  0  0  0
 38 43  2  0  0  0
 38 46  1  0  0  0
 38 47  1  0  0  0
 39 64  1  0  0  0
 39 67  2  0  0  0
 40 52  1  0  0  0
 40 53  2  0  0  0
 40 58  1  0  0  0
 41111  1  0  0  0
 41112  1  0  0  0
 41113  1  0  0  0
 41 48  1  0  0  0
 42 43  1  0  0  0
 42 66  1  0  0  0
 42114  1  0  0  0
 42115  1  0  0  0
 43 44  1  0  0  0
 44116  1  0  0  0
 45 46  2  0  0  0
 45117  1  0  0  0
 46118  1  0  0  0
 47119  1  0  0  0
 47120  1  0  0  0
 48 56  1  0  0  0
 48 65  1  0  0  0
 48121  1  0  0  0
 49 50  1  0  0  0
 49 53  1  0  0  0
 49 64  1  0  0  0
 49122  1  0  0  0
 50 51  1  0  0  0
 50123  1  0  0  0
 50124  1  0  0  0
 51 52  1  0  0  0
 51125  1  0  0  0
 51126  1  0  0  0
 52127  1  0  0  0
 52128  1  0  0  0
 53 54  1  0  0  0
 54 55  2  0  0  0
 54129  1  0  0  0
 55 57  1  0  0  0
 55130  1  0  0  0
 56 69  2  0  0  0
 57 58  2  0  0  0
 57131  1  0  0  0
 58132  1  0  0  0
 59 60  1  0  0  0
 59 61  1  0  0  0
 59 62  1  0  0  0
 60133  1  0  0  0
 60134  1  0  0  0
 60135  1  0  0  0
 61136  1  0  0  0
 61137  1  0  0  0
 61138  1  0  0  0
 62139  1  0  0  0
 62140  1  0  0  0
 62141  1  0  0  0
 63 65  1  0  0  0
 63142  1  0  0  0
 63143  1  0  0  0
 63144  1  0  0  0
 64145  1  0  0  0
 65146  1  0  0  0
 68 84  1  0  0  0
 71 72  2  0  0  0
 71 74  1  0  0  0
 71147  1  0  0  0
 72 76  1  0  0  0
 72148  1  0  0  0
 73 75  1  0  0  0
 73 76  2  0  0  0
 73149  1  0  0  0
 74 75  2  0  0  0
 74 78  1  0  0  0
 75 79  1  0  0  0
 76 85  1  0  0  0
 77 82  1  0  0  0
 77 85  1  0  0  0
 77 87  2  0  0  0
 78 80  1  0  0  0
 78150  1  0  0  0
 78151  1  0  0  0
 79 80  1  0  0  0
 79152  1  0  0  0
 79153  1  0  0  0
 80 86  1  0  0  0
 80154  1  0  0  0
 81 86  1  0  0  0
 81155  1  0  0  0
 81156  1  0  0  0
 81157  1  0  0  0
 82 83  1  0  0  0
 82158  1  0  0  0
 82159  1  0  0  0
 83 84  1  0  0  0
 83160  1  0  0  0
 83161  1  0  0  0
 84162  1  0  0  0
 84163  1  0  0  0
 85164  1  0  0  0
M  ISO  4   1 100  68 101  84 101  86 100
M  END
> <chiral flag>
0

> <version>
0

> <s_m_source_file>
/data/baiqing/PycharmProjects/Reinvent-master-3.2/result/LINK_invent/BTK/process_docking_weight1_custom_product_contain_oxygen_bond_distance_aromatic_linkinvent_7_9_3/rearranged_h_0107.sdf

> <i_m_source_file_index>
92

> <r_mmod_Potential_Energy-OPLS-2005>
105.904434204102

> <r_mmod_Stretch_Energy-OPLS-2005>
37.1266250610352

> <r_mmod_Bend_Energy-OPLS-2005>
145.826217651367

> <r_mmod_Torsional_Energy-OPLS-2005>
335.313812255859

> <r_mmod_Improper_Torsional_Energy-OPLS-2005>
10.0273218154907

> <r_mmod_Van_der_Waal_Energy-OPLS-2005>
155.84375

> <r_mmod_Electrostatic_Energy-OPLS-2005>
-379.685241699219

> <r_mmod_Solvation_Energy-OPLS-2005>
-207.641647338867

> <b_mmod_Minimization_Converged-OPLS-2005>
0

> <r_mmod_RMS_Derivative-OPLS-2005>
2.06280612945557

$$$$
92
                    3D
 Structure written by MMmdl.
156164  0  0  1  0            999 V2000
  -30.7559  -14.4239   20.5952 C   0  0  0  0  0  0
  -30.4040  -12.2980   19.4030 C   0  0  0  0  0  0
  -29.4779  -12.5065   18.1901 C   0  0  0  0  0  0
  -28.0027  -12.3638   18.6123 C   0  0  0  0  0  0
  -27.6540  -13.2110   19.8652 C   0  0  2  0  0  0
  -28.6999  -13.0112   20.9848 C   0  0  0  0  0  0
  -25.2579  -13.8183   20.5689 C   0  0  0  0  0  0
  -24.1842  -13.0453   20.9201 C   0  0  0  0  0  0
  -24.6396  -11.6922   20.8738 C   0  0  0  0  0  0
  -23.9078  -10.4299   21.0417 C   0  0  0  0  0  0
  -24.3620   -9.4211   21.9195 C   0  0  0  0  0  0
  -23.6299   -8.2245   22.0755 C   0  0  0  0  0  0
  -22.4287   -8.0287   21.3546 C   0  0  0  0  0  0
  -21.9929   -9.0261   20.4646 C   0  0  0  0  0  0
  -22.7252  -10.2140   20.3061 C   0  0  0  0  0  0
  -21.6852   -6.0751   22.5289 C   0  0  0  0  0  0
  -21.4005   -6.5657   23.8220 C   0  0  0  0  0  0
  -21.3644   -5.6815   24.9177 C   0  0  0  0  0  0
  -21.6048   -4.3070   24.7225 C   0  0  0  0  0  0
  -21.8816   -3.8169   23.4342 C   0  0  0  0  0  0
  -21.9189   -4.6991   22.3403 C   0  0  0  0  0  0
  -22.7871  -13.5234   21.1878 C   0  0  0  0  0  0
  -22.1669   -4.2176   21.0984 F   0  0  0  0  0  0
  -21.5624   -3.4551   25.7741 F   0  0  0  0  0  0
  -30.0253  -13.2930   20.4164 N   0  0  0  0  0  0
  -26.2992  -12.9362   20.3333 N   0  0  0  0  0  0
  -25.9311  -11.6511   20.5756 N   0  0  0  0  0  0
  -22.0516  -12.8194   22.0405 N   0  0  0  0  0  0
  -25.4333  -15.1892   20.4081 N   0  0  0  0  0  0
  -31.9070  -14.5292   20.1612 O   0  0  0  0  0  0
  -21.6629   -6.8895   21.4258 O   0  0  0  0  0  0
  -22.3562  -14.5545   20.6745 O   0  0  0  0  0  0
  -24.6127  -31.8691   23.2149 C   0  0  0  0  0  0
  -25.9018  -32.4829   23.8445 C   0  0  1  0  0  0
  -27.2347  -27.4575   20.1061 C   0  0  0  0  0  0
  -25.5905  -33.8633   24.2376 N   0  0  0  0  0  0
  -23.4020  -30.4905   21.5542 C   0  0  2  0  0  0
  -24.8483  -28.9604   20.1180 C   0  0  0  0  0  0
  -22.7407  -29.4663   22.5024 C   0  0  0  0  0  0
  -18.0257  -28.1359   22.8515 C   0  0  0  0  0  0
  -24.1474  -36.7297   23.2642 C   0  0  0  0  0  0
  -25.9276  -30.8443   21.3631 C   0  0  0  0  0  0
  -26.0069  -29.4809   20.7080 C   0  0  0  0  0  0
  -27.2061  -28.7377   20.6960 C   0  0  0  0  0  0
  -26.0641  -26.9407   19.5116 C   0  0  0  0  0  0
  -24.8694  -27.6878   19.5177 C   0  0  0  0  0  0
  -23.6080  -29.8236   20.1706 C   0  0  0  0  0  0
  -25.4102  -36.3114   24.0342 C   0  0  1  0  0  0
  -20.5856  -28.3667   23.1311 C   0  0  2  0  0  0
  -20.6759  -26.9401   22.5413 C   0  0  0  0  0  0
  -19.5741  -26.6385   21.5209 C   0  0  0  0  0  0
  -18.1909  -26.7921   22.1613 C   0  0  0  0  0  0
  -19.1514  -28.8820   23.2901 C   0  0  0  0  0  0
  -18.9443  -30.1429   23.8907 C   0  0  0  0  0  0
  -17.6451  -30.6579   24.0574 C   0  0  0  0  0  0
  -25.9034  -34.9475   23.5154 C   0  0  0  0  0  0
  -16.5338  -29.9092   23.6339 C   0  0  0  0  0  0
  -16.7253  -28.6495   23.0391 C   0  0  0  0  0  0
  -26.4483  -31.6599   25.0743 C   0  0  0  0  0  0
  -25.3751  -31.3654   26.1484 C   0  0  0  0  0  0
  -27.0371  -30.3064   24.6108 C   0  0  0  0  0  0
  -27.6074  -32.4336   25.7495 C   0  0  0  0  0  0
  -27.5584  -37.1779   24.8457 C   0  0  0  0  0  0
  -21.4141  -29.3028   22.3712 N   0  0  0  0  0  0
  -26.4285  -37.3805   23.9429 N   0  0  0  0  0  0
  -24.6656  -31.0821   22.1030 N   0  0  0  0  0  0
  -23.4157  -28.8201   23.3064 O   0  0  0  0  0  0
  -28.3892  -26.7174   20.1196 O   0  0  0  0  0  0
  -26.5596  -34.8905   22.4711 O   0  0  0  0  0  0
  -23.5309  -32.1443   23.7535 O   0  0  0  0  0  0
  -29.1797  -19.5825   19.4502 C   0  0  0  0  0  0
  -29.0850  -20.1186   21.8167 C   0  0  0  0  0  0
  -29.9377  -17.9261   21.0964 C   0  0  0  0  0  0
  -29.7114  -18.3053   19.7390 C   0  0  0  0  0  0
  -28.8849  -20.5060   20.4738 C   0  0  0  0  0  0
  -29.6096  -18.8437   22.1253 C   0  0  0  0  0  0
  -30.6592  -16.6486   21.4471 C   0  0  0  0  0  0
  -28.5141  -24.2594   20.1751 C   0  0  0  0  0  0
  -30.0814  -17.4127   18.5577 C   0  0  0  0  0  0
  -28.6231  -22.9420   20.9649 C   0  0  0  0  0  0
  -28.3247  -25.5611   20.9713 C   0  0  0  0  0  0
  -28.4078  -21.7750   20.1026 N   0  0  0  0  0  0
  -30.0847  -15.4908   21.0664 N   0  0  0  0  0  0
  -31.7556  -16.7173   22.0184 O   0  0  0  0  0  0
  -28.5741  -24.2532   18.9390 O   0  0  0  0  0  0
  -29.8075  -18.5169   23.4278 F   0  0  0  0  0  0
  -31.4462  -12.3770   19.0911 H   0  0  0  0  0  0
  -30.2906  -11.2897   19.8018 H   0  0  0  0  0  0
  -29.7120  -11.7864   17.4039 H   0  0  0  0  0  0
  -29.6432  -13.4951   17.7591 H   0  0  0  0  0  0
  -27.8210  -11.3086   18.8177 H   0  0  0  0  0  0
  -27.3442  -12.6289   17.7839 H   0  0  0  0  0  0
  -27.6933  -14.2543   19.5554 H   0  0  0  0  0  0
  -28.6725  -11.9868   21.3585 H   0  0  0  0  0  0
  -28.4725  -13.6434   21.8457 H   0  0  0  0  0  0
  -25.2757   -9.5678   22.4776 H   0  0  0  0  0  0
  -24.0018   -7.4623   22.7459 H   0  0  0  0  0  0
  -21.0873   -8.8775   19.8932 H   0  0  0  0  0  0
  -22.3728  -10.9687   19.6165 H   0  0  0  0  0  0
  -21.2000   -7.6166   23.9733 H   0  0  0  0  0  0
  -21.1471   -6.0537   25.9081 H   0  0  0  0  0  0
  -22.0606   -2.7639   23.2837 H   0  0  0  0  0  0
  -22.4151  -11.9825   22.4723 H   0  0  0  0  0  0
  -21.1132  -13.1210   22.2633 H   0  0  0  0  0  0
  -24.6654  -15.8438   20.5028 H   0  0  0  0  0  0
  -26.2832  -15.6249   20.0743 H   0  0  0  0  0  0
  -26.7097  -32.5548   23.1228 H   0  0  0  0  0  0
  -25.0090  -33.9831   25.0546 H   0  0  0  0  0  0
  -22.6892  -31.3043   21.4157 H   0  0  0  0  0  0
  -23.3747  -35.9614   23.3280 H   0  0  0  0  0  0
  -24.3575  -36.8945   22.2060 H   0  0  0  0  0  0
  -23.7193  -37.6469   23.6689 H   0  0  0  0  0  0
  -26.0363  -31.6127   20.5950 H   0  0  0  0  0  0
  -26.8150  -30.8946   21.9841 H   0  0  0  0  0  0
  -28.1034  -29.1416   21.1466 H   0  0  0  0  0  0
  -26.0752  -25.9650   19.0487 H   0  0  0  0  0  0
  -23.9757  -27.2808   19.0637 H   0  0  0  0  0  0
  -23.7117  -30.5977   19.4101 H   0  0  0  0  0  0
  -22.7324  -29.2377   19.8851 H   0  0  0  0  0  0
  -25.1269  -36.1984   25.0829 H   0  0  0  0  0  0
  -20.9948  -28.3250   24.1438 H   0  0  0  0  0  0
  -20.5668  -26.2280   23.3608 H   0  0  0  0  0  0
  -21.6627  -26.7446   22.1192 H   0  0  0  0  0  0
  -19.6908  -25.6296   21.1232 H   0  0  0  0  0  0
  -19.6674  -27.3199   20.6749 H   0  0  0  0  0  0
  -17.4183  -26.6698   21.3988 H   0  0  0  0  0  0
  -18.0254  -26.0031   22.8970 H   0  0  0  0  0  0
  -19.7923  -30.7250   24.2280 H   0  0  0  0  0  0
  -17.5006  -31.6270   24.5169 H   0  0  0  0  0  0
  -15.5335  -30.3004   23.7654 H   0  0  0  0  0  0
  -15.8648  -28.0815   22.7131 H   0  0  0  0  0  0
  -24.6034  -30.6874   25.7833 H   0  0  0  0  0  0
  -24.8795  -32.2750   26.4871 H   0  0  0  0  0  0
  -25.8126  -30.8926   27.0284 H   0  0  0  0  0  0
  -26.2939  -29.6726   24.1260 H   0  0  0  0  0  0
  -27.4275  -29.7387   25.4567 H   0  0  0  0  0  0
  -27.8683  -30.4422   23.9190 H   0  0  0  0  0  0
  -27.2755  -33.3708   26.1984 H   0  0  0  0  0  0
  -28.3916  -32.6773   25.0311 H   0  0  0  0  0  0
  -28.0682  -31.8490   26.5462 H   0  0  0  0  0  0
  -28.2561  -38.0123   24.7609 H   0  0  0  0  0  0
  -28.1136  -36.2654   24.6188 H   0  0  0  0  0  0
  -27.2304  -37.1306   25.8860 H   0  0  0  0  0  0
  -20.9274  -29.8729   21.6932 H   0  0  0  0  0  0
  -26.0155  -38.2870   24.1492 H   0  0  0  0  0  0
  -29.0308  -19.8657   18.4174 H   0  0  0  0  0  0
  -28.8572  -20.7917   22.6297 H   0  0  0  0  0  0
  -30.1263  -17.9839   17.6275 H   0  0  0  0  0  0
  -29.3410  -16.6232   18.4187 H   0  0  0  0  0  0
  -31.0626  -16.9531   18.6860 H   0  0  0  0  0  0
  -27.8945  -22.9494   21.7774 H   0  0  0  0  0  0
  -29.6116  -22.8989   21.4270 H   0  0  0  0  0  0
  -29.1028  -25.6403   21.7290 H   0  0  0  0  0  0
  -27.3740  -25.5093   21.5075 H   0  0  0  0  0  0
  -28.4442  -22.0100   19.1120 H   0  0  0  0  0  0
  -29.0823  -15.4670   20.9873 H   0  0  0  0  0  0
  1 25  1  0  0  0
  1 30  2  0  0  0
  1 83  1  0  0  0
  2  3  1  0  0  0
  2 25  1  0  0  0
  2 87  1  0  0  0
  2 88  1  0  0  0
  3  4  1  0  0  0
  3 89  1  0  0  0
  3 90  1  0  0  0
  4  5  1  0  0  0
  4 91  1  0  0  0
  4 92  1  0  0  0
  5  6  1  0  0  0
  5 26  1  0  0  0
  5 93  1  0  0  0
  6 25  1  0  0  0
  6 94  1  0  0  0
  6 95  1  0  0  0
  7  8  2  0  0  0
  7 26  1  0  0  0
  7 29  1  0  0  0
  8  9  1  0  0  0
  8 22  1  0  0  0
  9 10  1  0  0  0
  9 27  2  0  0  0
 10 11  2  0  0  0
 10 15  1  0  0  0
 11 12  1  0  0  0
 11 96  1  0  0  0
 12 13  2  0  0  0
 12 97  1  0  0  0
 13 14  1  0  0  0
 13 31  1  0  0  0
 14 15  2  0  0  0
 14 98  1  0  0  0
 15 99  1  0  0  0
 16 17  2  0  0  0
 16 21  1  0  0  0
 16 31  1  0  0  0
 17 18  1  0  0  0
 17100  1  0  0  0
 18 19  2  0  0  0
 18101  1  0  0  0
 19 20  1  0  0  0
 19 24  1  0  0  0
 20 21  2  0  0  0
 20102  1  0  0  0
 21 23  1  0  0  0
 22 28  1  0  0  0
 22 32  2  0  0  0
 26 27  1  0  0  0
 28103  1  0  0  0
 28104  1  0  0  0
 29105  1  0  0  0
 29106  1  0  0  0
 33 34  1  0  0  0
 33 66  1  0  0  0
 33 70  2  0  0  0
 34 36  1  0  0  0
 34 59  1  0  0  0
 34107  1  0  0  0
 35 44  2  0  0  0
 35 45  1  0  0  0
 35 68  1  0  0  0
 36 56  1  0  0  0
 36108  1  0  0  0
 37 39  1  0  0  0
 37 47  1  0  0  0
 37 66  1  0  0  0
 37109  1  0  0  0
 38 43  2  0  0  0
 38 46  1  0  0  0
 38 47  1  0  0  0
 39 64  1  0  0  0
 39 67  2  0  0  0
 40 52  1  0  0  0
 40 53  2  0  0  0
 40 58  1  0  0  0
 41110  1  0  0  0
 41111  1  0  0  0
 41112  1  0  0  0
 41 48  1  0  0  0
 42 43  1  0  0  0
 42 66  1  0  0  0
 42113  1  0  0  0
 42114  1  0  0  0
 43 44  1  0  0  0
 44115  1  0  0  0
 45 46  2  0  0  0
 45116  1  0  0  0
 46117  1  0  0  0
 47118  1  0  0  0
 47119  1  0  0  0
 48 56  1  0  0  0
 48 65  1  0  0  0
 48120  1  0  0  0
 49 50  1  0  0  0
 49 53  1  0  0  0
 49 64  1  0  0  0
 49121  1  0  0  0
 50 51  1  0  0  0
 50122  1  0  0  0
 50123  1  0  0  0
 51 52  1  0  0  0
 51124  1  0  0  0
 51125  1  0  0  0
 52126  1  0  0  0
 52127  1  0  0  0
 53 54  1  0  0  0
 54 55  2  0  0  0
 54128  1  0  0  0
 55 57  1  0  0  0
 55129  1  0  0  0
 56 69  2  0  0  0
 57 58  2  0  0  0
 57130  1  0  0  0
 58131  1  0  0  0
 59 60  1  0  0  0
 59 61  1  0  0  0
 59 62  1  0  0  0
 60132  1  0  0  0
 60133  1  0  0  0
 60134  1  0  0  0
 61135  1  0  0  0
 61136  1  0  0  0
 61137  1  0  0  0
 62138  1  0  0  0
 62139  1  0  0  0
 62140  1  0  0  0
 63 65  1  0  0  0
 63141  1  0  0  0
 63142  1  0  0  0
 63143  1  0  0  0
 64144  1  0  0  0
 65145  1  0  0  0
 68 81  1  0  0  0
 71 74  2  0  0  0
 71 75  1  0  0  0
 71146  1  0  0  0
 72 75  2  0  0  0
 72 76  1  0  0  0
 72147  1  0  0  0
 73 74  1  0  0  0
 73 76  2  0  0  0
 73 77  1  0  0  0
 74 79  1  0  0  0
 75 82  1  0  0  0
 76 86  1  0  0  0
 77 83  1  0  0  0
 77 84  2  0  0  0
 78 80  1  0  0  0
 78 81  1  0  0  0
 78 85  2  0  0  0
 79148  1  0  0  0
 79149  1  0  0  0
 79150  1  0  0  0
 80 82  1  0  0  0
 80151  1  0  0  0
 80152  1  0  0  0
 81153  1  0  0  0
 81154  1  0  0  0
 82155  1  0  0  0
 83156  1  0  0  0
M  ISO  4   1 100  68 101  81 101  83 100
M  END
> <chiral flag>
0

> <version>
0

> <s_m_source_file>
/data/baiqing/PycharmProjects/Reinvent-master-3.2/result/LINK_invent/BTK/process_docking_weight1_custom_product_contain_oxygen_bond_distance_aromatic_linkinvent_7_9_3/rearranged_h_0107.sdf

> <i_m_source_file_index>
93

> <r_mmod_Potential_Energy-OPLS-2005>
12.2316722869873

> <r_mmod_Stretch_Energy-OPLS-2005>
35.7087249755859

> <r_mmod_Bend_Energy-OPLS-2005>
94.6155548095703

> <r_mmod_Torsional_Energy-OPLS-2005>
270.920318603516

> <r_mmod_Improper_Torsional_Energy-OPLS-2005>
8.70365524291992

> <r_mmod_Van_der_Waal_Energy-OPLS-2005>
157.929321289062

> <r_mmod_Electrostatic_Energy-OPLS-2005>
-327.171264648438

> <r_mmod_Solvation_Energy-OPLS-2005>
-242.971710205078

> <b_mmod_Minimization_Converged-OPLS-2005>
0

> <r_mmod_RMS_Derivative-OPLS-2005>
3.38539266586304

$$$$
93
                    3D
 Structure written by MMmdl.
160168  0  0  1  0            999 V2000
  -30.7134  -14.4732   20.6306 C   0  0  0  0  0  0
  -30.4245  -12.3331   19.4133 C   0  0  0  0  0  0
  -29.4908  -12.5215   18.2016 C   0  0  0  0  0  0
  -28.0136  -12.3717   18.6176 C   0  0  0  0  0  0
  -27.6611  -13.2080   19.8779 C   0  0  2  0  0  0
  -28.7021  -12.9868   20.9975 C   0  0  0  0  0  0
  -25.2601  -13.8145   20.5687 C   0  0  0  0  0  0
  -24.1842  -13.0421   20.9180 C   0  0  0  0  0  0
  -24.6384  -11.6886   20.8709 C   0  0  0  0  0  0
  -23.9040  -10.4276   21.0355 C   0  0  0  0  0  0
  -24.3603   -9.4206   21.9142 C   0  0  0  0  0  0
  -23.6283   -8.2241   22.0728 C   0  0  0  0  0  0
  -22.4261   -8.0262   21.3526 C   0  0  0  0  0  0
  -21.9895   -9.0225   20.4617 C   0  0  0  0  0  0
  -22.7206  -10.2113   20.3019 C   0  0  0  0  0  0
  -21.6855   -6.0724   22.5267 C   0  0  0  0  0  0
  -21.4008   -6.5624   23.8194 C   0  0  0  0  0  0
  -21.3672   -5.6780   24.9161 C   0  0  0  0  0  0
  -21.6055   -4.3042   24.7209 C   0  0  0  0  0  0
  -21.8824   -3.8135   23.4332 C   0  0  0  0  0  0
  -21.9197   -4.6957   22.3390 C   0  0  0  0  0  0
  -22.7869  -13.5208   21.1853 C   0  0  0  0  0  0
  -22.1667   -4.2142   21.0972 F   0  0  0  0  0  0
  -21.5645   -3.4527   25.7731 F   0  0  0  0  0  0
  -30.0300  -13.3084   20.4457 N   0  0  0  0  0  0
  -26.3028  -12.9319   20.3383 N   0  0  0  0  0  0
  -25.9311  -11.6474   20.5743 N   0  0  0  0  0  0
  -22.0523  -12.8186   22.0404 N   0  0  0  0  0  0
  -25.4358  -15.1860   20.4151 N   0  0  0  0  0  0
  -31.8122  -14.6875   20.1113 O   0  0  0  0  0  0
  -21.6648   -6.8860   21.4223 O   0  0  0  0  0  0
  -22.3550  -14.5513   20.6696 O   0  0  0  0  0  0
  -24.6167  -31.8674   23.2077 C   0  0  0  0  0  0
  -25.9063  -32.4823   23.8374 C   0  0  1  0  0  0
  -27.2277  -27.4236   20.0976 C   0  0  0  0  0  0
  -25.5920  -33.8630   24.2320 N   0  0  0  0  0  0
  -23.4033  -30.4894   21.5510 C   0  0  2  0  0  0
  -24.8492  -28.9511   20.1206 C   0  0  0  0  0  0
  -22.7441  -29.4634   22.5004 C   0  0  0  0  0  0
  -18.0293  -28.1376   22.8513 C   0  0  0  0  0  0
  -24.1500  -36.7303   23.2633 C   0  0  0  0  0  0
  -25.9354  -30.8299   21.3615 C   0  0  0  0  0  0
  -26.0129  -29.4637   20.7082 C   0  0  0  0  0  0
  -27.2095  -28.7078   20.6914 C   0  0  0  0  0  0
  -26.0496  -26.9280   19.5024 C   0  0  0  0  0  0
  -24.8608  -27.6826   19.5161 C   0  0  0  0  0  0
  -23.6131  -29.8197   20.1676 C   0  0  0  0  0  0
  -25.4136  -36.3108   24.0315 C   0  0  1  0  0  0
  -20.5900  -28.3625   23.1332 C   0  0  2  0  0  0
  -20.6786  -26.9365   22.5408 C   0  0  0  0  0  0
  -19.5742  -26.6369   21.5224 C   0  0  0  0  0  0
  -18.1920  -26.7922   22.1632 C   0  0  0  0  0  0
  -19.1555  -28.8817   23.2934 C   0  0  0  0  0  0
  -18.9505  -30.1434   23.8954 C   0  0  0  0  0  0
  -17.6512  -30.6588   24.0610 C   0  0  0  0  0  0
  -25.9052  -34.9476   23.5112 C   0  0  0  0  0  0
  -16.5396  -29.9125   23.6341 C   0  0  0  0  0  0
  -16.7290  -28.6537   23.0349 C   0  0  0  0  0  0
  -26.4484  -31.6602   25.0712 C   0  0  0  0  0  0
  -25.3754  -31.3681   26.1456 C   0  0  0  0  0  0
  -27.0308  -30.3053   24.6071 C   0  0  0  0  0  0
  -27.6067  -32.4315   25.7471 C   0  0  0  0  0  0
  -27.5589  -37.1815   24.8473 C   0  0  0  0  0  0
  -21.4170  -29.2999   22.3749 N   0  0  0  0  0  0
  -26.4321  -37.3801   23.9377 N   0  0  0  0  0  0
  -24.6701  -31.0766   22.0986 N   0  0  0  0  0  0
  -23.4225  -28.8172   23.3031 O   0  0  0  0  0  0
  -28.3786  -26.6628   20.0904 O   0  0  0  0  0  0
  -26.5611  -34.8936   22.4678 O   0  0  0  0  0  0
  -23.5364  -32.1432   23.7483 O   0  0  0  0  0  0
  -28.9915  -20.1516   21.5005 C   0  0  0  0  0  0
  -30.4645  -18.3175   19.9843 C   0  0  0  0  0  0
  -29.3401  -18.8972   22.0741 C   0  0  0  0  0  0
  -30.1162  -17.9744   21.3103 C   0  0  0  0  0  0
  -30.0999  -19.5631   19.4281 C   0  0  0  0  0  0
  -29.3803  -20.5134   20.1866 C   0  0  0  0  0  0
  -28.5503  -19.5093   24.3945 C   0  0  0  0  0  0
  -28.9382  -18.6104   23.4704 C   0  0  0  0  0  0
  -30.6881  -16.6616   21.8849 C   0  0  0  0  0  0
  -28.6511  -24.1885   19.7058 C   0  0  0  0  0  0
  -28.2514  -25.3436   20.6574 C   0  0  0  0  0  0
  -28.5888  -22.8046   20.4066 C   0  0  0  0  0  0
  -30.4815  -19.8831   18.1266 N   0  0  0  0  0  0
  -30.0973  -15.4077   21.3814 N   0  0  0  0  0  0
  -29.1089  -21.7444   19.5947 O   0  0  0  0  0  0
  -31.4643  -12.4495   19.1020 H   0  0  0  0  0  0
  -30.3415  -11.3183   19.8049 H   0  0  0  0  0  0
  -29.7362  -11.7953   17.4257 H   0  0  0  0  0  0
  -29.6541  -13.5059   17.7588 H   0  0  0  0  0  0
  -27.8232  -11.3136   18.8057 H   0  0  0  0  0  0
  -27.3597  -12.6503   17.7910 H   0  0  0  0  0  0
  -27.7055  -14.2580   19.5892 H   0  0  0  0  0  0
  -28.6849  -11.9459   21.3251 H   0  0  0  0  0  0
  -28.4491  -13.5739   21.8827 H   0  0  0  0  0  0
  -25.2744   -9.5709   22.4711 H   0  0  0  0  0  0
  -24.0016   -7.4635   22.7421 H   0  0  0  0  0  0
  -21.0838   -8.8679   19.8915 H   0  0  0  0  0  0
  -22.3597  -10.9640   19.6129 H   0  0  0  0  0  0
  -21.1975   -7.6124   23.9693 H   0  0  0  0  0  0
  -21.1511   -6.0508   25.9066 H   0  0  0  0  0  0
  -22.0605   -2.7596   23.2818 H   0  0  0  0  0  0
  -22.4188  -11.9870   22.4808 H   0  0  0  0  0  0
  -21.1114  -13.1159   22.2576 H   0  0  0  0  0  0
  -24.6778  -15.8495   20.5359 H   0  0  0  0  0  0
  -26.2935  -15.6241   20.1002 H   0  0  0  0  0  0
  -26.7133  -32.5520   23.1124 H   0  0  0  0  0  0
  -25.0114  -33.9811   25.0498 H   0  0  0  0  0  0
  -22.6911  -31.3048   21.4107 H   0  0  0  0  0  0
  -23.3767  -35.9629   23.3352 H   0  0  0  0  0  0
  -24.3587  -36.8892   22.2038 H   0  0  0  0  0  0
  -23.7263  -37.6524   23.6634 H   0  0  0  0  0  0
  -26.0517  -31.5930   20.5902 H   0  0  0  0  0  0
  -26.8229  -30.8854   21.9796 H   0  0  0  0  0  0
  -28.1096  -29.0984   21.1486 H   0  0  0  0  0  0
  -26.0460  -25.9548   19.0302 H   0  0  0  0  0  0
  -23.9619  -27.2794   19.0714 H   0  0  0  0  0  0
  -23.7260  -30.5935   19.4078 H   0  0  0  0  0  0
  -22.7347  -29.2413   19.8695 H   0  0  0  0  0  0
  -25.1326  -36.1970   25.0805 H   0  0  0  0  0  0
  -21.0009  -28.3142   24.1442 H   0  0  0  0  0  0
  -20.5717  -26.2217   23.3585 H   0  0  0  0  0  0
  -21.6664  -26.7424   22.1175 H   0  0  0  0  0  0
  -19.6911  -25.6278   21.1239 H   0  0  0  0  0  0
  -19.6707  -27.3205   20.6772 H   0  0  0  0  0  0
  -17.4186  -26.6686   21.4013 H   0  0  0  0  0  0
  -18.0299  -26.0063   22.9025 H   0  0  0  0  0  0
  -19.7994  -30.7235   24.2337 H   0  0  0  0  0  0
  -17.5103  -31.6263   24.5226 H   0  0  0  0  0  0
  -15.5410  -30.3074   23.7670 H   0  0  0  0  0  0
  -15.8676  -28.0907   22.7014 H   0  0  0  0  0  0
  -24.5933  -30.7033   25.7772 H   0  0  0  0  0  0
  -24.8939  -32.2833   26.4902 H   0  0  0  0  0  0
  -25.8110  -30.8834   27.0203 H   0  0  0  0  0  0
  -26.2838  -29.6806   24.1165 H   0  0  0  0  0  0
  -27.4150  -29.7274   25.4484 H   0  0  0  0  0  0
  -27.8635  -30.4384   23.9164 H   0  0  0  0  0  0
  -27.2701  -33.3610   26.2052 H   0  0  0  0  0  0
  -28.3861  -32.6890   25.0293 H   0  0  0  0  0  0
  -28.0755  -31.8452   26.5373 H   0  0  0  0  0  0
  -28.2632  -38.0087   24.7514 H   0  0  0  0  0  0
  -28.1057  -36.2626   24.6326 H   0  0  0  0  0  0
  -27.2288  -37.1502   25.8872 H   0  0  0  0  0  0
  -20.9333  -29.8719   21.6976 H   0  0  0  0  0  0
  -26.0204  -38.2874   24.1385 H   0  0  0  0  0  0
  -28.4110  -20.8483   22.0849 H   0  0  0  0  0  0
  -31.0550  -17.6177   19.4084 H   0  0  0  0  0  0
  -28.2609  -19.1736   25.3817 H   0  0  0  0  0  0
  -28.5123  -20.5753   24.2081 H   0  0  0  0  0  0
  -28.9282  -17.5754   23.7739 H   0  0  0  0  0  0
  -30.6360  -16.6424   22.9717 H   0  0  0  0  0  0
  -31.7630  -16.6689   21.6930 H   0  0  0  0  0  0
  -29.6637  -24.3584   19.3392 H   0  0  0  0  0  0
  -27.9989  -24.1929   18.8312 H   0  0  0  0  0  0
  -28.9089  -25.3148   21.5259 H   0  0  0  0  0  0
  -27.2512  -25.1532   21.0521 H   0  0  0  0  0  0
  -27.5552  -22.5738   20.6675 H   0  0  0  0  0  0
  -29.1544  -22.8669   21.3355 H   0  0  0  0  0  0
  -31.2737  -19.3999   17.7155 H   0  0  0  0  0  0
  -30.4520  -20.8712   17.8879 H   0  0  0  0  0  0
  -29.1775  -15.1747   21.7214 H   0  0  0  0  0  0
  1 25  1  0  0  0
  1 30  2  0  0  0
  1 84  1  0  0  0
  2  3  1  0  0  0
  2 25  1  0  0  0
  2 86  1  0  0  0
  2 87  1  0  0  0
  3  4  1  0  0  0
  3 88  1  0  0  0
  3 89  1  0  0  0
  4  5  1  0  0  0
  4 90  1  0  0  0
  4 91  1  0  0  0
  5  6  1  0  0  0
  5 26  1  0  0  0
  5 92  1  0  0  0
  6 25  1  0  0  0
  6 93  1  0  0  0
  6 94  1  0  0  0
  7  8  2  0  0  0
  7 26  1  0  0  0
  7 29  1  0  0  0
  8  9  1  0  0  0
  8 22  1  0  0  0
  9 10  1  0  0  0
  9 27  2  0  0  0
 10 11  2  0  0  0
 10 15  1  0  0  0
 11 12  1  0  0  0
 11 95  1  0  0  0
 12 13  2  0  0  0
 12 96  1  0  0  0
 13 14  1  0  0  0
 13 31  1  0  0  0
 14 15  2  0  0  0
 14 97  1  0  0  0
 15 98  1  0  0  0
 16 17  2  0  0  0
 16 21  1  0  0  0
 16 31  1  0  0  0
 17 18  1  0  0  0
 17 99  1  0  0  0
 18 19  2  0  0  0
 18100  1  0  0  0
 19 20  1  0  0  0
 19 24  1  0  0  0
 20 21  2  0  0  0
 20101  1  0  0  0
 21 23  1  0  0  0
 22 28  1  0  0  0
 22 32  2  0  0  0
 26 27  1  0  0  0
 28102  1  0  0  0
 28103  1  0  0  0
 29104  1  0  0  0
 29105  1  0  0  0
 33 34  1  0  0  0
 33 66  1  0  0  0
 33 70  2  0  0  0
 34 36  1  0  0  0
 34 59  1  0  0  0
 34106  1  0  0  0
 35 44  2  0  0  0
 35 45  1  0  0  0
 35 68  1  0  0  0
 36 56  1  0  0  0
 36107  1  0  0  0
 37 39  1  0  0  0
 37 47  1  0  0  0
 37 66  1  0  0  0
 37108  1  0  0  0
 38 43  2  0  0  0
 38 46  1  0  0  0
 38 47  1  0  0  0
 39 64  1  0  0  0
 39 67  2  0  0  0
 40 52  1  0  0  0
 40 53  2  0  0  0
 40 58  1  0  0  0
 41109  1  0  0  0
 41110  1  0  0  0
 41111  1  0  0  0
 41 48  1  0  0  0
 42 43  1  0  0  0
 42 66  1  0  0  0
 42112  1  0  0  0
 42113  1  0  0  0
 43 44  1  0  0  0
 44114  1  0  0  0
 45 46  2  0  0  0
 45115  1  0  0  0
 46116  1  0  0  0
 47117  1  0  0  0
 47118  1  0  0  0
 48 56  1  0  0  0
 48 65  1  0  0  0
 48119  1  0  0  0
 49 50  1  0  0  0
 49 53  1  0  0  0
 49 64  1  0  0  0
 49120  1  0  0  0
 50 51  1  0  0  0
 50121  1  0  0  0
 50122  1  0  0  0
 51 52  1  0  0  0
 51123  1  0  0  0
 51124  1  0  0  0
 52125  1  0  0  0
 52126  1  0  0  0
 53 54  1  0  0  0
 54 55  2  0  0  0
 54127  1  0  0  0
 55 57  1  0  0  0
 55128  1  0  0  0
 56 69  2  0  0  0
 57 58  2  0  0  0
 57129  1  0  0  0
 58130  1  0  0  0
 59 60  1  0  0  0
 59 61  1  0  0  0
 59 62  1  0  0  0
 60131  1  0  0  0
 60132  1  0  0  0
 60133  1  0  0  0
 61134  1  0  0  0
 61135  1  0  0  0
 61136  1  0  0  0
 62137  1  0  0  0
 62138  1  0  0  0
 62139  1  0  0  0
 63 65  1  0  0  0
 63140  1  0  0  0
 63141  1  0  0  0
 63142  1  0  0  0
 64143  1  0  0  0
 65144  1  0  0  0
 68 81  1  0  0  0
 71 73  2  0  0  0
 71 76  1  0  0  0
 71145  1  0  0  0
 72 74  2  0  0  0
 72 75  1  0  0  0
 72146  1  0  0  0
 73 74  1  0  0  0
 73 78  1  0  0  0
 74 79  1  0  0  0
 75 76  2  0  0  0
 75 83  1  0  0  0
 76 85  1  0  0  0
 77 78  2  0  0  0
 77147  1  0  0  0
 77148  1  0  0  0
 78149  1  0  0  0
 79 84  1  0  0  0
 79150  1  0  0  0
 79151  1  0  0  0
 80 81  1  0  0  0
 80 82  1  0  0  0
 80152  1  0  0  0
 80153  1  0  0  0
 81154  1  0  0  0
 81155  1  0  0  0
 82 85  1  0  0  0
 82156  1  0  0  0
 82157  1  0  0  0
 83158  1  0  0  0
 83159  1  0  0  0
 84160  1  0  0  0
M  ISO  4   1 100  68 101  81 101  84 100
M  END
> <chiral flag>
0

> <version>
0

> <s_m_source_file>
/data/baiqing/PycharmProjects/Reinvent-master-3.2/result/LINK_invent/BTK/process_docking_weight1_custom_product_contain_oxygen_bond_distance_aromatic_linkinvent_7_9_3/rearranged_h_0107.sdf

> <i_m_source_file_index>
94

> <r_mmod_Potential_Energy-OPLS-2005>
-139.122131347656

> <r_mmod_Stretch_Energy-OPLS-2005>
42.8815460205078

> <r_mmod_Bend_Energy-OPLS-2005>
104.41667175293

> <r_mmod_Torsional_Energy-OPLS-2005>
221.98258972168

> <r_mmod_Improper_Torsional_Energy-OPLS-2005>
5.87491846084595

> <r_mmod_Van_der_Waal_Energy-OPLS-2005>
160.397796630859

> <r_mmod_Electrostatic_Energy-OPLS-2005>
-467.305145263672

> <r_mmod_Solvation_Energy-OPLS-2005>
-220.287048339844

> <b_mmod_Minimization_Converged-OPLS-2005>
0

> <r_mmod_RMS_Derivative-OPLS-2005>
3.51961493492126

$$$$
94
                    3D
 Structure written by MMmdl.
155163  0  0  1  0            999 V2000
  -30.5807  -14.7504   20.4913 C   0  0  0  0  0  0
  -30.4521  -12.4601   19.4653 C   0  0  0  0  0  0
  -29.5226  -12.4838   18.2302 C   0  0  0  0  0  0
  -28.0472  -12.3038   18.6469 C   0  0  0  0  0  0
  -27.6450  -13.2136   19.8393 C   0  0  2  0  0  0
  -28.6896  -13.1453   20.9755 C   0  0  0  0  0  0
  -25.2532  -13.8132   20.5548 C   0  0  0  0  0  0
  -24.1829  -13.0408   20.9172 C   0  0  0  0  0  0
  -24.6373  -11.6880   20.8712 C   0  0  0  0  0  0
  -23.9009  -10.4274   21.0370 C   0  0  0  0  0  0
  -24.3562   -9.4214   21.9147 C   0  0  0  0  0  0
  -23.6277   -8.2231   22.0708 C   0  0  0  0  0  0
  -22.4268   -8.0223   21.3496 C   0  0  0  0  0  0
  -21.9874   -9.0203   20.4618 C   0  0  0  0  0  0
  -22.7168  -10.2112   20.3036 C   0  0  0  0  0  0
  -21.6864   -6.0692   22.5265 C   0  0  0  0  0  0
  -21.4027   -6.5612   23.8193 C   0  0  0  0  0  0
  -21.3648   -5.6765   24.9158 C   0  0  0  0  0  0
  -21.6029   -4.3033   24.7223 C   0  0  0  0  0  0
  -21.8828   -3.8109   23.4357 C   0  0  0  0  0  0
  -21.9207   -4.6910   22.3405 C   0  0  0  0  0  0
  -22.7849  -13.5197   21.1839 C   0  0  0  0  0  0
  -22.1680   -4.2096   21.0978 F   0  0  0  0  0  0
  -21.5631   -3.4518   25.7735 F   0  0  0  0  0  0
  -29.9840  -13.5156   20.3912 N   0  0  0  0  0  0
  -26.2952  -12.9310   20.3166 N   0  0  0  0  0  0
  -25.9305  -11.6471   20.5708 N   0  0  0  0  0  0
  -22.0485  -12.8223   22.0428 N   0  0  0  0  0  0
  -25.4138  -15.1855   20.3738 N   0  0  0  0  0  0
  -31.7800  -14.8820   20.2282 O   0  0  0  0  0  0
  -21.6631   -6.8823   21.4212 O   0  0  0  0  0  0
  -22.3522  -14.5462   20.6612 O   0  0  0  0  0  0
  -24.6319  -31.8592   23.1969 C   0  0  0  0  0  0
  -25.9169  -32.4780   23.8304 C   0  0  1  0  0  0
  -27.2027  -27.2585   20.1373 C   0  0  0  0  0  0
  -25.6014  -33.8564   24.2299 N   0  0  0  0  0  0
  -23.4279  -30.4894   21.5353 C   0  0  2  0  0  0
  -24.8717  -28.9388   20.1082 C   0  0  0  0  0  0
  -22.7500  -29.4698   22.4805 C   0  0  0  0  0  0
  -18.0375  -28.1433   22.8490 C   0  0  0  0  0  0
  -24.1504  -36.7222   23.2628 C   0  0  0  0  0  0
  -25.9747  -30.7745   21.3728 C   0  0  0  0  0  0
  -26.0457  -29.3986   20.7157 C   0  0  0  0  0  0
  -27.2184  -28.5722   20.7153 C   0  0  0  0  0  0
  -26.0016  -26.8745   19.4979 C   0  0  0  0  0  0
  -24.8527  -27.6844   19.4879 C   0  0  0  0  0  0
  -23.6468  -29.8286   20.1507 C   0  0  0  0  0  0
  -25.4130  -36.3047   24.0345 C   0  0  1  0  0  0
  -20.5974  -28.3762   23.1221 C   0  0  2  0  0  0
  -20.6889  -26.9473   22.5394 C   0  0  0  0  0  0
  -19.5876  -26.6423   21.5196 C   0  0  0  0  0  0
  -18.2045  -26.7990   22.1578 C   0  0  0  0  0  0
  -19.1629  -28.8893   23.2880 C   0  0  0  0  0  0
  -18.9527  -30.1481   23.8936 C   0  0  0  0  0  0
  -17.6525  -30.6637   24.0568 C   0  0  0  0  0  0
  -25.9080  -34.9439   23.5102 C   0  0  0  0  0  0
  -16.5420  -29.9133   23.6331 C   0  0  0  0  0  0
  -16.7370  -28.6532   23.0403 C   0  0  0  0  0  0
  -26.4534  -31.6594   25.0659 C   0  0  0  0  0  0
  -25.3757  -31.3806   26.1376 C   0  0  0  0  0  0
  -27.0376  -30.3023   24.6088 C   0  0  0  0  0  0
  -27.6160  -32.4262   25.7395 C   0  0  0  0  0  0
  -27.5611  -37.1761   24.8477 C   0  0  0  0  0  0
  -21.4224  -29.3102   22.3545 N   0  0  0  0  0  0
  -26.4305  -37.3752   23.9443 N   0  0  0  0  0  0
  -24.6970  -31.0604   22.0907 N   0  0  0  0  0  0
  -23.4207  -28.8249   23.2928 O   0  0  0  0  0  0
  -28.2755  -26.3332   20.2135 O   0  0  0  0  0  0
  -26.5566  -34.8906   22.4617 O   0  0  0  0  0  0
  -23.5479  -32.1382   23.7322 O   0  0  0  0  0  0
  -29.5843  -18.4603   20.3913 C   0  0  0  0  0  0
  -30.0521  -18.5871   23.1203 C   0  0  0  0  0  0
  -29.8788  -17.2164   21.0903 C   0  0  0  0  0  0
  -29.5098  -19.7681   21.0318 C   0  0  0  0  0  0
  -29.7137  -19.7916   22.4420 C   0  0  0  0  0  0
  -30.1345  -17.3398   22.4682 C   0  0  0  0  0  0
  -29.4677  -20.9653   24.5357 C   0  0  0  0  0  0
  -29.0026  -23.6622   20.4480 C   0  0  0  0  0  0
  -27.9314  -24.8636   20.2653 C   0  0  0  0  0  0
  -28.4827  -22.1363   20.6504 C   0  0  0  0  0  0
  -29.7311  -15.8453   20.5467 N   0  0  0  0  0  0
  -29.6126  -20.9971   23.1144 O   0  0  0  0  0  0
  -29.3435  -20.9706   20.2781 O   0  0  0  0  0  0
  -30.4026  -16.2295   23.2022 F   0  0  0  0  0  0
  -31.4892  -12.6126   19.1584 H   0  0  0  0  0  0
  -30.4228  -11.4841   19.9565 H   0  0  0  0  0  0
  -29.8133  -11.6970   17.5316 H   0  0  0  0  0  0
  -29.6387  -13.4285   17.6966 H   0  0  0  0  0  0
  -27.9171  -11.2590   18.9318 H   0  0  0  0  0  0
  -27.3830  -12.4702   17.7966 H   0  0  0  0  0  0
  -27.6381  -14.2295   19.4450 H   0  0  0  0  0  0
  -28.7341  -12.1470   21.4140 H   0  0  0  0  0  0
  -28.4234  -13.8227   21.7876 H   0  0  0  0  0  0
  -25.2698   -9.5724   22.4701 H   0  0  0  0  0  0
  -23.9980   -7.4645   22.7454 H   0  0  0  0  0  0
  -21.0771   -8.8707   19.8971 H   0  0  0  0  0  0
  -22.3564  -10.9622   19.6148 H   0  0  0  0  0  0
  -21.2024   -7.6124   23.9657 H   0  0  0  0  0  0
  -21.1463   -6.0511   25.9047 H   0  0  0  0  0  0
  -22.0622   -2.7563   23.2850 H   0  0  0  0  0  0
  -22.4170  -11.9994   22.4956 H   0  0  0  0  0  0
  -21.1079  -13.1227   22.2533 H   0  0  0  0  0  0
  -24.5968  -15.7858   20.3895 H   0  0  0  0  0  0
  -26.1716  -15.5811   19.8322 H   0  0  0  0  0  0
  -26.7212  -32.5437   23.1030 H   0  0  0  0  0  0
  -25.0379  -33.9677   25.0586 H   0  0  0  0  0  0
  -22.7317  -31.3184   21.3945 H   0  0  0  0  0  0
  -23.3801  -35.9509   23.3235 H   0  0  0  0  0  0
  -24.3661  -36.8853   22.2056 H   0  0  0  0  0  0
  -23.7164  -37.6386   23.6638 H   0  0  0  0  0  0
  -26.1226  -31.5363   20.6067 H   0  0  0  0  0  0
  -26.8494  -30.8230   22.0081 H   0  0  0  0  0  0
  -28.1122  -28.9229   21.2116 H   0  0  0  0  0  0
  -25.8982  -25.9208   19.0089 H   0  0  0  0  0  0
  -23.9488  -27.3302   19.0147 H   0  0  0  0  0  0
  -23.7817  -30.6031   19.3954 H   0  0  0  0  0  0
  -22.7617  -29.2673   19.8434 H   0  0  0  0  0  0
  -25.1303  -36.1885   25.0832 H   0  0  0  0  0  0
  -21.0164  -28.3372   24.1303 H   0  0  0  0  0  0
  -20.5838  -26.2359   23.3603 H   0  0  0  0  0  0
  -21.6749  -26.7585   22.1136 H   0  0  0  0  0  0
  -19.7044  -25.6320   21.1272 H   0  0  0  0  0  0
  -19.6837  -27.3170   20.6669 H   0  0  0  0  0  0
  -17.4340  -26.6783   21.3941 H   0  0  0  0  0  0
  -18.0447  -26.0133   22.8972 H   0  0  0  0  0  0
  -19.8003  -30.7285   24.2324 H   0  0  0  0  0  0
  -17.5104  -31.6322   24.5185 H   0  0  0  0  0  0
  -15.5423  -30.3073   23.7623 H   0  0  0  0  0  0
  -15.8775  -28.0836   22.7146 H   0  0  0  0  0  0
  -24.5943  -30.7128   25.7710 H   0  0  0  0  0  0
  -24.8911  -32.3010   26.4658 H   0  0  0  0  0  0
  -25.8041  -30.9090   27.0224 H   0  0  0  0  0  0
  -26.2930  -29.6732   24.1173 H   0  0  0  0  0  0
  -27.4210  -29.7317   25.4556 H   0  0  0  0  0  0
  -27.8748  -30.4355   23.9231 H   0  0  0  0  0  0
  -27.2906  -33.3639   26.1900 H   0  0  0  0  0  0
  -28.3999  -32.6653   25.0204 H   0  0  0  0  0  0
  -28.0750  -31.8365   26.5333 H   0  0  0  0  0  0
  -28.2604  -38.0087   24.7609 H   0  0  0  0  0  0
  -28.1156  -36.2638   24.6225 H   0  0  0  0  0  0
  -27.2377  -37.1301   25.8892 H   0  0  0  0  0  0
  -20.9398  -29.8725   21.6654 H   0  0  0  0  0  0
  -26.0187  -38.2815   24.1490 H   0  0  0  0  0  0
  -29.3874  -18.4157   19.3294 H   0  0  0  0  0  0
  -30.2532  -18.5803   24.1813 H   0  0  0  0  0  0
  -29.1349  -21.9363   24.9065 H   0  0  0  0  0  0
  -30.4170  -20.7376   25.0218 H   0  0  0  0  0  0
  -28.7218  -20.2358   24.8578 H   0  0  0  0  0  0
  -29.6668  -23.9095   21.2755 H   0  0  0  0  0  0
  -29.6288  -23.6730   19.5568 H   0  0  0  0  0  0
  -27.1802  -24.7461   21.0500 H   0  0  0  0  0  0
  -27.4360  -24.6083   19.3290 H   0  0  0  0  0  0
  -27.6217  -22.0305   19.9915 H   0  0  0  0  0  0
  -28.0462  -22.0180   21.6419 H   0  0  0  0  0  0
  -28.7676  -15.5573   20.4902 H   0  0  0  0  0  0
  1 25  1  0  0  0
  1 30  2  0  0  0
  1 81  1  0  0  0
  2  3  1  0  0  0
  2 25  1  0  0  0
  2 85  1  0  0  0
  2 86  1  0  0  0
  3  4  1  0  0  0
  3 87  1  0  0  0
  3 88  1  0  0  0
  4  5  1  0  0  0
  4 89  1  0  0  0
  4 90  1  0  0  0
  5  6  1  0  0  0
  5 26  1  0  0  0
  5 91  1  0  0  0
  6 25  1  0  0  0
  6 92  1  0  0  0
  6 93  1  0  0  0
  7  8  2  0  0  0
  7 26  1  0  0  0
  7 29  1  0  0  0
  8  9  1  0  0  0
  8 22  1  0  0  0
  9 10  1  0  0  0
  9 27  2  0  0  0
 10 11  2  0  0  0
 10 15  1  0  0  0
 11 12  1  0  0  0
 11 94  1  0  0  0
 12 13  2  0  0  0
 12 95  1  0  0  0
 13 14  1  0  0  0
 13 31  1  0  0  0
 14 15  2  0  0  0
 14 96  1  0  0  0
 15 97  1  0  0  0
 16 17  2  0  0  0
 16 21  1  0  0  0
 16 31  1  0  0  0
 17 18  1  0  0  0
 17 98  1  0  0  0
 18 19  2  0  0  0
 18 99  1  0  0  0
 19 20  1  0  0  0
 19 24  1  0  0  0
 20 21  2  0  0  0
 20100  1  0  0  0
 21 23  1  0  0  0
 22 28  1  0  0  0
 22 32  2  0  0  0
 26 27  1  0  0  0
 28101  1  0  0  0
 28102  1  0  0  0
 29103  1  0  0  0
 29104  1  0  0  0
 33 34  1  0  0  0
 33 66  1  0  0  0
 33 70  2  0  0  0
 34 36  1  0  0  0
 34 59  1  0  0  0
 34105  1  0  0  0
 35 44  2  0  0  0
 35 45  1  0  0  0
 35 68  1  0  0  0
 36 56  1  0  0  0
 36106  1  0  0  0
 37 39  1  0  0  0
 37 47  1  0  0  0
 37 66  1  0  0  0
 37107  1  0  0  0
 38 43  2  0  0  0
 38 46  1  0  0  0
 38 47  1  0  0  0
 39 64  1  0  0  0
 39 67  2  0  0  0
 40 52  1  0  0  0
 40 53  2  0  0  0
 40 58  1  0  0  0
 41108  1  0  0  0
 41109  1  0  0  0
 41110  1  0  0  0
 41 48  1  0  0  0
 42 43  1  0  0  0
 42 66  1  0  0  0
 42111  1  0  0  0
 42112  1  0  0  0
 43 44  1  0  0  0
 44113  1  0  0  0
 45 46  2  0  0  0
 45114  1  0  0  0
 46115  1  0  0  0
 47116  1  0  0  0
 47117  1  0  0  0
 48 56  1  0  0  0
 48 65  1  0  0  0
 48118  1  0  0  0
 49 50  1  0  0  0
 49 53  1  0  0  0
 49 64  1  0  0  0
 49119  1  0  0  0
 50 51  1  0  0  0
 50120  1  0  0  0
 50121  1  0  0  0
 51 52  1  0  0  0
 51122  1  0  0  0
 51123  1  0  0  0
 52124  1  0  0  0
 52125  1  0  0  0
 53 54  1  0  0  0
 54 55  2  0  0  0
 54126  1  0  0  0
 55 57  1  0  0  0
 55127  1  0  0  0
 56 69  2  0  0  0
 57 58  2  0  0  0
 57128  1  0  0  0
 58129  1  0  0  0
 59 60  1  0  0  0
 59 61  1  0  0  0
 59 62  1  0  0  0
 60130  1  0  0  0
 60131  1  0  0  0
 60132  1  0  0  0
 61133  1  0  0  0
 61134  1  0  0  0
 61135  1  0  0  0
 62136  1  0  0  0
 62137  1  0  0  0
 62138  1  0  0  0
 63 65  1  0  0  0
 63139  1  0  0  0
 63140  1  0  0  0
 63141  1  0  0  0
 64142  1  0  0  0
 65143  1  0  0  0
 68 79  1  0  0  0
 71 73  2  0  0  0
 71 74  1  0  0  0
 71144  1  0  0  0
 72 75  1  0  0  0
 72 76  2  0  0  0
 72145  1  0  0  0
 73 76  1  0  0  0
 73 81  1  0  0  0
 74 75  2  0  0  0
 74 83  1  0  0  0
 75 82  1  0  0  0
 76 84  1  0  0  0
 77 82  1  0  0  0
 77146  1  0  0  0
 77147  1  0  0  0
 77148  1  0  0  0
 78 79  1  0  0  0
 78 80  1  0  0  0
 78149  1  0  0  0
 78150  1  0  0  0
 79151  1  0  0  0
 79152  1  0  0  0
 80 83  1  0  0  0
 80153  1  0  0  0
 80154  1  0  0  0
 81155  1  0  0  0
M  ISO  4   1 100  68 101  79 101  81 100
M  END
> <chiral flag>
0

> <version>
0

> <s_m_source_file>
/data/baiqing/PycharmProjects/Reinvent-master-3.2/result/LINK_invent/BTK/process_docking_weight1_custom_product_contain_oxygen_bond_distance_aromatic_linkinvent_7_9_3/rearranged_h_0107.sdf

> <i_m_source_file_index>
95

> <r_mmod_Potential_Energy-OPLS-2005>
205.766647338867

> <r_mmod_Stretch_Energy-OPLS-2005>
125.376136779785

> <r_mmod_Bend_Energy-OPLS-2005>
179.95458984375

> <r_mmod_Torsional_Energy-OPLS-2005>
272.873474121094

> <r_mmod_Improper_Torsional_Energy-OPLS-2005>
13.3459177017212

> <r_mmod_Van_der_Waal_Energy-OPLS-2005>
149.51545715332

> <r_mmod_Electrostatic_Energy-OPLS-2005>
-414.799957275391

> <r_mmod_Solvation_Energy-OPLS-2005>
-215.594757080078

> <b_mmod_Minimization_Converged-OPLS-2005>
0

> <r_mmod_RMS_Derivative-OPLS-2005>
5.01485872268677

$$$$
95
                    3D
 Structure written by MMmdl.
159168  0  0  1  0            999 V2000
  -30.6266  -14.5795   20.5405 C   0  0  0  0  0  0
  -30.4450  -12.3643   19.4346 C   0  0  0  0  0  0
  -29.5070  -12.5119   18.2154 C   0  0  0  0  0  0
  -28.0285  -12.3531   18.6269 C   0  0  0  0  0  0
  -27.6607  -13.2041   19.8707 C   0  0  2  0  0  0
  -28.7046  -13.0055   20.9934 C   0  0  0  0  0  0
  -25.2596  -13.8142   20.5668 C   0  0  0  0  0  0
  -24.1848  -13.0430   20.9184 C   0  0  0  0  0  0
  -24.6393  -11.6895   20.8736 C   0  0  0  0  0  0
  -23.9052  -10.4289   21.0405 C   0  0  0  0  0  0
  -24.3608   -9.4204   21.9181 C   0  0  0  0  0  0
  -23.6285   -8.2241   22.0751 C   0  0  0  0  0  0
  -22.4266   -8.0280   21.3543 C   0  0  0  0  0  0
  -21.9898   -9.0252   20.4646 C   0  0  0  0  0  0
  -22.7225  -10.2132   20.3056 C   0  0  0  0  0  0
  -21.6853   -6.0729   22.5277 C   0  0  0  0  0  0
  -21.4013   -6.5633   23.8209 C   0  0  0  0  0  0
  -21.3660   -5.6787   24.9171 C   0  0  0  0  0  0
  -21.6044   -4.3048   24.7225 C   0  0  0  0  0  0
  -21.8820   -3.8139   23.4345 C   0  0  0  0  0  0
  -21.9194   -4.6957   22.3399 C   0  0  0  0  0  0
  -22.7871  -13.5239   21.1847 C   0  0  0  0  0  0
  -22.1666   -4.2142   21.0977 F   0  0  0  0  0  0
  -21.5628   -3.4533   25.7739 F   0  0  0  0  0  0
  -30.0279  -13.3538   20.4438 N   0  0  0  0  0  0
  -26.3019  -12.9299   20.3329 N   0  0  0  0  0  0
  -25.9317  -11.6465   20.5749 N   0  0  0  0  0  0
  -22.0505  -12.8243   22.0406 N   0  0  0  0  0  0
  -25.4324  -15.1857   20.4048 N   0  0  0  0  0  0
  -31.7655  -14.7918   20.1122 O   0  0  0  0  0  0
  -21.6636   -6.8874   21.4238 O   0  0  0  0  0  0
  -22.3564  -14.5547   20.6692 O   0  0  0  0  0  0
  -24.6198  -31.8641   23.2057 C   0  0  0  0  0  0
  -25.9065  -32.4807   23.8378 C   0  0  1  0  0  0
  -27.2374  -27.3834   20.1109 C   0  0  0  0  0  0
  -25.5899  -33.8605   24.2308 N   0  0  0  0  0  0
  -23.4128  -30.4847   21.5464 C   0  0  2  0  0  0
  -24.8644  -28.9436   20.1151 C   0  0  0  0  0  0
  -22.7448  -29.4635   22.4962 C   0  0  0  0  0  0
  -18.0280  -28.1383   22.8492 C   0  0  0  0  0  0
  -24.1487  -36.7309   23.2641 C   0  0  0  0  0  0
  -25.9473  -30.8133   21.3689 C   0  0  0  0  0  0
  -26.0279  -29.4432   20.7166 C   0  0  0  0  0  0
  -27.2211  -28.6716   20.7103 C   0  0  0  0  0  0
  -26.0583  -26.9116   19.5013 C   0  0  0  0  0  0
  -24.8770  -27.6788   19.5018 C   0  0  0  0  0  0
  -23.6270  -29.8148   20.1629 C   0  0  0  0  0  0
  -25.4112  -36.3105   24.0334 C   0  0  1  0  0  0
  -20.5875  -28.3678   23.1302 C   0  0  2  0  0  0
  -20.6768  -26.9407   22.5415 C   0  0  0  0  0  0
  -19.5744  -26.6385   21.5214 C   0  0  0  0  0  0
  -18.1924  -26.7929   22.1625 C   0  0  0  0  0  0
  -19.1531  -28.8847   23.2893 C   0  0  0  0  0  0
  -18.9457  -30.1451   23.8908 C   0  0  0  0  0  0
  -17.6457  -30.6587   24.0566 C   0  0  0  0  0  0
  -25.9039  -34.9467   23.5123 C   0  0  0  0  0  0
  -16.5348  -29.9088   23.6327 C   0  0  0  0  0  0
  -16.7268  -28.6503   23.0353 C   0  0  0  0  0  0
  -26.4473  -31.6597   25.0725 C   0  0  0  0  0  0
  -25.3726  -31.3727   26.1468 C   0  0  0  0  0  0
  -27.0299  -30.3026   24.6137 C   0  0  0  0  0  0
  -27.6053  -32.4316   25.7480 C   0  0  0  0  0  0
  -27.5577  -37.1819   24.8473 C   0  0  0  0  0  0
  -21.4167  -29.3036   22.3702 N   0  0  0  0  0  0
  -26.4306  -37.3783   23.9393 N   0  0  0  0  0  0
  -24.6780  -31.0696   22.0981 N   0  0  0  0  0  0
  -23.4193  -28.8184   23.3032 O   0  0  0  0  0  0
  -28.3494  -26.5540   20.1039 O   0  0  0  0  0  0
  -26.5608  -34.8923   22.4689 O   0  0  0  0  0  0
  -23.5372  -32.1413   23.7414 O   0  0  0  0  0  0
  -30.8962  -17.8385   20.5665 C   0  0  0  0  0  0
  -28.5709  -17.6597   21.1822 C   0  0  0  0  0  0
  -29.5376  -19.9183   20.8473 C   0  0  0  0  0  0
  -29.7952  -17.0060   20.9035 C   0  0  0  0  0  0
  -30.7703  -19.2617   20.5475 C   0  0  0  0  0  0
  -28.4328  -19.0696   21.1475 C   0  0  0  0  0  0
  -28.9090  -24.3040   20.9961 C   0  0  0  0  0  0
  -28.3745  -25.5600   21.0736 C   0  0  0  0  0  0
  -29.5699  -23.6494   19.7775 C   0  0  0  0  0  0
  -28.9889  -23.4164   22.2367 C   0  0  0  0  0  0
  -29.3187  -22.1028   19.6347 C   0  0  0  0  0  0
  -28.6483  -21.9315   21.9737 C   0  0  0  0  0  0
  -29.4597  -21.3562   20.8968 N   0  0  0  0  0  0
  -31.8939  -20.0446   20.2692 N   0  0  0  0  0  0
  -29.8111  -15.5579   21.0206 N   0  0  0  0  0  0
  -27.2096  -19.5912   21.4153 F   0  0  0  0  0  0
  -31.4845  -12.4994   19.1308 H   0  0  0  0  0  0
  -30.3836  -11.3568   19.8487 H   0  0  0  0  0  0
  -29.7628  -11.7750   17.4528 H   0  0  0  0  0  0
  -29.6546  -13.4903   17.7550 H   0  0  0  0  0  0
  -27.8563  -11.2974   18.8398 H   0  0  0  0  0  0
  -27.3751  -12.6038   17.7907 H   0  0  0  0  0  0
  -27.6947  -14.2473   19.5560 H   0  0  0  0  0  0
  -28.7067  -11.9671   21.3288 H   0  0  0  0  0  0
  -28.4499  -13.5917   21.8775 H   0  0  0  0  0  0
  -25.2754   -9.5679   22.4752 H   0  0  0  0  0  0
  -23.9997   -7.4630   22.7466 H   0  0  0  0  0  0
  -21.0827   -8.8767   19.8953 H   0  0  0  0  0  0
  -22.3679  -10.9671   19.6167 H   0  0  0  0  0  0
  -21.2005   -7.6143   23.9712 H   0  0  0  0  0  0
  -21.1481   -6.0515   25.9075 H   0  0  0  0  0  0
  -22.0600   -2.7601   23.2848 H   0  0  0  0  0  0
  -22.4110  -11.9905   22.4804 H   0  0  0  0  0  0
  -21.1128  -13.1283   22.2613 H   0  0  0  0  0  0
  -24.6565  -15.8336   20.4902 H   0  0  0  0  0  0
  -26.2609  -15.6115   20.0106 H   0  0  0  0  0  0
  -26.7140  -32.5507   23.1144 H   0  0  0  0  0  0
  -25.0043  -33.9762   25.0451 H   0  0  0  0  0  0
  -22.7033  -31.3020   21.4024 H   0  0  0  0  0  0
  -23.3731  -35.9666   23.3361 H   0  0  0  0  0  0
  -24.3565  -36.8864   22.2043 H   0  0  0  0  0  0
  -23.7272  -37.6544   23.6620 H   0  0  0  0  0  0
  -26.0678  -31.5768   20.5992 H   0  0  0  0  0  0
  -26.8313  -30.8676   21.9924 H   0  0  0  0  0  0
  -28.1186  -29.0494   21.1796 H   0  0  0  0  0  0
  -26.0549  -25.9353   19.0370 H   0  0  0  0  0  0
  -23.9841  -27.2875   19.0339 H   0  0  0  0  0  0
  -23.7395  -30.5887   19.4027 H   0  0  0  0  0  0
  -22.7505  -29.2360   19.8655 H   0  0  0  0  0  0
  -25.1295  -36.1980   25.0829 H   0  0  0  0  0  0
  -20.9964  -28.3250   24.1424 H   0  0  0  0  0  0
  -20.5666  -26.2287   23.3608 H   0  0  0  0  0  0
  -21.6640  -26.7443   22.1211 H   0  0  0  0  0  0
  -19.6905  -25.6297   21.1239 H   0  0  0  0  0  0
  -19.6682  -27.3200   20.6748 H   0  0  0  0  0  0
  -17.4193  -26.6678   21.4029 H   0  0  0  0  0  0
  -18.0324  -26.0068   22.9017 H   0  0  0  0  0  0
  -19.7932  -30.7264   24.2285 H   0  0  0  0  0  0
  -17.5011  -31.6268   24.5162 H   0  0  0  0  0  0
  -15.5350  -30.2992   23.7643 H   0  0  0  0  0  0
  -15.8667  -28.0821   22.7071 H   0  0  0  0  0  0
  -24.5889  -30.7086   25.7807 H   0  0  0  0  0  0
  -24.8930  -32.2892   26.4915 H   0  0  0  0  0  0
  -25.8062  -30.8892   27.0232 H   0  0  0  0  0  0
  -26.2854  -29.6793   24.1170 H   0  0  0  0  0  0
  -27.4023  -29.7263   25.4618 H   0  0  0  0  0  0
  -27.8714  -30.4323   23.9327 H   0  0  0  0  0  0
  -27.2683  -33.3612   26.2081 H   0  0  0  0  0  0
  -28.3845  -32.6883   25.0290 H   0  0  0  0  0  0
  -28.0742  -31.8426   26.5373 H   0  0  0  0  0  0
  -28.2648  -38.0063   24.7453 H   0  0  0  0  0  0
  -28.1019  -36.2595   24.6388 H   0  0  0  0  0  0
  -27.2285  -37.1584   25.8876 H   0  0  0  0  0  0
  -20.9338  -29.8753   21.6913 H   0  0  0  0  0  0
  -26.0201  -38.2874   24.1346 H   0  0  0  0  0  0
  -31.8556  -17.3891   20.3545 H   0  0  0  0  0  0
  -27.6988  -17.0770   21.4392 H   0  0  0  0  0  0
  -27.9559  -25.9248   22.0030 H   0  0  0  0  0  0
  -30.6432  -23.8149   19.8772 H   0  0  0  0  0  0
  -29.2660  -24.1706   18.8689 H   0  0  0  0  0  0
  -28.3391  -23.8086   23.0204 H   0  0  0  0  0  0
  -30.0062  -23.4829   22.6248 H   0  0  0  0  0  0
  -29.9916  -21.6923   18.8801 H   0  0  0  0  0  0
  -28.3073  -21.9406   19.2572 H   0  0  0  0  0  0
  -27.5921  -21.8668   21.7083 H   0  0  0  0  0  0
  -28.7812  -21.3575   22.8927 H   0  0  0  0  0  0
  -32.5553  -19.6969   19.5836 H   0  0  0  0  0  0
  -31.6689  -21.0279   20.1434 H   0  0  0  0  0  0
  -28.9505  -15.1660   21.3719 H   0  0  0  0  0  0
  1 25  1  0  0  0
  1 30  2  0  0  0
  1 85  1  0  0  0
  2  3  1  0  0  0
  2 25  1  0  0  0
  2 87  1  0  0  0
  2 88  1  0  0  0
  3  4  1  0  0  0
  3 89  1  0  0  0
  3 90  1  0  0  0
  4  5  1  0  0  0
  4 91  1  0  0  0
  4 92  1  0  0  0
  5  6  1  0  0  0
  5 26  1  0  0  0
  5 93  1  0  0  0
  6 25  1  0  0  0
  6 94  1  0  0  0
  6 95  1  0  0  0
  7  8  2  0  0  0
  7 26  1  0  0  0
  7 29  1  0  0  0
  8  9  1  0  0  0
  8 22  1  0  0  0
  9 10  1  0  0  0
  9 27  2  0  0  0
 10 11  2  0  0  0
 10 15  1  0  0  0
 11 12  1  0  0  0
 11 96  1  0  0  0
 12 13  2  0  0  0
 12 97  1  0  0  0
 13 14  1  0  0  0
 13 31  1  0  0  0
 14 15  2  0  0  0
 14 98  1  0  0  0
 15 99  1  0  0  0
 16 17  2  0  0  0
 16 21  1  0  0  0
 16 31  1  0  0  0
 17 18  1  0  0  0
 17100  1  0  0  0
 18 19  2  0  0  0
 18101  1  0  0  0
 19 20  1  0  0  0
 19 24  1  0  0  0
 20 21  2  0  0  0
 20102  1  0  0  0
 21 23  1  0  0  0
 22 28  1  0  0  0
 22 32  2  0  0  0
 26 27  1  0  0  0
 28103  1  0  0  0
 28104  1  0  0  0
 29105  1  0  0  0
 29106  1  0  0  0
 33 34  1  0  0  0
 33 66  1  0  0  0
 33 70  2  0  0  0
 34 36  1  0  0  0
 34 59  1  0  0  0
 34107  1  0  0  0
 35 44  2  0  0  0
 35 45  1  0  0  0
 35 68  1  0  0  0
 36 56  1  0  0  0
 36108  1  0  0  0
 37 39  1  0  0  0
 37 47  1  0  0  0
 37 66  1  0  0  0
 37109  1  0  0  0
 38 43  2  0  0  0
 38 46  1  0  0  0
 38 47  1  0  0  0
 39 64  1  0  0  0
 39 67  2  0  0  0
 40 52  1  0  0  0
 40 53  2  0  0  0
 40 58  1  0  0  0
 41110  1  0  0  0
 41111  1  0  0  0
 41112  1  0  0  0
 41 48  1  0  0  0
 42 43  1  0  0  0
 42 66  1  0  0  0
 42113  1  0  0  0
 42114  1  0  0  0
 43 44  1  0  0  0
 44115  1  0  0  0
 45 46  2  0  0  0
 45116  1  0  0  0
 46117  1  0  0  0
 47118  1  0  0  0
 47119  1  0  0  0
 48 56  1  0  0  0
 48 65  1  0  0  0
 48120  1  0  0  0
 49 50  1  0  0  0
 49 53  1  0  0  0
 49 64  1  0  0  0
 49121  1  0  0  0
 50 51  1  0  0  0
 50122  1  0  0  0
 50123  1  0  0  0
 51 52  1  0  0  0
 51124  1  0  0  0
 51125  1  0  0  0
 52126  1  0  0  0
 52127  1  0  0  0
 53 54  1  0  0  0
 54 55  2  0  0  0
 54128  1  0  0  0
 55 57  1  0  0  0
 55129  1  0  0  0
 56 69  2  0  0  0
 57 58  2  0  0  0
 57130  1  0  0  0
 58131  1  0  0  0
 59 60  1  0  0  0
 59 61  1  0  0  0
 59 62  1  0  0  0
 60132  1  0  0  0
 60133  1  0  0  0
 60134  1  0  0  0
 61135  1  0  0  0
 61136  1  0  0  0
 61137  1  0  0  0
 62138  1  0  0  0
 62139  1  0  0  0
 62140  1  0  0  0
 63 65  1  0  0  0
 63141  1  0  0  0
 63142  1  0  0  0
 63143  1  0  0  0
 64144  1  0  0  0
 65145  1  0  0  0
 68 78  1  0  0  0
 71 74  2  0  0  0
 71 75  1  0  0  0
 71146  1  0  0  0
 72 74  1  0  0  0
 72 76  2  0  0  0
 72147  1  0  0  0
 73 75  2  0  0  0
 73 76  1  0  0  0
 73 83  1  0  0  0
 74 85  1  0  0  0
 75 84  1  0  0  0
 76 86  1  0  0  0
 77 78  2  0  0  0
 77 79  1  0  0  0
 77 80  1  0  0  0
 78148  1  0  0  0
 79 81  1  0  0  0
 79149  1  0  0  0
 79150  1  0  0  0
 80 82  1  0  0  0
 80151  1  0  0  0
 80152  1  0  0  0
 81 83  1  0  0  0
 81153  1  0  0  0
 81154  1  0  0  0
 82 83  1  0  0  0
 82155  1  0  0  0
 82156  1  0  0  0
 84157  1  0  0  0
 84158  1  0  0  0
 85159  1  0  0  0
M  ISO  4   1 100  68 101  78 101  85 100
M  END
> <chiral flag>
0

> <version>
0

> <s_m_source_file>
/data/baiqing/PycharmProjects/Reinvent-master-3.2/result/LINK_invent/BTK/process_docking_weight1_custom_product_contain_oxygen_bond_distance_aromatic_linkinvent_7_9_3/rearranged_h_0107.sdf

> <i_m_source_file_index>
96

> <r_mmod_Potential_Energy-OPLS-2005>
96.6974029541016

> <r_mmod_Stretch_Energy-OPLS-2005>
57.4739189147949

> <r_mmod_Bend_Energy-OPLS-2005>
130.321472167969

> <r_mmod_Torsional_Energy-OPLS-2005>
263.140563964844

> <r_mmod_Improper_Torsional_Energy-OPLS-2005>
12.0881977081299

> <r_mmod_Van_der_Waal_Energy-OPLS-2005>
150.773483276367

> <r_mmod_Electrostatic_Energy-OPLS-2005>
-331.306274414062

> <r_mmod_Solvation_Energy-OPLS-2005>
-214.601181030273

> <b_mmod_Minimization_Converged-OPLS-2005>
0

> <r_mmod_RMS_Derivative-OPLS-2005>
0.608897268772125

$$$$
96
                    3D
 Structure written by MMmdl.
159167  0  0  1  0            999 V2000
  -30.6879  -14.6493   20.5842 C   0  0  0  0  0  0
  -30.4270  -12.4239   19.4653 C   0  0  0  0  0  0
  -29.5076  -12.5207   18.2290 C   0  0  0  0  0  0
  -28.0332  -12.3364   18.6333 C   0  0  0  0  0  0
  -27.6438  -13.2164   19.8468 C   0  0  2  0  0  0
  -28.6781  -13.1096   20.9831 C   0  0  0  0  0  0
  -25.2493  -13.8128   20.5664 C   0  0  0  0  0  0
  -24.1785  -13.0389   20.9181 C   0  0  0  0  0  0
  -24.6375  -11.6875   20.8720 C   0  0  0  0  0  0
  -23.9053  -10.4269   21.0397 C   0  0  0  0  0  0
  -24.3610   -9.4194   21.9179 C   0  0  0  0  0  0
  -23.6285   -8.2232   22.0749 C   0  0  0  0  0  0
  -22.4264   -8.0272   21.3543 C   0  0  0  0  0  0
  -21.9897   -9.0243   20.4643 C   0  0  0  0  0  0
  -22.7225  -10.2119   20.3048 C   0  0  0  0  0  0
  -21.6850   -6.0732   22.5284 C   0  0  0  0  0  0
  -21.4012   -6.5637   23.8217 C   0  0  0  0  0  0
  -21.3657   -5.6788   24.9178 C   0  0  0  0  0  0
  -21.6041   -4.3052   24.7225 C   0  0  0  0  0  0
  -21.8819   -3.8145   23.4348 C   0  0  0  0  0  0
  -21.9192   -4.6962   22.3404 C   0  0  0  0  0  0
  -22.7817  -13.5192   21.1869 C   0  0  0  0  0  0
  -22.1659   -4.2149   21.0981 F   0  0  0  0  0  0
  -21.5628   -3.4533   25.7738 F   0  0  0  0  0  0
  -30.0070  -13.4558   20.4434 N   0  0  0  0  0  0
  -26.2920  -12.9328   20.3209 N   0  0  0  0  0  0
  -25.9295  -11.6483   20.5687 N   0  0  0  0  0  0
  -22.0469  -12.8192   22.0437 N   0  0  0  0  0  0
  -25.4119  -15.1851   20.4155 N   0  0  0  0  0  0
  -31.7787  -14.8088   20.0278 O   0  0  0  0  0  0
  -21.6629   -6.8872   21.4243 O   0  0  0  0  0  0
  -22.3502  -14.5503   20.6728 O   0  0  0  0  0  0
  -24.6269  -31.8586   23.2019 C   0  0  0  0  0  0
  -25.9114  -32.4774   23.8346 C   0  0  1  0  0  0
  -27.2249  -27.3070   20.1131 C   0  0  0  0  0  0
  -25.5926  -33.8576   24.2274 N   0  0  0  0  0  0
  -23.4209  -30.4825   21.5449 C   0  0  2  0  0  0
  -24.8675  -28.9375   20.1093 C   0  0  0  0  0  0
  -22.7479  -29.4616   22.4933 C   0  0  0  0  0  0
  -18.0291  -28.1386   22.8486 C   0  0  0  0  0  0
  -24.1488  -36.7291   23.2640 C   0  0  0  0  0  0
  -25.9639  -30.7842   21.3766 C   0  0  0  0  0  0
  -26.0371  -29.4113   20.7168 C   0  0  0  0  0  0
  -27.2175  -28.6075   20.7103 C   0  0  0  0  0  0
  -26.0324  -26.8953   19.4723 C   0  0  0  0  0  0
  -24.8682  -27.6854   19.4776 C   0  0  0  0  0  0
  -23.6354  -29.8179   20.1602 C   0  0  0  0  0  0
  -25.4116  -36.3082   24.0328 C   0  0  1  0  0  0
  -20.5891  -28.3683   23.1290 C   0  0  2  0  0  0
  -20.6770  -26.9398   22.5432 C   0  0  0  0  0  0
  -19.5758  -26.6378   21.5220 C   0  0  0  0  0  0
  -18.1933  -26.7930   22.1621 C   0  0  0  0  0  0
  -19.1543  -28.8852   23.2883 C   0  0  0  0  0  0
  -18.9465  -30.1452   23.8902 C   0  0  0  0  0  0
  -17.6465  -30.6583   24.0570 C   0  0  0  0  0  0
  -25.9053  -34.9452   23.5102 C   0  0  0  0  0  0
  -16.5357  -29.9084   23.6335 C   0  0  0  0  0  0
  -16.7278  -28.6505   23.0352 C   0  0  0  0  0  0
  -26.4491  -31.6589   25.0723 C   0  0  0  0  0  0
  -25.3719  -31.3731   26.1445 C   0  0  0  0  0  0
  -27.0337  -30.3011   24.6194 C   0  0  0  0  0  0
  -27.6050  -32.4325   25.7496 C   0  0  0  0  0  0
  -27.5580  -37.1802   24.8465 C   0  0  0  0  0  0
  -21.4193  -29.3026   22.3671 N   0  0  0  0  0  0
  -26.4294  -37.3777   23.9406 N   0  0  0  0  0  0
  -24.6894  -31.0585   22.0978 N   0  0  0  0  0  0
  -23.4202  -28.8167   23.3023 O   0  0  0  0  0  0
  -28.3378  -26.4455   20.1736 O   0  0  0  0  0  0
  -26.5623  -34.8924   22.4670 O   0  0  0  0  0  0
  -23.5432  -32.1392   23.7342 O   0  0  0  0  0  0
  -29.2158  -19.2039   19.9811 C   0  0  0  0  0  0
  -30.9206  -18.0104   21.8372 C   0  0  0  0  0  0
  -29.3124  -17.7678   20.0711 C   0  0  0  0  0  0
  -30.1508  -17.1186   21.0373 C   0  0  0  0  0  0
  -30.8381  -19.4266   21.7292 C   0  0  0  0  0  0
  -29.9648  -20.0762   20.8199 C   0  0  0  0  0  0
  -28.4521  -16.9422   19.1384 C   0  0  0  0  0  0
  -30.1874  -15.3696   22.7982 C   0  0  0  0  0  0
  -29.2000  -23.9256   20.4639 C   0  0  0  0  0  0
  -28.1326  -24.9895   19.9384 C   0  0  0  0  0  0
  -28.9578  -22.3586   20.2017 C   0  0  0  0  0  0
  -31.6246  -20.2178   22.5659 N   0  0  0  0  0  0
  -30.1448  -15.6639   21.3535 N   0  0  0  0  0  0
  -29.9563  -21.4944   20.8354 O   0  0  0  0  0  0
  -31.4706  -12.5316   19.1654 H   0  0  0  0  0  0
  -30.3563  -11.4327   19.9163 H   0  0  0  0  0  0
  -29.7890  -11.7678   17.4912 H   0  0  0  0  0  0
  -29.6400  -13.4896   17.7450 H   0  0  0  0  0  0
  -27.8847  -11.2838   18.8773 H   0  0  0  0  0  0
  -27.3791  -12.5466   17.7863 H   0  0  0  0  0  0
  -27.6500  -14.2431   19.4894 H   0  0  0  0  0  0
  -28.6947  -12.1024   21.4012 H   0  0  0  0  0  0
  -28.3540  -13.7637   21.7894 H   0  0  0  0  0  0
  -25.2758   -9.5670   22.4747 H   0  0  0  0  0  0
  -23.9997   -7.4622   22.7464 H   0  0  0  0  0  0
  -21.0828   -8.8761   19.8949 H   0  0  0  0  0  0
  -22.3689  -10.9658   19.6151 H   0  0  0  0  0  0
  -21.2004   -7.6145   23.9722 H   0  0  0  0  0  0
  -21.1476   -6.0517   25.9082 H   0  0  0  0  0  0
  -22.0602   -2.7608   23.2849 H   0  0  0  0  0  0
  -22.4084  -11.9856   22.4833 H   0  0  0  0  0  0
  -21.1089  -13.1223   22.2634 H   0  0  0  0  0  0
  -24.6469  -15.8387   20.5441 H   0  0  0  0  0  0
  -26.2705  -15.6316   20.1269 H   0  0  0  0  0  0
  -26.7180  -32.5441   23.1090 H   0  0  0  0  0  0
  -25.0063  -33.9717   25.0413 H   0  0  0  0  0  0
  -22.7148  -31.3030   21.4017 H   0  0  0  0  0  0
  -23.3755  -35.9619   23.3307 H   0  0  0  0  0  0
  -24.3576  -36.8910   22.2053 H   0  0  0  0  0  0
  -23.7236  -37.6495   23.6657 H   0  0  0  0  0  0
  -26.0992  -31.5484   20.6097 H   0  0  0  0  0  0
  -26.8429  -30.8313   22.0074 H   0  0  0  0  0  0
  -28.1126  -28.9656   21.1998 H   0  0  0  0  0  0
  -25.9698  -25.9444   18.9649 H   0  0  0  0  0  0
  -23.9739  -27.3191   18.9925 H   0  0  0  0  0  0
  -23.7516  -30.5941   19.4031 H   0  0  0  0  0  0
  -22.7551  -29.2470   19.8596 H   0  0  0  0  0  0
  -25.1297  -36.1933   25.0820 H   0  0  0  0  0  0
  -20.9990  -28.3264   24.1409 H   0  0  0  0  0  0
  -20.5641  -26.2298   23.3640 H   0  0  0  0  0  0
  -21.6646  -26.7407   22.1252 H   0  0  0  0  0  0
  -19.6913  -25.6286   21.1257 H   0  0  0  0  0  0
  -19.6716  -27.3186   20.6751 H   0  0  0  0  0  0
  -17.4209  -26.6683   21.4015 H   0  0  0  0  0  0
  -18.0323  -26.0070   22.9012 H   0  0  0  0  0  0
  -19.7940  -30.7264   24.2277 H   0  0  0  0  0  0
  -17.5021  -31.6263   24.5173 H   0  0  0  0  0  0
  -15.5357  -30.2982   23.7664 H   0  0  0  0  0  0
  -15.8680  -28.0823   22.7066 H   0  0  0  0  0  0
  -24.5896  -30.7077   25.7772 H   0  0  0  0  0  0
  -24.8906  -32.2900   26.4858 H   0  0  0  0  0  0
  -25.8038  -30.8914   27.0226 H   0  0  0  0  0  0
  -26.2917  -29.6763   24.1209 H   0  0  0  0  0  0
  -27.4019  -29.7262   25.4703 H   0  0  0  0  0  0
  -27.8792  -30.4296   23.9433 H   0  0  0  0  0  0
  -27.2661  -33.3627   26.2067 H   0  0  0  0  0  0
  -28.3865  -32.6882   25.0328 H   0  0  0  0  0  0
  -28.0712  -31.8453   26.5418 H   0  0  0  0  0  0
  -28.2603  -38.0095   24.7512 H   0  0  0  0  0  0
  -28.1072  -36.2627   24.6294 H   0  0  0  0  0  0
  -27.2294  -37.1454   25.8868 H   0  0  0  0  0  0
  -20.9368  -29.8735   21.6871 H   0  0  0  0  0  0
  -26.0178  -38.2854   24.1402 H   0  0  0  0  0  0
  -28.5480  -19.6414   19.2533 H   0  0  0  0  0  0
  -31.5938  -17.6054   22.5768 H   0  0  0  0  0  0
  -28.0313  -17.5481   18.3353 H   0  0  0  0  0  0
  -27.6272  -16.5145   19.6999 H   0  0  0  0  0  0
  -29.0271  -16.1398   18.6767 H   0  0  0  0  0  0
  -29.4721  -15.9938   23.3356 H   0  0  0  0  0  0
  -31.1800  -15.5629   23.2054 H   0  0  0  0  0  0
  -29.9680  -14.3341   23.0574 H   0  0  0  0  0  0
  -29.2964  -24.0667   21.5404 H   0  0  0  0  0  0
  -30.1737  -24.1886   20.0506 H   0  0  0  0  0  0
  -27.1824  -24.6961   20.3870 H   0  0  0  0  0  0
  -28.0220  -24.8460   18.8627 H   0  0  0  0  0  0
  -28.9499  -22.1658   19.1287 H   0  0  0  0  0  0
  -27.9732  -22.0775   20.5775 H   0  0  0  0  0  0
  -31.3538  -21.1958   22.6179 H   0  0  0  0  0  0
  -31.8935  -19.8368   23.4670 H   0  0  0  0  0  0
  1 25  1  0  0  0
  1 30  2  0  0  0
  1 83  1  0  0  0
  2  3  1  0  0  0
  2 25  1  0  0  0
  2 85  1  0  0  0
  2 86  1  0  0  0
  3  4  1  0  0  0
  3 87  1  0  0  0
  3 88  1  0  0  0
  4  5  1  0  0  0
  4 89  1  0  0  0
  4 90  1  0  0  0
  5  6  1  0  0  0
  5 26  1  0  0  0
  5 91  1  0  0  0
  6 25  1  0  0  0
  6 92  1  0  0  0
  6 93  1  0  0  0
  7  8  2  0  0  0
  7 26  1  0  0  0
  7 29  1  0  0  0
  8  9  1  0  0  0
  8 22  1  0  0  0
  9 10  1  0  0  0
  9 27  2  0  0  0
 10 11  2  0  0  0
 10 15  1  0  0  0
 11 12  1  0  0  0
 11 94  1  0  0  0
 12 13  2  0  0  0
 12 95  1  0  0  0
 13 14  1  0  0  0
 13 31  1  0  0  0
 14 15  2  0  0  0
 14 96  1  0  0  0
 15 97  1  0  0  0
 16 17  2  0  0  0
 16 21  1  0  0  0
 16 31  1  0  0  0
 17 18  1  0  0  0
 17 98  1  0  0  0
 18 19  2  0  0  0
 18 99  1  0  0  0
 19 20  1  0  0  0
 19 24  1  0  0  0
 20 21  2  0  0  0
 20100  1  0  0  0
 21 23  1  0  0  0
 22 28  1  0  0  0
 22 32  2  0  0  0
 26 27  1  0  0  0
 28101  1  0  0  0
 28102  1  0  0  0
 29103  1  0  0  0
 29104  1  0  0  0
 33 34  1  0  0  0
 33 66  1  0  0  0
 33 70  2  0  0  0
 34 36  1  0  0  0
 34 59  1  0  0  0
 34105  1  0  0  0
 35 44  2  0  0  0
 35 45  1  0  0  0
 35 68  1  0  0  0
 36 56  1  0  0  0
 36106  1  0  0  0
 37 39  1  0  0  0
 37 47  1  0  0  0
 37 66  1  0  0  0
 37107  1  0  0  0
 38 43  2  0  0  0
 38 46  1  0  0  0
 38 47  1  0  0  0
 39 64  1  0  0  0
 39 67  2  0  0  0
 40 52  1  0  0  0
 40 53  2  0  0  0
 40 58  1  0  0  0
 41108  1  0  0  0
 41109  1  0  0  0
 41110  1  0  0  0
 41 48  1  0  0  0
 42 43  1  0  0  0
 42 66  1  0  0  0
 42111  1  0  0  0
 42112  1  0  0  0
 43 44  1  0  0  0
 44113  1  0  0  0
 45 46  2  0  0  0
 45114  1  0  0  0
 46115  1  0  0  0
 47116  1  0  0  0
 47117  1  0  0  0
 48 56  1  0  0  0
 48 65  1  0  0  0
 48118  1  0  0  0
 49 50  1  0  0  0
 49 53  1  0  0  0
 49 64  1  0  0  0
 49119  1  0  0  0
 50 51  1  0  0  0
 50120  1  0  0  0
 50121  1  0  0  0
 51 52  1  0  0  0
 51122  1  0  0  0
 51123  1  0  0  0
 52124  1  0  0  0
 52125  1  0  0  0
 53 54  1  0  0  0
 54 55  2  0  0  0
 54126  1  0  0  0
 55 57  1  0  0  0
 55127  1  0  0  0
 56 69  2  0  0  0
 57 58  2  0  0  0
 57128  1  0  0  0
 58129  1  0  0  0
 59 60  1  0  0  0
 59 61  1  0  0  0
 59 62  1  0  0  0
 60130  1  0  0  0
 60131  1  0  0  0
 60132  1  0  0  0
 61133  1  0  0  0
 61134  1  0  0  0
 61135  1  0  0  0
 62136  1  0  0  0
 62137  1  0  0  0
 62138  1  0  0  0
 63 65  1  0  0  0
 63139  1  0  0  0
 63140  1  0  0  0
 63141  1  0  0  0
 64142  1  0  0  0
 65143  1  0  0  0
 68 80  1  0  0  0
 71 73  2  0  0  0
 71 76  1  0  0  0
 71144  1  0  0  0
 72 74  2  0  0  0
 72 75  1  0  0  0
 72145  1  0  0  0
 73 74  1  0  0  0
 73 77  1  0  0  0
 74 83  1  0  0  0
 75 76  2  0  0  0
 75 82  1  0  0  0
 76 84  1  0  0  0
 77146  1  0  0  0
 77147  1  0  0  0
 77148  1  0  0  0
 78 83  1  0  0  0
 78149  1  0  0  0
 78150  1  0  0  0
 78151  1  0  0  0
 79 80  1  0  0  0
 79 81  1  0  0  0
 79152  1  0  0  0
 79153  1  0  0  0
 80154  1  0  0  0
 80155  1  0  0  0
 81 84  1  0  0  0
 81156  1  0  0  0
 81157  1  0  0  0
 82158  1  0  0  0
 82159  1  0  0  0
M  ISO  4   1 100  68 101  80 101  83 100
M  END
> <chiral flag>
0

> <version>
0

> <s_m_source_file>
/data/baiqing/PycharmProjects/Reinvent-master-3.2/result/LINK_invent/BTK/process_docking_weight1_custom_product_contain_oxygen_bond_distance_aromatic_linkinvent_7_9_3/rearranged_h_0107.sdf

> <i_m_source_file_index>
97

> <r_mmod_Potential_Energy-OPLS-2005>
232.099411010742

> <r_mmod_Stretch_Energy-OPLS-2005>
97.0736083984375

> <r_mmod_Bend_Energy-OPLS-2005>
167.356872558594

> <r_mmod_Torsional_Energy-OPLS-2005>
293.778656005859

> <r_mmod_Improper_Torsional_Energy-OPLS-2005>
8.36759471893311

> <r_mmod_Van_der_Waal_Energy-OPLS-2005>
148.727111816406

> <r_mmod_Electrostatic_Energy-OPLS-2005>
-326.148864746094

> <r_mmod_Solvation_Energy-OPLS-2005>
-210.228958129883

> <b_mmod_Minimization_Converged-OPLS-2005>
0

> <r_mmod_RMS_Derivative-OPLS-2005>
0.79034811258316

$$$$
97
                    3D
 Structure written by MMmdl.
164173  0  0  1  0            999 V2000
  -30.7657  -14.4607   20.5487 C   0  0  0  0  0  0
  -30.3995  -12.2992   19.4307 C   0  0  0  0  0  0
  -29.4884  -12.5010   18.2055 C   0  0  0  0  0  0
  -28.0101  -12.3661   18.6162 C   0  0  0  0  0  0
  -27.6528  -13.2220   19.8636 C   0  0  2  0  0  0
  -28.7017  -13.0568   20.9913 C   0  0  0  0  0  0
  -25.2528  -13.8146   20.5666 C   0  0  0  0  0  0
  -24.1822  -13.0397   20.9220 C   0  0  0  0  0  0
  -24.6402  -11.6880   20.8784 C   0  0  0  0  0  0
  -23.9057  -10.4253   21.0438 C   0  0  0  0  0  0
  -24.3584   -9.4156   21.9221 C   0  0  0  0  0  0
  -23.6258   -8.2201   22.0799 C   0  0  0  0  0  0
  -22.4257   -8.0237   21.3568 C   0  0  0  0  0  0
  -21.9888   -9.0213   20.4682 C   0  0  0  0  0  0
  -22.7224  -10.2091   20.3085 C   0  0  0  0  0  0
  -21.6817   -6.0701   22.5279 C   0  0  0  0  0  0
  -21.4008   -6.5624   23.8206 C   0  0  0  0  0  0
  -21.3681   -5.6794   24.9182 C   0  0  0  0  0  0
  -21.6058   -4.3056   24.7245 C   0  0  0  0  0  0
  -21.8814   -3.8128   23.4372 C   0  0  0  0  0  0
  -21.9183   -4.6935   22.3418 C   0  0  0  0  0  0
  -22.7837  -13.5189   21.1845 C   0  0  0  0  0  0
  -22.1647   -4.2110   21.0997 F   0  0  0  0  0  0
  -21.5626   -3.4564   25.7773 F   0  0  0  0  0  0
  -30.0329  -13.3209   20.4244 N   0  0  0  0  0  0
  -26.2996  -12.9362   20.3355 N   0  0  0  0  0  0
  -25.9336  -11.6496   20.5794 N   0  0  0  0  0  0
  -22.0467  -12.8217   22.0433 N   0  0  0  0  0  0
  -25.4115  -15.1856   20.3939 N   0  0  0  0  0  0
  -31.9045  -14.5568   20.0870 O   0  0  0  0  0  0
  -21.6605   -6.8850   21.4242 O   0  0  0  0  0  0
  -22.3516  -14.5461   20.6619 O   0  0  0  0  0  0
  -24.6127  -31.8667   23.2119 C   0  0  0  0  0  0
  -25.9032  -32.4814   23.8417 C   0  0  1  0  0  0
  -27.2302  -27.4240   20.1097 C   0  0  0  0  0  0
  -25.5873  -33.8603   24.2334 N   0  0  0  0  0  0
  -23.4029  -30.4925   21.5488 C   0  0  2  0  0  0
  -24.8515  -28.9557   20.1185 C   0  0  0  0  0  0
  -22.7430  -29.4663   22.4966 C   0  0  0  0  0  0
  -18.0309  -28.1472   22.8507 C   0  0  0  0  0  0
  -24.1473  -36.7318   23.2646 C   0  0  0  0  0  0
  -25.9321  -30.8323   21.3663 C   0  0  0  0  0  0
  -26.0114  -29.4624   20.7206 C   0  0  0  0  0  0
  -27.2058  -28.7006   20.7212 C   0  0  0  0  0  0
  -26.0621  -26.9401   19.4908 C   0  0  0  0  0  0
  -24.8708  -27.6886   19.5086 C   0  0  0  0  0  0
  -23.6127  -29.8219   20.1638 C   0  0  0  0  0  0
  -25.4110  -36.3107   24.0325 C   0  0  1  0  0  0
  -20.5884  -28.3778   23.1378 C   0  0  2  0  0  0
  -20.6823  -26.9466   22.5589 C   0  0  0  0  0  0
  -19.5815  -26.6353   21.5388 C   0  0  0  0  0  0
  -18.1947  -26.7974   22.1700 C   0  0  0  0  0  0
  -19.1549  -28.8936   23.2897 C   0  0  0  0  0  0
  -18.9488  -30.1549   23.8908 C   0  0  0  0  0  0
  -17.6508  -30.6678   24.0594 C   0  0  0  0  0  0
  -25.9032  -34.9463   23.5132 C   0  0  0  0  0  0
  -16.5390  -29.9197   23.6357 C   0  0  0  0  0  0
  -16.7298  -28.6610   23.0373 C   0  0  0  0  0  0
  -26.4473  -31.6593   25.0740 C   0  0  0  0  0  0
  -25.3753  -31.3679   26.1494 C   0  0  0  0  0  0
  -27.0312  -30.3037   24.6124 C   0  0  0  0  0  0
  -27.6035  -32.4327   25.7505 C   0  0  0  0  0  0
  -27.5574  -37.1813   24.8461 C   0  0  0  0  0  0
  -21.4148  -29.3086   22.3734 N   0  0  0  0  0  0
  -26.4302  -37.3788   23.9389 N   0  0  0  0  0  0
  -24.6672  -31.0770   22.1023 N   0  0  0  0  0  0
  -23.4209  -28.8185   23.2990 O   0  0  0  0  0  0
  -28.3752  -26.6592   20.0644 O   0  0  0  0  0  0
  -26.5596  -34.8912   22.4701 O   0  0  0  0  0  0
  -23.5326  -32.1435   23.7526 O   0  0  0  0  0  0
  -30.3995  -19.3132   21.6190 C   0  0  0  0  0  0
  -29.8009  -20.5680   21.3692 C   0  0  0  0  0  0
  -28.4486  -19.5552   19.6395 C   0  0  0  0  0  0
  -30.0487  -18.1593   20.8798 C   0  0  0  0  0  0
  -28.8078  -20.7175   20.3746 C   0  0  0  0  0  0
  -29.0642  -18.2991   19.8681 C   0  0  0  0  0  0
  -28.0078  -24.3016   20.8738 C   0  0  0  0  0  0
  -28.7096  -23.2506   20.3601 C   0  0  0  0  0  0
  -26.6044  -24.0594   21.2573 C   0  0  0  0  0  0
  -25.8620  -23.0373   20.4090 C   0  0  0  0  0  0
  -26.6927  -21.7676   20.1525 C   0  0  0  0  0  0
  -30.1423  -23.4219   19.8696 C   0  0  0  0  0  0
  -30.8396  -16.8632   21.1591 C   0  0  0  0  0  0
  -28.5481  -25.7215   21.1442 C   0  0  0  0  0  0
  -28.1523  -21.9644   20.1696 N   0  0  0  0  0  0
  -28.7057  -17.2162   19.0632 N   0  0  0  0  0  0
  -30.1635  -15.5482   21.0659 N   0  0  0  0  0  0
  -26.0183  -24.6362   22.1776 O   0  0  0  0  0  0
  -31.4485  -12.3469   19.1340 H   0  0  0  0  0  0
  -30.2572  -11.3025   19.8500 H   0  0  0  0  0  0
  -29.7248  -11.7716   17.4306 H   0  0  0  0  0  0
  -29.6712  -13.4835   17.7662 H   0  0  0  0  0  0
  -27.8212  -11.3119   18.8229 H   0  0  0  0  0  0
  -27.3631  -12.6266   17.7761 H   0  0  0  0  0  0
  -27.6771  -14.2643   19.5425 H   0  0  0  0  0  0
  -28.6779  -12.0439   21.3955 H   0  0  0  0  0  0
  -28.4770  -13.7136   21.8310 H   0  0  0  0  0  0
  -25.2726   -9.5601   22.4810 H   0  0  0  0  0  0
  -23.9953   -7.4592   22.7539 H   0  0  0  0  0  0
  -21.0814   -8.8700   19.9013 H   0  0  0  0  0  0
  -22.3662  -10.9596   19.6183 H   0  0  0  0  0  0
  -21.1988   -7.6133   23.9685 H   0  0  0  0  0  0
  -21.1525   -6.0555   25.9074 H   0  0  0  0  0  0
  -22.0579   -2.7582   23.2895 H   0  0  0  0  0  0
  -22.4093  -11.9879   22.4805 H   0  0  0  0  0  0
  -21.1098  -13.1262   22.2637 H   0  0  0  0  0  0
  -24.6035  -15.7994   20.4065 H   0  0  0  0  0  0
  -26.2190  -15.5994   19.9418 H   0  0  0  0  0  0
  -26.7103  -32.5530   23.1190 H   0  0  0  0  0  0
  -24.9971  -33.9767   25.0433 H   0  0  0  0  0  0
  -22.6925  -31.3111   21.4064 H   0  0  0  0  0  0
  -23.3714  -35.9672   23.3340 H   0  0  0  0  0  0
  -24.3563  -36.8907   22.2055 H   0  0  0  0  0  0
  -23.7256  -37.6543   23.6647 H   0  0  0  0  0  0
  -26.0486  -31.5990   20.5983 H   0  0  0  0  0  0
  -26.8164  -30.8906   21.9876 H   0  0  0  0  0  0
  -28.1026  -29.0879   21.1845 H   0  0  0  0  0  0
  -26.0708  -25.9781   18.9991 H   0  0  0  0  0  0
  -23.9788  -27.2940   19.0429 H   0  0  0  0  0  0
  -23.7256  -30.5947   19.4007 H   0  0  0  0  0  0
  -22.7366  -29.2413   19.8683 H   0  0  0  0  0  0
  -25.1293  -36.2005   25.0818 H   0  0  0  0  0  0
  -20.9980  -28.3504   24.1516 H   0  0  0  0  0  0
  -20.5752  -26.2451   23.3882 H   0  0  0  0  0  0
  -21.6715  -26.7482   22.1429 H   0  0  0  0  0  0
  -19.6985  -25.6222   21.1529 H   0  0  0  0  0  0
  -19.6829  -27.3056   20.6842 H   0  0  0  0  0  0
  -17.4237  -26.6675   21.4091 H   0  0  0  0  0  0
  -18.0239  -26.0193   22.9145 H   0  0  0  0  0  0
  -19.7978  -30.7370   24.2246 H   0  0  0  0  0  0
  -17.5103  -31.6350   24.5238 H   0  0  0  0  0  0
  -15.5408  -30.3145   23.7711 H   0  0  0  0  0  0
  -15.8693  -28.0955   22.7131 H   0  0  0  0  0  0
  -24.5920  -30.7038   25.7840 H   0  0  0  0  0  0
  -24.8955  -32.2818   26.4976 H   0  0  0  0  0  0
  -25.8123  -30.8835   27.0232 H   0  0  0  0  0  0
  -26.2866  -29.6801   24.1171 H   0  0  0  0  0  0
  -27.4070  -29.7281   25.4590 H   0  0  0  0  0  0
  -27.8693  -30.4348   23.9291 H   0  0  0  0  0  0
  -27.2629  -33.3604   26.2113 H   0  0  0  0  0  0
  -28.3823  -32.6935   25.0329 H   0  0  0  0  0  0
  -28.0735  -31.8454   26.5403 H   0  0  0  0  0  0
  -28.2609  -38.0092   24.7487 H   0  0  0  0  0  0
  -28.1055  -36.2622   24.6325 H   0  0  0  0  0  0
  -27.2270  -37.1492   25.8859 H   0  0  0  0  0  0
  -20.9300  -29.8856   21.7000 H   0  0  0  0  0  0
  -26.0189  -38.2864   24.1399 H   0  0  0  0  0  0
  -31.1533  -19.2463   22.3911 H   0  0  0  0  0  0
  -30.1007  -21.4158   21.9685 H   0  0  0  0  0  0
  -27.7019  -19.6333   18.8622 H   0  0  0  0  0  0
  -25.6466  -23.5253   19.4603 H   0  0  0  0  0  0
  -24.9038  -22.7828   20.8628 H   0  0  0  0  0  0
  -26.4188  -21.0190   20.8985 H   0  0  0  0  0  0
  -26.4001  -21.3641   19.1827 H   0  0  0  0  0  0
  -30.2365  -24.3408   19.2919 H   0  0  0  0  0  0
  -30.4551  -22.6047   19.2158 H   0  0  0  0  0  0
  -30.8376  -23.4824   20.7075 H   0  0  0  0  0  0
  -31.2912  -16.9315   22.1489 H   0  0  0  0  0  0
  -31.6759  -16.9112   20.4576 H   0  0  0  0  0  0
  -29.6184  -25.6480   21.3378 H   0  0  0  0  0  0
  -28.1273  -26.1245   22.0680 H   0  0  0  0  0  0
  -27.8389  -17.2030   18.5393 H   0  0  0  0  0  0
  -29.1622  -16.3194   19.1736 H   0  0  0  0  0  0
  -29.2175  -15.4709   21.4102 H   0  0  0  0  0  0
  1 25  1  0  0  0
  1 30  2  0  0  0
  1 87  1  0  0  0
  2  3  1  0  0  0
  2 25  1  0  0  0
  2 89  1  0  0  0
  2 90  1  0  0  0
  3  4  1  0  0  0
  3 91  1  0  0  0
  3 92  1  0  0  0
  4  5  1  0  0  0
  4 93  1  0  0  0
  4 94  1  0  0  0
  5  6  1  0  0  0
  5 26  1  0  0  0
  5 95  1  0  0  0
  6 25  1  0  0  0
  6 96  1  0  0  0
  6 97  1  0  0  0
  7  8  2  0  0  0
  7 26  1  0  0  0
  7 29  1  0  0  0
  8  9  1  0  0  0
  8 22  1  0  0  0
  9 10  1  0  0  0
  9 27  2  0  0  0
 10 11  2  0  0  0
 10 15  1  0  0  0
 11 12  1  0  0  0
 11 98  1  0  0  0
 12 13  2  0  0  0
 12 99  1  0  0  0
 13 14  1  0  0  0
 13 31  1  0  0  0
 14 15  2  0  0  0
 14100  1  0  0  0
 15101  1  0  0  0
 16 17  2  0  0  0
 16 21  1  0  0  0
 16 31  1  0  0  0
 17 18  1  0  0  0
 17102  1  0  0  0
 18 19  2  0  0  0
 18103  1  0  0  0
 19 20  1  0  0  0
 19 24  1  0  0  0
 20 21  2  0  0  0
 20104  1  0  0  0
 21 23  1  0  0  0
 22 28  1  0  0  0
 22 32  2  0  0  0
 26 27  1  0  0  0
 28105  1  0  0  0
 28106  1  0  0  0
 29107  1  0  0  0
 29108  1  0  0  0
 33 34  1  0  0  0
 33 66  1  0  0  0
 33 70  2  0  0  0
 34 36  1  0  0  0
 34 59  1  0  0  0
 34109  1  0  0  0
 35 44  2  0  0  0
 35 45  1  0  0  0
 35 68  1  0  0  0
 36 56  1  0  0  0
 36110  1  0  0  0
 37 39  1  0  0  0
 37 47  1  0  0  0
 37 66  1  0  0  0
 37111  1  0  0  0
 38 43  2  0  0  0
 38 46  1  0  0  0
 38 47  1  0  0  0
 39 64  1  0  0  0
 39 67  2  0  0  0
 40 52  1  0  0  0
 40 53  2  0  0  0
 40 58  1  0  0  0
 41112  1  0  0  0
 41113  1  0  0  0
 41114  1  0  0  0
 41 48  1  0  0  0
 42 43  1  0  0  0
 42 66  1  0  0  0
 42115  1  0  0  0
 42116  1  0  0  0
 43 44  1  0  0  0
 44117  1  0  0  0
 45 46  2  0  0  0
 45118  1  0  0  0
 46119  1  0  0  0
 47120  1  0  0  0
 47121  1  0  0  0
 48 56  1  0  0  0
 48 65  1  0  0  0
 48122  1  0  0  0
 49 50  1  0  0  0
 49 53  1  0  0  0
 49 64  1  0  0  0
 49123  1  0  0  0
 50 51  1  0  0  0
 50124  1  0  0  0
 50125  1  0  0  0
 51 52  1  0  0  0
 51126  1  0  0  0
 51127  1  0  0  0
 52128  1  0  0  0
 52129  1  0  0  0
 53 54  1  0  0  0
 54 55  2  0  0  0
 54130  1  0  0  0
 55 57  1  0  0  0
 55131  1  0  0  0
 56 69  2  0  0  0
 57 58  2  0  0  0
 57132  1  0  0  0
 58133  1  0  0  0
 59 60  1  0  0  0
 59 61  1  0  0  0
 59 62  1  0  0  0
 60134  1  0  0  0
 60135  1  0  0  0
 60136  1  0  0  0
 61137  1  0  0  0
 61138  1  0  0  0
 61139  1  0  0  0
 62140  1  0  0  0
 62141  1  0  0  0
 62142  1  0  0  0
 63 65  1  0  0  0
 63143  1  0  0  0
 63144  1  0  0  0
 63145  1  0  0  0
 64146  1  0  0  0
 65147  1  0  0  0
 68 84  1  0  0  0
 71 72  2  0  0  0
 71 74  1  0  0  0
 71148  1  0  0  0
 72 75  1  0  0  0
 72149  1  0  0  0
 73 75  2  0  0  0
 73 76  1  0  0  0
 73150  1  0  0  0
 74 76  2  0  0  0
 74 83  1  0  0  0
 75 85  1  0  0  0
 76 86  1  0  0  0
 77 78  2  0  0  0
 77 79  1  0  0  0
 77 84  1  0  0  0
 78 82  1  0  0  0
 78 85  1  0  0  0
 79 80  1  0  0  0
 79 88  2  0  0  0
 80 81  1  0  0  0
 80151  1  0  0  0
 80152  1  0  0  0
 81 85  1  0  0  0
 81153  1  0  0  0
 81154  1  0  0  0
 82155  1  0  0  0
 82156  1  0  0  0
 82157  1  0  0  0
 83 87  1  0  0  0
 83158  1  0  0  0
 83159  1  0  0  0
 84160  1  0  0  0
 84161  1  0  0  0
 86162  1  0  0  0
 86163  1  0  0  0
 87164  1  0  0  0
M  ISO  4   1 100  68 101  84 101  87 100
M  END
> <chiral flag>
0

> <version>
0

> <s_m_source_file>
/data/baiqing/PycharmProjects/Reinvent-master-3.2/result/LINK_invent/BTK/process_docking_weight1_custom_product_contain_oxygen_bond_distance_aromatic_linkinvent_7_9_3/rearranged_h_0107.sdf

> <i_m_source_file_index>
98

> <r_mmod_Potential_Energy-OPLS-2005>
-18.1241264343262

> <r_mmod_Stretch_Energy-OPLS-2005>
46.1829605102539

> <r_mmod_Bend_Energy-OPLS-2005>
112.683372497559

> <r_mmod_Torsional_Energy-OPLS-2005>
228.590377807617

> <r_mmod_Improper_Torsional_Energy-OPLS-2005>
6.30251455307007

> <r_mmod_Van_der_Waal_Energy-OPLS-2005>
168.280258178711

> <r_mmod_Electrostatic_Energy-OPLS-2005>
-372.443939208984

> <r_mmod_Solvation_Energy-OPLS-2005>
-224.580688476562

> <b_mmod_Minimization_Converged-OPLS-2005>
0

> <r_mmod_RMS_Derivative-OPLS-2005>
4.2989068031311

$$$$
98
                    3D
 Structure written by MMmdl.
173182  0  0  1  0            999 V2000
  -30.6161  -14.7423   20.5580 C   0  0  0  0  0  0
  -30.4600  -12.4731   19.4875 C   0  0  0  0  0  0
  -29.5305  -12.5295   18.2524 C   0  0  0  0  0  0
  -28.0547  -12.3483   18.6565 C   0  0  0  0  0  0
  -27.6588  -13.2297   19.8680 C   0  0  2  0  0  0
  -28.6985  -13.1213   21.0090 C   0  0  0  0  0  0
  -25.2510  -13.8070   20.5500 C   0  0  0  0  0  0
  -24.1805  -13.0382   20.9153 C   0  0  0  0  0  0
  -24.6406  -11.6873   20.8724 C   0  0  0  0  0  0
  -23.9057  -10.4277   21.0429 C   0  0  0  0  0  0
  -24.3590   -9.4195   21.9212 C   0  0  0  0  0  0
  -23.6260   -8.2238   22.0771 C   0  0  0  0  0  0
  -22.4244   -8.0272   21.3544 C   0  0  0  0  0  0
  -21.9871   -9.0263   20.4664 C   0  0  0  0  0  0
  -22.7216  -10.2130   20.3089 C   0  0  0  0  0  0
  -21.6846   -6.0719   22.5264 C   0  0  0  0  0  0
  -21.4020   -6.5613   23.8204 C   0  0  0  0  0  0
  -21.3658   -5.6764   24.9161 C   0  0  0  0  0  0
  -21.6050   -4.3027   24.7206 C   0  0  0  0  0  0
  -21.8816   -3.8126   23.4322 C   0  0  0  0  0  0
  -21.9176   -4.6944   22.3382 C   0  0  0  0  0  0
  -22.7834  -13.5219   21.1789 C   0  0  0  0  0  0
  -22.1657   -4.2130   21.0966 F   0  0  0  0  0  0
  -21.5617   -3.4523   25.7730 F   0  0  0  0  0  0
  -30.0193  -13.4999   20.4665 N   0  0  0  0  0  0
  -26.3021  -12.9336   20.3276 N   0  0  0  0  0  0
  -25.9357  -11.6485   20.5754 N   0  0  0  0  0  0
  -22.0428  -12.8311   22.0380 N   0  0  0  0  0  0
  -25.4095  -15.1715   20.3576 N   0  0  0  0  0  0
  -31.7093  -14.9439   20.0194 O   0  0  0  0  0  0
  -21.6630   -6.8855   21.4227 O   0  0  0  0  0  0
  -22.3551  -14.5514   20.6584 O   0  0  0  0  0  0
  -24.6319  -31.8533   23.1943 C   0  0  0  0  0  0
  -25.9145  -32.4737   23.8295 C   0  0  1  0  0  0
  -27.2398  -27.2531   20.1425 C   0  0  0  0  0  0
  -25.5935  -33.8539   24.2226 N   0  0  0  0  0  0
  -23.4291  -30.4756   21.5364 C   0  0  2  0  0  0
  -24.8809  -28.9158   20.1099 C   0  0  0  0  0  0
  -22.7497  -29.4618   22.4898 C   0  0  0  0  0  0
  -18.0291  -28.1384   22.8490 C   0  0  0  0  0  0
  -24.1488  -36.7287   23.2643 C   0  0  0  0  0  0
  -25.9746  -30.7663   21.3741 C   0  0  0  0  0  0
  -26.0512  -29.3869   20.7186 C   0  0  0  0  0  0
  -27.2288  -28.5694   20.7202 C   0  0  0  0  0  0
  -26.0448  -26.8569   19.4958 C   0  0  0  0  0  0
  -24.8841  -27.6592   19.4861 C   0  0  0  0  0  0
  -23.6502  -29.8032   20.1545 C   0  0  0  0  0  0
  -25.4110  -36.3061   24.0332 C   0  0  1  0  0  0
  -20.5894  -28.3711   23.1264 C   0  0  2  0  0  0
  -20.6784  -26.9430   22.5416 C   0  0  0  0  0  0
  -19.5765  -26.6382   21.5217 C   0  0  0  0  0  0
  -18.1932  -26.7935   22.1609 C   0  0  0  0  0  0
  -19.1544  -28.8861   23.2878 C   0  0  0  0  0  0
  -18.9477  -30.1456   23.8910 C   0  0  0  0  0  0
  -17.6484  -30.6596   24.0574 C   0  0  0  0  0  0
  -25.9058  -34.9435   23.5094 C   0  0  0  0  0  0
  -16.5374  -29.9103   23.6324 C   0  0  0  0  0  0
  -16.7281  -28.6505   23.0368 C   0  0  0  0  0  0
  -26.4508  -31.6560   25.0686 C   0  0  0  0  0  0
  -25.3750  -31.3743   26.1440 C   0  0  0  0  0  0
  -27.0333  -30.2954   24.6184 C   0  0  0  0  0  0
  -27.6028  -32.4330   25.7465 C   0  0  0  0  0  0
  -27.5583  -37.1796   24.8462 C   0  0  0  0  0  0
  -21.4197  -29.3061   22.3636 N   0  0  0  0  0  0
  -26.4282  -37.3766   23.9416 N   0  0  0  0  0  0
  -24.6971  -31.0508   22.0917 N   0  0  0  0  0  0
  -23.4195  -28.8172   23.3015 O   0  0  0  0  0  0
  -28.3454  -26.3625   20.2345 O   0  0  0  0  0  0
  -26.5642  -34.8921   22.4663 O   0  0  0  0  0  0
  -23.5462  -32.1363   23.7241 O   0  0  0  0  0  0
  -27.9206  -19.5433   21.2408 C   0  0  0  0  0  0
  -28.0494  -17.1091   21.4334 C   0  0  0  0  0  0
  -30.0318  -18.3836   20.8558 C   0  0  0  0  0  0
  -27.3034  -18.3018   21.4904 C   0  0  0  0  0  0
  -29.2871  -19.6560   20.9162 C   0  0  0  0  0  0
  -29.4214  -17.0771   21.1167 C   0  0  0  0  0  0
  -30.5987  -22.5617   17.9831 C   0  0  0  0  0  0
  -31.9034  -22.3625   18.7632 C   0  0  0  0  0  0
  -29.2589  -22.0559   18.5460 C   0  0  0  0  0  0
  -31.9928  -21.0598   19.5725 C   0  0  0  0  0  0
  -31.2489  -21.1353   20.9135 C   0  0  0  0  0  0
  -29.0415  -22.1666   20.0745 C   0  0  2  0  0  0
  -25.0071  -18.5544   20.5278 C   0  0  0  0  0  0
  -25.3889  -19.1281   22.9789 C   0  0  0  0  0  0
  -29.1920  -23.7278   20.5724 C   0  0  0  0  0  0
  -28.1737  -24.8781   20.0044 C   0  0  0  0  0  0
  -25.8114  -18.2401   21.7948 C   0  0  0  0  0  0
  -29.8009  -21.0233   20.7649 N   0  0  0  0  0  0
  -29.9885  -15.7096   21.3236 N   0  0  0  0  0  0
  -30.6264  -23.1374   16.8929 O   0  0  0  0  0  0
  -31.4998  -12.6121   19.1837 H   0  0  0  0  0  0
  -30.4205  -11.4863   19.9454 H   0  0  0  0  0  0
  -29.8177  -11.7630   17.5285 H   0  0  0  0  0  0
  -29.6537  -13.4850   17.7444 H   0  0  0  0  0  0
  -27.9031  -11.2966   18.9024 H   0  0  0  0  0  0
  -27.4019  -12.5680   17.8097 H   0  0  0  0  0  0
  -27.6707  -14.2602   19.5138 H   0  0  0  0  0  0
  -28.7289  -12.1039   21.3992 H   0  0  0  0  0  0
  -28.4068  -13.7550   21.8488 H   0  0  0  0  0  0
  -25.2736   -9.5693   22.4778 H   0  0  0  0  0  0
  -23.9975   -7.4622   22.7478 H   0  0  0  0  0  0
  -21.0788   -8.8794   19.8959 H   0  0  0  0  0  0
  -22.3680  -10.9669   19.6197 H   0  0  0  0  0  0
  -21.2054   -7.6133   23.9702 H   0  0  0  0  0  0
  -21.1482   -6.0500   25.9061 H   0  0  0  0  0  0
  -22.0602   -2.7582   23.2837 H   0  0  0  0  0  0
  -22.3989  -12.0030   22.4935 H   0  0  0  0  0  0
  -21.1072  -13.1456   22.2520 H   0  0  0  0  0  0
  -24.6203  -15.8026   20.4094 H   0  0  0  0  0  0
  -26.2143  -15.5884   19.9095 H   0  0  0  0  0  0
  -26.7215  -32.5382   23.1028 H   0  0  0  0  0  0
  -25.0077  -33.9645   25.0369 H   0  0  0  0  0  0
  -22.7265  -31.2986   21.3847 H   0  0  0  0  0  0
  -23.3743  -35.9628   23.3284 H   0  0  0  0  0  0
  -24.3597  -36.8930   22.2063 H   0  0  0  0  0  0
  -23.7243  -37.6484   23.6678 H   0  0  0  0  0  0
  -26.1165  -31.5273   20.6057 H   0  0  0  0  0  0
  -26.8502  -30.8132   22.0098 H   0  0  0  0  0  0
  -28.1215  -28.9273   21.2134 H   0  0  0  0  0  0
  -25.9770  -25.8958   19.0104 H   0  0  0  0  0  0
  -23.9877  -27.2924   19.0037 H   0  0  0  0  0  0
  -23.7787  -30.5765   19.3958 H   0  0  0  0  0  0
  -22.7652  -29.2410   19.8482 H   0  0  0  0  0  0
  -25.1284  -36.1902   25.0826 H   0  0  0  0  0  0
  -20.9981  -28.3303   24.1390 H   0  0  0  0  0  0
  -20.5659  -26.2342   23.3629 H   0  0  0  0  0  0
  -21.6662  -26.7459   22.1241 H   0  0  0  0  0  0
  -19.6941  -25.6283   21.1275 H   0  0  0  0  0  0
  -19.6691  -27.3170   20.6724 H   0  0  0  0  0  0
  -17.4214  -26.6704   21.3998 H   0  0  0  0  0  0
  -18.0319  -26.0061   22.8981 H   0  0  0  0  0  0
  -19.7957  -30.7261   24.2288 H   0  0  0  0  0  0
  -17.5050  -31.6274   24.5183 H   0  0  0  0  0  0
  -15.5381  -30.3034   23.7630 H   0  0  0  0  0  0
  -15.8667  -28.0828   22.7105 H   0  0  0  0  0  0
  -24.5867  -30.7149   25.7788 H   0  0  0  0  0  0
  -24.9039  -32.2952   26.4888 H   0  0  0  0  0  0
  -25.8104  -30.8892   27.0187 H   0  0  0  0  0  0
  -26.2903  -29.6700   24.1226 H   0  0  0  0  0  0
  -27.4005  -29.7221   25.4699 H   0  0  0  0  0  0
  -27.8791  -30.4173   23.9415 H   0  0  0  0  0  0
  -27.2558  -33.3587   26.2063 H   0  0  0  0  0  0
  -28.3822  -32.6982   25.0309 H   0  0  0  0  0  0
  -28.0725  -31.8484   26.5378 H   0  0  0  0  0  0
  -28.2600  -38.0091   24.7517 H   0  0  0  0  0  0
  -28.1088  -36.2637   24.6264 H   0  0  0  0  0  0
  -27.2340  -37.1428   25.8876 H   0  0  0  0  0  0
  -20.9368  -29.8778   21.6838 H   0  0  0  0  0  0
  -26.0160  -38.2847   24.1402 H   0  0  0  0  0  0
  -27.3088  -20.4239   21.3533 H   0  0  0  0  0  0
  -27.5485  -16.1810   21.6781 H   0  0  0  0  0  0
  -31.0902  -18.4081   20.6512 H   0  0  0  0  0  0
  -32.0736  -23.2221   19.4116 H   0  0  0  0  0  0
  -32.7184  -22.3706   18.0407 H   0  0  0  0  0  0
  -29.1280  -21.0224   18.2264 H   0  0  0  0  0  0
  -28.4756  -22.6244   18.0449 H   0  0  0  0  0  0
  -33.0466  -20.8753   19.7853 H   0  0  0  0  0  0
  -31.6696  -20.2058   18.9745 H   0  0  0  0  0  0
  -31.4955  -22.0672   21.4262 H   0  0  0  0  0  0
  -31.6179  -20.3530   21.5804 H   0  0  0  0  0  0
  -27.9836  -21.9620   20.2188 H   0  0  0  0  0  0
  -25.2985  -17.8956   19.7090 H   0  0  0  0  0  0
  -25.1742  -19.5804   20.1974 H   0  0  0  0  0  0
  -23.9377  -18.4188   20.6933 H   0  0  0  0  0  0
  -25.9476  -18.8770   23.8827 H   0  0  0  0  0  0
  -24.3291  -18.9969   23.2087 H   0  0  0  0  0  0
  -25.5379  -20.1876   22.7720 H   0  0  0  0  0  0
  -30.2072  -24.0682   20.3708 H   0  0  0  0  0  0
  -29.1185  -23.7427   21.6602 H   0  0  0  0  0  0
  -27.1894  -24.5978   20.3812 H   0  0  0  0  0  0
  -28.1129  -24.7620   18.9229 H   0  0  0  0  0  0
  -25.5713  -17.2201   22.0933 H   0  0  0  0  0  0
  -29.3897  -15.1956   21.9508 H   0  0  0  0  0  0
  1 25  1  0  0  0
  1 30  2  0  0  0
  1 89  1  0  0  0
  2  3  1  0  0  0
  2 25  1  0  0  0
  2 91  1  0  0  0
  2 92  1  0  0  0
  3  4  1  0  0  0
  3 93  1  0  0  0
  3 94  1  0  0  0
  4  5  1  0  0  0
  4 95  1  0  0  0
  4 96  1  0  0  0
  5  6  1  0  0  0
  5 26  1  0  0  0
  5 97  1  0  0  0
  6 25  1  0  0  0
  6 98  1  0  0  0
  6 99  1  0  0  0
  7  8  2  0  0  0
  7 26  1  0  0  0
  7 29  1  0  0  0
  8  9  1  0  0  0
  8 22  1  0  0  0
  9 10  1  0  0  0
  9 27  2  0  0  0
 10 11  2  0  0  0
 10 15  1  0  0  0
 11 12  1  0  0  0
 11100  1  0  0  0
 12 13  2  0  0  0
 12101  1  0  0  0
 13 14  1  0  0  0
 13 31  1  0  0  0
 14 15  2  0  0  0
 14102  1  0  0  0
 15103  1  0  0  0
 16 17  2  0  0  0
 16 21  1  0  0  0
 16 31  1  0  0  0
 17 18  1  0  0  0
 17104  1  0  0  0
 18 19  2  0  0  0
 18105  1  0  0  0
 19 20  1  0  0  0
 19 24  1  0  0  0
 20 21  2  0  0  0
 20106  1  0  0  0
 21 23  1  0  0  0
 22 28  1  0  0  0
 22 32  2  0  0  0
 26 27  1  0  0  0
 28107  1  0  0  0
 28108  1  0  0  0
 29109  1  0  0  0
 29110  1  0  0  0
 33 34  1  0  0  0
 33 66  1  0  0  0
 33 70  2  0  0  0
 34 36  1  0  0  0
 34 59  1  0  0  0
 34111  1  0  0  0
 35 44  2  0  0  0
 35 45  1  0  0  0
 35 68  1  0  0  0
 36 56  1  0  0  0
 36112  1  0  0  0
 37 39  1  0  0  0
 37 47  1  0  0  0
 37 66  1  0  0  0
 37113  1  0  0  0
 38 43  2  0  0  0
 38 46  1  0  0  0
 38 47  1  0  0  0
 39 64  1  0  0  0
 39 67  2  0  0  0
 40 52  1  0  0  0
 40 53  2  0  0  0
 40 58  1  0  0  0
 41114  1  0  0  0
 41115  1  0  0  0
 41116  1  0  0  0
 41 48  1  0  0  0
 42 43  1  0  0  0
 42 66  1  0  0  0
 42117  1  0  0  0
 42118  1  0  0  0
 43 44  1  0  0  0
 44119  1  0  0  0
 45 46  2  0  0  0
 45120  1  0  0  0
 46121  1  0  0  0
 47122  1  0  0  0
 47123  1  0  0  0
 48 56  1  0  0  0
 48 65  1  0  0  0
 48124  1  0  0  0
 49 50  1  0  0  0
 49 53  1  0  0  0
 49 64  1  0  0  0
 49125  1  0  0  0
 50 51  1  0  0  0
 50126  1  0  0  0
 50127  1  0  0  0
 51 52  1  0  0  0
 51128  1  0  0  0
 51129  1  0  0  0
 52130  1  0  0  0
 52131  1  0  0  0
 53 54  1  0  0  0
 54 55  2  0  0  0
 54132  1  0  0  0
 55 57  1  0  0  0
 55133  1  0  0  0
 56 69  2  0  0  0
 57 58  2  0  0  0
 57134  1  0  0  0
 58135  1  0  0  0
 59 60  1  0  0  0
 59 61  1  0  0  0
 59 62  1  0  0  0
 60136  1  0  0  0
 60137  1  0  0  0
 60138  1  0  0  0
 61139  1  0  0  0
 61140  1  0  0  0
 61141  1  0  0  0
 62142  1  0  0  0
 62143  1  0  0  0
 62144  1  0  0  0
 63 65  1  0  0  0
 63145  1  0  0  0
 63146  1  0  0  0
 63147  1  0  0  0
 64148  1  0  0  0
 65149  1  0  0  0
 68 86  1  0  0  0
 71 74  2  0  0  0
 71 75  1  0  0  0
 71150  1  0  0  0
 72 74  1  0  0  0
 72 76  2  0  0  0
 72151  1  0  0  0
 73 75  2  0  0  0
 73 76  1  0  0  0
 73152  1  0  0  0
 74 87  1  0  0  0
 75 88  1  0  0  0
 76 89  1  0  0  0
 77 78  1  0  0  0
 77 79  1  0  0  0
 77 90  2  0  0  0
 78 80  1  0  0  0
 78153  1  0  0  0
 78154  1  0  0  0
 79 82  1  0  0  0
 79155  1  0  0  0
 79156  1  0  0  0
 80 81  1  0  0  0
 80157  1  0  0  0
 80158  1  0  0  0
 81 88  1  0  0  0
 81159  1  0  0  0
 81160  1  0  0  0
 82 85  1  0  0  0
 82 88  1  0  0  0
 82161  1  0  0  0
 83162  1  0  0  0
 83163  1  0  0  0
 83164  1  0  0  0
 83 87  1  0  0  0
 84 87  1  0  0  0
 84165  1  0  0  0
 84166  1  0  0  0
 84167  1  0  0  0
 85 86  1  0  0  0
 85168  1  0  0  0
 85169  1  0  0  0
 86170  1  0  0  0
 86171  1  0  0  0
 87172  1  0  0  0
 89173  1  0  0  0
M  ISO  4   1 100  68 101  86 101  89 100
M  END
> <chiral flag>
0

> <version>
0

> <s_m_source_file>
/data/baiqing/PycharmProjects/Reinvent-master-3.2/result/LINK_invent/BTK/process_docking_weight1_custom_product_contain_oxygen_bond_distance_aromatic_linkinvent_7_9_3/rearranged_h_0107.sdf

> <i_m_source_file_index>
99

> <r_mmod_Potential_Energy-OPLS-2005>
258.047607421875

> <r_mmod_Stretch_Energy-OPLS-2005>
152.984481811523

> <r_mmod_Bend_Energy-OPLS-2005>
234.865478515625

> <r_mmod_Torsional_Energy-OPLS-2005>
243.918319702148

> <r_mmod_Improper_Torsional_Energy-OPLS-2005>
8.65956592559814

> <r_mmod_Van_der_Waal_Energy-OPLS-2005>
134.245407104492

> <r_mmod_Electrostatic_Energy-OPLS-2005>
-379.190826416016

> <r_mmod_Solvation_Energy-OPLS-2005>
-225.044738769531

> <b_mmod_Minimization_Converged-OPLS-2005>
0

> <r_mmod_RMS_Derivative-OPLS-2005>
4.68790721893311

$$$$
