0
                    3D
 Structure written by MMmdl.
159167  0  0  1  0            999 V2000
  -30.6992  -14.4356   20.6459 C   0  0  0  0  0  0
  -30.4386  -12.3115   19.4127 C   0  0  0  0  0  0
  -29.4992  -12.5158   18.2062 C   0  0  0  0  0  0
  -28.0238  -12.3507   18.6215 C   0  0  0  0  0  0
  -27.6672  -13.1835   19.8794 C   0  0  2  0  0  0
  -28.7038  -12.9328   20.9972 C   0  0  0  0  0  0
  -25.2630  -13.8020   20.5727 C   0  0  0  0  0  0
  -24.1831  -13.0351   20.9141 C   0  0  0  0  0  0
  -24.6381  -11.6818   20.8709 C   0  0  0  0  0  0
  -23.9034  -10.4239   21.0400 C   0  0  0  0  0  0
  -24.3583   -9.4170   21.9196 C   0  0  0  0  0  0
  -23.6266   -8.2201   22.0753 C   0  0  0  0  0  0
  -22.4258   -8.0241   21.3518 C   0  0  0  0  0  0
  -21.9886   -9.0219   20.4624 C   0  0  0  0  0  0
  -22.7212  -10.2101   20.3041 C   0  0  0  0  0  0
  -21.6842   -6.0716   22.5275 C   0  0  0  0  0  0
  -21.4011   -6.5618   23.8213 C   0  0  0  0  0  0
  -21.3664   -5.6769   24.9174 C   0  0  0  0  0  0
  -21.6048   -4.3033   24.7226 C   0  0  0  0  0  0
  -21.8814   -3.8127   23.4349 C   0  0  0  0  0  0
  -21.9187   -4.6944   22.3405 C   0  0  0  0  0  0
  -22.7858  -13.5194   21.1819 C   0  0  0  0  0  0
  -22.1645   -4.2126   21.0984 F   0  0  0  0  0  0
  -21.5652   -3.4519   25.7743 F   0  0  0  0  0  0
  -30.0472  -13.2535   20.4717 N   0  0  0  0  0  0
  -26.3049  -12.9179   20.3371 N   0  0  0  0  0  0
  -25.9301  -11.6367   20.5738 N   0  0  0  0  0  0
  -22.0480  -12.8198   22.0375 N   0  0  0  0  0  0
  -25.4513  -15.1710   20.4376 N   0  0  0  0  0  0
  -31.7526  -14.7202   20.0620 O   0  0  0  0  0  0
  -21.6605   -6.8856   21.4231 O   0  0  0  0  0  0
  -22.3557  -14.5518   20.6687 O   0  0  0  0  0  0
  -24.6142  -31.8691   23.2071 C   0  0  0  0  0  0
  -25.9036  -32.4839   23.8397 C   0  0  1  0  0  0
  -27.2501  -27.4566   20.1091 C   0  0  0  0  0  0
  -25.5902  -33.8631   24.2357 N   0  0  0  0  0  0
  -23.4039  -30.4876   21.5463 C   0  0  2  0  0  0
  -24.8539  -28.9441   20.1246 C   0  0  0  0  0  0
  -22.7426  -29.4669   22.4993 C   0  0  0  0  0  0
  -18.0285  -28.1384   22.8479 C   0  0  0  0  0  0
  -24.1480  -36.7353   23.2635 C   0  0  0  0  0  0
  -25.9261  -30.8442   21.3516 C   0  0  0  0  0  0
  -26.0091  -29.4714   20.7173 C   0  0  0  0  0  0
  -27.2113  -28.7338   20.7042 C   0  0  0  0  0  0
  -26.0815  -26.9302   19.5194 C   0  0  0  0  0  0
  -24.8825  -27.6711   19.5246 C   0  0  0  0  0  0
  -23.6157  -29.8100   20.1639 C   0  0  0  0  0  0
  -25.4102  -36.3132   24.0338 C   0  0  1  0  0  0
  -20.5869  -28.3691   23.1316 C   0  0  2  0  0  0
  -20.6780  -26.9423   22.5413 C   0  0  0  0  0  0
  -19.5758  -26.6401   21.5208 C   0  0  0  0  0  0
  -18.1937  -26.7940   22.1613 C   0  0  0  0  0  0
  -19.1522  -28.8844   23.2906 C   0  0  0  0  0  0
  -18.9452  -30.1447   23.8925 C   0  0  0  0  0  0
  -17.6454  -30.6586   24.0569 C   0  0  0  0  0  0
  -25.9029  -34.9490   23.5147 C   0  0  0  0  0  0
  -16.5348  -29.9100   23.6311 C   0  0  0  0  0  0
  -16.7270  -28.6517   23.0323 C   0  0  0  0  0  0
  -26.4472  -31.6593   25.0711 C   0  0  0  0  0  0
  -25.3752  -31.3678   26.1468 C   0  0  0  0  0  0
  -27.0292  -30.3050   24.6026 C   0  0  0  0  0  0
  -27.6064  -32.4274   25.7475 C   0  0  0  0  0  0
  -27.5583  -37.1844   24.8460 C   0  0  0  0  0  0
  -21.4135  -29.3081   22.3740 N   0  0  0  0  0  0
  -26.4301  -37.3815   23.9394 N   0  0  0  0  0  0
  -24.6671  -31.0826   22.0952 N   0  0  0  0  0  0
  -23.4173  -28.8212   23.3055 O   0  0  0  0  0  0
  -28.4379  -26.7715   20.0495 O   0  0  0  0  0  0
  -26.5561  -34.8937   22.4687 O   0  0  0  0  0  0
  -23.5338  -32.1397   23.7507 O   0  0  0  0  0  0
  -30.2399  -17.7100   21.3237 C   0  0  0  0  0  0
  -27.6001  -17.6778   20.6071 C   0  0  0  0  0  0
  -29.5949  -18.9582   21.0919 C   0  0  0  0  0  0
  -28.2214  -18.9243   20.7515 C   0  0  0  0  0  0
  -29.5257  -16.4987   21.1732 C   0  0  0  0  0  0
  -30.3471  -20.2397   21.2999 C   0  0  0  0  0  0
  -29.2962  -24.5148   19.9934 C   0  0  0  0  0  0
  -31.4421  -24.9731   21.3434 C   0  0  0  0  0  0
  -29.8869  -21.5278   20.5839 C   0  0  0  0  0  0
  -28.4990  -25.5542   20.7969 C   0  0  0  0  0  0
  -30.6161  -23.9270   20.5640 C   0  0  1  0  0  0
  -28.2239  -16.5008   20.8179 N   0  0  0  0  0  0
  -30.1236  -15.2666   21.5292 N   0  0  0  0  0  0
  -30.3590  -22.6983   21.3618 N   0  3  0  0  0  0
  -31.3786  -20.2947   21.9821 O   0  0  0  0  0  0
  -28.8508  -24.1398   18.9041 O   0  0  0  0  0  0
  -27.4705  -20.0379   20.5973 F   0  0  0  0  0  0
  -31.4771  -12.4454   19.1060 H   0  0  0  0  0  0
  -30.3694  -11.2896   19.7874 H   0  0  0  0  0  0
  -29.7501  -11.8005   17.4228 H   0  0  0  0  0  0
  -29.6525  -13.5086   17.7795 H   0  0  0  0  0  0
  -27.8565  -11.2913   18.8273 H   0  0  0  0  0  0
  -27.3633  -12.6102   17.7930 H   0  0  0  0  0  0
  -27.7207  -14.2307   19.5875 H   0  0  0  0  0  0
  -28.6750  -11.8841   21.2993 H   0  0  0  0  0  0
  -28.4365  -13.4875   21.8956 H   0  0  0  0  0  0
  -25.2740   -9.5630   22.4767 H   0  0  0  0  0  0
  -23.9962   -7.4581   22.7474 H   0  0  0  0  0  0
  -21.0819   -8.8754   19.8921 H   0  0  0  0  0  0
  -22.3710  -10.9639   19.6133 H   0  0  0  0  0  0
  -21.1991   -7.6121   23.9717 H   0  0  0  0  0  0
  -21.1502   -6.0494   25.9080 H   0  0  0  0  0  0
  -22.0598   -2.7591   23.2853 H   0  0  0  0  0  0
  -22.4060  -11.9828   22.4710 H   0  0  0  0  0  0
  -21.1097  -13.1239   22.2562 H   0  0  0  0  0  0
  -24.7383  -15.8466   20.6844 H   0  0  0  0  0  0
  -26.3914  -15.5588   20.4134 H   0  0  0  0  0  0
  -26.7127  -32.5594   23.1188 H   0  0  0  0  0  0
  -25.0094  -33.9754   25.0539 H   0  0  0  0  0  0
  -22.6918  -31.3018   21.4029 H   0  0  0  0  0  0
  -23.3725  -35.9704   23.3317 H   0  0  0  0  0  0
  -24.3581  -36.8947   22.2039 H   0  0  0  0  0  0
  -23.7224  -37.6576   23.6621 H   0  0  0  0  0  0
  -26.0068  -31.5970   20.5659 H   0  0  0  0  0  0
  -26.8261  -30.9304   21.9493 H   0  0  0  0  0  0
  -28.1099  -29.1421   21.1459 H   0  0  0  0  0  0
  -26.1051  -25.9604   19.0415 H   0  0  0  0  0  0
  -23.9934  -27.2587   19.0680 H   0  0  0  0  0  0
  -23.7357  -30.5771   19.3986 H   0  0  0  0  0  0
  -22.7403  -29.2312   19.8630 H   0  0  0  0  0  0
  -25.1280  -36.2034   25.0842 H   0  0  0  0  0  0
  -20.9963  -28.3262   24.1434 H   0  0  0  0  0  0
  -20.5679  -26.2290   23.3600 H   0  0  0  0  0  0
  -21.6663  -26.7480   22.1202 H   0  0  0  0  0  0
  -19.6919  -25.6310   21.1231 H   0  0  0  0  0  0
  -19.6702  -27.3223   20.6742 H   0  0  0  0  0  0
  -17.4211  -26.6668   21.4014 H   0  0  0  0  0  0
  -18.0333  -26.0088   22.9009 H   0  0  0  0  0  0
  -19.7926  -30.7246   24.2318 H   0  0  0  0  0  0
  -17.5013  -31.6271   24.5175 H   0  0  0  0  0  0
  -15.5335  -30.3008   23.7633 H   0  0  0  0  0  0
  -15.8674  -28.0862   22.6999 H   0  0  0  0  0  0
  -24.5912  -30.7052   25.7798 H   0  0  0  0  0  0
  -24.8951  -32.2830   26.4942 H   0  0  0  0  0  0
  -25.8105  -30.8810   27.0209 H   0  0  0  0  0  0
  -26.2824  -29.6809   24.1104 H   0  0  0  0  0  0
  -27.4140  -29.7270   25.4447 H   0  0  0  0  0  0
  -27.8614  -30.4414   23.9108 H   0  0  0  0  0  0
  -27.2719  -33.3541   26.2144 H   0  0  0  0  0  0
  -28.3838  -32.6886   25.0285 H   0  0  0  0  0  0
  -28.0788  -31.8341   26.5316 H   0  0  0  0  0  0
  -28.2636  -38.0111   24.7520 H   0  0  0  0  0  0
  -28.1060  -36.2662   24.6305 H   0  0  0  0  0  0
  -27.2306  -37.1522   25.8864 H   0  0  0  0  0  0
  -20.9287  -29.8838   21.7007 H   0  0  0  0  0  0
  -26.0209  -38.2909   24.1386 H   0  0  0  0  0  0
  -31.2751  -17.6831   21.6421 H   0  0  0  0  0  0
  -26.5545  -17.6284   20.3427 H   0  0  0  0  0  0
  -32.4676  -24.6302   21.4848 H   0  0  0  0  0  0
  -31.0298  -25.1868   22.3299 H   0  0  0  0  0  0
  -31.4948  -25.9173   20.8003 H   0  0  0  0  0  0
  -30.3404  -21.5306   19.5924 H   0  0  0  0  0  0
  -28.8169  -21.6166   20.4469 H   0  0  0  0  0  0
  -28.9689  -25.7494   21.7611 H   0  0  0  0  0  0
  -27.5027  -25.1604   21.0009 H   0  0  0  0  0  0
  -31.2241  -23.6293   19.7098 H   0  0  0  0  0  0
  -29.4954  -14.7209   22.0977 H   0  0  0  0  0  0
  -31.2304  -22.3725   21.7580 H   0  0  0  0  0  0
  -29.7323  -22.8724   22.1326 H   0  0  0  0  0  0
  1 25  1  0  0  0
  1 30  2  0  0  0
  1 83  1  0  0  0
  2  3  1  0  0  0
  2 25  1  0  0  0
  2 88  1  0  0  0
  2 89  1  0  0  0
  3  4  1  0  0  0
  3 90  1  0  0  0
  3 91  1  0  0  0
  4  5  1  0  0  0
  4 92  1  0  0  0
  4 93  1  0  0  0
  5  6  1  0  0  0
  5 26  1  0  0  0
  5 94  1  0  0  0
  6 25  1  0  0  0
  6 95  1  0  0  0
  6 96  1  0  0  0
  7  8  2  0  0  0
  7 26  1  0  0  0
  7 29  1  0  0  0
  8  9  1  0  0  0
  8 22  1  0  0  0
  9 10  1  0  0  0
  9 27  2  0  0  0
 10 11  2  0  0  0
 10 15  1  0  0  0
 11 12  1  0  0  0
 11 97  1  0  0  0
 12 13  2  0  0  0
 12 98  1  0  0  0
 13 14  1  0  0  0
 13 31  1  0  0  0
 14 15  2  0  0  0
 14 99  1  0  0  0
 15100  1  0  0  0
 16 17  2  0  0  0
 16 21  1  0  0  0
 16 31  1  0  0  0
 17 18  1  0  0  0
 17101  1  0  0  0
 18 19  2  0  0  0
 18102  1  0  0  0
 19 20  1  0  0  0
 19 24  1  0  0  0
 20 21  2  0  0  0
 20103  1  0  0  0
 21 23  1  0  0  0
 22 28  1  0  0  0
 22 32  2  0  0  0
 26 27  1  0  0  0
 28104  1  0  0  0
 28105  1  0  0  0
 29106  1  0  0  0
 29107  1  0  0  0
 33 34  1  0  0  0
 33 66  1  0  0  0
 33 70  2  0  0  0
 34 36  1  0  0  0
 34 59  1  0  0  0
 34108  1  0  0  0
 35 44  2  0  0  0
 35 45  1  0  0  0
 35 68  1  0  0  0
 36 56  1  0  0  0
 36109  1  0  0  0
 37 39  1  0  0  0
 37 47  1  0  0  0
 37 66  1  0  0  0
 37110  1  0  0  0
 38 43  2  0  0  0
 38 46  1  0  0  0
 38 47  1  0  0  0
 39 64  1  0  0  0
 39 67  2  0  0  0
 40 52  1  0  0  0
 40 53  2  0  0  0
 40 58  1  0  0  0
 41111  1  0  0  0
 41112  1  0  0  0
 41113  1  0  0  0
 41 48  1  0  0  0
 42 43  1  0  0  0
 42 66  1  0  0  0
 42114  1  0  0  0
 42115  1  0  0  0
 43 44  1  0  0  0
 44116  1  0  0  0
 45 46  2  0  0  0
 45117  1  0  0  0
 46118  1  0  0  0
 47119  1  0  0  0
 47120  1  0  0  0
 48 56  1  0  0  0
 48 65  1  0  0  0
 48121  1  0  0  0
 49 50  1  0  0  0
 49 53  1  0  0  0
 49 64  1  0  0  0
 49122  1  0  0  0
 50 51  1  0  0  0
 50123  1  0  0  0
 50124  1  0  0  0
 51 52  1  0  0  0
 51125  1  0  0  0
 51126  1  0  0  0
 52127  1  0  0  0
 52128  1  0  0  0
 53 54  1  0  0  0
 54 55  2  0  0  0
 54129  1  0  0  0
 55 57  1  0  0  0
 55130  1  0  0  0
 56 69  2  0  0  0
 57 58  2  0  0  0
 57131  1  0  0  0
 58132  1  0  0  0
 59 60  1  0  0  0
 59 61  1  0  0  0
 59 62  1  0  0  0
 60133  1  0  0  0
 60134  1  0  0  0
 60135  1  0  0  0
 61136  1  0  0  0
 61137  1  0  0  0
 61138  1  0  0  0
 62139  1  0  0  0
 62140  1  0  0  0
 62141  1  0  0  0
 63 65  1  0  0  0
 63142  1  0  0  0
 63143  1  0  0  0
 63144  1  0  0  0
 64145  1  0  0  0
 65146  1  0  0  0
 68 80  1  0  0  0
 71 73  2  0  0  0
 71 75  1  0  0  0
 71147  1  0  0  0
 72 74  2  0  0  0
 72 82  1  0  0  0
 72148  1  0  0  0
 73 74  1  0  0  0
 73 76  1  0  0  0
 74 87  1  0  0  0
 75 82  2  0  0  0
 75 83  1  0  0  0
 76 79  1  0  0  0
 76 85  2  0  0  0
 77 80  1  0  0  0
 77 81  1  0  0  0
 77 86  2  0  0  0
 78149  1  0  0  0
 78150  1  0  0  0
 78151  1  0  0  0
 78 81  1  0  0  0
 79 84  1  0  0  0
 79152  1  0  0  0
 79153  1  0  0  0
 80154  1  0  0  0
 80155  1  0  0  0
 81 84  1  0  0  0
 81156  1  0  0  0
 83157  1  0  0  0
 84158  1  0  0  0
 84159  1  0  0  0
M  CHG  1  84   1
M  ISO  4   1 100  68 101  80 101  83 100
M  END
> <chiral flag>
0

> <version>
0

> <s_m_source_file>
/data/baiqing/PycharmProjects/Reinvent-master-3.2/result/LINK_invent/BTK/process_docking_weight1_custom_product_contain_oxygen_bond_distance_aromatic_linkinvent_7_9_3/rearranged_h_0170.sdf

> <i_m_source_file_index>
1

> <r_mmod_Potential_Energy-OPLS-2005>
-415.666839599609

> <r_mmod_Stretch_Energy-OPLS-2005>
37.2936210632324

> <r_mmod_Bend_Energy-OPLS-2005>
106.696517944336

> <r_mmod_Torsional_Energy-OPLS-2005>
315.022125244141

> <r_mmod_Improper_Torsional_Energy-OPLS-2005>
9.04833889007568

> <r_mmod_Van_der_Waal_Energy-OPLS-2005>
157.936386108398

> <r_mmod_Electrostatic_Energy-OPLS-2005>
-554.300903320312

> <r_mmod_Solvation_Energy-OPLS-2005>
-496.682403564453

> <b_mmod_Minimization_Converged-OPLS-2005>
0

> <r_mmod_RMS_Derivative-OPLS-2005>
3.29112958908081

$$$$
1
                    3D
 Structure written by MMmdl.
154162  0  0  1  0            999 V2000
  -30.6914  -14.4972   20.5664 C   0  0  0  0  0  0
  -30.4248  -12.3234   19.4210 C   0  0  0  0  0  0
  -29.4941  -12.5075   18.2052 C   0  0  0  0  0  0
  -28.0178  -12.3614   18.6228 C   0  0  0  0  0  0
  -27.6601  -13.2088   19.8731 C   0  0  2  0  0  0
  -28.7031  -13.0032   20.9942 C   0  0  0  0  0  0
  -25.2590  -13.8178   20.5686 C   0  0  0  0  0  0
  -24.1844  -13.0447   20.9188 C   0  0  0  0  0  0
  -24.6408  -11.6916   20.8762 C   0  0  0  0  0  0
  -23.9078  -10.4303   21.0415 C   0  0  0  0  0  0
  -24.3621   -9.4220   21.9193 C   0  0  0  0  0  0
  -23.6294   -8.2255   22.0760 C   0  0  0  0  0  0
  -22.4274   -8.0299   21.3544 C   0  0  0  0  0  0
  -21.9918   -9.0277   20.4648 C   0  0  0  0  0  0
  -22.7256  -10.2154   20.3065 C   0  0  0  0  0  0
  -21.6849   -6.0754   22.5282 C   0  0  0  0  0  0
  -21.4006   -6.5654   23.8220 C   0  0  0  0  0  0
  -21.3661   -5.6803   24.9178 C   0  0  0  0  0  0
  -21.6044   -4.3065   24.7223 C   0  0  0  0  0  0
  -21.8815   -3.8163   23.4342 C   0  0  0  0  0  0
  -21.9184   -4.6983   22.3399 C   0  0  0  0  0  0
  -22.7870  -13.5253   21.1859 C   0  0  0  0  0  0
  -22.1658   -4.2181   21.0975 F   0  0  0  0  0  0
  -21.5632   -3.4543   25.7734 F   0  0  0  0  0  0
  -30.0300  -13.3133   20.4356 N   0  0  0  0  0  0
  -26.3018  -12.9337   20.3357 N   0  0  0  0  0  0
  -25.9327  -11.6503   20.5766 N   0  0  0  0  0  0
  -22.0509  -12.8238   22.0407 N   0  0  0  0  0  0
  -25.4331  -15.1893   20.4108 N   0  0  0  0  0  0
  -31.8249  -14.6825   20.1158 O   0  0  0  0  0  0
  -21.6634   -6.8900   21.4244 O   0  0  0  0  0  0
  -22.3561  -14.5572   20.6721 O   0  0  0  0  0  0
  -24.6190  -31.8644   23.2117 C   0  0  0  0  0  0
  -25.9073  -32.4792   23.8401 C   0  0  1  0  0  0
  -27.2254  -27.4015   20.0790 C   0  0  0  0  0  0
  -25.5921  -33.8592   24.2322 N   0  0  0  0  0  0
  -23.4055  -30.4931   21.5546 C   0  0  2  0  0  0
  -24.8486  -28.9639   20.1140 C   0  0  0  0  0  0
  -22.7408  -29.4655   22.4998 C   0  0  0  0  0  0
  -18.0262  -28.1368   22.8491 C   0  0  0  0  0  0
  -24.1481  -36.7310   23.2644 C   0  0  0  0  0  0
  -25.9415  -30.8189   21.3716 C   0  0  0  0  0  0
  -26.0154  -29.4547   20.7123 C   0  0  0  0  0  0
  -27.2054  -28.6797   20.6968 C   0  0  0  0  0  0
  -26.0299  -26.9480   19.4636 C   0  0  0  0  0  0
  -24.8525  -27.7104   19.4901 C   0  0  0  0  0  0
  -23.6116  -29.8310   20.1690 C   0  0  0  0  0  0
  -25.4107  -36.3081   24.0332 C   0  0  1  0  0  0
  -20.5849  -28.3662   23.1307 C   0  0  2  0  0  0
  -20.6758  -26.9399   22.5400 C   0  0  0  0  0  0
  -19.5740  -26.6373   21.5195 C   0  0  0  0  0  0
  -18.1910  -26.7918   22.1598 C   0  0  0  0  0  0
  -19.1516  -28.8832   23.2891 C   0  0  0  0  0  0
  -18.9456  -30.1436   23.8910 C   0  0  0  0  0  0
  -17.6459  -30.6588   24.0555 C   0  0  0  0  0  0
  -25.9037  -34.9449   23.5118 C   0  0  0  0  0  0
  -16.5348  -29.9090   23.6331 C   0  0  0  0  0  0
  -16.7256  -28.6492   23.0378 C   0  0  0  0  0  0
  -26.4509  -31.6610   25.0746 C   0  0  0  0  0  0
  -25.3775  -31.3702   26.1485 C   0  0  0  0  0  0
  -27.0406  -30.3053   24.6179 C   0  0  0  0  0  0
  -27.6047  -32.4375   25.7522 C   0  0  0  0  0  0
  -27.5578  -37.1806   24.8456 C   0  0  0  0  0  0
  -21.4131  -29.3036   22.3727 N   0  0  0  0  0  0
  -26.4285  -37.3778   23.9405 N   0  0  0  0  0  0
  -24.6739  -31.0727   22.1031 N   0  0  0  0  0  0
  -23.4171  -28.8162   23.3015 O   0  0  0  0  0  0
  -28.3781  -26.6215   20.0965 O   0  0  0  0  0  0
  -26.5579  -34.8901   22.4665 O   0  0  0  0  0  0
  -23.5372  -32.1434   23.7491 O   0  0  0  0  0  0
  -29.2160  -17.6553   19.1857 C   0  0  0  0  0  0
  -28.9943  -20.0265   18.6200 C   0  0  0  0  0  0
  -29.8945  -17.9883   20.3790 C   0  0  0  0  0  0
  -29.6539  -20.3995   19.8144 C   0  0  0  0  0  0
  -28.7732  -18.6685   18.3148 C   0  0  0  0  0  0
  -30.1048  -19.3636   20.6815 C   0  0  0  0  0  0
  -29.3344  -24.2695   20.0251 C   0  0  0  0  0  0
  -30.4187  -16.8980   21.3320 C   0  0  0  0  0  0
  -29.2254  -22.8518   19.4078 C   0  0  0  0  0  0
  -28.2276  -25.2644   19.6073 C   0  0  0  0  0  0
  -29.8744  -21.7590   20.1562 N   0  0  0  0  0  0
  -29.9736  -15.5075   21.0970 N   0  0  0  0  0  0
  -30.2390  -24.5626   20.8152 O   0  0  0  0  0  0
  -28.1280  -18.3318   17.1736 F   0  0  0  0  0  0
  -30.7503  -19.7011   21.8251 F   0  0  0  0  0  0
  -31.4685  -12.4292   19.1183 H   0  0  0  0  0  0
  -30.3338  -11.3138   19.8254 H   0  0  0  0  0  0
  -29.7388  -11.7801   17.4307 H   0  0  0  0  0  0
  -29.6561  -13.4913   17.7622 H   0  0  0  0  0  0
  -27.8369  -11.3070   18.8304 H   0  0  0  0  0  0
  -27.3634  -12.6210   17.7913 H   0  0  0  0  0  0
  -27.7002  -14.2541   19.5663 H   0  0  0  0  0  0
  -28.6863  -11.9720   21.3486 H   0  0  0  0  0  0
  -28.4633  -13.6129   21.8660 H   0  0  0  0  0  0
  -25.2761   -9.5696   22.4778 H   0  0  0  0  0  0
  -24.0014   -7.4644   22.7476 H   0  0  0  0  0  0
  -21.0855   -8.8799   19.8948 H   0  0  0  0  0  0
  -22.3719  -10.9700   19.6183 H   0  0  0  0  0  0
  -21.2001   -7.6165   23.9736 H   0  0  0  0  0  0
  -21.1488   -6.0527   25.9086 H   0  0  0  0  0  0
  -22.0594   -2.7630   23.2827 H   0  0  0  0  0  0
  -22.4082  -11.9873   22.4772 H   0  0  0  0  0  0
  -21.1148  -13.1287   22.2651 H   0  0  0  0  0  0
  -24.6655  -15.8439   20.5136 H   0  0  0  0  0  0
  -26.2878  -15.6304   20.0953 H   0  0  0  0  0  0
  -26.7153  -32.5483   23.1168 H   0  0  0  0  0  0
  -25.0065  -33.9727   25.0462 H   0  0  0  0  0  0
  -22.6973  -31.3137   21.4198 H   0  0  0  0  0  0
  -23.3701  -35.9678   23.3275 H   0  0  0  0  0  0
  -24.3567  -36.8958   22.2060 H   0  0  0  0  0  0
  -23.7280  -37.6522   23.6697 H   0  0  0  0  0  0
  -26.0605  -31.5867   20.6056 H   0  0  0  0  0  0
  -26.8279  -30.8679   21.9922 H   0  0  0  0  0  0
  -28.1010  -29.0523   21.1727 H   0  0  0  0  0  0
  -25.9607  -26.0010   18.9480 H   0  0  0  0  0  0
  -23.9543  -27.3304   19.0221 H   0  0  0  0  0  0
  -23.7150  -30.6067   19.4093 H   0  0  0  0  0  0
  -22.7350  -29.2494   19.8759 H   0  0  0  0  0  0
  -25.1288  -36.1932   25.0825 H   0  0  0  0  0  0
  -20.9965  -28.3251   24.1421 H   0  0  0  0  0  0
  -20.5649  -26.2273   23.3583 H   0  0  0  0  0  0
  -21.6634  -26.7443   22.1205 H   0  0  0  0  0  0
  -19.6889  -25.6278   21.1233 H   0  0  0  0  0  0
  -19.6681  -27.3157   20.6699 H   0  0  0  0  0  0
  -17.4182  -26.6644   21.3994 H   0  0  0  0  0  0
  -18.0307  -26.0055   22.8996 H   0  0  0  0  0  0
  -19.7936  -30.7226   24.2291 H   0  0  0  0  0  0
  -17.5025  -31.6280   24.5135 H   0  0  0  0  0  0
  -15.5347  -30.3007   23.7660 H   0  0  0  0  0  0
  -15.8634  -28.0817   22.7144 H   0  0  0  0  0  0
  -24.5942  -30.7069   25.7802 H   0  0  0  0  0  0
  -24.8966  -32.2851   26.4975 H   0  0  0  0  0  0
  -25.8112  -30.8842   27.0234 H   0  0  0  0  0  0
  -26.3004  -29.6721   24.1263 H   0  0  0  0  0  0
  -27.4219  -29.7389   25.4685 H   0  0  0  0  0  0
  -27.8798  -30.4358   23.9328 H   0  0  0  0  0  0
  -27.2648  -33.3685   26.2086 H   0  0  0  0  0  0
  -28.3870  -32.6947   25.0363 H   0  0  0  0  0  0
  -28.0708  -31.8526   26.5466 H   0  0  0  0  0  0
  -28.2580  -38.0120   24.7540 H   0  0  0  0  0  0
  -28.1113  -36.2659   24.6267 H   0  0  0  0  0  0
  -27.2284  -37.1431   25.8854 H   0  0  0  0  0  0
  -20.9298  -29.8798   21.6984 H   0  0  0  0  0  0
  -26.0146  -38.2847   24.1416 H   0  0  0  0  0  0
  -29.0343  -16.6252   18.9188 H   0  0  0  0  0  0
  -28.6433  -20.7665   17.9178 H   0  0  0  0  0  0
  -30.1083  -17.1671   22.3426 H   0  0  0  0  0  0
  -31.5078  -16.9524   21.3403 H   0  0  0  0  0  0
  -29.6592  -22.9018   18.4080 H   0  0  0  0  0  0
  -28.1658  -22.6246   19.2827 H   0  0  0  0  0  0
  -27.3118  -24.8275   20.0045 H   0  0  0  0  0  0
  -28.1483  -25.2718   18.5200 H   0  0  0  0  0  0
  -30.2782  -21.9836   21.0628 H   0  0  0  0  0  0
  -29.0465  -15.2733   21.4188 H   0  0  0  0  0  0
  1 25  1  0  0  0
  1 30  2  0  0  0
  1 82  1  0  0  0
  2  3  1  0  0  0
  2 25  1  0  0  0
  2 86  1  0  0  0
  2 87  1  0  0  0
  3  4  1  0  0  0
  3 88  1  0  0  0
  3 89  1  0  0  0
  4  5  1  0  0  0
  4 90  1  0  0  0
  4 91  1  0  0  0
  5  6  1  0  0  0
  5 26  1  0  0  0
  5 92  1  0  0  0
  6 25  1  0  0  0
  6 93  1  0  0  0
  6 94  1  0  0  0
  7  8  2  0  0  0
  7 26  1  0  0  0
  7 29  1  0  0  0
  8  9  1  0  0  0
  8 22  1  0  0  0
  9 10  1  0  0  0
  9 27  2  0  0  0
 10 11  2  0  0  0
 10 15  1  0  0  0
 11 12  1  0  0  0
 11 95  1  0  0  0
 12 13  2  0  0  0
 12 96  1  0  0  0
 13 14  1  0  0  0
 13 31  1  0  0  0
 14 15  2  0  0  0
 14 97  1  0  0  0
 15 98  1  0  0  0
 16 17  2  0  0  0
 16 21  1  0  0  0
 16 31  1  0  0  0
 17 18  1  0  0  0
 17 99  1  0  0  0
 18 19  2  0  0  0
 18100  1  0  0  0
 19 20  1  0  0  0
 19 24  1  0  0  0
 20 21  2  0  0  0
 20101  1  0  0  0
 21 23  1  0  0  0
 22 28  1  0  0  0
 22 32  2  0  0  0
 26 27  1  0  0  0
 28102  1  0  0  0
 28103  1  0  0  0
 29104  1  0  0  0
 29105  1  0  0  0
 33 34  1  0  0  0
 33 66  1  0  0  0
 33 70  2  0  0  0
 34 36  1  0  0  0
 34 59  1  0  0  0
 34106  1  0  0  0
 35 44  2  0  0  0
 35 45  1  0  0  0
 35 68  1  0  0  0
 36 56  1  0  0  0
 36107  1  0  0  0
 37 39  1  0  0  0
 37 47  1  0  0  0
 37 66  1  0  0  0
 37108  1  0  0  0
 38 43  2  0  0  0
 38 46  1  0  0  0
 38 47  1  0  0  0
 39 64  1  0  0  0
 39 67  2  0  0  0
 40 52  1  0  0  0
 40 53  2  0  0  0
 40 58  1  0  0  0
 41109  1  0  0  0
 41110  1  0  0  0
 41111  1  0  0  0
 41 48  1  0  0  0
 42 43  1  0  0  0
 42 66  1  0  0  0
 42112  1  0  0  0
 42113  1  0  0  0
 43 44  1  0  0  0
 44114  1  0  0  0
 45 46  2  0  0  0
 45115  1  0  0  0
 46116  1  0  0  0
 47117  1  0  0  0
 47118  1  0  0  0
 48 56  1  0  0  0
 48 65  1  0  0  0
 48119  1  0  0  0
 49 50  1  0  0  0
 49 53  1  0  0  0
 49 64  1  0  0  0
 49120  1  0  0  0
 50 51  1  0  0  0
 50121  1  0  0  0
 50122  1  0  0  0
 51 52  1  0  0  0
 51123  1  0  0  0
 51124  1  0  0  0
 52125  1  0  0  0
 52126  1  0  0  0
 53 54  1  0  0  0
 54 55  2  0  0  0
 54127  1  0  0  0
 55 57  1  0  0  0
 55128  1  0  0  0
 56 69  2  0  0  0
 57 58  2  0  0  0
 57129  1  0  0  0
 58130  1  0  0  0
 59 60  1  0  0  0
 59 61  1  0  0  0
 59 62  1  0  0  0
 60131  1  0  0  0
 60132  1  0  0  0
 60133  1  0  0  0
 61134  1  0  0  0
 61135  1  0  0  0
 61136  1  0  0  0
 62137  1  0  0  0
 62138  1  0  0  0
 62139  1  0  0  0
 63 65  1  0  0  0
 63140  1  0  0  0
 63141  1  0  0  0
 63142  1  0  0  0
 64143  1  0  0  0
 65144  1  0  0  0
 68 80  1  0  0  0
 71 73  2  0  0  0
 71 75  1  0  0  0
 71145  1  0  0  0
 72 74  1  0  0  0
 72 75  2  0  0  0
 72146  1  0  0  0
 73 76  1  0  0  0
 73 78  1  0  0  0
 74 76  2  0  0  0
 74 81  1  0  0  0
 75 84  1  0  0  0
 76 85  1  0  0  0
 77 79  1  0  0  0
 77 80  1  0  0  0
 77 83  2  0  0  0
 78 82  1  0  0  0
 78147  1  0  0  0
 78148  1  0  0  0
 79 81  1  0  0  0
 79149  1  0  0  0
 79150  1  0  0  0
 80151  1  0  0  0
 80152  1  0  0  0
 81153  1  0  0  0
 82154  1  0  0  0
M  ISO  4   1 100  68 101  80 101  82 100
M  END
> <chiral flag>
0

> <version>
0

> <s_m_source_file>
/data/baiqing/PycharmProjects/Reinvent-master-3.2/result/LINK_invent/BTK/process_docking_weight1_custom_product_contain_oxygen_bond_distance_aromatic_linkinvent_7_9_3/rearranged_h_0170.sdf

> <i_m_source_file_index>
2

> <r_mmod_Potential_Energy-OPLS-2005>
-53.228630065918

> <r_mmod_Stretch_Energy-OPLS-2005>
44.6708068847656

> <r_mmod_Bend_Energy-OPLS-2005>
110.141914367676

> <r_mmod_Torsional_Energy-OPLS-2005>
176.727661132812

> <r_mmod_Improper_Torsional_Energy-OPLS-2005>
3.8017909526825

> <r_mmod_Van_der_Waal_Energy-OPLS-2005>
157.874801635742

> <r_mmod_Electrostatic_Energy-OPLS-2005>
-322.977294921875

> <r_mmod_Solvation_Energy-OPLS-2005>
-241.192947387695

> <b_mmod_Minimization_Converged-OPLS-2005>
0

> <r_mmod_RMS_Derivative-OPLS-2005>
2.46515464782715

$$$$
2
                    3D
 Structure written by MMmdl.
163171  0  0  1  0            999 V2000
  -30.6656  -14.4221   20.6717 C   0  0  0  0  0  0
  -30.4414  -12.3162   19.3844 C   0  0  0  0  0  0
  -29.4946  -12.5382   18.1841 C   0  0  0  0  0  0
  -28.0100  -12.4017   18.5911 C   0  0  0  0  0  0
  -27.6672  -13.1900   19.8841 C   0  0  2  0  0  0
  -28.7071  -12.8735   20.9806 C   0  0  0  0  0  0
  -25.2585  -13.8104   20.5628 C   0  0  0  0  0  0
  -24.1811  -13.0398   20.9137 C   0  0  0  0  0  0
  -24.6340  -11.6864   20.8676 C   0  0  0  0  0  0
  -23.9006  -10.4265   21.0371 C   0  0  0  0  0  0
  -24.3553   -9.4193   21.9159 C   0  0  0  0  0  0
  -23.6236   -8.2229   22.0738 C   0  0  0  0  0  0
  -22.4215   -8.0259   21.3547 C   0  0  0  0  0  0
  -21.9846   -9.0234   20.4646 C   0  0  0  0  0  0
  -22.7168  -10.2117   20.3044 C   0  0  0  0  0  0
  -21.6850   -6.0681   22.5273 C   0  0  0  0  0  0
  -21.4018   -6.5593   23.8200 C   0  0  0  0  0  0
  -21.3673   -5.6764   24.9175 C   0  0  0  0  0  0
  -21.6060   -4.3029   24.7243 C   0  0  0  0  0  0
  -21.8818   -3.8099   23.4367 C   0  0  0  0  0  0
  -21.9185   -4.6905   22.3407 C   0  0  0  0  0  0
  -22.7856  -13.5232   21.1855 C   0  0  0  0  0  0
  -22.1649   -4.2074   21.0996 F   0  0  0  0  0  0
  -21.5643   -3.4527   25.7763 F   0  0  0  0  0  0
  -30.0368  -13.2378   20.4509 N   0  0  0  0  0  0
  -26.3006  -12.9245   20.3320 N   0  0  0  0  0  0
  -25.9257  -11.6417   20.5682 N   0  0  0  0  0  0
  -22.0485  -12.8268   22.0455 N   0  0  0  0  0  0
  -25.4336  -15.1818   20.4006 N   0  0  0  0  0  0
  -31.7615  -14.7203   20.1766 O   0  0  0  0  0  0
  -21.6623   -6.8821   21.4232 O   0  0  0  0  0  0
  -22.3562  -14.5545   20.6710 O   0  0  0  0  0  0
  -24.6070  -31.8747   23.2127 C   0  0  0  0  0  0
  -25.9002  -32.4847   23.8386 C   0  0  1  0  0  0
  -27.2357  -27.4864   20.0867 C   0  0  0  0  0  0
  -25.5914  -33.8646   24.2340 N   0  0  0  0  0  0
  -23.3882  -30.4978   21.5531 C   0  0  2  0  0  0
  -24.8393  -28.9680   20.1185 C   0  0  0  0  0  0
  -22.7352  -29.4667   22.5001 C   0  0  0  0  0  0
  -18.0262  -28.1323   22.8504 C   0  0  0  0  0  0
  -24.1497  -36.7319   23.2623 C   0  0  0  0  0  0
  -25.9105  -30.8563   21.3590 C   0  0  0  0  0  0
  -25.9944  -29.4910   20.7127 C   0  0  0  0  0  0
  -27.1960  -28.7536   20.7019 C   0  0  0  0  0  0
  -26.0678  -26.9651   19.4916 C   0  0  0  0  0  0
  -24.8695  -27.7013   19.5072 C   0  0  0  0  0  0
  -23.5960  -29.8297   20.1669 C   0  0  0  0  0  0
  -25.4116  -36.3117   24.0322 C   0  0  1  0  0  0
  -20.5848  -28.3612   23.1333 C   0  0  2  0  0  0
  -20.6768  -26.9341   22.5434 C   0  0  0  0  0  0
  -19.5752  -26.6337   21.5227 C   0  0  0  0  0  0
  -18.1931  -26.7888   22.1615 C   0  0  0  0  0  0
  -19.1508  -28.8772   23.2919 C   0  0  0  0  0  0
  -18.9472  -30.1397   23.8902 C   0  0  0  0  0  0
  -17.6474  -30.6540   24.0552 C   0  0  0  0  0  0
  -25.9035  -34.9481   23.5113 C   0  0  0  0  0  0
  -16.5360  -29.9057   23.6326 C   0  0  0  0  0  0
  -16.7257  -28.6486   23.0317 C   0  0  0  0  0  0
  -26.4480  -31.6562   25.0657 C   0  0  0  0  0  0
  -25.3771  -31.3682   26.1417 C   0  0  0  0  0  0
  -27.0302  -30.3008   24.5973 C   0  0  0  0  0  0
  -27.6038  -32.4278   25.7450 C   0  0  0  0  0  0
  -27.5585  -37.1816   24.8461 C   0  0  0  0  0  0
  -21.4094  -29.3000   22.3755 N   0  0  0  0  0  0
  -26.4305  -37.3792   23.9390 N   0  0  0  0  0  0
  -24.6529  -31.0876   22.1007 N   0  0  0  0  0  0
  -23.4180  -28.8226   23.3009 O   0  0  0  0  0  0
  -28.4105  -26.7801   20.0459 O   0  0  0  0  0  0
  -26.5575  -34.8924   22.4655 O   0  0  0  0  0  0
  -23.5292  -32.1491   23.7557 O   0  0  0  0  0  0
  -31.1300  -16.9166   22.7655 C   0  0  0  0  0  0
  -29.2736  -17.6134   21.3595 C   0  0  0  0  0  0
  -31.2117  -18.2110   23.3299 C   0  0  0  0  0  0
  -30.3203  -19.2323   22.8809 C   0  0  0  0  0  0
  -30.1570  -16.6080   21.7947 C   0  0  0  0  0  0
  -29.3728  -18.9266   21.8621 C   0  0  0  0  0  0
  -33.0058  -19.4694   24.5927 C   0  0  0  0  0  0
  -32.2400  -18.3867   24.3760 C   0  0  0  0  0  0
  -28.1630  -24.3479   20.1205 C   0  0  0  0  0  0
  -28.7089  -20.9520   20.6369 C   0  0  0  0  0  0
  -30.3024  -20.6179   23.5307 C   0  0  0  0  0  0
  -27.5695  -23.1965   20.9337 C   0  0  0  0  0  0
  -28.4256  -25.6385   20.8996 C   0  0  0  0  0  0
  -27.5306  -21.8305   20.2133 C   0  0  0  0  0  0
  -28.4286  -19.8733   21.3840 N   0  0  0  0  0  0
  -29.9166  -15.2725   21.3930 N   0  0  0  0  0  0
  -28.4131  -24.2500   18.9145 O   0  0  0  0  0  0
  -29.8521  -21.2618   20.2944 O   0  0  0  0  0  0
  -31.4809  -12.4652   19.0859 H   0  0  0  0  0  0
  -30.3790  -11.2859   19.7395 H   0  0  0  0  0  0
  -29.7289  -11.8309   17.3874 H   0  0  0  0  0  0
  -29.6621  -13.5315   17.7629 H   0  0  0  0  0  0
  -27.7975  -11.3416   18.7320 H   0  0  0  0  0  0
  -27.3670  -12.7376   17.7740 H   0  0  0  0  0  0
  -27.7346  -14.2494   19.6397 H   0  0  0  0  0  0
  -28.6941  -11.8065   21.2041 H   0  0  0  0  0  0
  -28.4551  -13.3495   21.9278 H   0  0  0  0  0  0
  -25.2688   -9.5676   22.4747 H   0  0  0  0  0  0
  -23.9945   -7.4630   22.7457 H   0  0  0  0  0  0
  -21.0766   -8.8747   19.8964 H   0  0  0  0  0  0
  -22.3598  -10.9652   19.6165 H   0  0  0  0  0  0
  -21.2013   -7.6101   23.9688 H   0  0  0  0  0  0
  -21.1504   -6.0494   25.9077 H   0  0  0  0  0  0
  -22.0578   -2.7550   23.2902 H   0  0  0  0  0  0
  -22.4042  -11.9936   22.4901 H   0  0  0  0  0  0
  -21.1121  -13.1361   22.2637 H   0  0  0  0  0  0
  -24.6704  -15.8401   20.5159 H   0  0  0  0  0  0
  -26.2806  -15.6197   20.0599 H   0  0  0  0  0  0
  -26.7060  -32.5626   23.1146 H   0  0  0  0  0  0
  -25.0134  -33.9818   25.0536 H   0  0  0  0  0  0
  -22.6711  -31.3106   21.4152 H   0  0  0  0  0  0
  -23.3749  -35.9657   23.3306 H   0  0  0  0  0  0
  -24.3598  -36.8926   22.2037 H   0  0  0  0  0  0
  -23.7274  -37.6532   23.6633 H   0  0  0  0  0  0
  -26.0004  -31.6261   20.5909 H   0  0  0  0  0  0
  -26.8042  -30.9211   21.9691 H   0  0  0  0  0  0
  -28.0891  -29.1573   21.1612 H   0  0  0  0  0  0
  -26.0923  -26.0017   18.9993 H   0  0  0  0  0  0
  -23.9822  -27.2958   19.0393 H   0  0  0  0  0  0
  -23.6992  -30.6033   19.4064 H   0  0  0  0  0  0
  -22.7217  -29.2477   19.8738 H   0  0  0  0  0  0
  -25.1293  -36.1973   25.0821 H   0  0  0  0  0  0
  -20.9925  -28.3198   24.1445 H   0  0  0  0  0  0
  -20.5684  -26.2239   23.3641 H   0  0  0  0  0  0
  -21.6640  -26.7408   22.1180 H   0  0  0  0  0  0
  -19.6949  -25.6238   21.1262 H   0  0  0  0  0  0
  -19.6765  -27.3158   20.6766 H   0  0  0  0  0  0
  -17.4214  -26.6667   21.4023 H   0  0  0  0  0  0
  -18.0306  -25.9992   22.8969 H   0  0  0  0  0  0
  -19.7978  -30.7194   24.2251 H   0  0  0  0  0  0
  -17.5056  -31.6212   24.5177 H   0  0  0  0  0  0
  -15.5366  -30.2961   23.7622 H   0  0  0  0  0  0
  -15.8663  -28.0832   22.6965 H   0  0  0  0  0  0
  -24.5919  -30.7051   25.7776 H   0  0  0  0  0  0
  -24.8992  -32.2859   26.4852 H   0  0  0  0  0  0
  -25.8148  -30.8864   27.0166 H   0  0  0  0  0  0
  -26.2833  -29.6770   24.1068 H   0  0  0  0  0  0
  -27.4148  -29.7234   25.4385 H   0  0  0  0  0  0
  -27.8615  -30.4311   23.9039 H   0  0  0  0  0  0
  -27.2610  -33.3545   26.2060 H   0  0  0  0  0  0
  -28.3852  -32.6917   25.0305 H   0  0  0  0  0  0
  -28.0690  -31.8388   26.5360 H   0  0  0  0  0  0
  -28.2602  -38.0118   24.7485 H   0  0  0  0  0  0
  -28.1080  -36.2645   24.6301 H   0  0  0  0  0  0
  -27.2287  -37.1467   25.8862 H   0  0  0  0  0  0
  -20.9228  -29.8719   21.7009 H   0  0  0  0  0  0
  -26.0197  -38.2860   24.1423 H   0  0  0  0  0  0
  -31.7849  -16.1362   23.1269 H   0  0  0  0  0  0
  -28.4967  -17.3749   20.6454 H   0  0  0  0  0  0
  -33.7126  -19.4863   25.4090 H   0  0  0  0  0  0
  -32.9491  -20.3495   23.9706 H   0  0  0  0  0  0
  -32.3617  -17.5439   25.0449 H   0  0  0  0  0  0
  -30.5867  -20.5892   24.5822 H   0  0  0  0  0  0
  -29.3107  -21.0708   23.5120 H   0  0  0  0  0  0
  -30.9780  -21.2932   23.0043 H   0  0  0  0  0  0
  -26.5503  -23.4925   21.1830 H   0  0  0  0  0  0
  -28.1075  -23.1274   21.8815 H   0  0  0  0  0  0
  -29.4079  -25.5629   21.3653 H   0  0  0  0  0  0
  -27.6921  -25.7326   21.7038 H   0  0  0  0  0  0
  -26.5886  -21.3342   20.4525 H   0  0  0  0  0  0
  -27.5352  -21.9290   19.1277 H   0  0  0  0  0  0
  -27.4507  -19.6622   21.5348 H   0  0  0  0  0  0
  -28.9951  -14.9194   21.6000 H   0  0  0  0  0  0
  1 25  1  0  0  0
  1 30  2  0  0  0
  1 86  1  0  0  0
  2  3  1  0  0  0
  2 25  1  0  0  0
  2 89  1  0  0  0
  2 90  1  0  0  0
  3  4  1  0  0  0
  3 91  1  0  0  0
  3 92  1  0  0  0
  4  5  1  0  0  0
  4 93  1  0  0  0
  4 94  1  0  0  0
  5  6  1  0  0  0
  5 26  1  0  0  0
  5 95  1  0  0  0
  6 25  1  0  0  0
  6 96  1  0  0  0
  6 97  1  0  0  0
  7  8  2  0  0  0
  7 26  1  0  0  0
  7 29  1  0  0  0
  8  9  1  0  0  0
  8 22  1  0  0  0
  9 10  1  0  0  0
  9 27  2  0  0  0
 10 11  2  0  0  0
 10 15  1  0  0  0
 11 12  1  0  0  0
 11 98  1  0  0  0
 12 13  2  0  0  0
 12 99  1  0  0  0
 13 14  1  0  0  0
 13 31  1  0  0  0
 14 15  2  0  0  0
 14100  1  0  0  0
 15101  1  0  0  0
 16 17  2  0  0  0
 16 21  1  0  0  0
 16 31  1  0  0  0
 17 18  1  0  0  0
 17102  1  0  0  0
 18 19  2  0  0  0
 18103  1  0  0  0
 19 20  1  0  0  0
 19 24  1  0  0  0
 20 21  2  0  0  0
 20104  1  0  0  0
 21 23  1  0  0  0
 22 28  1  0  0  0
 22 32  2  0  0  0
 26 27  1  0  0  0
 28105  1  0  0  0
 28106  1  0  0  0
 29107  1  0  0  0
 29108  1  0  0  0
 33 34  1  0  0  0
 33 66  1  0  0  0
 33 70  2  0  0  0
 34 36  1  0  0  0
 34 59  1  0  0  0
 34109  1  0  0  0
 35 44  2  0  0  0
 35 45  1  0  0  0
 35 68  1  0  0  0
 36 56  1  0  0  0
 36110  1  0  0  0
 37 39  1  0  0  0
 37 47  1  0  0  0
 37 66  1  0  0  0
 37111  1  0  0  0
 38 43  2  0  0  0
 38 46  1  0  0  0
 38 47  1  0  0  0
 39 64  1  0  0  0
 39 67  2  0  0  0
 40 52  1  0  0  0
 40 53  2  0  0  0
 40 58  1  0  0  0
 41112  1  0  0  0
 41113  1  0  0  0
 41114  1  0  0  0
 41 48  1  0  0  0
 42 43  1  0  0  0
 42 66  1  0  0  0
 42115  1  0  0  0
 42116  1  0  0  0
 43 44  1  0  0  0
 44117  1  0  0  0
 45 46  2  0  0  0
 45118  1  0  0  0
 46119  1  0  0  0
 47120  1  0  0  0
 47121  1  0  0  0
 48 56  1  0  0  0
 48 65  1  0  0  0
 48122  1  0  0  0
 49 50  1  0  0  0
 49 53  1  0  0  0
 49 64  1  0  0  0
 49123  1  0  0  0
 50 51  1  0  0  0
 50124  1  0  0  0
 50125  1  0  0  0
 51 52  1  0  0  0
 51126  1  0  0  0
 51127  1  0  0  0
 52128  1  0  0  0
 52129  1  0  0  0
 53 54  1  0  0  0
 54 55  2  0  0  0
 54130  1  0  0  0
 55 57  1  0  0  0
 55131  1  0  0  0
 56 69  2  0  0  0
 57 58  2  0  0  0
 57132  1  0  0  0
 58133  1  0  0  0
 59 60  1  0  0  0
 59 61  1  0  0  0
 59 62  1  0  0  0
 60134  1  0  0  0
 60135  1  0  0  0
 60136  1  0  0  0
 61137  1  0  0  0
 61138  1  0  0  0
 61139  1  0  0  0
 62140  1  0  0  0
 62141  1  0  0  0
 62142  1  0  0  0
 63 65  1  0  0  0
 63143  1  0  0  0
 63144  1  0  0  0
 63145  1  0  0  0
 64146  1  0  0  0
 65147  1  0  0  0
 68 83  1  0  0  0
 71 73  2  0  0  0
 71 75  1  0  0  0
 71148  1  0  0  0
 72 75  2  0  0  0
 72 76  1  0  0  0
 72149  1  0  0  0
 73 74  1  0  0  0
 73 78  1  0  0  0
 74 76  2  0  0  0
 74 81  1  0  0  0
 75 86  1  0  0  0
 76 85  1  0  0  0
 77 78  2  0  0  0
 77150  1  0  0  0
 77151  1  0  0  0
 78152  1  0  0  0
 79 82  1  0  0  0
 79 83  1  0  0  0
 79 87  2  0  0  0
 80 84  1  0  0  0
 80 85  1  0  0  0
 80 88  2  0  0  0
 81153  1  0  0  0
 81154  1  0  0  0
 81155  1  0  0  0
 82 84  1  0  0  0
 82156  1  0  0  0
 82157  1  0  0  0
 83158  1  0  0  0
 83159  1  0  0  0
 84160  1  0  0  0
 84161  1  0  0  0
 85162  1  0  0  0
 86163  1  0  0  0
M  ISO  4   1 100  68 101  83 101  86 100
M  END
> <chiral flag>
0

> <version>
0

> <s_m_source_file>
/data/baiqing/PycharmProjects/Reinvent-master-3.2/result/LINK_invent/BTK/process_docking_weight1_custom_product_contain_oxygen_bond_distance_aromatic_linkinvent_7_9_3/rearranged_h_0170.sdf

> <i_m_source_file_index>
3

> <r_mmod_Potential_Energy-OPLS-2005>
-81.9051666259766

> <r_mmod_Stretch_Energy-OPLS-2005>
34.5688514709473

> <r_mmod_Bend_Energy-OPLS-2005>
100.821044921875

> <r_mmod_Torsional_Energy-OPLS-2005>
298.714233398438

> <r_mmod_Improper_Torsional_Energy-OPLS-2005>
4.2547287940979

> <r_mmod_Van_der_Waal_Energy-OPLS-2005>
158.469497680664

> <r_mmod_Electrostatic_Energy-OPLS-2005>
-424.307647705078

> <r_mmod_Solvation_Energy-OPLS-2005>
-265.112884521484

> <b_mmod_Minimization_Converged-OPLS-2005>
0

> <r_mmod_RMS_Derivative-OPLS-2005>
4.4098973274231

$$$$
3
                    3D
 Structure written by MMmdl.
153161  0  0  1  0            999 V2000
  -30.7083  -14.4502   20.5564 C   0  0  0  0  0  0
  -30.4127  -12.2841   19.4342 C   0  0  0  0  0  0
  -29.4929  -12.5067   18.2142 C   0  0  0  0  0  0
  -28.0129  -12.3731   18.6211 C   0  0  0  0  0  0
  -27.6604  -13.2099   19.8794 C   0  0  2  0  0  0
  -28.6979  -12.9924   21.0046 C   0  0  0  0  0  0
  -25.2594  -13.8173   20.5725 C   0  0  0  0  0  0
  -24.1840  -13.0444   20.9187 C   0  0  0  0  0  0
  -24.6388  -11.6906   20.8742 C   0  0  0  0  0  0
  -23.9047  -10.4291   21.0387 C   0  0  0  0  0  0
  -24.3623   -9.4212   21.9170 C   0  0  0  0  0  0
  -23.6314   -8.2243   22.0739 C   0  0  0  0  0  0
  -22.4260   -8.0307   21.3565 C   0  0  0  0  0  0
  -21.9906   -9.0259   20.4630 C   0  0  0  0  0  0
  -22.7220  -10.2140   20.3031 C   0  0  0  0  0  0
  -21.6845   -6.0749   22.5290 C   0  0  0  0  0  0
  -21.4002   -6.5651   23.8231 C   0  0  0  0  0  0
  -21.3674   -5.6807   24.9193 C   0  0  0  0  0  0
  -21.6056   -4.3074   24.7208 C   0  0  0  0  0  0
  -21.8835   -3.8161   23.4330 C   0  0  0  0  0  0
  -21.9185   -4.6983   22.3393 C   0  0  0  0  0  0
  -22.7879  -13.5242   21.1869 C   0  0  0  0  0  0
  -22.1658   -4.2173   21.0970 F   0  0  0  0  0  0
  -21.5635   -3.4545   25.7712 F   0  0  0  0  0  0
  -30.0343  -13.2737   20.4558 N   0  0  0  0  0  0
  -26.3017  -12.9346   20.3394 N   0  0  0  0  0  0
  -25.9311  -11.6497   20.5753 N   0  0  0  0  0  0
  -22.0523  -12.8219   22.0435 N   0  0  0  0  0  0
  -25.4355  -15.1886   20.4238 N   0  0  0  0  0  0
  -31.8567  -14.5955   20.1281 O   0  0  0  0  0  0
  -21.6644   -6.8890   21.4249 O   0  0  0  0  0  0
  -22.3560  -14.5548   20.6717 O   0  0  0  0  0  0
  -24.6134  -31.8696   23.2120 C   0  0  0  0  0  0
  -25.9033  -32.4828   23.8406 C   0  0  1  0  0  0
  -27.2300  -27.4403   20.0922 C   0  0  0  0  0  0
  -25.5892  -33.8631   24.2338 N   0  0  0  0  0  0
  -23.3995  -30.4972   21.5521 C   0  0  2  0  0  0
  -24.8424  -28.9649   20.1138 C   0  0  0  0  0  0
  -22.7396  -29.4680   22.4983 C   0  0  0  0  0  0
  -18.0270  -28.1375   22.8490 C   0  0  0  0  0  0
  -24.1488  -36.7335   23.2640 C   0  0  0  0  0  0
  -25.9283  -30.8368   21.3630 C   0  0  0  0  0  0
  -26.0035  -29.4728   20.7088 C   0  0  0  0  0  0
  -27.1975  -28.7161   20.6991 C   0  0  0  0  0  0
  -26.0394  -26.9405   19.5081 C   0  0  0  0  0  0
  -24.8547  -27.6969   19.5121 C   0  0  0  0  0  0
  -23.6057  -29.8321   20.1652 C   0  0  0  0  0  0
  -25.4105  -36.3123   24.0345 C   0  0  1  0  0  0
  -20.5861  -28.3657   23.1314 C   0  0  2  0  0  0
  -20.6758  -26.9397   22.5410 C   0  0  0  0  0  0
  -19.5728  -26.6386   21.5209 C   0  0  0  0  0  0
  -18.1917  -26.7925   22.1624 C   0  0  0  0  0  0
  -19.1515  -28.8834   23.2901 C   0  0  0  0  0  0
  -18.9444  -30.1445   23.8902 C   0  0  0  0  0  0
  -17.6449  -30.6584   24.0565 C   0  0  0  0  0  0
  -25.9029  -34.9484   23.5138 C   0  0  0  0  0  0
  -16.5341  -29.9086   23.6332 C   0  0  0  0  0  0
  -16.7264  -28.6504   23.0351 C   0  0  0  0  0  0
  -26.4451  -31.6604   25.0737 C   0  0  0  0  0  0
  -25.3721  -31.3730   26.1493 C   0  0  0  0  0  0
  -27.0264  -30.3042   24.6121 C   0  0  0  0  0  0
  -27.6044  -32.4306   25.7487 C   0  0  0  0  0  0
  -27.5580  -37.1825   24.8463 C   0  0  0  0  0  0
  -21.4127  -29.3036   22.3724 N   0  0  0  0  0  0
  -26.4295  -37.3800   23.9405 N   0  0  0  0  0  0
  -24.6660  -31.0815   22.1009 N   0  0  0  0  0  0
  -23.4181  -28.8222   23.3014 O   0  0  0  0  0  0
  -28.4024  -26.7071   20.1269 O   0  0  0  0  0  0
  -26.5593  -34.8933   22.4701 O   0  0  0  0  0  0
  -23.5333  -32.1437   23.7527 O   0  0  0  0  0  0
  -29.0615  -19.1035   20.7115 C   0  0  0  0  0  0
  -30.7949  -17.2775   19.4637 C   0  0  0  0  0  0
  -29.8005  -19.5098   19.5762 C   0  0  0  0  0  0
  -30.0220  -16.8431   20.5701 C   0  0  0  0  0  0
  -29.1667  -17.7775   21.1976 C   0  0  0  0  0  0
  -30.6814  -18.5868   18.9709 C   0  0  0  0  0  0
  -28.4671  -25.5327   19.4199 C   0  0  0  0  0  0
  -28.8802  -24.3575   19.9401 C   0  0  0  0  0  0
  -28.8603  -23.1725   19.0838 C   0  0  0  0  0  0
  -29.5948  -20.8526   18.8784 C   0  0  0  0  0  0
  -29.9946  -15.4872   21.0312 N   0  0  0  0  0  0
  -29.2821  -22.0407   19.6775 N   0  0  0  0  0  0
  -28.5226  -23.1843   17.8966 O   0  0  0  0  0  0
  -29.3047  -24.2788   21.2116 O   0  0  0  0  0  0
  -28.4074  -17.3822   22.2508 F   0  0  0  0  0  0
  -31.4018  -18.9403   17.8775 F   0  0  0  0  0  0
  -31.4593  -12.3630   19.1396 H   0  0  0  0  0  0
  -30.2930  -11.2720   19.8210 H   0  0  0  0  0  0
  -29.7293  -11.7938   17.4228 H   0  0  0  0  0  0
  -29.6704  -13.4962   17.7909 H   0  0  0  0  0  0
  -27.8203  -11.3167   18.8108 H   0  0  0  0  0  0
  -27.3606  -12.6521   17.7922 H   0  0  0  0  0  0
  -27.7007  -14.2568   19.5794 H   0  0  0  0  0  0
  -28.6616  -11.9631   21.3667 H   0  0  0  0  0  0
  -28.4640  -13.6163   21.8687 H   0  0  0  0  0  0
  -25.2773   -9.5699   22.4740 H   0  0  0  0  0  0
  -24.0043   -7.4628   22.7448 H   0  0  0  0  0  0
  -21.0839   -8.8765   19.8932 H   0  0  0  0  0  0
  -22.3688  -10.9690   19.6135 H   0  0  0  0  0  0
  -21.2005   -7.6163   23.9740 H   0  0  0  0  0  0
  -21.1482   -6.0525   25.9110 H   0  0  0  0  0  0
  -22.0589   -2.7614   23.2801 H   0  0  0  0  0  0
  -22.4111  -11.9836   22.4761 H   0  0  0  0  0  0
  -21.1160  -13.1268   22.2660 H   0  0  0  0  0  0
  -24.6854  -15.8539   20.5726 H   0  0  0  0  0  0
  -26.3135  -15.6304   20.1878 H   0  0  0  0  0  0
  -26.7116  -32.5536   23.1174 H   0  0  0  0  0  0
  -25.0018  -33.9786   25.0467 H   0  0  0  0  0  0
  -22.6875  -31.3139   21.4167 H   0  0  0  0  0  0
  -23.3723  -35.9691   23.3332 H   0  0  0  0  0  0
  -24.3578  -36.8912   22.2047 H   0  0  0  0  0  0
  -23.7269  -37.6570   23.6622 H   0  0  0  0  0  0
  -26.0394  -31.6032   20.5948 H   0  0  0  0  0  0
  -26.8185  -30.8893   21.9795 H   0  0  0  0  0  0
  -28.0932  -29.1005   21.1665 H   0  0  0  0  0  0
  -25.9957  -25.9609   19.0562 H   0  0  0  0  0  0
  -23.9593  -27.2947   19.0593 H   0  0  0  0  0  0
  -23.7124  -30.6088   19.4066 H   0  0  0  0  0  0
  -22.7279  -29.2538   19.8697 H   0  0  0  0  0  0
  -25.1277  -36.1994   25.0839 H   0  0  0  0  0  0
  -20.9963  -28.3224   24.1426 H   0  0  0  0  0  0
  -20.5654  -26.2274   23.3590 H   0  0  0  0  0  0
  -21.6629  -26.7438   22.1200 H   0  0  0  0  0  0
  -19.6893  -25.6300   21.1220 H   0  0  0  0  0  0
  -19.6677  -27.3201   20.6739 H   0  0  0  0  0  0
  -17.4192  -26.6673   21.4035 H   0  0  0  0  0  0
  -18.0326  -26.0064   22.9017 H   0  0  0  0  0  0
  -19.7934  -30.7256   24.2276 H   0  0  0  0  0  0
  -17.5014  -31.6272   24.5159 H   0  0  0  0  0  0
  -15.5342  -30.2983   23.7671 H   0  0  0  0  0  0
  -15.8663  -28.0828   22.7051 H   0  0  0  0  0  0
  -24.5871  -30.7101   25.7839 H   0  0  0  0  0  0
  -24.8932  -32.2897   26.4957 H   0  0  0  0  0  0
  -25.8067  -30.8885   27.0247 H   0  0  0  0  0  0
  -26.2816  -29.6823   24.1149 H   0  0  0  0  0  0
  -27.3988  -29.7264   25.4591 H   0  0  0  0  0  0
  -27.8668  -30.4344   23.9299 H   0  0  0  0  0  0
  -27.2689  -33.3604   26.2085 H   0  0  0  0  0  0
  -28.3840  -32.6865   25.0301 H   0  0  0  0  0  0
  -28.0720  -31.8411   26.5378 H   0  0  0  0  0  0
  -28.2621  -38.0101   24.7477 H   0  0  0  0  0  0
  -28.1053  -36.2634   24.6317 H   0  0  0  0  0  0
  -27.2304  -37.1518   25.8869 H   0  0  0  0  0  0
  -20.9276  -29.8761   21.6950 H   0  0  0  0  0  0
  -26.0191  -38.2889   24.1362 H   0  0  0  0  0  0
  -28.3715  -19.7824   21.1901 H   0  0  0  0  0  0
  -31.4569  -16.6151   18.9284 H   0  0  0  0  0  0
  -28.1395  -25.6547   18.3945 H   0  0  0  0  0  0
  -28.7968  -20.6812   18.1538 H   0  0  0  0  0  0
  -30.4838  -21.0941   18.2970 H   0  0  0  0  0  0
  -29.1708  -15.2394   21.5569 H   0  0  0  0  0  0
  -29.5596  -22.0873   20.6485 H   0  0  0  0  0  0
  -29.2846  -25.1601   21.5608 H   0  0  0  0  0  0
  1 25  1  0  0  0
  1 30  2  0  0  0
  1 81  1  0  0  0
  2  3  1  0  0  0
  2 25  1  0  0  0
  2 87  1  0  0  0
  2 88  1  0  0  0
  3  4  1  0  0  0
  3 89  1  0  0  0
  3 90  1  0  0  0
  4  5  1  0  0  0
  4 91  1  0  0  0
  4 92  1  0  0  0
  5  6  1  0  0  0
  5 26  1  0  0  0
  5 93  1  0  0  0
  6 25  1  0  0  0
  6 94  1  0  0  0
  6 95  1  0  0  0
  7  8  2  0  0  0
  7 26  1  0  0  0
  7 29  1  0  0  0
  8  9  1  0  0  0
  8 22  1  0  0  0
  9 10  1  0  0  0
  9 27  2  0  0  0
 10 11  2  0  0  0
 10 15  1  0  0  0
 11 12  1  0  0  0
 11 96  1  0  0  0
 12 13  2  0  0  0
 12 97  1  0  0  0
 13 14  1  0  0  0
 13 31  1  0  0  0
 14 15  2  0  0  0
 14 98  1  0  0  0
 15 99  1  0  0  0
 16 17  2  0  0  0
 16 21  1  0  0  0
 16 31  1  0  0  0
 17 18  1  0  0  0
 17100  1  0  0  0
 18 19  2  0  0  0
 18101  1  0  0  0
 19 20  1  0  0  0
 19 24  1  0  0  0
 20 21  2  0  0  0
 20102  1  0  0  0
 21 23  1  0  0  0
 22 28  1  0  0  0
 22 32  2  0  0  0
 26 27  1  0  0  0
 28103  1  0  0  0
 28104  1  0  0  0
 29105  1  0  0  0
 29106  1  0  0  0
 33 34  1  0  0  0
 33 66  1  0  0  0
 33 70  2  0  0  0
 34 36  1  0  0  0
 34 59  1  0  0  0
 34107  1  0  0  0
 35 44  2  0  0  0
 35 45  1  0  0  0
 35 68  1  0  0  0
 36 56  1  0  0  0
 36108  1  0  0  0
 37 39  1  0  0  0
 37 47  1  0  0  0
 37 66  1  0  0  0
 37109  1  0  0  0
 38 43  2  0  0  0
 38 46  1  0  0  0
 38 47  1  0  0  0
 39 64  1  0  0  0
 39 67  2  0  0  0
 40 52  1  0  0  0
 40 53  2  0  0  0
 40 58  1  0  0  0
 41110  1  0  0  0
 41111  1  0  0  0
 41112  1  0  0  0
 41 48  1  0  0  0
 42 43  1  0  0  0
 42 66  1  0  0  0
 42113  1  0  0  0
 42114  1  0  0  0
 43 44  1  0  0  0
 44115  1  0  0  0
 45 46  2  0  0  0
 45116  1  0  0  0
 46117  1  0  0  0
 47118  1  0  0  0
 47119  1  0  0  0
 48 56  1  0  0  0
 48 65  1  0  0  0
 48120  1  0  0  0
 49 50  1  0  0  0
 49 53  1  0  0  0
 49 64  1  0  0  0
 49121  1  0  0  0
 50 51  1  0  0  0
 50122  1  0  0  0
 50123  1  0  0  0
 51 52  1  0  0  0
 51124  1  0  0  0
 51125  1  0  0  0
 52126  1  0  0  0
 52127  1  0  0  0
 53 54  1  0  0  0
 54 55  2  0  0  0
 54128  1  0  0  0
 55 57  1  0  0  0
 55129  1  0  0  0
 56 69  2  0  0  0
 57 58  2  0  0  0
 57130  1  0  0  0
 58131  1  0  0  0
 59 60  1  0  0  0
 59 61  1  0  0  0
 59 62  1  0  0  0
 60132  1  0  0  0
 60133  1  0  0  0
 60134  1  0  0  0
 61135  1  0  0  0
 61136  1  0  0  0
 61137  1  0  0  0
 62138  1  0  0  0
 62139  1  0  0  0
 62140  1  0  0  0
 63 65  1  0  0  0
 63141  1  0  0  0
 63142  1  0  0  0
 63143  1  0  0  0
 64144  1  0  0  0
 65145  1  0  0  0
 68 77  1  0  0  0
 71 73  2  0  0  0
 71 75  1  0  0  0
 71146  1  0  0  0
 72 74  1  0  0  0
 72 76  2  0  0  0
 72147  1  0  0  0
 73 76  1  0  0  0
 73 80  1  0  0  0
 74 75  2  0  0  0
 74 81  1  0  0  0
 75 85  1  0  0  0
 76 86  1  0  0  0
 77 78  2  0  0  0
 77148  1  0  0  0
 78 79  1  0  0  0
 78 84  1  0  0  0
 79 82  1  0  0  0
 79 83  2  0  0  0
 80 82  1  0  0  0
 80149  1  0  0  0
 80150  1  0  0  0
 81151  1  0  0  0
 82152  1  0  0  0
 84153  1  0  0  0
M  ISO  4   1 100  68 101  77 101  81 100
M  END
> <chiral flag>
0

> <version>
0

> <s_m_source_file>
/data/baiqing/PycharmProjects/Reinvent-master-3.2/result/LINK_invent/BTK/process_docking_weight1_custom_product_contain_oxygen_bond_distance_aromatic_linkinvent_7_9_3/rearranged_h_0170.sdf

> <i_m_source_file_index>
4

> <r_mmod_Potential_Energy-OPLS-2005>
-184.530914306641

> <r_mmod_Stretch_Energy-OPLS-2005>
35.5484237670898

> <r_mmod_Bend_Energy-OPLS-2005>
100.055717468262

> <r_mmod_Torsional_Energy-OPLS-2005>
212.835586547852

> <r_mmod_Improper_Torsional_Energy-OPLS-2005>
5.29612016677856

> <r_mmod_Van_der_Waal_Energy-OPLS-2005>
174.396224975586

> <r_mmod_Electrostatic_Energy-OPLS-2005>
-510.655700683594

> <r_mmod_Solvation_Energy-OPLS-2005>
-215.506530761719

> <b_mmod_Minimization_Converged-OPLS-2005>
0

> <r_mmod_RMS_Derivative-OPLS-2005>
3.83382558822632

$$$$
4
                    3D
 Structure written by MMmdl.
153161  0  0  1  0            999 V2000
  -30.6112  -14.8202   20.4238 C   0  0  0  0  0  0
  -30.4296  -12.4987   19.4893 C   0  0  0  0  0  0
  -29.5134  -12.5058   18.2462 C   0  0  0  0  0  0
  -28.0418  -12.3214   18.6614 C   0  0  0  0  0  0
  -27.6348  -13.2436   19.8421 C   0  0  2  0  0  0
  -28.6796  -13.2317   20.9793 C   0  0  0  0  0  0
  -25.2470  -13.8217   20.5709 C   0  0  0  0  0  0
  -24.1781  -13.0437   20.9213 C   0  0  0  0  0  0
  -24.6398  -11.6925   20.8751 C   0  0  0  0  0  0
  -23.9086  -10.4294   21.0405 C   0  0  0  0  0  0
  -24.3631   -9.4205   21.9181 C   0  0  0  0  0  0
  -23.6295   -8.2246   22.0753 C   0  0  0  0  0  0
  -22.4275   -8.0285   21.3546 C   0  0  0  0  0  0
  -21.9918   -9.0263   20.4650 C   0  0  0  0  0  0
  -22.7257  -10.2139   20.3055 C   0  0  0  0  0  0
  -21.6855   -6.0738   22.5277 C   0  0  0  0  0  0
  -21.4020   -6.5643   23.8211 C   0  0  0  0  0  0
  -21.3658   -5.6793   24.9175 C   0  0  0  0  0  0
  -21.6038   -4.3055   24.7227 C   0  0  0  0  0  0
  -21.8818   -3.8147   23.4347 C   0  0  0  0  0  0
  -21.9194   -4.6964   22.3402 C   0  0  0  0  0  0
  -22.7799  -13.5207   21.1867 C   0  0  0  0  0  0
  -22.1658   -4.2150   21.0979 F   0  0  0  0  0  0
  -21.5630   -3.4537   25.7740 F   0  0  0  0  0  0
  -29.9730  -13.5925   20.3864 N   0  0  0  0  0  0
  -26.2909  -12.9454   20.3269 N   0  0  0  0  0  0
  -25.9330  -11.6581   20.5750 N   0  0  0  0  0  0
  -22.0452  -12.8205   22.0435 N   0  0  0  0  0  0
  -25.4105  -15.1945   20.4153 N   0  0  0  0  0  0
  -31.8139  -14.8433   20.1553 O   0  0  0  0  0  0
  -21.6639   -6.8882   21.4238 O   0  0  0  0  0  0
  -22.3473  -14.5503   20.6703 O   0  0  0  0  0  0
  -24.6363  -31.8509   23.1954 C   0  0  0  0  0  0
  -25.9166  -32.4732   23.8314 C   0  0  1  0  0  0
  -27.2180  -27.2189   20.1355 C   0  0  0  0  0  0
  -25.5944  -33.8533   24.2236 N   0  0  0  0  0  0
  -23.4374  -30.4729   21.5381 C   0  0  2  0  0  0
  -24.8897  -28.9179   20.1050 C   0  0  0  0  0  0
  -22.7542  -29.4572   22.4870 C   0  0  0  0  0  0
  -18.0305  -28.1387   22.8476 C   0  0  0  0  0  0
  -24.1490  -36.7271   23.2637 C   0  0  0  0  0  0
  -25.9884  -30.7497   21.3850 C   0  0  0  0  0  0
  -26.0637  -29.3694   20.7246 C   0  0  0  0  0  0
  -27.2343  -28.5315   20.7322 C   0  0  0  0  0  0
  -26.0280  -26.8553   19.4717 C   0  0  0  0  0  0
  -24.8797  -27.6703   19.4644 C   0  0  0  0  0  0
  -23.6611  -29.8091   20.1543 C   0  0  0  0  0  0
  -25.4117  -36.3051   24.0320 C   0  0  1  0  0  0
  -20.5914  -28.3708   23.1245 C   0  0  2  0  0  0
  -20.6787  -26.9413   22.5409 C   0  0  0  0  0  0
  -19.5763  -26.6379   21.5209 C   0  0  0  0  0  0
  -18.1944  -26.7928   22.1620 C   0  0  0  0  0  0
  -19.1560  -28.8867   23.2854 C   0  0  0  0  0  0
  -18.9475  -30.1465   23.8881 C   0  0  0  0  0  0
  -17.6470  -30.6582   24.0562 C   0  0  0  0  0  0
  -25.9063  -34.9425   23.5082 C   0  0  0  0  0  0
  -16.5365  -29.9078   23.6327 C   0  0  0  0  0  0
  -16.7290  -28.6497   23.0349 C   0  0  0  0  0  0
  -26.4516  -31.6570   25.0725 C   0  0  0  0  0  0
  -25.3721  -31.3752   26.1438 C   0  0  0  0  0  0
  -27.0355  -30.2966   24.6256 C   0  0  0  0  0  0
  -27.6064  -32.4315   25.7499 C   0  0  0  0  0  0
  -27.5578  -37.1792   24.8462 C   0  0  0  0  0  0
  -21.4242  -29.3040   22.3624 N   0  0  0  0  0  0
  -26.4289  -37.3757   23.9404 N   0  0  0  0  0  0
  -24.7062  -31.0435   22.0951 N   0  0  0  0  0  0
  -23.4219  -28.8108   23.2984 O   0  0  0  0  0  0
  -28.2222  -26.2100   20.2145 O   0  0  0  0  0  0
  -26.5639  -34.8908   22.4653 O   0  0  0  0  0  0
  -23.5499  -32.1348   23.7219 O   0  0  0  0  0  0
  -30.9851  -20.2084   19.6896 C   0  0  0  0  0  0
  -31.4323  -17.7932   19.7081 C   0  0  0  0  0  0
  -29.3270  -18.6507   20.5923 C   0  0  0  0  0  0
  -29.7106  -20.0546   20.2777 C   0  0  0  0  0  0
  -30.1910  -17.4746   20.3122 C   0  0  0  0  0  0
  -31.8189  -19.1125   19.4117 C   0  0  0  0  0  0
  -27.8184  -25.0066   20.8880 C   0  0  0  0  0  0
  -28.0888  -23.6210   20.9322 C   0  0  0  0  0  0
  -29.0409  -22.6816   20.2121 C   0  0  0  0  0  0
  -27.9556  -18.3683   21.2150 C   0  0  0  0  0  0
  -28.9255  -21.3185   20.5627 N   0  0  0  0  0  0
  -29.8667  -16.0070   20.5697 N   0  0  0  0  0  0
  -29.8472  -23.0690   19.3657 O   0  0  0  0  0  0
  -27.3252  -22.9700   21.8292 O   0  0  0  0  0  0
  -33.0287  -19.3323   18.8436 F   0  0  0  0  0  0
  -27.3684  -19.4542   21.7203 F   0  0  0  0  0  0
  -27.1567  -17.8566   20.2785 F   0  0  0  0  0  0
  -28.0614  -17.4771   22.2017 F   0  0  0  0  0  0
  -31.4708  -12.6160   19.1837 H   0  0  0  0  0  0
  -30.3797  -11.5380   20.0037 H   0  0  0  0  0  0
  -29.8087  -11.7158   17.5542 H   0  0  0  0  0  0
  -29.6312  -13.4469   17.7065 H   0  0  0  0  0  0
  -27.9141  -11.2779   18.9502 H   0  0  0  0  0  0
  -27.3835  -12.4827   17.8070 H   0  0  0  0  0  0
  -27.6114  -14.2540   19.4323 H   0  0  0  0  0  0
  -28.7334  -12.2502   21.4518 H   0  0  0  0  0  0
  -28.4037  -13.9371   21.7646 H   0  0  0  0  0  0
  -25.2776   -9.5681   22.4757 H   0  0  0  0  0  0
  -24.0004   -7.4640   22.7473 H   0  0  0  0  0  0
  -21.0849   -8.8786   19.8960 H   0  0  0  0  0  0
  -22.3711  -10.9677   19.6164 H   0  0  0  0  0  0
  -21.2012   -7.6151   23.9718 H   0  0  0  0  0  0
  -21.1479   -6.0524   25.9080 H   0  0  0  0  0  0
  -22.0597   -2.7607   23.2849 H   0  0  0  0  0  0
  -22.4070  -11.9885   22.4856 H   0  0  0  0  0  0
  -21.1060  -13.1224   22.2611 H   0  0  0  0  0  0
  -24.6403  -15.8401   20.5486 H   0  0  0  0  0  0
  -26.2552  -15.6580   20.1078 H   0  0  0  0  0  0
  -26.7232  -32.5371   23.1049 H   0  0  0  0  0  0
  -25.0082  -33.9657   25.0375 H   0  0  0  0  0  0
  -22.7350  -31.2957   21.3899 H   0  0  0  0  0  0
  -23.3743  -35.9613   23.3316 H   0  0  0  0  0  0
  -24.3576  -36.8879   22.2049 H   0  0  0  0  0  0
  -23.7260  -37.6483   23.6652 H   0  0  0  0  0  0
  -26.1366  -31.5103   20.6171 H   0  0  0  0  0  0
  -26.8619  -30.7978   22.0234 H   0  0  0  0  0  0
  -28.1245  -28.8605   21.2492 H   0  0  0  0  0  0
  -25.9691  -25.8877   18.9926 H   0  0  0  0  0  0
  -23.9839  -27.3197   18.9705 H   0  0  0  0  0  0
  -23.7907  -30.5869   19.4013 H   0  0  0  0  0  0
  -22.7774  -29.2483   19.8448 H   0  0  0  0  0  0
  -25.1300  -36.1893   25.0813 H   0  0  0  0  0  0
  -21.0013  -28.3299   24.1362 H   0  0  0  0  0  0
  -20.5668  -26.2318   23.3624 H   0  0  0  0  0  0
  -21.6655  -26.7414   22.1217 H   0  0  0  0  0  0
  -19.6924  -25.6289   21.1241 H   0  0  0  0  0  0
  -19.6697  -27.3184   20.6732 H   0  0  0  0  0  0
  -17.4211  -26.6669   21.4027 H   0  0  0  0  0  0
  -18.0344  -26.0077   22.9023 H   0  0  0  0  0  0
  -19.7954  -30.7288   24.2238 H   0  0  0  0  0  0
  -17.5023  -31.6257   24.5176 H   0  0  0  0  0  0
  -15.5364  -30.2972   23.7661 H   0  0  0  0  0  0
  -15.8691  -28.0812   22.7065 H   0  0  0  0  0  0
  -24.5900  -30.7091   25.7779 H   0  0  0  0  0  0
  -24.8911  -32.2935   26.4815 H   0  0  0  0  0  0
  -25.8028  -30.8970   27.0243 H   0  0  0  0  0  0
  -26.2951  -29.6712   24.1257 H   0  0  0  0  0  0
  -27.3973  -29.7239   25.4806 H   0  0  0  0  0  0
  -27.8861  -30.4204   23.9550 H   0  0  0  0  0  0
  -27.2665  -33.3612   26.2068 H   0  0  0  0  0  0
  -28.3880  -32.6880   25.0335 H   0  0  0  0  0  0
  -28.0725  -31.8448   26.5423 H   0  0  0  0  0  0
  -28.2601  -38.0082   24.7493 H   0  0  0  0  0  0
  -28.1066  -36.2614   24.6302 H   0  0  0  0  0  0
  -27.2297  -37.1463   25.8866 H   0  0  0  0  0  0
  -20.9436  -29.8760   21.6824 H   0  0  0  0  0  0
  -26.0163  -38.2828   24.1409 H   0  0  0  0  0  0
  -31.3689  -21.1858   19.4455 H   0  0  0  0  0  0
  -32.1433  -17.0317   19.4367 H   0  0  0  0  0  0
  -27.0513  -25.3163   21.5862 H   0  0  0  0  0  0
  -28.1428  -21.1892   21.1960 H   0  0  0  0  0  0
  -28.9122  -15.8368   20.8490 H   0  0  0  0  0  0
  -26.7646  -23.6076   22.2506 H   0  0  0  0  0  0
  1 25  1  0  0  0
  1 30  2  0  0  0
  1 82  1  0  0  0
  2  3  1  0  0  0
  2 25  1  0  0  0
  2 89  1  0  0  0
  2 90  1  0  0  0
  3  4  1  0  0  0
  3 91  1  0  0  0
  3 92  1  0  0  0
  4  5  1  0  0  0
  4 93  1  0  0  0
  4 94  1  0  0  0
  5  6  1  0  0  0
  5 26  1  0  0  0
  5 95  1  0  0  0
  6 25  1  0  0  0
  6 96  1  0  0  0
  6 97  1  0  0  0
  7  8  2  0  0  0
  7 26  1  0  0  0
  7 29  1  0  0  0
  8  9  1  0  0  0
  8 22  1  0  0  0
  9 10  1  0  0  0
  9 27  2  0  0  0
 10 11  2  0  0  0
 10 15  1  0  0  0
 11 12  1  0  0  0
 11 98  1  0  0  0
 12 13  2  0  0  0
 12 99  1  0  0  0
 13 14  1  0  0  0
 13 31  1  0  0  0
 14 15  2  0  0  0
 14100  1  0  0  0
 15101  1  0  0  0
 16 17  2  0  0  0
 16 21  1  0  0  0
 16 31  1  0  0  0
 17 18  1  0  0  0
 17102  1  0  0  0
 18 19  2  0  0  0
 18103  1  0  0  0
 19 20  1  0  0  0
 19 24  1  0  0  0
 20 21  2  0  0  0
 20104  1  0  0  0
 21 23  1  0  0  0
 22 28  1  0  0  0
 22 32  2  0  0  0
 26 27  1  0  0  0
 28105  1  0  0  0
 28106  1  0  0  0
 29107  1  0  0  0
 29108  1  0  0  0
 33 34  1  0  0  0
 33 66  1  0  0  0
 33 70  2  0  0  0
 34 36  1  0  0  0
 34 59  1  0  0  0
 34109  1  0  0  0
 35 44  2  0  0  0
 35 45  1  0  0  0
 35 68  1  0  0  0
 36 56  1  0  0  0
 36110  1  0  0  0
 37 39  1  0  0  0
 37 47  1  0  0  0
 37 66  1  0  0  0
 37111  1  0  0  0
 38 43  2  0  0  0
 38 46  1  0  0  0
 38 47  1  0  0  0
 39 64  1  0  0  0
 39 67  2  0  0  0
 40 52  1  0  0  0
 40 53  2  0  0  0
 40 58  1  0  0  0
 41112  1  0  0  0
 41113  1  0  0  0
 41114  1  0  0  0
 41 48  1  0  0  0
 42 43  1  0  0  0
 42 66  1  0  0  0
 42115  1  0  0  0
 42116  1  0  0  0
 43 44  1  0  0  0
 44117  1  0  0  0
 45 46  2  0  0  0
 45118  1  0  0  0
 46119  1  0  0  0
 47120  1  0  0  0
 47121  1  0  0  0
 48 56  1  0  0  0
 48 65  1  0  0  0
 48122  1  0  0  0
 49 50  1  0  0  0
 49 53  1  0  0  0
 49 64  1  0  0  0
 49123  1  0  0  0
 50 51  1  0  0  0
 50124  1  0  0  0
 50125  1  0  0  0
 51 52  1  0  0  0
 51126  1  0  0  0
 51127  1  0  0  0
 52128  1  0  0  0
 52129  1  0  0  0
 53 54  1  0  0  0
 54 55  2  0  0  0
 54130  1  0  0  0
 55 57  1  0  0  0
 55131  1  0  0  0
 56 69  2  0  0  0
 57 58  2  0  0  0
 57132  1  0  0  0
 58133  1  0  0  0
 59 60  1  0  0  0
 59 61  1  0  0  0
 59 62  1  0  0  0
 60134  1  0  0  0
 60135  1  0  0  0
 60136  1  0  0  0
 61137  1  0  0  0
 61138  1  0  0  0
 61139  1  0  0  0
 62140  1  0  0  0
 62141  1  0  0  0
 62142  1  0  0  0
 63 65  1  0  0  0
 63143  1  0  0  0
 63144  1  0  0  0
 63145  1  0  0  0
 64146  1  0  0  0
 65147  1  0  0  0
 68 77  1  0  0  0
 71 74  2  0  0  0
 71 76  1  0  0  0
 71148  1  0  0  0
 72 75  1  0  0  0
 72 76  2  0  0  0
 72149  1  0  0  0
 73 74  1  0  0  0
 73 75  2  0  0  0
 73 80  1  0  0  0
 74 81  1  0  0  0
 75 82  1  0  0  0
 76 85  1  0  0  0
 77 78  2  0  0  0
 77150  1  0  0  0
 78 79  1  0  0  0
 78 84  1  0  0  0
 79 81  1  0  0  0
 79 83  2  0  0  0
 80 86  1  0  0  0
 80 87  1  0  0  0
 80 88  1  0  0  0
 81151  1  0  0  0
 82152  1  0  0  0
 84153  1  0  0  0
M  ISO  4   1 100  68 101  77 101  82 100
M  END
> <chiral flag>
0

> <version>
0

> <s_m_source_file>
/data/baiqing/PycharmProjects/Reinvent-master-3.2/result/LINK_invent/BTK/process_docking_weight1_custom_product_contain_oxygen_bond_distance_aromatic_linkinvent_7_9_3/rearranged_h_0170.sdf

> <i_m_source_file_index>
5

> <r_mmod_Potential_Energy-OPLS-2005>
400.067718505859

> <r_mmod_Stretch_Energy-OPLS-2005>
177.768630981445

> <r_mmod_Bend_Energy-OPLS-2005>
248.634704589844

> <r_mmod_Torsional_Energy-OPLS-2005>
220.896484375

> <r_mmod_Improper_Torsional_Energy-OPLS-2005>
4.37949752807617

> <r_mmod_Van_der_Waal_Energy-OPLS-2005>
154.796920776367

> <r_mmod_Electrostatic_Energy-OPLS-2005>
-318.707305908203

> <r_mmod_Solvation_Energy-OPLS-2005>
-217.695541381836

> <b_mmod_Minimization_Converged-OPLS-2005>
0

> <r_mmod_RMS_Derivative-OPLS-2005>
0.983702600002289

$$$$
5
                    3D
 Structure written by MMmdl.
155163  0  0  1  0            999 V2000
  -30.7307  -14.4435   20.5870 C   0  0  0  0  0  0
  -30.4103  -12.2875   19.4309 C   0  0  0  0  0  0
  -29.4941  -12.5052   18.2100 C   0  0  0  0  0  0
  -28.0144  -12.3695   18.6178 C   0  0  0  0  0  0
  -27.6612  -13.2113   19.8739 C   0  0  2  0  0  0
  -28.7001  -12.9999   20.9976 C   0  0  0  0  0  0
  -25.2576  -13.8175   20.5676 C   0  0  0  0  0  0
  -24.1835  -13.0443   20.9167 C   0  0  0  0  0  0
  -24.6394  -11.6913   20.8720 C   0  0  0  0  0  0
  -23.9067  -10.4298   21.0396 C   0  0  0  0  0  0
  -24.3620   -9.4213   21.9177 C   0  0  0  0  0  0
  -23.6291   -8.2253   22.0753 C   0  0  0  0  0  0
  -22.4273   -8.0287   21.3546 C   0  0  0  0  0  0
  -21.9909   -9.0261   20.4650 C   0  0  0  0  0  0
  -22.7239  -10.2138   20.3054 C   0  0  0  0  0  0
  -21.6850   -6.0735   22.5278 C   0  0  0  0  0  0
  -21.4015   -6.5642   23.8212 C   0  0  0  0  0  0
  -21.3662   -5.6796   24.9175 C   0  0  0  0  0  0
  -21.6043   -4.3058   24.7227 C   0  0  0  0  0  0
  -21.8817   -3.8151   23.4348 C   0  0  0  0  0  0
  -21.9192   -4.6964   22.3401 C   0  0  0  0  0  0
  -22.7856  -13.5227   21.1847 C   0  0  0  0  0  0
  -22.1658   -4.2151   21.0977 F   0  0  0  0  0  0
  -21.5633   -3.4545   25.7740 F   0  0  0  0  0  0
  -30.0360  -13.2803   20.4517 N   0  0  0  0  0  0
  -26.3018  -12.9356   20.3350 N   0  0  0  0  0  0
  -25.9320  -11.6512   20.5751 N   0  0  0  0  0  0
  -22.0511  -12.8219   22.0414 N   0  0  0  0  0  0
  -25.4303  -15.1896   20.4102 N   0  0  0  0  0  0
  -31.8391  -14.5822   20.0626 O   0  0  0  0  0  0
  -21.6641   -6.8881   21.4241 O   0  0  0  0  0  0
  -22.3540  -14.5540   20.6705 O   0  0  0  0  0  0
  -24.6139  -31.8692   23.2101 C   0  0  0  0  0  0
  -25.9043  -32.4823   23.8390 C   0  0  1  0  0  0
  -27.2316  -27.4370   20.0927 C   0  0  0  0  0  0
  -25.5896  -33.8624   24.2323 N   0  0  0  0  0  0
  -23.4004  -30.4924   21.5522 C   0  0  2  0  0  0
  -24.8451  -28.9593   20.1133 C   0  0  0  0  0  0
  -22.7402  -29.4655   22.4998 C   0  0  0  0  0  0
  -18.0265  -28.1367   22.8487 C   0  0  0  0  0  0
  -24.1491  -36.7319   23.2637 C   0  0  0  0  0  0
  -25.9286  -30.8344   21.3629 C   0  0  0  0  0  0
  -26.0052  -29.4699   20.7077 C   0  0  0  0  0  0
  -27.2017  -28.7180   20.6898 C   0  0  0  0  0  0
  -26.0510  -26.9404   19.4915 C   0  0  0  0  0  0
  -24.8621  -27.6932   19.5029 C   0  0  0  0  0  0
  -23.6072  -29.8250   20.1656 C   0  0  0  0  0  0
  -25.4105  -36.3109   24.0340 C   0  0  1  0  0  0
  -20.5856  -28.3664   23.1315 C   0  0  2  0  0  0
  -20.6758  -26.9406   22.5414 C   0  0  0  0  0  0
  -19.5734  -26.6381   21.5211 C   0  0  0  0  0  0
  -18.1907  -26.7916   22.1615 C   0  0  0  0  0  0
  -19.1517  -28.8829   23.2892 C   0  0  0  0  0  0
  -18.9457  -30.1434   23.8909 C   0  0  0  0  0  0
  -17.6464  -30.6583   24.0562 C   0  0  0  0  0  0
  -25.9029  -34.9479   23.5128 C   0  0  0  0  0  0
  -16.5349  -29.9089   23.6319 C   0  0  0  0  0  0
  -16.7259  -28.6499   23.0352 C   0  0  0  0  0  0
  -26.4475  -31.6599   25.0716 C   0  0  0  0  0  0
  -25.3754  -31.3702   26.1477 C   0  0  0  0  0  0
  -27.0309  -30.3050   24.6082 C   0  0  0  0  0  0
  -27.6044  -32.4321   25.7477 C   0  0  0  0  0  0
  -27.5581  -37.1810   24.8460 C   0  0  0  0  0  0
  -21.4135  -29.3030   22.3732 N   0  0  0  0  0  0
  -26.4294  -37.3787   23.9402 N   0  0  0  0  0  0
  -24.6660  -31.0782   22.1010 N   0  0  0  0  0  0
  -23.4184  -28.8196   23.3028 O   0  0  0  0  0  0
  -28.4076  -26.7162   20.1101 O   0  0  0  0  0  0
  -26.5586  -34.8937   22.4688 O   0  0  0  0  0  0
  -23.5339  -32.1457   23.7498 O   0  0  0  0  0  0
  -30.6358  -18.7372   20.1362 C   0  0  0  0  0  0
  -30.4841  -20.3320   22.3595 C   0  0  0  0  0  0
  -30.5104  -20.1297   19.9481 C   0  0  0  0  0  0
  -30.4636  -20.9658   21.0952 C   0  0  0  0  0  0
  -30.7267  -18.2173   21.4406 C   0  0  0  0  0  0
  -29.5677  -23.0868   20.6247 C   0  0  0  0  0  0
  -29.5805  -24.6045   20.5267 C   0  0  0  0  0  0
  -30.5067  -20.6936   18.5374 C   0  0  0  0  0  0
  -31.1411  -16.7678   21.6688 C   0  0  0  0  0  0
  -28.2973  -25.2839   20.0243 C   0  0  0  0  0  0
  -30.1012  -15.6853   21.2630 C   0  0  0  0  0  0
  -30.6073  -18.9971   22.5345 N   0  0  0  0  0  0
  -30.5433  -22.3680   21.0356 N   0  0  0  0  0  0
  -30.5736  -25.2806   20.8361 O   0  0  0  0  0  0
  -31.4588  -12.3522   19.1364 H   0  0  0  0  0  0
  -30.2810  -11.2784   19.8272 H   0  0  0  0  0  0
  -29.7328  -11.7855   17.4262 H   0  0  0  0  0  0
  -29.6719  -13.4949   17.7854 H   0  0  0  0  0  0
  -27.8220  -11.3138   18.8142 H   0  0  0  0  0  0
  -27.3663  -12.6444   17.7854 H   0  0  0  0  0  0
  -27.7056  -14.2591   19.5759 H   0  0  0  0  0  0
  -28.6632  -11.9701   21.3551 H   0  0  0  0  0  0
  -28.4571  -13.6094   21.8654 H   0  0  0  0  0  0
  -25.2767   -9.5688   22.4753 H   0  0  0  0  0  0
  -24.0001   -7.4643   22.7471 H   0  0  0  0  0  0
  -21.0844   -8.8780   19.8955 H   0  0  0  0  0  0
  -22.3695  -10.9679   19.6168 H   0  0  0  0  0  0
  -21.2007   -7.6151   23.9713 H   0  0  0  0  0  0
  -21.1486   -6.0529   25.9076 H   0  0  0  0  0  0
  -22.0594   -2.7609   23.2848 H   0  0  0  0  0  0
  -22.4130  -11.9868   22.4780 H   0  0  0  0  0  0
  -21.1140  -13.1254   22.2653 H   0  0  0  0  0  0
  -24.6668  -15.8476   20.5227 H   0  0  0  0  0  0
  -26.2934  -15.6297   20.1167 H   0  0  0  0  0  0
  -26.7114  -32.5537   23.1156 H   0  0  0  0  0  0
  -25.0080  -33.9782   25.0488 H   0  0  0  0  0  0
  -22.6887  -31.3097   21.4135 H   0  0  0  0  0  0
  -23.3747  -35.9658   23.3302 H   0  0  0  0  0  0
  -24.3585  -36.8931   22.2049 H   0  0  0  0  0  0
  -23.7249  -37.6526   23.6658 H   0  0  0  0  0  0
  -26.0370  -31.6013   20.5943 H   0  0  0  0  0  0
  -26.8182  -30.8878   21.9796 H   0  0  0  0  0  0
  -28.0992  -29.1086   21.1501 H   0  0  0  0  0  0
  -26.0312  -25.9779   19.0013 H   0  0  0  0  0  0
  -23.9714  -27.2949   19.0372 H   0  0  0  0  0  0
  -23.7130  -30.6019   19.4067 H   0  0  0  0  0  0
  -22.7315  -29.2436   19.8722 H   0  0  0  0  0  0
  -25.1282  -36.1985   25.0833 H   0  0  0  0  0  0
  -20.9933  -28.3256   24.1445 H   0  0  0  0  0  0
  -20.5666  -26.2283   23.3608 H   0  0  0  0  0  0
  -21.6631  -26.7456   22.1204 H   0  0  0  0  0  0
  -19.6905  -25.6294   21.1240 H   0  0  0  0  0  0
  -19.6679  -27.3187   20.6738 H   0  0  0  0  0  0
  -17.4179  -26.6671   21.4015 H   0  0  0  0  0  0
  -18.0298  -26.0059   22.9012 H   0  0  0  0  0  0
  -19.7947  -30.7222   24.2313 H   0  0  0  0  0  0
  -17.5030  -31.6275   24.5150 H   0  0  0  0  0  0
  -15.5351  -30.2998   23.7640 H   0  0  0  0  0  0
  -15.8656  -28.0824   22.7072 H   0  0  0  0  0  0
  -24.5922  -30.7048   25.7820 H   0  0  0  0  0  0
  -24.8950  -32.2856   26.4959 H   0  0  0  0  0  0
  -25.8119  -30.8860   27.0225 H   0  0  0  0  0  0
  -26.2848  -29.6797   24.1173 H   0  0  0  0  0  0
  -27.4117  -29.7301   25.4525 H   0  0  0  0  0  0
  -27.8662  -30.4351   23.9196 H   0  0  0  0  0  0
  -27.2662  -33.3611   26.2089 H   0  0  0  0  0  0
  -28.3853  -32.6907   25.0307 H   0  0  0  0  0  0
  -28.0730  -31.8435   26.5380 H   0  0  0  0  0  0
  -28.2595  -38.0112   24.7520 H   0  0  0  0  0  0
  -28.1083  -36.2643   24.6275 H   0  0  0  0  0  0
  -27.2300  -37.1457   25.8865 H   0  0  0  0  0  0
  -20.9301  -29.8795   21.6990 H   0  0  0  0  0  0
  -26.0198  -38.2866   24.1417 H   0  0  0  0  0  0
  -30.7408  -18.0761   19.2858 H   0  0  0  0  0  0
  -30.4639  -20.9218   23.2647 H   0  0  0  0  0  0
  -28.6374  -22.6049   20.3118 H   0  0  0  0  0  0
  -30.7461  -19.9260   17.8016 H   0  0  0  0  0  0
  -31.2469  -21.4873   18.4360 H   0  0  0  0  0  0
  -29.5257  -21.0995   18.2906 H   0  0  0  0  0  0
  -31.3976  -16.6255   22.7197 H   0  0  0  0  0  0
  -32.0906  -16.6664   21.1449 H   0  0  0  0  0  0
  -27.4639  -24.9298   20.6334 H   0  0  0  0  0  0
  -28.1140  -24.9830   18.9918 H   0  0  0  0  0  0
  -29.4066  -16.1045   20.5359 H   0  0  0  0  0  0
  -29.5114  -15.4284   22.1402 H   0  0  0  0  0  0
  1 25  1  0  0  0
  1 30  2  0  0  0
  1 81  1  0  0  0
  2  3  1  0  0  0
  2 25  1  0  0  0
  2 85  1  0  0  0
  2 86  1  0  0  0
  3  4  1  0  0  0
  3 87  1  0  0  0
  3 88  1  0  0  0
  4  5  1  0  0  0
  4 89  1  0  0  0
  4 90  1  0  0  0
  5  6  1  0  0  0
  5 26  1  0  0  0
  5 91  1  0  0  0
  6 25  1  0  0  0
  6 92  1  0  0  0
  6 93  1  0  0  0
  7  8  2  0  0  0
  7 26  1  0  0  0
  7 29  1  0  0  0
  8  9  1  0  0  0
  8 22  1  0  0  0
  9 10  1  0  0  0
  9 27  2  0  0  0
 10 11  2  0  0  0
 10 15  1  0  0  0
 11 12  1  0  0  0
 11 94  1  0  0  0
 12 13  2  0  0  0
 12 95  1  0  0  0
 13 14  1  0  0  0
 13 31  1  0  0  0
 14 15  2  0  0  0
 14 96  1  0  0  0
 15 97  1  0  0  0
 16 17  2  0  0  0
 16 21  1  0  0  0
 16 31  1  0  0  0
 17 18  1  0  0  0
 17 98  1  0  0  0
 18 19  2  0  0  0
 18 99  1  0  0  0
 19 20  1  0  0  0
 19 24  1  0  0  0
 20 21  2  0  0  0
 20100  1  0  0  0
 21 23  1  0  0  0
 22 28  1  0  0  0
 22 32  2  0  0  0
 26 27  1  0  0  0
 28101  1  0  0  0
 28102  1  0  0  0
 29103  1  0  0  0
 29104  1  0  0  0
 33 34  1  0  0  0
 33 66  1  0  0  0
 33 70  2  0  0  0
 34 36  1  0  0  0
 34 59  1  0  0  0
 34105  1  0  0  0
 35 44  2  0  0  0
 35 45  1  0  0  0
 35 68  1  0  0  0
 36 56  1  0  0  0
 36106  1  0  0  0
 37 39  1  0  0  0
 37 47  1  0  0  0
 37 66  1  0  0  0
 37107  1  0  0  0
 38 43  2  0  0  0
 38 46  1  0  0  0
 38 47  1  0  0  0
 39 64  1  0  0  0
 39 67  2  0  0  0
 40 52  1  0  0  0
 40 53  2  0  0  0
 40 58  1  0  0  0
 41108  1  0  0  0
 41109  1  0  0  0
 41110  1  0  0  0
 41 48  1  0  0  0
 42 43  1  0  0  0
 42 66  1  0  0  0
 42111  1  0  0  0
 42112  1  0  0  0
 43 44  1  0  0  0
 44113  1  0  0  0
 45 46  2  0  0  0
 45114  1  0  0  0
 46115  1  0  0  0
 47116  1  0  0  0
 47117  1  0  0  0
 48 56  1  0  0  0
 48 65  1  0  0  0
 48118  1  0  0  0
 49 50  1  0  0  0
 49 53  1  0  0  0
 49 64  1  0  0  0
 49119  1  0  0  0
 50 51  1  0  0  0
 50120  1  0  0  0
 50121  1  0  0  0
 51 52  1  0  0  0
 51122  1  0  0  0
 51123  1  0  0  0
 52124  1  0  0  0
 52125  1  0  0  0
 53 54  1  0  0  0
 54 55  2  0  0  0
 54126  1  0  0  0
 55 57  1  0  0  0
 55127  1  0  0  0
 56 69  2  0  0  0
 57 58  2  0  0  0
 57128  1  0  0  0
 58129  1  0  0  0
 59 60  1  0  0  0
 59 61  1  0  0  0
 59 62  1  0  0  0
 60130  1  0  0  0
 60131  1  0  0  0
 60132  1  0  0  0
 61133  1  0  0  0
 61134  1  0  0  0
 61135  1  0  0  0
 62136  1  0  0  0
 62137  1  0  0  0
 62138  1  0  0  0
 63 65  1  0  0  0
 63139  1  0  0  0
 63140  1  0  0  0
 63141  1  0  0  0
 64142  1  0  0  0
 65143  1  0  0  0
 68 80  1  0  0  0
 71 73  2  0  0  0
 71 75  1  0  0  0
 71144  1  0  0  0
 72 74  2  0  0  0
 72 82  1  0  0  0
 72145  1  0  0  0
 73 74  1  0  0  0
 73 78  1  0  0  0
 74 83  1  0  0  0
 75 79  1  0  0  0
 75 82  2  0  0  0
 76 77  1  0  0  0
 76 83  2  0  0  0
 76146  1  0  0  0
 77 80  1  0  0  0
 77 84  2  0  0  0
 78147  1  0  0  0
 78148  1  0  0  0
 78149  1  0  0  0
 79 81  1  0  0  0
 79150  1  0  0  0
 79151  1  0  0  0
 80152  1  0  0  0
 80153  1  0  0  0
 81154  1  0  0  0
 81155  1  0  0  0
M  ISO  4   1 100  68 101  80 101  81 100
M  END
> <chiral flag>
0

> <version>
0

> <s_m_source_file>
/data/baiqing/PycharmProjects/Reinvent-master-3.2/result/LINK_invent/BTK/process_docking_weight1_custom_product_contain_oxygen_bond_distance_aromatic_linkinvent_7_9_3/rearranged_h_0170.sdf

> <i_m_source_file_index>
6

> <r_mmod_Potential_Energy-OPLS-2005>
-162.852569580078

> <r_mmod_Stretch_Energy-OPLS-2005>
37.5453300476074

> <r_mmod_Bend_Energy-OPLS-2005>
98.3370132446289

> <r_mmod_Torsional_Energy-OPLS-2005>
196.298355102539

> <r_mmod_Improper_Torsional_Energy-OPLS-2005>
4.28142929077148

> <r_mmod_Van_der_Waal_Energy-OPLS-2005>
161.898193359375

> <r_mmod_Electrostatic_Energy-OPLS-2005>
-423.432800292969

> <r_mmod_Solvation_Energy-OPLS-2005>
-249.666915893555

> <b_mmod_Minimization_Converged-OPLS-2005>
0

> <r_mmod_RMS_Derivative-OPLS-2005>
1.69033300876617

$$$$
6
                    3D
 Structure written by MMmdl.
159167  0  0  1  0            999 V2000
  -30.6264  -14.7138   20.4522 C   0  0  0  0  0  0
  -30.4287  -12.4286   19.4736 C   0  0  0  0  0  0
  -29.5129  -12.5080   18.2335 C   0  0  0  0  0  0
  -28.0377  -12.3324   18.6412 C   0  0  0  0  0  0
  -27.6450  -13.2279   19.8478 C   0  0  2  0  0  0
  -28.6877  -13.1524   20.9846 C   0  0  0  0  0  0
  -25.2534  -13.8181   20.5632 C   0  0  0  0  0  0
  -24.1809  -13.0444   20.9173 C   0  0  0  0  0  0
  -24.6390  -11.6923   20.8720 C   0  0  0  0  0  0
  -23.9070  -10.4287   21.0386 C   0  0  0  0  0  0
  -24.3627   -9.4212   21.9175 C   0  0  0  0  0  0
  -23.6293   -8.2250   22.0758 C   0  0  0  0  0  0
  -22.4279   -8.0273   21.3544 C   0  0  0  0  0  0
  -21.9911   -9.0248   20.4651 C   0  0  0  0  0  0
  -22.7240  -10.2125   20.3043 C   0  0  0  0  0  0
  -21.6859   -6.0730   22.5277 C   0  0  0  0  0  0
  -21.4022   -6.5630   23.8213 C   0  0  0  0  0  0
  -21.3663   -5.6782   24.9171 C   0  0  0  0  0  0
  -21.6042   -4.3045   24.7221 C   0  0  0  0  0  0
  -21.8822   -3.8137   23.4343 C   0  0  0  0  0  0
  -21.9193   -4.6956   22.3398 C   0  0  0  0  0  0
  -22.7833  -13.5247   21.1822 C   0  0  0  0  0  0
  -22.1660   -4.2144   21.0976 F   0  0  0  0  0  0
  -21.5631   -3.4527   25.7734 F   0  0  0  0  0  0
  -29.9958  -13.4919   20.4092 N   0  0  0  0  0  0
  -26.2956  -12.9382   20.3235 N   0  0  0  0  0  0
  -25.9326  -11.6536   20.5727 N   0  0  0  0  0  0
  -22.0474  -12.8249   22.0386 N   0  0  0  0  0  0
  -25.4227  -15.1891   20.3997 N   0  0  0  0  0  0
  -31.8168  -14.7768   20.1550 O   0  0  0  0  0  0
  -21.6645   -6.8871   21.4237 O   0  0  0  0  0  0
  -22.3516  -14.5541   20.6652 O   0  0  0  0  0  0
  -24.6281  -31.8579   23.1987 C   0  0  0  0  0  0
  -25.9098  -32.4784   23.8349 C   0  0  1  0  0  0
  -27.2200  -27.2896   20.1366 C   0  0  0  0  0  0
  -25.5903  -33.8590   24.2274 N   0  0  0  0  0  0
  -23.4248  -30.4796   21.5420 C   0  0  2  0  0  0
  -24.8745  -28.9292   20.1105 C   0  0  0  0  0  0
  -22.7505  -29.4602   22.4910 C   0  0  0  0  0  0
  -18.0287  -28.1386   22.8499 C   0  0  0  0  0  0
  -24.1481  -36.7293   23.2646 C   0  0  0  0  0  0
  -25.9689  -30.7804   21.3733 C   0  0  0  0  0  0
  -26.0443  -29.4035   20.7187 C   0  0  0  0  0  0
  -27.2249  -28.5983   20.7170 C   0  0  0  0  0  0
  -26.0301  -26.8694   19.5079 C   0  0  0  0  0  0
  -24.8710  -27.6692   19.4905 C   0  0  0  0  0  0
  -23.6435  -29.8132   20.1578 C   0  0  0  0  0  0
  -25.4105  -36.3098   24.0336 C   0  0  1  0  0  0
  -20.5897  -28.3679   23.1278 C   0  0  2  0  0  0
  -20.6785  -26.9397   22.5410 C   0  0  0  0  0  0
  -19.5751  -26.6376   21.5231 C   0  0  0  0  0  0
  -18.1924  -26.7929   22.1635 C   0  0  0  0  0  0
  -19.1546  -28.8850   23.2879 C   0  0  0  0  0  0
  -18.9463  -30.1459   23.8886 C   0  0  0  0  0  0
  -17.6461  -30.6590   24.0563 C   0  0  0  0  0  0
  -25.9043  -34.9465   23.5109 C   0  0  0  0  0  0
  -16.5354  -29.9083   23.6337 C   0  0  0  0  0  0
  -16.7273  -28.6501   23.0361 C   0  0  0  0  0  0
  -26.4466  -31.6605   25.0732 C   0  0  0  0  0  0
  -25.3698  -31.3738   26.1458 C   0  0  0  0  0  0
  -27.0312  -30.3037   24.6183 C   0  0  0  0  0  0
  -27.6027  -32.4342   25.7501 C   0  0  0  0  0  0
  -27.5569  -37.1806   24.8469 C   0  0  0  0  0  0
  -21.4209  -29.3035   22.3673 N   0  0  0  0  0  0
  -26.4282  -37.3795   23.9413 N   0  0  0  0  0  0
  -24.6931  -31.0569   22.0946 N   0  0  0  0  0  0
  -23.4224  -28.8140   23.2991 O   0  0  0  0  0  0
  -28.3063  -26.3984   20.1541 O   0  0  0  0  0  0
  -26.5633  -34.8937   22.4692 O   0  0  0  0  0  0
  -23.5434  -32.1375   23.7289 O   0  0  0  0  0  0
  -31.0110  -19.4784   19.8301 C   0  0  0  0  0  0
  -28.9168  -18.1822   20.8943 C   0  0  0  0  0  0
  -31.0682  -18.0542   19.8933 C   0  0  0  0  0  0
  -29.9863  -17.3210   20.4778 C   0  0  0  0  0  0
  -29.9252  -20.2556   20.3018 C   0  0  0  0  0  0
  -29.7404  -22.9981   20.2955 C   0  0  0  0  0  0
  -32.3191  -17.4194   19.3172 C   0  0  0  0  0  0
  -27.4002  -22.6632   21.1677 C   0  0  0  0  0  0
  -27.7307  -23.5710   18.8517 C   0  0  0  0  0  0
  -28.1197  -25.1102   20.8898 C   0  0  0  0  0  0
  -28.2703  -23.5920   20.2945 C   0  0  0  0  0  0
  -28.8735  -19.5633   20.8203 N   0  0  0  0  0  0
  -29.8411  -15.8392   20.6618 N   0  0  0  0  0  0
  -30.2219  -21.6968   20.2749 N   0  0  0  0  0  0
  -30.6259  -23.8544   20.2867 O   0  0  0  0  0  0
  -31.4749  -12.5308   19.1803 H   0  0  0  0  0  0
  -30.3471  -11.4484   19.9471 H   0  0  0  0  0  0
  -29.7945  -11.7477   17.5045 H   0  0  0  0  0  0
  -29.6478  -13.4704   17.7376 H   0  0  0  0  0  0
  -27.8901  -11.2816   18.8951 H   0  0  0  0  0  0
  -27.3848  -12.5329   17.7904 H   0  0  0  0  0  0
  -27.6440  -14.2506   19.4729 H   0  0  0  0  0  0
  -28.7107  -12.1526   21.4196 H   0  0  0  0  0  0
  -28.4237  -13.8318   21.7966 H   0  0  0  0  0  0
  -25.2775   -9.5684   22.4752 H   0  0  0  0  0  0
  -23.9992   -7.4642   22.7486 H   0  0  0  0  0  0
  -21.0841   -8.8764   19.8964 H   0  0  0  0  0  0
  -22.3693  -10.9658   19.6143 H   0  0  0  0  0  0
  -21.2024   -7.6141   23.9716 H   0  0  0  0  0  0
  -21.1485   -6.0512   25.9076 H   0  0  0  0  0  0
  -22.0602   -2.7601   23.2845 H   0  0  0  0  0  0
  -22.4090  -11.9917   22.4783 H   0  0  0  0  0  0
  -21.1092  -13.1289   22.2584 H   0  0  0  0  0  0
  -24.6464  -15.8368   20.4683 H   0  0  0  0  0  0
  -26.2597  -15.6189   20.0283 H   0  0  0  0  0  0
  -26.7175  -32.5443   23.1107 H   0  0  0  0  0  0
  -25.0064  -33.9749   25.0426 H   0  0  0  0  0  0
  -22.7185  -31.2998   21.3970 H   0  0  0  0  0  0
  -23.3768  -35.9608   23.3325 H   0  0  0  0  0  0
  -24.3573  -36.8898   22.2060 H   0  0  0  0  0  0
  -23.7210  -37.6488   23.6659 H   0  0  0  0  0  0
  -26.1009  -31.5371   20.5994 H   0  0  0  0  0  0
  -26.8509  -30.8355   21.9999 H   0  0  0  0  0  0
  -28.1231  -28.9601   21.1972 H   0  0  0  0  0  0
  -25.9897  -25.8989   19.0374 H   0  0  0  0  0  0
  -23.9752  -27.3042   19.0068 H   0  0  0  0  0  0
  -23.7656  -30.5912   19.4024 H   0  0  0  0  0  0
  -22.7641  -29.2436   19.8528 H   0  0  0  0  0  0
  -25.1289  -36.1962   25.0832 H   0  0  0  0  0  0
  -20.9982  -28.3260   24.1403 H   0  0  0  0  0  0
  -20.5695  -26.2289   23.3609 H   0  0  0  0  0  0
  -21.6646  -26.7434   22.1187 H   0  0  0  0  0  0
  -19.6901  -25.6289   21.1250 H   0  0  0  0  0  0
  -19.6687  -27.3207   20.6780 H   0  0  0  0  0  0
  -17.4199  -26.6695   21.4027 H   0  0  0  0  0  0
  -18.0292  -26.0066   22.9016 H   0  0  0  0  0  0
  -19.7941  -30.7280   24.2245 H   0  0  0  0  0  0
  -17.5018  -31.6271   24.5170 H   0  0  0  0  0  0
  -15.5359  -30.2984   23.7660 H   0  0  0  0  0  0
  -15.8674  -28.0819   22.7078 H   0  0  0  0  0  0
  -24.5882  -30.7074   25.7792 H   0  0  0  0  0  0
  -24.8874  -32.2903   26.4877 H   0  0  0  0  0  0
  -25.8022  -30.8931   27.0244 H   0  0  0  0  0  0
  -26.2887  -29.6785   24.1216 H   0  0  0  0  0  0
  -27.4039  -29.7288   25.4672 H   0  0  0  0  0  0
  -27.8742  -30.4348   23.9396 H   0  0  0  0  0  0
  -27.2651  -33.3659   26.2053 H   0  0  0  0  0  0
  -28.3851  -32.6872   25.0335 H   0  0  0  0  0  0
  -28.0684  -31.8483   26.5436 H   0  0  0  0  0  0
  -28.2607  -38.0083   24.7530 H   0  0  0  0  0  0
  -28.1048  -36.2629   24.6295 H   0  0  0  0  0  0
  -27.2295  -37.1454   25.8872 H   0  0  0  0  0  0
  -20.9379  -29.8763   21.6889 H   0  0  0  0  0  0
  -26.0175  -38.2873   24.1434 H   0  0  0  0  0  0
  -31.8616  -20.0025   19.4160 H   0  0  0  0  0  0
  -28.0341  -17.7363   21.3293 H   0  0  0  0  0  0
  -32.9506  -18.1571   18.8228 H   0  0  0  0  0  0
  -32.0671  -16.6711   18.5670 H   0  0  0  0  0  0
  -32.9204  -16.9725   20.1099 H   0  0  0  0  0  0
  -27.2761  -21.6800   20.7166 H   0  0  0  0  0  0
  -26.3975  -23.0636   21.3105 H   0  0  0  0  0  0
  -27.8329  -22.5239   22.1600 H   0  0  0  0  0  0
  -27.9029  -22.6095   18.3663 H   0  0  0  0  0  0
  -28.2062  -24.3405   18.2430 H   0  0  0  0  0  0
  -26.6564  -23.7505   18.8288 H   0  0  0  0  0  0
  -28.8012  -25.1824   21.7379 H   0  0  0  0  0  0
  -27.1417  -25.1737   21.3695 H   0  0  0  0  0  0
  -28.9186  -15.5671   20.9692 H   0  0  0  0  0  0
  -31.2198  -21.8031   20.1848 H   0  0  0  0  0  0
  1 25  1  0  0  0
  1 30  2  0  0  0
  1 83  1  0  0  0
  2  3  1  0  0  0
  2 25  1  0  0  0
  2 86  1  0  0  0
  2 87  1  0  0  0
  3  4  1  0  0  0
  3 88  1  0  0  0
  3 89  1  0  0  0
  4  5  1  0  0  0
  4 90  1  0  0  0
  4 91  1  0  0  0
  5  6  1  0  0  0
  5 26  1  0  0  0
  5 92  1  0  0  0
  6 25  1  0  0  0
  6 93  1  0  0  0
  6 94  1  0  0  0
  7  8  2  0  0  0
  7 26  1  0  0  0
  7 29  1  0  0  0
  8  9  1  0  0  0
  8 22  1  0  0  0
  9 10  1  0  0  0
  9 27  2  0  0  0
 10 11  2  0  0  0
 10 15  1  0  0  0
 11 12  1  0  0  0
 11 95  1  0  0  0
 12 13  2  0  0  0
 12 96  1  0  0  0
 13 14  1  0  0  0
 13 31  1  0  0  0
 14 15  2  0  0  0
 14 97  1  0  0  0
 15 98  1  0  0  0
 16 17  2  0  0  0
 16 21  1  0  0  0
 16 31  1  0  0  0
 17 18  1  0  0  0
 17 99  1  0  0  0
 18 19  2  0  0  0
 18100  1  0  0  0
 19 20  1  0  0  0
 19 24  1  0  0  0
 20 21  2  0  0  0
 20101  1  0  0  0
 21 23  1  0  0  0
 22 28  1  0  0  0
 22 32  2  0  0  0
 26 27  1  0  0  0
 28102  1  0  0  0
 28103  1  0  0  0
 29104  1  0  0  0
 29105  1  0  0  0
 33 34  1  0  0  0
 33 66  1  0  0  0
 33 70  2  0  0  0
 34 36  1  0  0  0
 34 59  1  0  0  0
 34106  1  0  0  0
 35 44  2  0  0  0
 35 45  1  0  0  0
 35 68  1  0  0  0
 36 56  1  0  0  0
 36107  1  0  0  0
 37 39  1  0  0  0
 37 47  1  0  0  0
 37 66  1  0  0  0
 37108  1  0  0  0
 38 43  2  0  0  0
 38 46  1  0  0  0
 38 47  1  0  0  0
 39 64  1  0  0  0
 39 67  2  0  0  0
 40 52  1  0  0  0
 40 53  2  0  0  0
 40 58  1  0  0  0
 41109  1  0  0  0
 41110  1  0  0  0
 41111  1  0  0  0
 41 48  1  0  0  0
 42 43  1  0  0  0
 42 66  1  0  0  0
 42112  1  0  0  0
 42113  1  0  0  0
 43 44  1  0  0  0
 44114  1  0  0  0
 45 46  2  0  0  0
 45115  1  0  0  0
 46116  1  0  0  0
 47117  1  0  0  0
 47118  1  0  0  0
 48 56  1  0  0  0
 48 65  1  0  0  0
 48119  1  0  0  0
 49 50  1  0  0  0
 49 53  1  0  0  0
 49 64  1  0  0  0
 49120  1  0  0  0
 50 51  1  0  0  0
 50121  1  0  0  0
 50122  1  0  0  0
 51 52  1  0  0  0
 51123  1  0  0  0
 51124  1  0  0  0
 52125  1  0  0  0
 52126  1  0  0  0
 53 54  1  0  0  0
 54 55  2  0  0  0
 54127  1  0  0  0
 55 57  1  0  0  0
 55128  1  0  0  0
 56 69  2  0  0  0
 57 58  2  0  0  0
 57129  1  0  0  0
 58130  1  0  0  0
 59 60  1  0  0  0
 59 61  1  0  0  0
 59 62  1  0  0  0
 60131  1  0  0  0
 60132  1  0  0  0
 60133  1  0  0  0
 61134  1  0  0  0
 61135  1  0  0  0
 61136  1  0  0  0
 62137  1  0  0  0
 62138  1  0  0  0
 62139  1  0  0  0
 63 65  1  0  0  0
 63140  1  0  0  0
 63141  1  0  0  0
 63142  1  0  0  0
 64143  1  0  0  0
 65144  1  0  0  0
 68 80  1  0  0  0
 71 73  2  0  0  0
 71 75  1  0  0  0
 71145  1  0  0  0
 72 74  2  0  0  0
 72 82  1  0  0  0
 72146  1  0  0  0
 73 74  1  0  0  0
 73 77  1  0  0  0
 74 83  1  0  0  0
 75 82  2  0  0  0
 75 84  1  0  0  0
 76 81  1  0  0  0
 76 84  1  0  0  0
 76 85  2  0  0  0
 77147  1  0  0  0
 77148  1  0  0  0
 77149  1  0  0  0
 78150  1  0  0  0
 78151  1  0  0  0
 78152  1  0  0  0
 78 81  1  0  0  0
 79 81  1  0  0  0
 79153  1  0  0  0
 79154  1  0  0  0
 79155  1  0  0  0
 80 81  1  0  0  0
 80156  1  0  0  0
 80157  1  0  0  0
 83158  1  0  0  0
 84159  1  0  0  0
M  ISO  4   1 100  68 101  80 101  83 100
M  END
> <chiral flag>
0

> <version>
0

> <s_m_source_file>
/data/baiqing/PycharmProjects/Reinvent-master-3.2/result/LINK_invent/BTK/process_docking_weight1_custom_product_contain_oxygen_bond_distance_aromatic_linkinvent_7_9_3/rearranged_h_0170.sdf

> <i_m_source_file_index>
7

> <r_mmod_Potential_Energy-OPLS-2005>
59.6676979064941

> <r_mmod_Stretch_Energy-OPLS-2005>
111.926200866699

> <r_mmod_Bend_Energy-OPLS-2005>
292.238128662109

> <r_mmod_Torsional_Energy-OPLS-2005>
262.136474609375

> <r_mmod_Improper_Torsional_Energy-OPLS-2005>
4.82216358184814

> <r_mmod_Van_der_Waal_Energy-OPLS-2005>
146.539733886719

> <r_mmod_Electrostatic_Energy-OPLS-2005>
-605.465942382812

> <r_mmod_Solvation_Energy-OPLS-2005>
-224.321670532227

> <b_mmod_Minimization_Converged-OPLS-2005>
0

> <r_mmod_RMS_Derivative-OPLS-2005>
2.07767152786255

$$$$
7
                    3D
 Structure written by MMmdl.
152160  0  0  1  0            999 V2000
  -30.6873  -14.5161   20.5304 C   0  0  0  0  0  0
  -30.4217  -12.3234   19.4359 C   0  0  0  0  0  0
  -29.4998  -12.5140   18.2120 C   0  0  0  0  0  0
  -28.0187  -12.3758   18.6158 C   0  0  0  0  0  0
  -27.6588  -13.2169   19.8705 C   0  0  2  0  0  0
  -28.6999  -13.0247   20.9976 C   0  0  0  0  0  0
  -25.2564  -13.8181   20.5665 C   0  0  0  0  0  0
  -24.1821  -13.0452   20.9165 C   0  0  0  0  0  0
  -24.6387  -11.6922   20.8714 C   0  0  0  0  0  0
  -23.9059  -10.4300   21.0383 C   0  0  0  0  0  0
  -24.3610   -9.4224   21.9169 C   0  0  0  0  0  0
  -23.6288   -8.2260   22.0751 C   0  0  0  0  0  0
  -22.4269   -8.0286   21.3545 C   0  0  0  0  0  0
  -21.9893   -9.0261   20.4654 C   0  0  0  0  0  0
  -22.7223  -10.2136   20.3053 C   0  0  0  0  0  0
  -21.6855   -6.0729   22.5275 C   0  0  0  0  0  0
  -21.4013   -6.5627   23.8203 C   0  0  0  0  0  0
  -21.3660   -5.6786   24.9172 C   0  0  0  0  0  0
  -21.6040   -4.3048   24.7221 C   0  0  0  0  0  0
  -21.8817   -3.8142   23.4338 C   0  0  0  0  0  0
  -21.9195   -4.6961   22.3398 C   0  0  0  0  0  0
  -22.7839  -13.5249   21.1825 C   0  0  0  0  0  0
  -22.1663   -4.2147   21.0977 F   0  0  0  0  0  0
  -21.5637   -3.4531   25.7731 F   0  0  0  0  0  0
  -30.0324  -13.3211   20.4492 N   0  0  0  0  0  0
  -26.3000  -12.9368   20.3328 N   0  0  0  0  0  0
  -25.9316  -11.6519   20.5728 N   0  0  0  0  0  0
  -22.0475  -12.8263   22.0392 N   0  0  0  0  0  0
  -25.4270  -15.1898   20.4052 N   0  0  0  0  0  0
  -31.8339  -14.6662   20.0955 O   0  0  0  0  0  0
  -21.6646   -6.8872   21.4235 O   0  0  0  0  0  0
  -22.3521  -14.5559   20.6680 O   0  0  0  0  0  0
  -24.6182  -31.8682   23.2108 C   0  0  0  0  0  0
  -25.9063  -32.4829   23.8406 C   0  0  1  0  0  0
  -27.2209  -27.4019   20.0999 C   0  0  0  0  0  0
  -25.5909  -33.8624   24.2332 N   0  0  0  0  0  0
  -23.4080  -30.4947   21.5535 C   0  0  2  0  0  0
  -24.8527  -28.9697   20.1100 C   0  0  0  0  0  0
  -22.7452  -29.4653   22.4985 C   0  0  0  0  0  0
  -18.0279  -28.1383   22.8498 C   0  0  0  0  0  0
  -24.1486  -36.7306   23.2639 C   0  0  0  0  0  0
  -25.9432  -30.8242   21.3724 C   0  0  0  0  0  0
  -26.0191  -29.4606   20.7116 C   0  0  0  0  0  0
  -27.2085  -28.6869   20.7014 C   0  0  0  0  0  0
  -26.0385  -26.9563   19.4605 C   0  0  0  0  0  0
  -24.8612  -27.7201   19.4763 C   0  0  0  0  0  0
  -23.6172  -29.8376   20.1650 C   0  0  0  0  0  0
  -25.4107  -36.3115   24.0340 C   0  0  1  0  0  0
  -20.5876  -28.3673   23.1315 C   0  0  2  0  0  0
  -20.6771  -26.9408   22.5424 C   0  0  0  0  0  0
  -19.5741  -26.6387   21.5226 C   0  0  0  0  0  0
  -18.1918  -26.7930   22.1635 C   0  0  0  0  0  0
  -19.1532  -28.8848   23.2898 C   0  0  0  0  0  0
  -18.9455  -30.1454   23.8910 C   0  0  0  0  0  0
  -17.6453  -30.6589   24.0566 C   0  0  0  0  0  0
  -25.9037  -34.9478   23.5132 C   0  0  0  0  0  0
  -16.5344  -29.9093   23.6322 C   0  0  0  0  0  0
  -16.7265  -28.6509   23.0347 C   0  0  0  0  0  0
  -26.4468  -31.6611   25.0743 C   0  0  0  0  0  0
  -25.3711  -31.3744   26.1479 C   0  0  0  0  0  0
  -27.0300  -30.3044   24.6152 C   0  0  0  0  0  0
  -27.6055  -32.4329   25.7492 C   0  0  0  0  0  0
  -27.5582  -37.1809   24.8463 C   0  0  0  0  0  0
  -21.4172  -29.3039   22.3727 N   0  0  0  0  0  0
  -26.4298  -37.3797   23.9409 N   0  0  0  0  0  0
  -24.6748  -31.0764   22.1028 N   0  0  0  0  0  0
  -23.4216  -28.8180   23.3021 O   0  0  0  0  0  0
  -28.3312  -26.5710   20.1699 O   0  0  0  0  0  0
  -26.5603  -34.8930   22.4696 O   0  0  0  0  0  0
  -23.5364  -32.1446   23.7483 O   0  0  0  0  0  0
  -30.0657  -17.0535   19.0312 C   0  0  0  0  0  0
  -29.9741  -18.3296   18.4547 C   0  0  0  0  0  0
  -29.7671  -19.4510   19.2726 C   0  0  0  0  0  0
  -29.6645  -19.2459   20.6673 C   0  0  0  0  0  0
  -29.9563  -16.8993   20.4296 C   0  0  0  0  0  0
  -29.1156  -24.1871   20.6928 C   0  0  0  0  0  0
  -28.6617  -22.7685   21.2101 C   0  0  0  0  0  0
  -29.4286  -20.4088   21.6556 C   0  0  0  0  0  0
  -27.9632  -25.2024   20.5080 C   0  0  0  0  0  0
  -29.7435  -17.9943   21.2175 N   0  0  0  0  0  0
  -29.9608  -15.5704   20.9748 N   0  0  0  0  0  0
  -29.5997  -21.7995   21.1680 N   0  0  0  0  0  0
  -30.2946  -24.4638   20.4361 O   0  0  0  0  0  0
  -27.5194  -22.5724   21.6358 O   0  0  0  0  0  0
  -30.0733  -18.4719   17.1098 F   0  0  0  0  0  0
  -29.6607  -20.6794   18.7081 F   0  0  0  0  0  0
  -31.4661  -12.4167   19.1337 H   0  0  0  0  0  0
  -30.3206  -11.3149   19.8393 H   0  0  0  0  0  0
  -29.7442  -11.7903   17.4341 H   0  0  0  0  0  0
  -29.6682  -13.4991   17.7736 H   0  0  0  0  0  0
  -27.8192  -11.3196   18.8017 H   0  0  0  0  0  0
  -27.3796  -12.6622   17.7789 H   0  0  0  0  0  0
  -27.6951  -14.2620   19.5621 H   0  0  0  0  0  0
  -28.6753  -11.9968   21.3615 H   0  0  0  0  0  0
  -28.4576  -13.6477   21.8603 H   0  0  0  0  0  0
  -25.2754   -9.5717   22.4737 H   0  0  0  0  0  0
  -24.0005   -7.4652   22.7465 H   0  0  0  0  0  0
  -21.0820   -8.8768   19.8958 H   0  0  0  0  0  0
  -22.3662  -10.9670   19.6162 H   0  0  0  0  0  0
  -21.1995   -7.6132   23.9701 H   0  0  0  0  0  0
  -21.1490   -6.0519   25.9073 H   0  0  0  0  0  0
  -22.0597   -2.7607   23.2836 H   0  0  0  0  0  0
  -22.4082  -11.9940   22.4819 H   0  0  0  0  0  0
  -21.1094  -13.1299   22.2590 H   0  0  0  0  0  0
  -24.6538  -15.8396   20.4947 H   0  0  0  0  0  0
  -26.2733  -15.6274   20.0647 H   0  0  0  0  0  0
  -26.7138  -32.5522   23.1169 H   0  0  0  0  0  0
  -25.0061  -33.9787   25.0483 H   0  0  0  0  0  0
  -22.6963  -31.3119   21.4191 H   0  0  0  0  0  0
  -23.3754  -35.9633   23.3313 H   0  0  0  0  0  0
  -24.3585  -36.8906   22.2050 H   0  0  0  0  0  0
  -23.7229  -37.6513   23.6642 H   0  0  0  0  0  0
  -26.0661  -31.5937   20.6090 H   0  0  0  0  0  0
  -26.8268  -30.8701   21.9971 H   0  0  0  0  0  0
  -28.1014  -29.0547   21.1878 H   0  0  0  0  0  0
  -25.9956  -26.0123   18.9397 H   0  0  0  0  0  0
  -23.9701  -27.3442   18.9925 H   0  0  0  0  0  0
  -23.7287  -30.6167   19.4105 H   0  0  0  0  0  0
  -22.7394  -29.2629   19.8656 H   0  0  0  0  0  0
  -25.1283  -36.1986   25.0835 H   0  0  0  0  0  0
  -20.9952  -28.3235   24.1439 H   0  0  0  0  0  0
  -20.5683  -26.2280   23.3614 H   0  0  0  0  0  0
  -21.6640  -26.7460   22.1207 H   0  0  0  0  0  0
  -19.6900  -25.6301   21.1250 H   0  0  0  0  0  0
  -19.6665  -27.3206   20.6761 H   0  0  0  0  0  0
  -17.4188  -26.6682   21.4033 H   0  0  0  0  0  0
  -18.0305  -26.0075   22.9036 H   0  0  0  0  0  0
  -19.7924  -30.7273   24.2279 H   0  0  0  0  0  0
  -17.5004  -31.6264   24.5175 H   0  0  0  0  0  0
  -15.5344  -30.2995   23.7639 H   0  0  0  0  0  0
  -15.8664  -28.0830   22.7055 H   0  0  0  0  0  0
  -24.5865  -30.7118   25.7804 H   0  0  0  0  0  0
  -24.8915  -32.2912   26.4922 H   0  0  0  0  0  0
  -25.8024  -30.8898   27.0245 H   0  0  0  0  0  0
  -26.2866  -29.6817   24.1160 H   0  0  0  0  0  0
  -27.4007  -29.7275   25.4635 H   0  0  0  0  0  0
  -27.8730  -30.4358   23.9362 H   0  0  0  0  0  0
  -27.2699  -33.3636   26.2080 H   0  0  0  0  0  0
  -28.3843  -32.6879   25.0292 H   0  0  0  0  0  0
  -28.0745  -31.8444   26.5388 H   0  0  0  0  0  0
  -28.2612  -38.0099   24.7524 H   0  0  0  0  0  0
  -28.1073  -36.2635   24.6277 H   0  0  0  0  0  0
  -27.2309  -37.1455   25.8871 H   0  0  0  0  0  0
  -20.9346  -29.8769   21.6952 H   0  0  0  0  0  0
  -26.0187  -38.2883   24.1402 H   0  0  0  0  0  0
  -30.2011  -16.2050   18.3777 H   0  0  0  0  0  0
  -30.1071  -20.2725   22.4985 H   0  0  0  0  0  0
  -28.4292  -20.2751   22.0719 H   0  0  0  0  0  0
  -27.3798  -25.2214   21.4302 H   0  0  0  0  0  0
  -27.3339  -24.7635   19.7369 H   0  0  0  0  0  0
  -29.1624  -15.3408   21.5444 H   0  0  0  0  0  0
  -30.5014  -22.0570   20.7895 H   0  0  0  0  0  0
  1 25  1  0  0  0
  1 30  2  0  0  0
  1 81  1  0  0  0
  2  3  1  0  0  0
  2 25  1  0  0  0
  2 87  1  0  0  0
  2 88  1  0  0  0
  3  4  1  0  0  0
  3 89  1  0  0  0
  3 90  1  0  0  0
  4  5  1  0  0  0
  4 91  1  0  0  0
  4 92  1  0  0  0
  5  6  1  0  0  0
  5 26  1  0  0  0
  5 93  1  0  0  0
  6 25  1  0  0  0
  6 94  1  0  0  0
  6 95  1  0  0  0
  7  8  2  0  0  0
  7 26  1  0  0  0
  7 29  1  0  0  0
  8  9  1  0  0  0
  8 22  1  0  0  0
  9 10  1  0  0  0
  9 27  2  0  0  0
 10 11  2  0  0  0
 10 15  1  0  0  0
 11 12  1  0  0  0
 11 96  1  0  0  0
 12 13  2  0  0  0
 12 97  1  0  0  0
 13 14  1  0  0  0
 13 31  1  0  0  0
 14 15  2  0  0  0
 14 98  1  0  0  0
 15 99  1  0  0  0
 16 17  2  0  0  0
 16 21  1  0  0  0
 16 31  1  0  0  0
 17 18  1  0  0  0
 17100  1  0  0  0
 18 19  2  0  0  0
 18101  1  0  0  0
 19 20  1  0  0  0
 19 24  1  0  0  0
 20 21  2  0  0  0
 20102  1  0  0  0
 21 23  1  0  0  0
 22 28  1  0  0  0
 22 32  2  0  0  0
 26 27  1  0  0  0
 28103  1  0  0  0
 28104  1  0  0  0
 29105  1  0  0  0
 29106  1  0  0  0
 33 34  1  0  0  0
 33 66  1  0  0  0
 33 70  2  0  0  0
 34 36  1  0  0  0
 34 59  1  0  0  0
 34107  1  0  0  0
 35 44  2  0  0  0
 35 45  1  0  0  0
 35 68  1  0  0  0
 36 56  1  0  0  0
 36108  1  0  0  0
 37 39  1  0  0  0
 37 47  1  0  0  0
 37 66  1  0  0  0
 37109  1  0  0  0
 38 43  2  0  0  0
 38 46  1  0  0  0
 38 47  1  0  0  0
 39 64  1  0  0  0
 39 67  2  0  0  0
 40 52  1  0  0  0
 40 53  2  0  0  0
 40 58  1  0  0  0
 41110  1  0  0  0
 41111  1  0  0  0
 41112  1  0  0  0
 41 48  1  0  0  0
 42 43  1  0  0  0
 42 66  1  0  0  0
 42113  1  0  0  0
 42114  1  0  0  0
 43 44  1  0  0  0
 44115  1  0  0  0
 45 46  2  0  0  0
 45116  1  0  0  0
 46117  1  0  0  0
 47118  1  0  0  0
 47119  1  0  0  0
 48 56  1  0  0  0
 48 65  1  0  0  0
 48120  1  0  0  0
 49 50  1  0  0  0
 49 53  1  0  0  0
 49 64  1  0  0  0
 49121  1  0  0  0
 50 51  1  0  0  0
 50122  1  0  0  0
 50123  1  0  0  0
 51 52  1  0  0  0
 51124  1  0  0  0
 51125  1  0  0  0
 52126  1  0  0  0
 52127  1  0  0  0
 53 54  1  0  0  0
 54 55  2  0  0  0
 54128  1  0  0  0
 55 57  1  0  0  0
 55129  1  0  0  0
 56 69  2  0  0  0
 57 58  2  0  0  0
 57130  1  0  0  0
 58131  1  0  0  0
 59 60  1  0  0  0
 59 61  1  0  0  0
 59 62  1  0  0  0
 60132  1  0  0  0
 60133  1  0  0  0
 60134  1  0  0  0
 61135  1  0  0  0
 61136  1  0  0  0
 61137  1  0  0  0
 62138  1  0  0  0
 62139  1  0  0  0
 62140  1  0  0  0
 63 65  1  0  0  0
 63141  1  0  0  0
 63142  1  0  0  0
 63143  1  0  0  0
 64144  1  0  0  0
 65145  1  0  0  0
 68 79  1  0  0  0
 71 72  2  0  0  0
 71 75  1  0  0  0
 71146  1  0  0  0
 72 73  1  0  0  0
 72 85  1  0  0  0
 73 74  2  0  0  0
 73 86  1  0  0  0
 74 78  1  0  0  0
 74 80  1  0  0  0
 75 80  2  0  0  0
 75 81  1  0  0  0
 76 77  1  0  0  0
 76 79  1  0  0  0
 76 83  2  0  0  0
 77 82  1  0  0  0
 77 84  2  0  0  0
 78 82  1  0  0  0
 78147  1  0  0  0
 78148  1  0  0  0
 79149  1  0  0  0
 79150  1  0  0  0
 81151  1  0  0  0
 82152  1  0  0  0
M  ISO  4   1 100  68 101  79 101  81 100
M  END
> <chiral flag>
0

> <version>
0

> <s_m_source_file>
/data/baiqing/PycharmProjects/Reinvent-master-3.2/result/LINK_invent/BTK/process_docking_weight1_custom_product_contain_oxygen_bond_distance_aromatic_linkinvent_7_9_3/rearranged_h_0170.sdf

> <i_m_source_file_index>
8

> <r_mmod_Potential_Energy-OPLS-2005>
-170.09423828125

> <r_mmod_Stretch_Energy-OPLS-2005>
48.9052314758301

> <r_mmod_Bend_Energy-OPLS-2005>
106.394950866699

> <r_mmod_Torsional_Energy-OPLS-2005>
239.163131713867

> <r_mmod_Improper_Torsional_Energy-OPLS-2005>
4.97486066818237

> <r_mmod_Van_der_Waal_Energy-OPLS-2005>
161.17333984375

> <r_mmod_Electrostatic_Energy-OPLS-2005>
-510.058868408203

> <r_mmod_Solvation_Energy-OPLS-2005>
-243.622222900391

> <b_mmod_Minimization_Converged-OPLS-2005>
0

> <r_mmod_RMS_Derivative-OPLS-2005>
1.96863627433777

$$$$
8
                    3D
 Structure written by MMmdl.
156164  0  0  1  0            999 V2000
  -30.6956  -14.4211   20.5817 C   0  0  0  0  0  0
  -30.4141  -12.2750   19.4245 C   0  0  0  0  0  0
  -29.4875  -12.5102   18.2120 C   0  0  0  0  0  0
  -28.0090  -12.3678   18.6191 C   0  0  0  0  0  0
  -27.6613  -13.1997   19.8824 C   0  0  2  0  0  0
  -28.6959  -12.9487   21.0047 C   0  0  0  0  0  0
  -25.2559  -13.8156   20.5686 C   0  0  0  0  0  0
  -24.1803  -13.0438   20.9186 C   0  0  0  0  0  0
  -24.6350  -11.6906   20.8728 C   0  0  0  0  0  0
  -23.9038  -10.4294   21.0401 C   0  0  0  0  0  0
  -24.3603   -9.4205   21.9171 C   0  0  0  0  0  0
  -23.6288   -8.2233   22.0734 C   0  0  0  0  0  0
  -22.4266   -8.0275   21.3533 C   0  0  0  0  0  0
  -21.9901   -9.0245   20.4626 C   0  0  0  0  0  0
  -22.7222  -10.2128   20.3038 C   0  0  0  0  0  0
  -21.6860   -6.0723   22.5281 C   0  0  0  0  0  0
  -21.4004   -6.5626   23.8210 C   0  0  0  0  0  0
  -21.3660   -5.6784   24.9177 C   0  0  0  0  0  0
  -21.6053   -4.3051   24.7231 C   0  0  0  0  0  0
  -21.8824   -3.8137   23.4352 C   0  0  0  0  0  0
  -21.9190   -4.6947   22.3406 C   0  0  0  0  0  0
  -22.7827  -13.5226   21.1856 C   0  0  0  0  0  0
  -22.1664   -4.2133   21.0983 F   0  0  0  0  0  0
  -21.5630   -3.4532   25.7739 F   0  0  0  0  0  0
  -30.0395  -13.2374   20.4688 N   0  0  0  0  0  0
  -26.2993  -12.9317   20.3388 N   0  0  0  0  0  0
  -25.9275  -11.6482   20.5787 N   0  0  0  0  0  0
  -22.0475  -12.8208   22.0415 N   0  0  0  0  0  0
  -25.4305  -15.1886   20.4118 N   0  0  0  0  0  0
  -31.7892  -14.6487   20.0524 O   0  0  0  0  0  0
  -21.6641   -6.8862   21.4240 O   0  0  0  0  0  0
  -22.3512  -14.5540   20.6726 O   0  0  0  0  0  0
  -24.6090  -31.8711   23.2127 C   0  0  0  0  0  0
  -25.9002  -32.4838   23.8405 C   0  0  1  0  0  0
  -27.2431  -27.4836   20.0848 C   0  0  0  0  0  0
  -25.5874  -33.8635   24.2340 N   0  0  0  0  0  0
  -23.3947  -30.4920   21.5533 C   0  0  2  0  0  0
  -24.8435  -28.9601   20.1154 C   0  0  0  0  0  0
  -22.7367  -29.4665   22.5034 C   0  0  0  0  0  0
  -18.0278  -28.1353   22.8507 C   0  0  0  0  0  0
  -24.1487  -36.7327   23.2642 C   0  0  0  0  0  0
  -25.9159  -30.8494   21.3577 C   0  0  0  0  0  0
  -25.9987  -29.4861   20.7089 C   0  0  0  0  0  0
  -27.2027  -28.7533   20.6937 C   0  0  0  0  0  0
  -26.0787  -26.9577   19.4890 C   0  0  0  0  0  0
  -24.8775  -27.6931   19.5019 C   0  0  0  0  0  0
  -23.5979  -29.8162   20.1692 C   0  0  0  0  0  0
  -25.4107  -36.3131   24.0347 C   0  0  1  0  0  0
  -20.5854  -28.3619   23.1342 C   0  0  2  0  0  0
  -20.6742  -26.9358   22.5407 C   0  0  0  0  0  0
  -19.5720  -26.6391   21.5183 C   0  0  0  0  0  0
  -18.1910  -26.7918   22.1621 C   0  0  0  0  0  0
  -19.1523  -28.8799   23.2941 C   0  0  0  0  0  0
  -18.9461  -30.1401   23.8944 C   0  0  0  0  0  0
  -17.6458  -30.6557   24.0579 C   0  0  0  0  0  0
  -25.9026  -34.9491   23.5141 C   0  0  0  0  0  0
  -16.5352  -29.9061   23.6337 C   0  0  0  0  0  0
  -16.7265  -28.6481   23.0356 C   0  0  0  0  0  0
  -26.4452  -31.6606   25.0711 C   0  0  0  0  0  0
  -25.3746  -31.3668   26.1475 C   0  0  0  0  0  0
  -27.0266  -30.3069   24.6022 C   0  0  0  0  0  0
  -27.6042  -32.4311   25.7461 C   0  0  0  0  0  0
  -27.5587  -37.1821   24.8471 C   0  0  0  0  0  0
  -21.4107  -29.3024   22.3773 N   0  0  0  0  0  0
  -26.4300  -37.3811   23.9410 N   0  0  0  0  0  0
  -24.6578  -31.0842   22.1015 N   0  0  0  0  0  0
  -23.4162  -28.8204   23.3059 O   0  0  0  0  0  0
  -28.4184  -26.7820   20.0557 O   0  0  0  0  0  0
  -26.5592  -34.8940   22.4711 O   0  0  0  0  0  0
  -23.5294  -32.1438   23.7563 O   0  0  0  0  0  0
  -29.8692  -17.0876   19.5169 C   0  0  0  0  0  0
  -29.5863  -18.4832   19.5556 C   0  0  0  0  0  0
  -29.8550  -16.6516   20.8170 C   0  0  0  0  0  0
  -29.3815  -18.7516   20.8894 C   0  0  0  0  0  0
  -28.3969  -24.3495   20.2242 C   0  0  0  0  0  0
  -27.9968  -20.6279   21.2903 C   0  0  0  0  0  0
  -29.5514  -19.3971   18.3593 C   0  0  0  0  0  0
  -28.4338  -23.0963   21.0940 C   0  0  0  0  0  0
  -28.4497  -25.6861   20.9680 C   0  0  0  0  0  0
  -28.0158  -21.8211   20.3417 C   0  0  0  0  0  0
  -29.1391  -19.9536   21.4594 N   0  0  0  0  0  0
  -30.0251  -15.3761   21.2436 N   0  0  0  0  0  0
  -28.3357  -24.2839   18.9907 O   0  0  0  0  0  0
  -26.9972  -20.4074   21.9750 O   0  0  0  0  0  0
  -29.5418  -17.6511   21.6766 O   0  0  0  0  0  0
  -31.4614  -12.3646   19.1314 H   0  0  0  0  0  0
  -30.3005  -11.2593   19.8067 H   0  0  0  0  0  0
  -29.7239  -11.8063   17.4140 H   0  0  0  0  0  0
  -29.6595  -13.5075   17.8027 H   0  0  0  0  0  0
  -27.8174  -11.3119   18.8111 H   0  0  0  0  0  0
  -27.3565  -12.6454   17.7905 H   0  0  0  0  0  0
  -27.7170  -14.2510   19.5998 H   0  0  0  0  0  0
  -28.6526  -11.9084   21.3301 H   0  0  0  0  0  0
  -28.4500  -13.5327   21.8922 H   0  0  0  0  0  0
  -25.2745   -9.5687   22.4751 H   0  0  0  0  0  0
  -24.0004   -7.4618   22.7443 H   0  0  0  0  0  0
  -21.0836   -8.8753   19.8933 H   0  0  0  0  0  0
  -22.3675  -10.9657   19.6146 H   0  0  0  0  0  0
  -21.1992   -7.6132   23.9709 H   0  0  0  0  0  0
  -21.1484   -6.0511   25.9083 H   0  0  0  0  0  0
  -22.0604   -2.7594   23.2856 H   0  0  0  0  0  0
  -22.4117  -11.9886   22.4820 H   0  0  0  0  0  0
  -21.1074  -13.1180   22.2613 H   0  0  0  0  0  0
  -24.6665  -15.8459   20.5229 H   0  0  0  0  0  0
  -26.2915  -15.6290   20.1141 H   0  0  0  0  0  0
  -26.7071  -32.5566   23.1167 H   0  0  0  0  0  0
  -25.0024  -33.9802   25.0481 H   0  0  0  0  0  0
  -22.6803  -31.3070   21.4160 H   0  0  0  0  0  0
  -23.3747  -35.9661   23.3323 H   0  0  0  0  0  0
  -24.3582  -36.8918   22.2053 H   0  0  0  0  0  0
  -23.7232  -37.6537   23.6637 H   0  0  0  0  0  0
  -26.0143  -31.6140   20.5866 H   0  0  0  0  0  0
  -26.8082  -30.9086   21.9680 H   0  0  0  0  0  0
  -28.0976  -29.1591   21.1445 H   0  0  0  0  0  0
  -26.1079  -25.9910   19.0056 H   0  0  0  0  0  0
  -23.9939  -27.2830   19.0318 H   0  0  0  0  0  0
  -23.6841  -30.5854   19.4013 H   0  0  0  0  0  0
  -22.7251  -29.2230   19.8892 H   0  0  0  0  0  0
  -25.1285  -36.2011   25.0840 H   0  0  0  0  0  0
  -20.9960  -28.3156   24.1458 H   0  0  0  0  0  0
  -20.5594  -26.2220   23.3584 H   0  0  0  0  0  0
  -21.6618  -26.7370   22.1234 H   0  0  0  0  0  0
  -19.6850  -25.6328   21.1149 H   0  0  0  0  0  0
  -19.6674  -27.3257   20.6765 H   0  0  0  0  0  0
  -17.4165  -26.6689   21.4040 H   0  0  0  0  0  0
  -18.0303  -26.0065   22.9021 H   0  0  0  0  0  0
  -19.7942  -30.7192   24.2330 H   0  0  0  0  0  0
  -17.5023  -31.6248   24.5159 H   0  0  0  0  0  0
  -15.5351  -30.2957   23.7654 H   0  0  0  0  0  0
  -15.8666  -28.0814   22.7046 H   0  0  0  0  0  0
  -24.5922  -30.7006   25.7817 H   0  0  0  0  0  0
  -24.8916  -32.2791   26.4987 H   0  0  0  0  0  0
  -25.8125  -30.8803   27.0199 H   0  0  0  0  0  0
  -26.2773  -29.6845   24.1108 H   0  0  0  0  0  0
  -27.4105  -29.7285   25.4436 H   0  0  0  0  0  0
  -27.8582  -30.4422   23.9099 H   0  0  0  0  0  0
  -27.2681  -33.3601   26.2083 H   0  0  0  0  0  0
  -28.3821  -32.6893   25.0259 H   0  0  0  0  0  0
  -28.0741  -31.8403   26.5332 H   0  0  0  0  0  0
  -28.2631  -38.0101   24.7520 H   0  0  0  0  0  0
  -28.1063  -36.2635   24.6299 H   0  0  0  0  0  0
  -27.2310  -37.1481   25.8879 H   0  0  0  0  0  0
  -20.9255  -29.8777   21.7034 H   0  0  0  0  0  0
  -26.0204  -38.2902   24.1385 H   0  0  0  0  0  0
  -30.0640  -16.4860   18.6389 H   0  0  0  0  0  0
  -30.1775  -20.2720   18.5301 H   0  0  0  0  0  0
  -28.5320  -19.7169   18.1445 H   0  0  0  0  0  0
  -29.9360  -18.8811   17.4776 H   0  0  0  0  0  0
  -27.7891  -23.2519   21.9593 H   0  0  0  0  0  0
  -29.4506  -22.9798   21.4742 H   0  0  0  0  0  0
  -29.3716  -25.7294   21.5479 H   0  0  0  0  0  0
  -27.6215  -25.7327   21.6772 H   0  0  0  0  0  0
  -27.0217  -21.9363   19.9081 H   0  0  0  0  0  0
  -28.7030  -21.6469   19.5187 H   0  0  0  0  0  0
  -29.3393  -19.8955   22.4472 H   0  0  0  0  0  0
  -29.3348  -15.0503   21.9020 H   0  0  0  0  0  0
  1 25  1  0  0  0
  1 30  2  0  0  0
  1 82  1  0  0  0
  2  3  1  0  0  0
  2 25  1  0  0  0
  2 86  1  0  0  0
  2 87  1  0  0  0
  3  4  1  0  0  0
  3 88  1  0  0  0
  3 89  1  0  0  0
  4  5  1  0  0  0
  4 90  1  0  0  0
  4 91  1  0  0  0
  5  6  1  0  0  0
  5 26  1  0  0  0
  5 92  1  0  0  0
  6 25  1  0  0  0
  6 93  1  0  0  0
  6 94  1  0  0  0
  7  8  2  0  0  0
  7 26  1  0  0  0
  7 29  1  0  0  0
  8  9  1  0  0  0
  8 22  1  0  0  0
  9 10  1  0  0  0
  9 27  2  0  0  0
 10 11  2  0  0  0
 10 15  1  0  0  0
 11 12  1  0  0  0
 11 95  1  0  0  0
 12 13  2  0  0  0
 12 96  1  0  0  0
 13 14  1  0  0  0
 13 31  1  0  0  0
 14 15  2  0  0  0
 14 97  1  0  0  0
 15 98  1  0  0  0
 16 17  2  0  0  0
 16 21  1  0  0  0
 16 31  1  0  0  0
 17 18  1  0  0  0
 17 99  1  0  0  0
 18 19  2  0  0  0
 18100  1  0  0  0
 19 20  1  0  0  0
 19 24  1  0  0  0
 20 21  2  0  0  0
 20101  1  0  0  0
 21 23  1  0  0  0
 22 28  1  0  0  0
 22 32  2  0  0  0
 26 27  1  0  0  0
 28102  1  0  0  0
 28103  1  0  0  0
 29104  1  0  0  0
 29105  1  0  0  0
 33 34  1  0  0  0
 33 66  1  0  0  0
 33 70  2  0  0  0
 34 36  1  0  0  0
 34 59  1  0  0  0
 34106  1  0  0  0
 35 44  2  0  0  0
 35 45  1  0  0  0
 35 68  1  0  0  0
 36 56  1  0  0  0
 36107  1  0  0  0
 37 39  1  0  0  0
 37 47  1  0  0  0
 37 66  1  0  0  0
 37108  1  0  0  0
 38 43  2  0  0  0
 38 46  1  0  0  0
 38 47  1  0  0  0
 39 64  1  0  0  0
 39 67  2  0  0  0
 40 52  1  0  0  0
 40 53  2  0  0  0
 40 58  1  0  0  0
 41109  1  0  0  0
 41110  1  0  0  0
 41111  1  0  0  0
 41 48  1  0  0  0
 42 43  1  0  0  0
 42 66  1  0  0  0
 42112  1  0  0  0
 42113  1  0  0  0
 43 44  1  0  0  0
 44114  1  0  0  0
 45 46  2  0  0  0
 45115  1  0  0  0
 46116  1  0  0  0
 47117  1  0  0  0
 47118  1  0  0  0
 48 56  1  0  0  0
 48 65  1  0  0  0
 48119  1  0  0  0
 49 50  1  0  0  0
 49 53  1  0  0  0
 49 64  1  0  0  0
 49120  1  0  0  0
 50 51  1  0  0  0
 50121  1  0  0  0
 50122  1  0  0  0
 51 52  1  0  0  0
 51123  1  0  0  0
 51124  1  0  0  0
 52125  1  0  0  0
 52126  1  0  0  0
 53 54  1  0  0  0
 54 55  2  0  0  0
 54127  1  0  0  0
 55 57  1  0  0  0
 55128  1  0  0  0
 56 69  2  0  0  0
 57 58  2  0  0  0
 57129  1  0  0  0
 58130  1  0  0  0
 59 60  1  0  0  0
 59 61  1  0  0  0
 59 62  1  0  0  0
 60131  1  0  0  0
 60132  1  0  0  0
 60133  1  0  0  0
 61134  1  0  0  0
 61135  1  0  0  0
 61136  1  0  0  0
 62137  1  0  0  0
 62138  1  0  0  0
 62139  1  0  0  0
 63 65  1  0  0  0
 63140  1  0  0  0
 63141  1  0  0  0
 63142  1  0  0  0
 64143  1  0  0  0
 65144  1  0  0  0
 68 79  1  0  0  0
 71 72  1  0  0  0
 71 73  2  0  0  0
 71145  1  0  0  0
 72 74  2  0  0  0
 72 77  1  0  0  0
 73 82  1  0  0  0
 73 85  1  0  0  0
 74 81  1  0  0  0
 74 85  1  0  0  0
 75 78  1  0  0  0
 75 79  1  0  0  0
 75 83  2  0  0  0
 76 80  1  0  0  0
 76 81  1  0  0  0
 76 84  2  0  0  0
 77146  1  0  0  0
 77147  1  0  0  0
 77148  1  0  0  0
 78 80  1  0  0  0
 78149  1  0  0  0
 78150  1  0  0  0
 79151  1  0  0  0
 79152  1  0  0  0
 80153  1  0  0  0
 80154  1  0  0  0
 81155  1  0  0  0
 82156  1  0  0  0
M  ISO  4   1 100  68 101  79 101  82 100
M  END
> <chiral flag>
0

> <version>
0

> <s_m_source_file>
/data/baiqing/PycharmProjects/Reinvent-master-3.2/result/LINK_invent/BTK/process_docking_weight1_custom_product_contain_oxygen_bond_distance_aromatic_linkinvent_7_9_3/rearranged_h_0170.sdf

> <i_m_source_file_index>
9

> <r_mmod_Potential_Energy-OPLS-2005>
-96.8582305908203

> <r_mmod_Stretch_Energy-OPLS-2005>
29.4706115722656

> <r_mmod_Bend_Energy-OPLS-2005>
107.97770690918

> <r_mmod_Torsional_Energy-OPLS-2005>
336.130920410156

> <r_mmod_Improper_Torsional_Energy-OPLS-2005>
11.1560564041138

> <r_mmod_Van_der_Waal_Energy-OPLS-2005>
128.954330444336

> <r_mmod_Electrostatic_Energy-OPLS-2005>
-478.944702148438

> <r_mmod_Solvation_Energy-OPLS-2005>
-239.668930053711

> <b_mmod_Minimization_Converged-OPLS-2005>
0

> <r_mmod_RMS_Derivative-OPLS-2005>
2.73932933807373

$$$$
9
                    3D
 Structure written by MMmdl.
158166  0  0  1  0            999 V2000
  -30.6780  -14.4982   20.5777 C   0  0  0  0  0  0
  -30.4471  -12.3188   19.4262 C   0  0  0  0  0  0
  -29.5087  -12.4989   18.2124 C   0  0  0  0  0  0
  -28.0267  -12.3601   18.6204 C   0  0  0  0  0  0
  -27.6670  -13.2016   19.8754 C   0  0  2  0  0  0
  -28.7130  -12.9651   20.9909 C   0  0  0  0  0  0
  -25.2622  -13.8140   20.5709 C   0  0  0  0  0  0
  -24.1865  -13.0411   20.9185 C   0  0  0  0  0  0
  -24.6410  -11.6884   20.8725 C   0  0  0  0  0  0
  -23.9055  -10.4277   21.0381 C   0  0  0  0  0  0
  -24.3613   -9.4194   21.9168 C   0  0  0  0  0  0
  -23.6291   -8.2225   22.0736 C   0  0  0  0  0  0
  -22.4272   -8.0268   21.3527 C   0  0  0  0  0  0
  -21.9904   -9.0227   20.4625 C   0  0  0  0  0  0
  -22.7221  -10.2107   20.3034 C   0  0  0  0  0  0
  -21.6845   -6.0734   22.5280 C   0  0  0  0  0  0
  -21.4002   -6.5639   23.8212 C   0  0  0  0  0  0
  -21.3660   -5.6785   24.9173 C   0  0  0  0  0  0
  -21.6047   -4.3051   24.7216 C   0  0  0  0  0  0
  -21.8817   -3.8142   23.4342 C   0  0  0  0  0  0
  -21.9186   -4.6963   22.3401 C   0  0  0  0  0  0
  -22.7883  -13.5211   21.1832 C   0  0  0  0  0  0
  -22.1661   -4.2165   21.0971 F   0  0  0  0  0  0
  -21.5635   -3.4526   25.7721 F   0  0  0  0  0  0
  -30.0450  -13.2957   20.4492 N   0  0  0  0  0  0
  -26.3055  -12.9308   20.3371 N   0  0  0  0  0  0
  -25.9347  -11.6466   20.5768 N   0  0  0  0  0  0
  -22.0529  -12.8209   22.0405 N   0  0  0  0  0  0
  -25.4289  -15.1869   20.4147 N   0  0  0  0  0  0
  -31.8033  -14.7143   20.1145 O   0  0  0  0  0  0
  -21.6631   -6.8873   21.4238 O   0  0  0  0  0  0
  -22.3556  -14.5507   20.6672 O   0  0  0  0  0  0
  -24.6175  -31.8692   23.2120 C   0  0  0  0  0  0
  -25.9045  -32.4846   23.8448 C   0  0  1  0  0  0
  -27.2326  -27.4198   20.0975 C   0  0  0  0  0  0
  -25.5874  -33.8645   24.2368 N   0  0  0  0  0  0
  -23.4080  -30.4914   21.5551 C   0  0  2  0  0  0
  -24.8537  -28.9637   20.1143 C   0  0  0  0  0  0
  -22.7450  -29.4624   22.5012 C   0  0  0  0  0  0
  -18.0269  -28.1359   22.8529 C   0  0  0  0  0  0
  -24.1477  -36.7328   23.2645 C   0  0  0  0  0  0
  -25.9408  -30.8303   21.3674 C   0  0  0  0  0  0
  -26.0176  -29.4653   20.7115 C   0  0  0  0  0  0
  -27.2111  -28.7023   20.6991 C   0  0  0  0  0  0
  -26.0539  -26.9515   19.4711 C   0  0  0  0  0  0
  -24.8694  -27.7083   19.4872 C   0  0  0  0  0  0
  -23.6157  -29.8311   20.1678 C   0  0  0  0  0  0
  -25.4106  -36.3155   24.0349 C   0  0  1  0  0  0
  -20.5865  -28.3617   23.1335 C   0  0  2  0  0  0
  -20.6764  -26.9358   22.5410 C   0  0  0  0  0  0
  -19.5737  -26.6383   21.5206 C   0  0  0  0  0  0
  -18.1915  -26.7931   22.1627 C   0  0  0  0  0  0
  -19.1524  -28.8812   23.2932 C   0  0  0  0  0  0
  -18.9469  -30.1421   23.8945 C   0  0  0  0  0  0
  -17.6464  -30.6573   24.0583 C   0  0  0  0  0  0
  -25.9023  -34.9499   23.5168 C   0  0  0  0  0  0
  -16.5348  -29.9087   23.6347 C   0  0  0  0  0  0
  -16.7262  -28.6497   23.0377 C   0  0  0  0  0  0
  -26.4458  -31.6622   25.0782 C   0  0  0  0  0  0
  -25.3716  -31.3689   26.1527 C   0  0  0  0  0  0
  -27.0278  -30.3073   24.6135 C   0  0  0  0  0  0
  -27.6058  -32.4335   25.7525 C   0  0  0  0  0  0
  -27.5585  -37.1823   24.8473 C   0  0  0  0  0  0
  -21.4160  -29.3008   22.3771 N   0  0  0  0  0  0
  -26.4306  -37.3834   23.9407 N   0  0  0  0  0  0
  -24.6748  -31.0774   22.1028 N   0  0  0  0  0  0
  -23.4213  -28.8149   23.3050 O   0  0  0  0  0  0
  -28.3718  -26.6267   20.1463 O   0  0  0  0  0  0
  -26.5612  -34.8952   22.4747 O   0  0  0  0  0  0
  -23.5356  -32.1432   23.7484 O   0  0  0  0  0  0
  -30.8264  -19.0014   21.0939 C   0  0  0  0  0  0
  -29.4820  -19.3112   21.1977 C   0  0  0  0  0  0
  -29.9753  -16.8739   21.0888 C   0  0  0  0  0  0
  -27.8223  -25.2244   22.0643 C   0  0  0  0  0  0
  -28.8430  -22.7998   20.1743 C   0  0  0  0  0  0
  -31.9773  -19.9614   21.0951 C   0  0  0  0  0  0
  -26.5153  -24.5702   22.4955 C   0  0  0  0  0  0
  -28.7375  -20.6217   21.3900 C   0  0  0  0  0  0
  -29.3196  -24.2706   20.2452 C   0  0  0  0  0  0
  -28.1422  -25.2478   20.5580 C   0  0  1  0  0  0
  -31.0897  -17.6143   21.0300 N   0  0  0  0  0  0
  -29.9073  -15.4500   21.1391 N   0  0  0  0  0  0
  -29.3906  -21.8873   21.0043 N   0  0  0  0  0  0
  -28.5944  -25.7028   22.9007 O   0  0  0  0  0  0
  -27.9308  -22.5044   19.3997 O   0  0  0  0  0  0
  -28.5191  -17.8468   21.2074 S   0  0  0  0  0  0
  -31.4870  -12.4466   19.1200 H   0  0  0  0  0  0
  -30.3798  -11.3054   19.8275 H   0  0  0  0  0  0
  -29.7540  -11.7681   17.4400 H   0  0  0  0  0  0
  -29.6719  -13.4808   17.7660 H   0  0  0  0  0  0
  -27.8369  -11.3045   18.8163 H   0  0  0  0  0  0
  -27.3818  -12.6336   17.7846 H   0  0  0  0  0  0
  -27.7106  -14.2508   19.5800 H   0  0  0  0  0  0
  -28.6999  -11.9171   21.2925 H   0  0  0  0  0  0
  -28.4707  -13.5199   21.8990 H   0  0  0  0  0  0
  -25.2762   -9.5695   22.4742 H   0  0  0  0  0  0
  -24.0010   -7.4618   22.7454 H   0  0  0  0  0  0
  -21.0836   -8.8707   19.8950 H   0  0  0  0  0  0
  -22.3651  -10.9630   19.6147 H   0  0  0  0  0  0
  -21.1992   -7.6146   23.9725 H   0  0  0  0  0  0
  -21.1501   -6.0511   25.9077 H   0  0  0  0  0  0
  -22.0615   -2.7613   23.2810 H   0  0  0  0  0  0
  -22.4128  -11.9868   22.4807 H   0  0  0  0  0  0
  -21.1127  -13.1218   22.2588 H   0  0  0  0  0  0
  -24.6528  -15.8305   20.5274 H   0  0  0  0  0  0
  -26.2652  -15.6368   20.0669 H   0  0  0  0  0  0
  -26.7127  -32.5549   23.1216 H   0  0  0  0  0  0
  -25.0003  -33.9827   25.0504 H   0  0  0  0  0  0
  -22.6954  -31.3073   21.4218 H   0  0  0  0  0  0
  -23.3765  -35.9637   23.3341 H   0  0  0  0  0  0
  -24.3559  -36.8919   22.2053 H   0  0  0  0  0  0
  -23.7188  -37.6529   23.6633 H   0  0  0  0  0  0
  -26.0539  -31.5933   20.5963 H   0  0  0  0  0  0
  -26.8281  -30.8850   21.9864 H   0  0  0  0  0  0
  -28.1040  -29.0836   21.1718 H   0  0  0  0  0  0
  -26.0303  -26.0032   18.9542 H   0  0  0  0  0  0
  -23.9811  -27.3251   19.0039 H   0  0  0  0  0  0
  -23.7206  -30.6120   19.4143 H   0  0  0  0  0  0
  -22.7403  -29.2508   19.8717 H   0  0  0  0  0  0
  -25.1271  -36.2064   25.0843 H   0  0  0  0  0  0
  -20.9931  -28.3157   24.1470 H   0  0  0  0  0  0
  -20.5666  -26.2222   23.3589 H   0  0  0  0  0  0
  -21.6621  -26.7406   22.1187 H   0  0  0  0  0  0
  -19.6886  -25.6323   21.1179 H   0  0  0  0  0  0
  -19.6690  -27.3237   20.6769 H   0  0  0  0  0  0
  -17.4188  -26.6678   21.4021 H   0  0  0  0  0  0
  -18.0317  -26.0057   22.9002 H   0  0  0  0  0  0
  -19.7940  -30.7234   24.2323 H   0  0  0  0  0  0
  -17.5025  -31.6273   24.5165 H   0  0  0  0  0  0
  -15.5353  -30.3002   23.7660 H   0  0  0  0  0  0
  -15.8654  -28.0818   22.7097 H   0  0  0  0  0  0
  -24.5911  -30.7005   25.7860 H   0  0  0  0  0  0
  -24.8864  -32.2816   26.5010 H   0  0  0  0  0  0
  -25.8072  -30.8854   27.0284 H   0  0  0  0  0  0
  -26.2818  -29.6876   24.1138 H   0  0  0  0  0  0
  -27.4005  -29.7266   25.4588 H   0  0  0  0  0  0
  -27.8685  -30.4441   23.9323 H   0  0  0  0  0  0
  -27.2709  -33.3645   26.2130 H   0  0  0  0  0  0
  -28.3838  -32.6881   25.0305 H   0  0  0  0  0  0
  -28.0767  -31.8439   26.5413 H   0  0  0  0  0  0
  -28.2634  -38.0102   24.7541 H   0  0  0  0  0  0
  -28.1055  -36.2631   24.6285 H   0  0  0  0  0  0
  -27.2299  -37.1476   25.8882 H   0  0  0  0  0  0
  -20.9312  -29.8783   21.7042 H   0  0  0  0  0  0
  -26.0220  -38.2930   24.1405 H   0  0  0  0  0  0
  -32.0197  -20.5285   20.1646 H   0  0  0  0  0  0
  -32.9343  -19.4511   21.2065 H   0  0  0  0  0  0
  -31.9024  -20.6689   21.9216 H   0  0  0  0  0  0
  -25.9199  -24.2855   21.6284 H   0  0  0  0  0  0
  -25.9289  -25.2628   23.0981 H   0  0  0  0  0  0
  -26.7076  -23.6736   23.0845 H   0  0  0  0  0  0
  -28.4944  -20.7153   22.4489 H   0  0  0  0  0  0
  -27.7654  -20.5377   20.9002 H   0  0  0  0  0  0
  -29.7417  -24.5239   19.2724 H   0  0  0  0  0  0
  -30.1344  -24.3798   20.9632 H   0  0  0  0  0  0
  -27.2743  -24.8540   20.0377 H   0  0  0  0  0  0
  -29.0113  -15.0917   21.4276 H   0  0  0  0  0  0
  -30.1465  -22.2016   21.5980 H   0  0  0  0  0  0
  1 25  1  0  0  0
  1 30  2  0  0  0
  1 82  1  0  0  0
  2  3  1  0  0  0
  2 25  1  0  0  0
  2 87  1  0  0  0
  2 88  1  0  0  0
  3  4  1  0  0  0
  3 89  1  0  0  0
  3 90  1  0  0  0
  4  5  1  0  0  0
  4 91  1  0  0  0
  4 92  1  0  0  0
  5  6  1  0  0  0
  5 26  1  0  0  0
  5 93  1  0  0  0
  6 25  1  0  0  0
  6 94  1  0  0  0
  6 95  1  0  0  0
  7  8  2  0  0  0
  7 26  1  0  0  0
  7 29  1  0  0  0
  8  9  1  0  0  0
  8 22  1  0  0  0
  9 10  1  0  0  0
  9 27  2  0  0  0
 10 11  2  0  0  0
 10 15  1  0  0  0
 11 12  1  0  0  0
 11 96  1  0  0  0
 12 13  2  0  0  0
 12 97  1  0  0  0
 13 14  1  0  0  0
 13 31  1  0  0  0
 14 15  2  0  0  0
 14 98  1  0  0  0
 15 99  1  0  0  0
 16 17  2  0  0  0
 16 21  1  0  0  0
 16 31  1  0  0  0
 17 18  1  0  0  0
 17100  1  0  0  0
 18 19  2  0  0  0
 18101  1  0  0  0
 19 20  1  0  0  0
 19 24  1  0  0  0
 20 21  2  0  0  0
 20102  1  0  0  0
 21 23  1  0  0  0
 22 28  1  0  0  0
 22 32  2  0  0  0
 26 27  1  0  0  0
 28103  1  0  0  0
 28104  1  0  0  0
 29105  1  0  0  0
 29106  1  0  0  0
 33 34  1  0  0  0
 33 66  1  0  0  0
 33 70  2  0  0  0
 34 36  1  0  0  0
 34 59  1  0  0  0
 34107  1  0  0  0
 35 44  2  0  0  0
 35 45  1  0  0  0
 35 68  1  0  0  0
 36 56  1  0  0  0
 36108  1  0  0  0
 37 39  1  0  0  0
 37 47  1  0  0  0
 37 66  1  0  0  0
 37109  1  0  0  0
 38 43  2  0  0  0
 38 46  1  0  0  0
 38 47  1  0  0  0
 39 64  1  0  0  0
 39 67  2  0  0  0
 40 52  1  0  0  0
 40 53  2  0  0  0
 40 58  1  0  0  0
 41110  1  0  0  0
 41111  1  0  0  0
 41112  1  0  0  0
 41 48  1  0  0  0
 42 43  1  0  0  0
 42 66  1  0  0  0
 42113  1  0  0  0
 42114  1  0  0  0
 43 44  1  0  0  0
 44115  1  0  0  0
 45 46  2  0  0  0
 45116  1  0  0  0
 46117  1  0  0  0
 47118  1  0  0  0
 47119  1  0  0  0
 48 56  1  0  0  0
 48 65  1  0  0  0
 48120  1  0  0  0
 49 50  1  0  0  0
 49 53  1  0  0  0
 49 64  1  0  0  0
 49121  1  0  0  0
 50 51  1  0  0  0
 50122  1  0  0  0
 50123  1  0  0  0
 51 52  1  0  0  0
 51124  1  0  0  0
 51125  1  0  0  0
 52126  1  0  0  0
 52127  1  0  0  0
 53 54  1  0  0  0
 54 55  2  0  0  0
 54128  1  0  0  0
 55 57  1  0  0  0
 55129  1  0  0  0
 56 69  2  0  0  0
 57 58  2  0  0  0
 57130  1  0  0  0
 58131  1  0  0  0
 59 60  1  0  0  0
 59 61  1  0  0  0
 59 62  1  0  0  0
 60132  1  0  0  0
 60133  1  0  0  0
 60134  1  0  0  0
 61135  1  0  0  0
 61136  1  0  0  0
 61137  1  0  0  0
 62138  1  0  0  0
 62139  1  0  0  0
 62140  1  0  0  0
 63 65  1  0  0  0
 63141  1  0  0  0
 63142  1  0  0  0
 63143  1  0  0  0
 64144  1  0  0  0
 65145  1  0  0  0
 68 80  1  0  0  0
 71 72  2  0  0  0
 71 76  1  0  0  0
 71 81  1  0  0  0
 72 78  1  0  0  0
 72 86  1  0  0  0
 73 81  2  0  0  0
 73 82  1  0  0  0
 73 86  1  0  0  0
 74 77  1  0  0  0
 74 80  1  0  0  0
 74 84  2  0  0  0
 75 79  1  0  0  0
 75 83  1  0  0  0
 75 85  2  0  0  0
 76146  1  0  0  0
 76147  1  0  0  0
 76148  1  0  0  0
 77149  1  0  0  0
 77150  1  0  0  0
 77151  1  0  0  0
 78 83  1  0  0  0
 78152  1  0  0  0
 78153  1  0  0  0
 79154  1  0  0  0
 79155  1  0  0  0
 79 80  1  0  0  0
 80156  1  0  0  0
 82157  1  0  0  0
 83158  1  0  0  0
M  ISO  4   1 100  68 101  80 101  82 100
M  END
> <chiral flag>
0

> <version>
0

> <s_m_source_file>
/data/baiqing/PycharmProjects/Reinvent-master-3.2/result/LINK_invent/BTK/process_docking_weight1_custom_product_contain_oxygen_bond_distance_aromatic_linkinvent_7_9_3/rearranged_h_0170.sdf

> <i_m_source_file_index>
10

> <r_mmod_Potential_Energy-OPLS-2005>
-228.36848449707

> <r_mmod_Stretch_Energy-OPLS-2005>
42.9317779541016

> <r_mmod_Bend_Energy-OPLS-2005>
112.301490783691

> <r_mmod_Torsional_Energy-OPLS-2005>
229.313598632812

> <r_mmod_Improper_Torsional_Energy-OPLS-2005>
5.40085649490356

> <r_mmod_Van_der_Waal_Energy-OPLS-2005>
126.682281494141

> <r_mmod_Electrostatic_Energy-OPLS-2005>
-501.845977783203

> <r_mmod_Solvation_Energy-OPLS-2005>
-260.102844238281

> <b_mmod_Minimization_Converged-OPLS-2005>
0

> <r_mmod_RMS_Derivative-OPLS-2005>
3.04092574119568

$$$$
10
                    3D
 Structure written by MMmdl.
153161  0  0  1  0            999 V2000
  -30.5981  -14.5999   20.6172 C   0  0  0  0  0  0
  -30.4493  -12.3979   19.4420 C   0  0  0  0  0  0
  -29.5081  -12.5390   18.2219 C   0  0  0  0  0  0
  -28.0277  -12.3778   18.6224 C   0  0  0  0  0  0
  -27.6625  -13.2080   19.8813 C   0  0  2  0  0  0
  -28.7008  -12.9763   20.9988 C   0  0  0  0  0  0
  -25.2598  -13.8175   20.5766 C   0  0  0  0  0  0
  -24.1818  -13.0436   20.9146 C   0  0  0  0  0  0
  -24.6369  -11.6895   20.8668 C   0  0  0  0  0  0
  -23.9034  -10.4285   21.0389 C   0  0  0  0  0  0
  -24.3579   -9.4219   21.9195 C   0  0  0  0  0  0
  -23.6261   -8.2254   22.0787 C   0  0  0  0  0  0
  -22.4242   -8.0266   21.3583 C   0  0  0  0  0  0
  -21.9861   -9.0233   20.4689 C   0  0  0  0  0  0
  -22.7183  -10.2106   20.3071 C   0  0  0  0  0  0
  -21.6828   -6.0689   22.5256 C   0  0  0  0  0  0
  -21.3989   -6.5616   23.8170 C   0  0  0  0  0  0
  -21.3672   -5.6792   24.9159 C   0  0  0  0  0  0
  -21.6025   -4.3043   24.7211 C   0  0  0  0  0  0
  -21.8820   -3.8112   23.4344 C   0  0  0  0  0  0
  -21.9202   -4.6921   22.3378 C   0  0  0  0  0  0
  -22.7821  -13.5217   21.1846 C   0  0  0  0  0  0
  -22.1711   -4.2101   21.0964 F   0  0  0  0  0  0
  -21.5616   -3.4550   25.7745 F   0  0  0  0  0  0
  -30.0215  -13.3641   20.4718 N   0  0  0  0  0  0
  -26.3015  -12.9327   20.3368 N   0  0  0  0  0  0
  -25.9306  -11.6480   20.5709 N   0  0  0  0  0  0
  -22.0455  -12.8218   22.0430 N   0  0  0  0  0  0
  -25.4380  -15.1920   20.4432 N   0  0  0  0  0  0
  -31.6875  -14.8799   20.1057 O   0  0  0  0  0  0
  -21.6619   -6.8850   21.4227 O   0  0  0  0  0  0
  -22.3510  -14.5540   20.6724 O   0  0  0  0  0  0
  -24.6238  -31.8667   23.2060 C   0  0  0  0  0  0
  -25.9120  -32.4798   23.8371 C   0  0  1  0  0  0
  -27.2337  -27.3462   20.0916 C   0  0  0  0  0  0
  -25.5959  -33.8595   24.2325 N   0  0  0  0  0  0
  -23.4140  -30.4916   21.5473 C   0  0  2  0  0  0
  -24.8616  -28.9508   20.1149 C   0  0  0  0  0  0
  -22.7450  -29.4671   22.4929 C   0  0  0  0  0  0
  -18.0274  -28.1369   22.8466 C   0  0  0  0  0  0
  -24.1506  -36.7282   23.2627 C   0  0  0  0  0  0
  -25.9543  -30.7982   21.3782 C   0  0  0  0  0  0
  -26.0274  -29.4268   20.7237 C   0  0  0  0  0  0
  -27.2097  -28.6310   20.7192 C   0  0  0  0  0  0
  -26.0403  -26.9312   19.4485 C   0  0  0  0  0  0
  -24.8681  -27.7038   19.4762 C   0  0  0  0  0  0
  -23.6310  -29.8307   20.1613 C   0  0  0  0  0  0
  -25.4121  -36.3071   24.0329 C   0  0  1  0  0  0
  -20.5879  -28.3694   23.1259 C   0  0  2  0  0  0
  -20.6773  -26.9420   22.5390 C   0  0  0  0  0  0
  -19.5751  -26.6390   21.5184 C   0  0  0  0  0  0
  -18.1928  -26.7917   22.1595 C   0  0  0  0  0  0
  -19.1531  -28.8836   23.2868 C   0  0  0  0  0  0
  -18.9472  -30.1439   23.8889 C   0  0  0  0  0  0
  -17.6479  -30.6578   24.0552 C   0  0  0  0  0  0
  -25.9065  -34.9444   23.5122 C   0  0  0  0  0  0
  -16.5369  -29.9093   23.6307 C   0  0  0  0  0  0
  -16.7270  -28.6502   23.0349 C   0  0  0  0  0  0
  -26.4528  -31.6564   25.0704 C   0  0  0  0  0  0
  -25.3814  -31.3681   26.1472 C   0  0  0  0  0  0
  -27.0335  -30.2980   24.6108 C   0  0  0  0  0  0
  -27.6086  -32.4292   25.7476 C   0  0  0  0  0  0
  -27.5582  -37.1788   24.8461 C   0  0  0  0  0  0
  -21.4166  -29.3066   22.3677 N   0  0  0  0  0  0
  -26.4284  -37.3772   23.9412 N   0  0  0  0  0  0
  -24.6818  -31.0693   22.1003 N   0  0  0  0  0  0
  -23.4202  -28.8191   23.2974 O   0  0  0  0  0  0
  -28.3882  -26.5429   20.1168 O   0  0  0  0  0  0
  -26.5613  -34.8911   22.4678 O   0  0  0  0  0  0
  -23.5411  -32.1456   23.7397 O   0  0  0  0  0  0
  -28.9535  -19.6233   22.0104 C   0  0  0  0  0  0
  -28.5077  -18.5921   22.8535 C   0  0  0  0  0  0
  -29.7593  -19.3296   20.8881 C   0  0  0  0  0  0
  -29.6791  -16.8940   21.5020 C   0  0  0  0  0  0
  -28.8640  -17.2539   22.6049 C   0  0  0  0  0  0
  -30.1224  -17.9532   20.6388 C   0  0  0  0  0  0
  -28.3296  -25.1571   19.8701 C   0  0  0  0  0  0
  -29.2163  -24.2021   20.2831 C   0  0  0  0  0  0
  -29.0070  -22.7711   19.9210 C   0  0  0  0  0  0
  -30.1866  -20.4848   19.9375 C   0  0  0  0  0  0
  -29.8587  -15.4569   21.3725 N   0  0  0  0  0  0
  -29.9657  -21.9117   20.3517 N   0  0  0  0  0  0
  -28.0566  -22.3636   19.2501 O   0  0  0  0  0  0
  -30.2889  -24.5457   21.0133 O   0  0  0  0  0  0
  -28.3964  -16.2932   23.4411 F   0  0  0  0  0  0
  -30.8616  -17.6596   19.5433 F   0  0  0  0  0  0
  -31.4845  -12.5620   19.1400 H   0  0  0  0  0  0
  -30.4147  -11.3842   19.8453 H   0  0  0  0  0  0
  -29.7699  -11.8118   17.4497 H   0  0  0  0  0  0
  -29.6401  -13.5239   17.7722 H   0  0  0  0  0  0
  -27.8395  -11.3195   18.8096 H   0  0  0  0  0  0
  -27.3859  -12.6625   17.7884 H   0  0  0  0  0  0
  -27.7116  -14.2582   19.5910 H   0  0  0  0  0  0
  -28.7181  -11.9229   21.2811 H   0  0  0  0  0  0
  -28.4254  -13.5051   21.9127 H   0  0  0  0  0  0
  -25.2722   -9.5691   22.4775 H   0  0  0  0  0  0
  -24.0008   -7.4625   22.7463 H   0  0  0  0  0  0
  -21.0839   -8.8688   19.8975 H   0  0  0  0  0  0
  -22.3638  -10.9627   19.6161 H   0  0  0  0  0  0
  -21.1974   -7.6115   23.9652 H   0  0  0  0  0  0
  -21.1550   -6.0561   25.9064 H   0  0  0  0  0  0
  -22.0631   -2.7574   23.2876 H   0  0  0  0  0  0
  -22.4024  -11.9841   22.4801 H   0  0  0  0  0  0
  -21.1081  -13.1250   22.2693 H   0  0  0  0  0  0
  -24.6925  -15.8528   20.6346 H   0  0  0  0  0  0
  -26.3102  -15.6399   20.1949 H   0  0  0  0  0  0
  -26.7167  -32.5493   23.1092 H   0  0  0  0  0  0
  -25.0140  -33.9783   25.0492 H   0  0  0  0  0  0
  -22.7036  -31.3084   21.4049 H   0  0  0  0  0  0
  -23.3767  -35.9614   23.3274 H   0  0  0  0  0  0
  -24.3588  -36.8928   22.2040 H   0  0  0  0  0  0
  -23.7280  -37.6486   23.6666 H   0  0  0  0  0  0
  -26.0905  -31.5602   20.6085 H   0  0  0  0  0  0
  -26.8339  -30.8426   22.0082 H   0  0  0  0  0  0
  -28.1027  -28.9946   21.2069 H   0  0  0  0  0  0
  -25.9580  -26.0093   18.8952 H   0  0  0  0  0  0
  -23.9785  -27.3369   18.9841 H   0  0  0  0  0  0
  -23.7542  -30.6095   19.4064 H   0  0  0  0  0  0
  -22.7463  -29.2686   19.8552 H   0  0  0  0  0  0
  -25.1294  -36.1887   25.0815 H   0  0  0  0  0  0
  -20.9978  -28.3282   24.1377 H   0  0  0  0  0  0
  -20.5626  -26.2332   23.3613 H   0  0  0  0  0  0
  -21.6660  -26.7430   22.1228 H   0  0  0  0  0  0
  -19.6941  -25.6306   21.1225 H   0  0  0  0  0  0
  -19.6678  -27.3180   20.6702 H   0  0  0  0  0  0
  -17.4205  -26.6637   21.4003 H   0  0  0  0  0  0
  -18.0335  -26.0061   22.8992 H   0  0  0  0  0  0
  -19.7964  -30.7227   24.2280 H   0  0  0  0  0  0
  -17.5056  -31.6250   24.5169 H   0  0  0  0  0  0
  -15.5375  -30.3004   23.7629 H   0  0  0  0  0  0
  -15.8668  -28.0821   22.7083 H   0  0  0  0  0  0
  -24.5972  -30.7027   25.7847 H   0  0  0  0  0  0
  -24.9035  -32.2843   26.4942 H   0  0  0  0  0  0
  -25.8217  -30.8854   27.0208 H   0  0  0  0  0  0
  -26.2865  -29.6736   24.1195 H   0  0  0  0  0  0
  -27.4105  -29.7199   25.4550 H   0  0  0  0  0  0
  -27.8713  -30.4232   23.9246 H   0  0  0  0  0  0
  -27.2687  -33.3570   26.2077 H   0  0  0  0  0  0
  -28.3889  -32.6905   25.0320 H   0  0  0  0  0  0
  -28.0767  -31.8420   26.5384 H   0  0  0  0  0  0
  -28.2578  -38.0111   24.7521 H   0  0  0  0  0  0
  -28.1102  -36.2630   24.6243 H   0  0  0  0  0  0
  -27.2305  -37.1395   25.8872 H   0  0  0  0  0  0
  -20.9334  -29.8826   21.6927 H   0  0  0  0  0  0
  -26.0149  -38.2834   24.1439 H   0  0  0  0  0  0
  -28.6459  -20.6375   22.2314 H   0  0  0  0  0  0
  -27.8742  -18.8177   23.7009 H   0  0  0  0  0  0
  -27.4942  -24.8545   19.2643 H   0  0  0  0  0  0
  -29.7200  -20.3125   18.9658 H   0  0  0  0  0  0
  -31.2575  -20.3745   19.7538 H   0  0  0  0  0  0
  -29.1503  -14.9576   21.8879 H   0  0  0  0  0  0
  -30.7128  -22.3510   20.8756 H   0  0  0  0  0  0
  -30.2535  -25.4865   21.1335 H   0  0  0  0  0  0
  1 25  1  0  0  0
  1 30  2  0  0  0
  1 81  1  0  0  0
  2  3  1  0  0  0
  2 25  1  0  0  0
  2 87  1  0  0  0
  2 88  1  0  0  0
  3  4  1  0  0  0
  3 89  1  0  0  0
  3 90  1  0  0  0
  4  5  1  0  0  0
  4 91  1  0  0  0
  4 92  1  0  0  0
  5  6  1  0  0  0
  5 26  1  0  0  0
  5 93  1  0  0  0
  6 25  1  0  0  0
  6 94  1  0  0  0
  6 95  1  0  0  0
  7  8  2  0  0  0
  7 26  1  0  0  0
  7 29  1  0  0  0
  8  9  1  0  0  0
  8 22  1  0  0  0
  9 10  1  0  0  0
  9 27  2  0  0  0
 10 11  2  0  0  0
 10 15  1  0  0  0
 11 12  1  0  0  0
 11 96  1  0  0  0
 12 13  2  0  0  0
 12 97  1  0  0  0
 13 14  1  0  0  0
 13 31  1  0  0  0
 14 15  2  0  0  0
 14 98  1  0  0  0
 15 99  1  0  0  0
 16 17  2  0  0  0
 16 21  1  0  0  0
 16 31  1  0  0  0
 17 18  1  0  0  0
 17100  1  0  0  0
 18 19  2  0  0  0
 18101  1  0  0  0
 19 20  1  0  0  0
 19 24  1  0  0  0
 20 21  2  0  0  0
 20102  1  0  0  0
 21 23  1  0  0  0
 22 28  1  0  0  0
 22 32  2  0  0  0
 26 27  1  0  0  0
 28103  1  0  0  0
 28104  1  0  0  0
 29105  1  0  0  0
 29106  1  0  0  0
 33 34  1  0  0  0
 33 66  1  0  0  0
 33 70  2  0  0  0
 34 36  1  0  0  0
 34 59  1  0  0  0
 34107  1  0  0  0
 35 44  2  0  0  0
 35 45  1  0  0  0
 35 68  1  0  0  0
 36 56  1  0  0  0
 36108  1  0  0  0
 37 39  1  0  0  0
 37 47  1  0  0  0
 37 66  1  0  0  0
 37109  1  0  0  0
 38 43  2  0  0  0
 38 46  1  0  0  0
 38 47  1  0  0  0
 39 64  1  0  0  0
 39 67  2  0  0  0
 40 52  1  0  0  0
 40 53  2  0  0  0
 40 58  1  0  0  0
 41110  1  0  0  0
 41111  1  0  0  0
 41112  1  0  0  0
 41 48  1  0  0  0
 42 43  1  0  0  0
 42 66  1  0  0  0
 42113  1  0  0  0
 42114  1  0  0  0
 43 44  1  0  0  0
 44115  1  0  0  0
 45 46  2  0  0  0
 45116  1  0  0  0
 46117  1  0  0  0
 47118  1  0  0  0
 47119  1  0  0  0
 48 56  1  0  0  0
 48 65  1  0  0  0
 48120  1  0  0  0
 49 50  1  0  0  0
 49 53  1  0  0  0
 49 64  1  0  0  0
 49121  1  0  0  0
 50 51  1  0  0  0
 50122  1  0  0  0
 50123  1  0  0  0
 51 52  1  0  0  0
 51124  1  0  0  0
 51125  1  0  0  0
 52126  1  0  0  0
 52127  1  0  0  0
 53 54  1  0  0  0
 54 55  2  0  0  0
 54128  1  0  0  0
 55 57  1  0  0  0
 55129  1  0  0  0
 56 69  2  0  0  0
 57 58  2  0  0  0
 57130  1  0  0  0
 58131  1  0  0  0
 59 60  1  0  0  0
 59 61  1  0  0  0
 59 62  1  0  0  0
 60132  1  0  0  0
 60133  1  0  0  0
 60134  1  0  0  0
 61135  1  0  0  0
 61136  1  0  0  0
 61137  1  0  0  0
 62138  1  0  0  0
 62139  1  0  0  0
 62140  1  0  0  0
 63 65  1  0  0  0
 63141  1  0  0  0
 63142  1  0  0  0
 63143  1  0  0  0
 64144  1  0  0  0
 65145  1  0  0  0
 68 77  1  0  0  0
 71 72  2  0  0  0
 71 73  1  0  0  0
 71146  1  0  0  0
 72 75  1  0  0  0
 72147  1  0  0  0
 73 76  2  0  0  0
 73 80  1  0  0  0
 74 75  2  0  0  0
 74 76  1  0  0  0
 74 81  1  0  0  0
 75 85  1  0  0  0
 76 86  1  0  0  0
 77 78  2  0  0  0
 77148  1  0  0  0
 78 79  1  0  0  0
 78 84  1  0  0  0
 79 82  1  0  0  0
 79 83  2  0  0  0
 80 82  1  0  0  0
 80149  1  0  0  0
 80150  1  0  0  0
 81151  1  0  0  0
 82152  1  0  0  0
 84153  1  0  0  0
M  ISO  4   1 100  68 101  77 101  81 100
M  END
> <chiral flag>
0

> <version>
0

> <s_m_source_file>
/data/baiqing/PycharmProjects/Reinvent-master-3.2/result/LINK_invent/BTK/process_docking_weight1_custom_product_contain_oxygen_bond_distance_aromatic_linkinvent_7_9_3/rearranged_h_0170.sdf

> <i_m_source_file_index>
11

> <r_mmod_Potential_Energy-OPLS-2005>
-148.328414916992

> <r_mmod_Stretch_Energy-OPLS-2005>
68.4858322143555

> <r_mmod_Bend_Energy-OPLS-2005>
149.651748657227

> <r_mmod_Torsional_Energy-OPLS-2005>
191.571319580078

> <r_mmod_Improper_Torsional_Energy-OPLS-2005>
3.10739231109619

> <r_mmod_Van_der_Waal_Energy-OPLS-2005>
155.559844970703

> <r_mmod_Electrostatic_Energy-OPLS-2005>
-528.62841796875

> <r_mmod_Solvation_Energy-OPLS-2005>
-226.158218383789

> <b_mmod_Minimization_Converged-OPLS-2005>
0

> <r_mmod_RMS_Derivative-OPLS-2005>
4.73973655700684

$$$$
11
                    3D
 Structure written by MMmdl.
161169  0  0  1  0            999 V2000
  -30.5652  -14.7356   20.4945 C   0  0  0  0  0  0
  -30.4471  -12.4554   19.4647 C   0  0  0  0  0  0
  -29.5199  -12.4987   18.2284 C   0  0  0  0  0  0
  -28.0434  -12.3136   18.6382 C   0  0  0  0  0  0
  -27.6388  -13.2150   19.8356 C   0  0  2  0  0  0
  -28.6793  -13.1363   20.9735 C   0  0  0  0  0  0
  -25.2524  -13.8153   20.5637 C   0  0  0  0  0  0
  -24.1793  -13.0421   20.9165 C   0  0  0  0  0  0
  -24.6361  -11.6893   20.8707 C   0  0  0  0  0  0
  -23.9038  -10.4285   21.0405 C   0  0  0  0  0  0
  -24.3603   -9.4214   21.9192 C   0  0  0  0  0  0
  -23.6271   -8.2256   22.0775 C   0  0  0  0  0  0
  -22.4264   -8.0287   21.3550 C   0  0  0  0  0  0
  -21.9879   -9.0260   20.4654 C   0  0  0  0  0  0
  -22.7209  -10.2131   20.3054 C   0  0  0  0  0  0
  -21.6847   -6.0726   22.5280 C   0  0  0  0  0  0
  -21.4025   -6.5637   23.8208 C   0  0  0  0  0  0
  -21.3658   -5.6785   24.9171 C   0  0  0  0  0  0
  -21.6035   -4.3051   24.7219 C   0  0  0  0  0  0
  -21.8825   -3.8141   23.4350 C   0  0  0  0  0  0
  -21.9196   -4.6955   22.3398 C   0  0  0  0  0  0
  -22.7830  -13.5240   21.1813 C   0  0  0  0  0  0
  -22.1662   -4.2145   21.0977 F   0  0  0  0  0  0
  -21.5622   -3.4534   25.7737 F   0  0  0  0  0  0
  -29.9791  -13.4999   20.3967 N   0  0  0  0  0  0
  -26.2901  -12.9302   20.3131 N   0  0  0  0  0  0
  -25.9274  -11.6478   20.5660 N   0  0  0  0  0  0
  -22.0449  -12.8275   22.0381 N   0  0  0  0  0  0
  -25.4241  -15.1886   20.4143 N   0  0  0  0  0  0
  -31.7717  -14.8794   20.2655 O   0  0  0  0  0  0
  -21.6639   -6.8882   21.4243 O   0  0  0  0  0  0
  -22.3527  -14.5537   20.6636 O   0  0  0  0  0  0
  -24.6318  -31.8567   23.2008 C   0  0  0  0  0  0
  -25.9149  -32.4766   23.8353 C   0  0  1  0  0  0
  -27.2115  -27.2748   20.1299 C   0  0  0  0  0  0
  -25.5948  -33.8573   24.2285 N   0  0  0  0  0  0
  -23.4263  -30.4825   21.5460 C   0  0  2  0  0  0
  -24.8685  -28.9258   20.1129 C   0  0  0  0  0  0
  -22.7499  -29.4627   22.4947 C   0  0  0  0  0  0
  -18.0311  -28.1387   22.8512 C   0  0  0  0  0  0
  -24.1486  -36.7277   23.2641 C   0  0  0  0  0  0
  -25.9710  -30.7728   21.3754 C   0  0  0  0  0  0
  -26.0409  -29.3951   20.7193 C   0  0  0  0  0  0
  -27.2207  -28.5862   20.7083 C   0  0  0  0  0  0
  -26.0183  -26.8620   19.5002 C   0  0  0  0  0  0
  -24.8624  -27.6673   19.4906 C   0  0  0  0  0  0
  -23.6411  -29.8144   20.1623 C   0  0  0  0  0  0
  -25.4121  -36.3087   24.0330 C   0  0  1  0  0  0
  -20.5916  -28.3708   23.1271 C   0  0  2  0  0  0
  -20.6795  -26.9427   22.5404 C   0  0  0  0  0  0
  -19.5745  -26.6405   21.5222 C   0  0  0  0  0  0
  -18.1939  -26.7941   22.1648 C   0  0  0  0  0  0
  -19.1560  -28.8869   23.2887 C   0  0  0  0  0  0
  -18.9468  -30.1482   23.8889 C   0  0  0  0  0  0
  -17.6458  -30.6579   24.0592 C   0  0  0  0  0  0
  -25.9069  -34.9449   23.5108 C   0  0  0  0  0  0
  -16.5365  -29.9075   23.6331 C   0  0  0  0  0  0
  -16.7298  -28.6500   23.0347 C   0  0  0  0  0  0
  -26.4513  -31.6572   25.0719 C   0  0  0  0  0  0
  -25.3713  -31.3704   26.1416 C   0  0  0  0  0  0
  -27.0340  -30.2993   24.6158 C   0  0  0  0  0  0
  -27.6095  -32.4274   25.7478 C   0  0  0  0  0  0
  -27.5584  -37.1791   24.8472 C   0  0  0  0  0  0
  -21.4216  -29.3051   22.3648 N   0  0  0  0  0  0
  -26.4305  -37.3776   23.9408 N   0  0  0  0  0  0
  -24.6968  -31.0546   22.0968 N   0  0  0  0  0  0
  -23.4202  -28.8204   23.3072 O   0  0  0  0  0  0
  -28.3069  -26.3886   20.1398 O   0  0  0  0  0  0
  -26.5630  -34.8903   22.4673 O   0  0  0  0  0  0
  -23.5470  -32.1405   23.7301 O   0  0  0  0  0  0
  -29.4506  -18.4306   20.4609 C   0  0  0  0  0  0
  -29.8816  -17.2001   22.5083 C   0  0  0  0  0  0
  -29.4630  -19.6419   22.5760 C   0  0  0  0  0  0
  -29.7432  -17.1581   21.1121 C   0  0  0  0  0  0
  -29.3228  -19.7148   21.1489 C   0  0  0  0  0  0
  -29.7358  -18.4038   23.2185 C   0  0  0  0  0  0
  -29.3430  -20.8552   23.4904 C   0  0  0  0  0  0
  -27.8783  -23.3907   18.6905 C   0  0  0  0  0  0
  -30.1477  -23.9280   19.6027 C   0  0  0  0  0  0
  -28.6420  -22.3332   20.9206 C   0  0  0  0  0  0
  -28.1006  -25.0012   20.6768 C   0  0  0  0  0  0
  -28.6827  -23.6559   19.9756 C   0  0  0  0  0  0
  -29.6958  -15.8147   20.4898 N   0  0  0  0  0  0
  -29.0899  -20.9630   20.4168 N   0  0  0  0  0  0
  -29.8551  -18.3487   24.5669 F   0  0  0  0  0  0
  -31.4873  -12.6107   19.1706 H   0  0  0  0  0  0
  -30.4155  -11.4782   19.9480 H   0  0  0  0  0  0
  -29.8089  -11.7259   17.5151 H   0  0  0  0  0  0
  -29.6366  -13.4516   17.7116 H   0  0  0  0  0  0
  -27.9095  -11.2655   18.9091 H   0  0  0  0  0  0
  -27.3895  -12.4907   17.7833 H   0  0  0  0  0  0
  -27.6280  -14.2344   19.4496 H   0  0  0  0  0  0
  -28.7145  -12.1326   21.3999 H   0  0  0  0  0  0
  -28.4110  -13.8047   21.7928 H   0  0  0  0  0  0
  -25.2764   -9.5699   22.4744 H   0  0  0  0  0  0
  -23.9990   -7.4661   22.7502 H   0  0  0  0  0  0
  -21.0811   -8.8772   19.8962 H   0  0  0  0  0  0
  -22.3683  -10.9667   19.6155 H   0  0  0  0  0  0
  -21.2032   -7.6149   23.9707 H   0  0  0  0  0  0
  -21.1460   -6.0522   25.9068 H   0  0  0  0  0  0
  -22.0603   -2.7608   23.2842 H   0  0  0  0  0  0
  -22.4039  -11.9960   22.4830 H   0  0  0  0  0  0
  -21.1072  -13.1361   22.2511 H   0  0  0  0  0  0
  -24.6612  -15.8430   20.5543 H   0  0  0  0  0  0
  -26.2726  -15.6394   20.0987 H   0  0  0  0  0  0
  -26.7221  -32.5389   23.1096 H   0  0  0  0  0  0
  -25.0105  -33.9752   25.0437 H   0  0  0  0  0  0
  -22.7203  -31.3044   21.4032 H   0  0  0  0  0  0
  -23.3753  -35.9609   23.3323 H   0  0  0  0  0  0
  -24.3596  -36.8865   22.2055 H   0  0  0  0  0  0
  -23.7208  -37.6471   23.6639 H   0  0  0  0  0  0
  -26.1019  -31.5282   20.6019 H   0  0  0  0  0  0
  -26.8539  -30.8247   22.0020 H   0  0  0  0  0  0
  -28.1248  -28.9459   21.1803 H   0  0  0  0  0  0
  -25.9762  -25.8944   19.0185 H   0  0  0  0  0  0
  -23.9651  -27.3087   19.0071 H   0  0  0  0  0  0
  -23.7615  -30.5893   19.4028 H   0  0  0  0  0  0
  -22.7538  -29.2530   19.8653 H   0  0  0  0  0  0
  -25.1288  -36.1973   25.0823 H   0  0  0  0  0  0
  -21.0048  -28.3307   24.1380 H   0  0  0  0  0  0
  -20.5699  -26.2345   23.3630 H   0  0  0  0  0  0
  -21.6654  -26.7448   22.1182 H   0  0  0  0  0  0
  -19.6895  -25.6318   21.1235 H   0  0  0  0  0  0
  -19.6646  -27.3228   20.6758 H   0  0  0  0  0  0
  -17.4214  -26.6729   21.4050 H   0  0  0  0  0  0
  -18.0314  -26.0074   22.9024 H   0  0  0  0  0  0
  -19.7938  -30.7322   24.2234 H   0  0  0  0  0  0
  -17.4999  -31.6254   24.5184 H   0  0  0  0  0  0
  -15.5350  -30.2958   23.7639 H   0  0  0  0  0  0
  -15.8728  -28.0818   22.7024 H   0  0  0  0  0  0
  -24.5961  -30.6977   25.7728 H   0  0  0  0  0  0
  -24.8814  -32.2847   26.4758 H   0  0  0  0  0  0
  -25.8022  -30.8945   27.0235 H   0  0  0  0  0  0
  -26.2912  -29.6751   24.1170 H   0  0  0  0  0  0
  -27.4027  -29.7240   25.4658 H   0  0  0  0  0  0
  -27.8790  -30.4287   23.9396 H   0  0  0  0  0  0
  -27.2776  -33.3613   26.2030 H   0  0  0  0  0  0
  -28.3919  -32.6752   25.0292 H   0  0  0  0  0  0
  -28.0739  -31.8379   26.5392 H   0  0  0  0  0  0
  -28.2608  -38.0080   24.7521 H   0  0  0  0  0  0
  -28.1063  -36.2605   24.6305 H   0  0  0  0  0  0
  -27.2302  -37.1456   25.8876 H   0  0  0  0  0  0
  -20.9416  -29.8752   21.6820 H   0  0  0  0  0  0
  -26.0183  -38.2858   24.1382 H   0  0  0  0  0  0
  -29.3020  -18.4176   19.3919 H   0  0  0  0  0  0
  -30.0401  -16.2908   23.0699 H   0  0  0  0  0  0
  -29.4176  -20.5964   24.5466 H   0  0  0  0  0  0
  -28.3787  -21.3462   23.3641 H   0  0  0  0  0  0
  -30.1590  -21.5505   23.2991 H   0  0  0  0  0  0
  -28.2823  -22.5485   18.1298 H   0  0  0  0  0  0
  -27.8953  -24.2587   18.0288 H   0  0  0  0  0  0
  -26.8336  -23.1695   18.9130 H   0  0  0  0  0  0
  -30.2221  -24.7077   18.8443 H   0  0  0  0  0  0
  -30.6259  -23.0325   19.2101 H   0  0  0  0  0  0
  -30.7261  -24.2555   20.4663 H   0  0  0  0  0  0
  -27.6249  -22.2264   21.3068 H   0  0  0  0  0  0
  -29.2642  -22.6155   21.7628 H   0  0  0  0  0  0
  -27.0389  -24.8364   20.8644 H   0  0  0  0  0  0
  -28.5374  -25.0344   21.6754 H   0  0  0  0  0  0
  -28.7550  -15.5058   20.2968 H   0  0  0  0  0  0
  -29.1414  -20.8955   19.4040 H   0  0  0  0  0  0
  1 25  1  0  0  0
  1 30  2  0  0  0
  1 83  1  0  0  0
  2  3  1  0  0  0
  2 25  1  0  0  0
  2 86  1  0  0  0
  2 87  1  0  0  0
  3  4  1  0  0  0
  3 88  1  0  0  0
  3 89  1  0  0  0
  4  5  1  0  0  0
  4 90  1  0  0  0
  4 91  1  0  0  0
  5  6  1  0  0  0
  5 26  1  0  0  0
  5 92  1  0  0  0
  6 25  1  0  0  0
  6 93  1  0  0  0
  6 94  1  0  0  0
  7  8  2  0  0  0
  7 26  1  0  0  0
  7 29  1  0  0  0
  8  9  1  0  0  0
  8 22  1  0  0  0
  9 10  1  0  0  0
  9 27  2  0  0  0
 10 11  2  0  0  0
 10 15  1  0  0  0
 11 12  1  0  0  0
 11 95  1  0  0  0
 12 13  2  0  0  0
 12 96  1  0  0  0
 13 14  1  0  0  0
 13 31  1  0  0  0
 14 15  2  0  0  0
 14 97  1  0  0  0
 15 98  1  0  0  0
 16 17  2  0  0  0
 16 21  1  0  0  0
 16 31  1  0  0  0
 17 18  1  0  0  0
 17 99  1  0  0  0
 18 19  2  0  0  0
 18100  1  0  0  0
 19 20  1  0  0  0
 19 24  1  0  0  0
 20 21  2  0  0  0
 20101  1  0  0  0
 21 23  1  0  0  0
 22 28  1  0  0  0
 22 32  2  0  0  0
 26 27  1  0  0  0
 28102  1  0  0  0
 28103  1  0  0  0
 29104  1  0  0  0
 29105  1  0  0  0
 33 34  1  0  0  0
 33 66  1  0  0  0
 33 70  2  0  0  0
 34 36  1  0  0  0
 34 59  1  0  0  0
 34106  1  0  0  0
 35 44  2  0  0  0
 35 45  1  0  0  0
 35 68  1  0  0  0
 36 56  1  0  0  0
 36107  1  0  0  0
 37 39  1  0  0  0
 37 47  1  0  0  0
 37 66  1  0  0  0
 37108  1  0  0  0
 38 43  2  0  0  0
 38 46  1  0  0  0
 38 47  1  0  0  0
 39 64  1  0  0  0
 39 67  2  0  0  0
 40 52  1  0  0  0
 40 53  2  0  0  0
 40 58  1  0  0  0
 41109  1  0  0  0
 41110  1  0  0  0
 41111  1  0  0  0
 41 48  1  0  0  0
 42 43  1  0  0  0
 42 66  1  0  0  0
 42112  1  0  0  0
 42113  1  0  0  0
 43 44  1  0  0  0
 44114  1  0  0  0
 45 46  2  0  0  0
 45115  1  0  0  0
 46116  1  0  0  0
 47117  1  0  0  0
 47118  1  0  0  0
 48 56  1  0  0  0
 48 65  1  0  0  0
 48119  1  0  0  0
 49 50  1  0  0  0
 49 53  1  0  0  0
 49 64  1  0  0  0
 49120  1  0  0  0
 50 51  1  0  0  0
 50121  1  0  0  0
 50122  1  0  0  0
 51 52  1  0  0  0
 51123  1  0  0  0
 51124  1  0  0  0
 52125  1  0  0  0
 52126  1  0  0  0
 53 54  1  0  0  0
 54 55  2  0  0  0
 54127  1  0  0  0
 55 57  1  0  0  0
 55128  1  0  0  0
 56 69  2  0  0  0
 57 58  2  0  0  0
 57129  1  0  0  0
 58130  1  0  0  0
 59 60  1  0  0  0
 59 61  1  0  0  0
 59 62  1  0  0  0
 60131  1  0  0  0
 60132  1  0  0  0
 60133  1  0  0  0
 61134  1  0  0  0
 61135  1  0  0  0
 61136  1  0  0  0
 62137  1  0  0  0
 62138  1  0  0  0
 62139  1  0  0  0
 63 65  1  0  0  0
 63140  1  0  0  0
 63141  1  0  0  0
 63142  1  0  0  0
 64143  1  0  0  0
 65144  1  0  0  0
 68 81  1  0  0  0
 71 74  2  0  0  0
 71 75  1  0  0  0
 71145  1  0  0  0
 72 74  1  0  0  0
 72 76  2  0  0  0
 72146  1  0  0  0
 73 75  2  0  0  0
 73 76  1  0  0  0
 73 77  1  0  0  0
 74 83  1  0  0  0
 75 84  1  0  0  0
 76 85  1  0  0  0
 77147  1  0  0  0
 77148  1  0  0  0
 77149  1  0  0  0
 78150  1  0  0  0
 78151  1  0  0  0
 78152  1  0  0  0
 78 82  1  0  0  0
 79 82  1  0  0  0
 79153  1  0  0  0
 79154  1  0  0  0
 79155  1  0  0  0
 80 82  1  0  0  0
 80 84  1  0  0  0
 80156  1  0  0  0
 80157  1  0  0  0
 81 82  1  0  0  0
 81158  1  0  0  0
 81159  1  0  0  0
 83160  1  0  0  0
 84161  1  0  0  0
M  ISO  4   1 100  68 101  81 101  83 100
M  END
> <chiral flag>
0

> <version>
0

> <s_m_source_file>
/data/baiqing/PycharmProjects/Reinvent-master-3.2/result/LINK_invent/BTK/process_docking_weight1_custom_product_contain_oxygen_bond_distance_aromatic_linkinvent_7_9_3/rearranged_h_0170.sdf

> <i_m_source_file_index>
12

> <r_mmod_Potential_Energy-OPLS-2005>
256.408966064453

> <r_mmod_Stretch_Energy-OPLS-2005>
125.063781738281

> <r_mmod_Bend_Energy-OPLS-2005>
186.647308349609

> <r_mmod_Torsional_Energy-OPLS-2005>
276.225128173828

> <r_mmod_Improper_Torsional_Energy-OPLS-2005>
11.9689865112305

> <r_mmod_Van_der_Waal_Energy-OPLS-2005>
142.254425048828

> <r_mmod_Electrostatic_Energy-OPLS-2005>
-362.751068115234

> <r_mmod_Solvation_Energy-OPLS-2005>
-207.268661499023

> <b_mmod_Minimization_Converged-OPLS-2005>
0

> <r_mmod_RMS_Derivative-OPLS-2005>
3.8988676071167

$$$$
12
                    3D
 Structure written by MMmdl.
160168  0  0  1  0            999 V2000
  -30.6221  -14.7441   20.4817 C   0  0  0  0  0  0
  -30.4283  -12.4605   19.4782 C   0  0  0  0  0  0
  -29.5104  -12.5200   18.2374 C   0  0  0  0  0  0
  -28.0363  -12.3468   18.6466 C   0  0  0  0  0  0
  -27.6415  -13.2379   19.8552 C   0  0  2  0  0  0
  -28.6849  -13.1721   20.9920 C   0  0  0  0  0  0
  -25.2488  -13.8206   20.5693 C   0  0  0  0  0  0
  -24.1801  -13.0438   20.9209 C   0  0  0  0  0  0
  -24.6412  -11.6920   20.8764 C   0  0  0  0  0  0
  -23.9101  -10.4294   21.0440 C   0  0  0  0  0  0
  -24.3651   -9.4200   21.9206 C   0  0  0  0  0  0
  -23.6307   -8.2247   22.0782 C   0  0  0  0  0  0
  -22.4290   -8.0298   21.3573 C   0  0  0  0  0  0
  -21.9935   -9.0276   20.4669 C   0  0  0  0  0  0
  -22.7279  -10.2142   20.3076 C   0  0  0  0  0  0
  -21.6859   -6.0750   22.5290 C   0  0  0  0  0  0
  -21.4021   -6.5653   23.8218 C   0  0  0  0  0  0
  -21.3656   -5.6805   24.9181 C   0  0  0  0  0  0
  -21.6042   -4.3069   24.7230 C   0  0  0  0  0  0
  -21.8818   -3.8158   23.4346 C   0  0  0  0  0  0
  -21.9191   -4.6976   22.3405 C   0  0  0  0  0  0
  -22.7818  -13.5215   21.1843 C   0  0  0  0  0  0
  -22.1661   -4.2161   21.0987 F   0  0  0  0  0  0
  -21.5620   -3.4549   25.7742 F   0  0  0  0  0  0
  -29.9860  -13.5245   20.4105 N   0  0  0  0  0  0
  -26.2941  -12.9431   20.3308 N   0  0  0  0  0  0
  -25.9347  -11.6571   20.5779 N   0  0  0  0  0  0
  -22.0438  -12.8236   22.0386 N   0  0  0  0  0  0
  -25.4109  -15.1941   20.4099 N   0  0  0  0  0  0
  -31.8073  -14.8185   20.1432 O   0  0  0  0  0  0
  -21.6653   -6.8901   21.4259 O   0  0  0  0  0  0
  -22.3511  -14.5517   20.6661 O   0  0  0  0  0  0
  -24.6311  -31.8564   23.1996 C   0  0  0  0  0  0
  -25.9135  -32.4761   23.8345 C   0  0  1  0  0  0
  -27.2172  -27.2764   20.1365 C   0  0  0  0  0  0
  -25.5927  -33.8561   24.2266 N   0  0  0  0  0  0
  -23.4264  -30.4789   21.5437 C   0  0  2  0  0  0
  -24.8728  -28.9229   20.1154 C   0  0  0  0  0  0
  -22.7488  -29.4612   22.4927 C   0  0  0  0  0  0
  -18.0285  -28.1394   22.8489 C   0  0  0  0  0  0
  -24.1489  -36.7291   23.2631 C   0  0  0  0  0  0
  -25.9688  -30.7786   21.3701 C   0  0  0  0  0  0
  -26.0451  -29.3982   20.7182 C   0  0  0  0  0  0
  -27.2244  -28.5897   20.7120 C   0  0  0  0  0  0
  -26.0275  -26.8616   19.5053 C   0  0  0  0  0  0
  -24.8682  -27.6621   19.4969 C   0  0  0  0  0  0
  -23.6434  -29.8100   20.1603 C   0  0  0  0  0  0
  -25.4110  -36.3071   24.0326 C   0  0  1  0  0  0
  -20.5887  -28.3707   23.1275 C   0  0  2  0  0  0
  -20.6772  -26.9423   22.5413 C   0  0  0  0  0  0
  -19.5751  -26.6389   21.5213 C   0  0  0  0  0  0
  -18.1927  -26.7942   22.1614 C   0  0  0  0  0  0
  -19.1538  -28.8861   23.2880 C   0  0  0  0  0  0
  -18.9459  -30.1464   23.8895 C   0  0  0  0  0  0
  -17.6460  -30.6605   24.0554 C   0  0  0  0  0  0
  -25.9058  -34.9444   23.5102 C   0  0  0  0  0  0
  -16.5351  -29.9102   23.6328 C   0  0  0  0  0  0
  -16.7272  -28.6512   23.0367 C   0  0  0  0  0  0
  -26.4507  -31.6569   25.0721 C   0  0  0  0  0  0
  -25.3742  -31.3713   26.1449 C   0  0  0  0  0  0
  -27.0322  -30.2986   24.6172 C   0  0  0  0  0  0
  -27.6079  -32.4272   25.7499 C   0  0  0  0  0  0
  -27.5595  -37.1783   24.8451 C   0  0  0  0  0  0
  -21.4193  -29.3062   22.3674 N   0  0  0  0  0  0
  -26.4279  -37.3782   23.9431 N   0  0  0  0  0  0
  -24.6949  -31.0546   22.0957 N   0  0  0  0  0  0
  -23.4192  -28.8151   23.3023 O   0  0  0  0  0  0
  -28.3019  -26.3794   20.1534 O   0  0  0  0  0  0
  -26.5638  -34.8923   22.4678 O   0  0  0  0  0  0
  -23.5460  -32.1365   23.7304 O   0  0  0  0  0  0
  -31.5752  -17.6991   21.0286 C   0  0  0  0  0  0
  -29.3184  -18.4527   20.5650 C   0  0  0  0  0  0
  -32.0031  -19.0476   21.0625 C   0  0  0  0  0  0
  -30.2376  -17.3346   20.7549 C   0  0  0  0  0  0
  -29.7119  -19.8590   20.6047 C   0  0  0  0  0  0
  -31.0861  -20.1058   20.8526 C   0  0  0  0  0  0
  -28.6157  -23.7071   20.1037 C   0  0  0  0  0  0
  -34.0624  -18.7146   22.5537 C   0  0  0  0  0  0
  -28.8579  -22.3691   20.9621 C   0  0  0  0  0  0
  -28.0762  -25.0447   20.8045 C   0  0  0  0  0  0
  -33.4843  -19.3651   21.2793 C   0  0  1  0  0  0
  -29.8608  -15.8896   20.7147 N   0  0  0  0  0  0
  -28.8160  -20.9746   20.3366 N   0  0  0  0  0  0
  -34.2608  -19.0132   20.0775 N   0  3  0  0  0  0
  -28.8360  -23.6942   18.8885 O   0  0  0  0  0  0
  -31.5572  -21.3771   20.8398 F   0  0  0  0  0  0
  -31.4713  -12.5766   19.1774 H   0  0  0  0  0  0
  -30.3656  -11.4849   19.9636 H   0  0  0  0  0  0
  -29.7914  -11.7495   17.5183 H   0  0  0  0  0  0
  -29.6416  -13.4768   17.7287 H   0  0  0  0  0  0
  -27.8838  -11.2968   18.8944 H   0  0  0  0  0  0
  -27.3851  -12.5576   17.7975 H   0  0  0  0  0  0
  -27.6366  -14.2617   19.4809 H   0  0  0  0  0  0
  -28.7194  -12.1759   21.4352 H   0  0  0  0  0  0
  -28.4202  -13.8559   21.8000 H   0  0  0  0  0  0
  -25.2798   -9.5659   22.4780 H   0  0  0  0  0  0
  -24.0003   -7.4647   22.7522 H   0  0  0  0  0  0
  -21.0866   -8.8819   19.8977 H   0  0  0  0  0  0
  -22.3764  -10.9698   19.6188 H   0  0  0  0  0  0
  -21.2026   -7.6156   23.9725 H   0  0  0  0  0  0
  -21.1476   -6.0540   25.9087 H   0  0  0  0  0  0
  -22.0592   -2.7619   23.2861 H   0  0  0  0  0  0
  -22.4060  -11.9910   22.4802 H   0  0  0  0  0  0
  -21.1053  -13.1298   22.2568 H   0  0  0  0  0  0
  -24.6302  -15.8344   20.5080 H   0  0  0  0  0  0
  -26.2394  -15.6385   20.0374 H   0  0  0  0  0  0
  -26.7210  -32.5426   23.1096 H   0  0  0  0  0  0
  -25.0050  -33.9701   25.0394 H   0  0  0  0  0  0
  -22.7233  -31.3010   21.3976 H   0  0  0  0  0  0
  -23.3781  -35.9591   23.3214 H   0  0  0  0  0  0
  -24.3594  -36.9003   22.2066 H   0  0  0  0  0  0
  -23.7204  -37.6452   23.6709 H   0  0  0  0  0  0
  -26.0901  -31.5354   20.5930 H   0  0  0  0  0  0
  -26.8529  -30.8409   21.9932 H   0  0  0  0  0  0
  -28.1260  -28.9513   21.1861 H   0  0  0  0  0  0
  -25.9880  -25.8924   19.0290 H   0  0  0  0  0  0
  -23.9705  -27.2924   19.0214 H   0  0  0  0  0  0
  -23.7695  -30.5863   19.4042 H   0  0  0  0  0  0
  -22.7603  -29.2444   19.8549 H   0  0  0  0  0  0
  -25.1284  -36.1916   25.0819 H   0  0  0  0  0  0
  -20.9977  -28.3289   24.1398 H   0  0  0  0  0  0
  -20.5670  -26.2316   23.3625 H   0  0  0  0  0  0
  -21.6646  -26.7450   22.1218 H   0  0  0  0  0  0
  -19.6916  -25.6295   21.1262 H   0  0  0  0  0  0
  -19.6702  -27.3186   20.6738 H   0  0  0  0  0  0
  -17.4205  -26.6707   21.4005 H   0  0  0  0  0  0
  -18.0311  -26.0080   22.9003 H   0  0  0  0  0  0
  -19.7932  -30.7280   24.2270 H   0  0  0  0  0  0
  -17.5019  -31.6291   24.5154 H   0  0  0  0  0  0
  -15.5354  -30.3010   23.7653 H   0  0  0  0  0  0
  -15.8672  -28.0832   22.7098 H   0  0  0  0  0  0
  -24.5905  -30.7071   25.7782 H   0  0  0  0  0  0
  -24.8942  -32.2878   26.4892 H   0  0  0  0  0  0
  -25.8063  -30.8876   27.0217 H   0  0  0  0  0  0
  -26.2877  -29.6753   24.1200 H   0  0  0  0  0  0
  -27.4013  -29.7231   25.4671 H   0  0  0  0  0  0
  -27.8758  -30.4258   23.9383 H   0  0  0  0  0  0
  -27.2724  -33.3584   26.2076 H   0  0  0  0  0  0
  -28.3909  -32.6792   25.0337 H   0  0  0  0  0  0
  -28.0720  -31.8377   26.5418 H   0  0  0  0  0  0
  -28.2544  -38.0149   24.7590 H   0  0  0  0  0  0
  -28.1155  -36.2678   24.6145 H   0  0  0  0  0  0
  -27.2324  -37.1295   25.8854 H   0  0  0  0  0  0
  -20.9372  -29.8798   21.6895 H   0  0  0  0  0  0
  -26.0150  -38.2838   24.1506 H   0  0  0  0  0  0
  -32.3094  -16.9315   21.2150 H   0  0  0  0  0  0
  -28.2809  -18.2246   20.3702 H   0  0  0  0  0  0
  -33.5573  -19.0927   23.4422 H   0  0  0  0  0  0
  -35.1226  -18.9461   22.6668 H   0  0  0  0  0  0
  -33.9650  -17.6299   22.5556 H   0  0  0  0  0  0
  -28.0826  -22.3777   21.7284 H   0  0  0  0  0  0
  -29.7814  -22.5133   21.5181 H   0  0  0  0  0  0
  -28.5273  -25.0918   21.7948 H   0  0  0  0  0  0
  -27.0090  -24.9030   20.9781 H   0  0  0  0  0  0
  -33.6007  -20.4423   21.4069 H   0  0  0  0  0  0
  -28.8775  -15.6997   20.8349 H   0  0  0  0  0  0
  -27.8899  -20.7144   20.0103 H   0  0  0  0  0  0
  -34.2333  -18.0261   19.8981 H   0  0  0  0  0  0
  -35.2185  -19.2964   20.1793 H   0  0  0  0  0  0
  -33.8870  -19.4907   19.2770 H   0  0  0  0  0  0
  1 25  1  0  0  0
  1 30  2  0  0  0
  1 82  1  0  0  0
  2  3  1  0  0  0
  2 25  1  0  0  0
  2 87  1  0  0  0
  2 88  1  0  0  0
  3  4  1  0  0  0
  3 89  1  0  0  0
  3 90  1  0  0  0
  4  5  1  0  0  0
  4 91  1  0  0  0
  4 92  1  0  0  0
  5  6  1  0  0  0
  5 26  1  0  0  0
  5 93  1  0  0  0
  6 25  1  0  0  0
  6 94  1  0  0  0
  6 95  1  0  0  0
  7  8  2  0  0  0
  7 26  1  0  0  0
  7 29  1  0  0  0
  8  9  1  0  0  0
  8 22  1  0  0  0
  9 10  1  0  0  0
  9 27  2  0  0  0
 10 11  2  0  0  0
 10 15  1  0  0  0
 11 12  1  0  0  0
 11 96  1  0  0  0
 12 13  2  0  0  0
 12 97  1  0  0  0
 13 14  1  0  0  0
 13 31  1  0  0  0
 14 15  2  0  0  0
 14 98  1  0  0  0
 15 99  1  0  0  0
 16 17  2  0  0  0
 16 21  1  0  0  0
 16 31  1  0  0  0
 17 18  1  0  0  0
 17100  1  0  0  0
 18 19  2  0  0  0
 18101  1  0  0  0
 19 20  1  0  0  0
 19 24  1  0  0  0
 20 21  2  0  0  0
 20102  1  0  0  0
 21 23  1  0  0  0
 22 28  1  0  0  0
 22 32  2  0  0  0
 26 27  1  0  0  0
 28103  1  0  0  0
 28104  1  0  0  0
 29105  1  0  0  0
 29106  1  0  0  0
 33 34  1  0  0  0
 33 66  1  0  0  0
 33 70  2  0  0  0
 34 36  1  0  0  0
 34 59  1  0  0  0
 34107  1  0  0  0
 35 44  2  0  0  0
 35 45  1  0  0  0
 35 68  1  0  0  0
 36 56  1  0  0  0
 36108  1  0  0  0
 37 39  1  0  0  0
 37 47  1  0  0  0
 37 66  1  0  0  0
 37109  1  0  0  0
 38 43  2  0  0  0
 38 46  1  0  0  0
 38 47  1  0  0  0
 39 64  1  0  0  0
 39 67  2  0  0  0
 40 52  1  0  0  0
 40 53  2  0  0  0
 40 58  1  0  0  0
 41110  1  0  0  0
 41111  1  0  0  0
 41112  1  0  0  0
 41 48  1  0  0  0
 42 43  1  0  0  0
 42 66  1  0  0  0
 42113  1  0  0  0
 42114  1  0  0  0
 43 44  1  0  0  0
 44115  1  0  0  0
 45 46  2  0  0  0
 45116  1  0  0  0
 46117  1  0  0  0
 47118  1  0  0  0
 47119  1  0  0  0
 48 56  1  0  0  0
 48 65  1  0  0  0
 48120  1  0  0  0
 49 50  1  0  0  0
 49 53  1  0  0  0
 49 64  1  0  0  0
 49121  1  0  0  0
 50 51  1  0  0  0
 50122  1  0  0  0
 50123  1  0  0  0
 51 52  1  0  0  0
 51124  1  0  0  0
 51125  1  0  0  0
 52126  1  0  0  0
 52127  1  0  0  0
 53 54  1  0  0  0
 54 55  2  0  0  0
 54128  1  0  0  0
 55 57  1  0  0  0
 55129  1  0  0  0
 56 69  2  0  0  0
 57 58  2  0  0  0
 57130  1  0  0  0
 58131  1  0  0  0
 59 60  1  0  0  0
 59 61  1  0  0  0
 59 62  1  0  0  0
 60132  1  0  0  0
 60133  1  0  0  0
 60134  1  0  0  0
 61135  1  0  0  0
 61136  1  0  0  0
 61137  1  0  0  0
 62138  1  0  0  0
 62139  1  0  0  0
 62140  1  0  0  0
 63 65  1  0  0  0
 63141  1  0  0  0
 63142  1  0  0  0
 63143  1  0  0  0
 64144  1  0  0  0
 65145  1  0  0  0
 68 80  1  0  0  0
 71 73  2  0  0  0
 71 74  1  0  0  0
 71146  1  0  0  0
 72 74  2  0  0  0
 72 75  1  0  0  0
 72147  1  0  0  0
 73 76  1  0  0  0
 73 81  1  0  0  0
 74 82  1  0  0  0
 75 76  2  0  0  0
 75 83  1  0  0  0
 76 86  1  0  0  0
 77 79  1  0  0  0
 77 80  1  0  0  0
 77 85  2  0  0  0
 78148  1  0  0  0
 78149  1  0  0  0
 78150  1  0  0  0
 78 81  1  0  0  0
 79 83  1  0  0  0
 79151  1  0  0  0
 79152  1  0  0  0
 80153  1  0  0  0
 80154  1  0  0  0
 81 84  1  0  0  0
 81155  1  0  0  0
 82156  1  0  0  0
 83157  1  0  0  0
 84158  1  0  0  0
 84159  1  0  0  0
 84160  1  0  0  0
M  CHG  1  84   1
M  ISO  4   1 100  68 101  80 101  82 100
M  END
> <chiral flag>
0

> <version>
0

> <s_m_source_file>
/data/baiqing/PycharmProjects/Reinvent-master-3.2/result/LINK_invent/BTK/process_docking_weight1_custom_product_contain_oxygen_bond_distance_aromatic_linkinvent_7_9_3/rearranged_h_0170.sdf

> <i_m_source_file_index>
13

> <r_mmod_Potential_Energy-OPLS-2005>
-70.0256652832031

> <r_mmod_Stretch_Energy-OPLS-2005>
125.862998962402

> <r_mmod_Bend_Energy-OPLS-2005>
167.780960083008

> <r_mmod_Torsional_Energy-OPLS-2005>
224.418685913086

> <r_mmod_Improper_Torsional_Energy-OPLS-2005>
6.92627954483032

> <r_mmod_Van_der_Waal_Energy-OPLS-2005>
142.492965698242

> <r_mmod_Electrostatic_Energy-OPLS-2005>
-302.820068359375

> <r_mmod_Solvation_Energy-OPLS-2005>
-515.065490722656

> <b_mmod_Minimization_Converged-OPLS-2005>
0

> <r_mmod_RMS_Derivative-OPLS-2005>
2.22225975990295

$$$$
13
                    3D
 Structure written by MMmdl.
156164  0  0  1  0            999 V2000
  -30.6706  -14.5435   20.5337 C   0  0  0  0  0  0
  -30.4298  -12.3316   19.4454 C   0  0  0  0  0  0
  -29.5070  -12.5068   18.2203 C   0  0  0  0  0  0
  -28.0256  -12.3607   18.6237 C   0  0  0  0  0  0
  -27.6588  -13.2128   19.8683 C   0  0  2  0  0  0
  -28.7005  -13.0283   20.9930 C   0  0  0  0  0  0
  -25.2557  -13.8136   20.5636 C   0  0  0  0  0  0
  -24.1827  -13.0420   20.9175 C   0  0  0  0  0  0
  -24.6392  -11.6894   20.8729 C   0  0  0  0  0  0
  -23.9055  -10.4287   21.0395 C   0  0  0  0  0  0
  -24.3603   -9.4208   21.9180 C   0  0  0  0  0  0
  -23.6279   -8.2241   22.0755 C   0  0  0  0  0  0
  -22.4268   -8.0273   21.3541 C   0  0  0  0  0  0
  -21.9901   -9.0243   20.4645 C   0  0  0  0  0  0
  -22.7225  -10.2126   20.3050 C   0  0  0  0  0  0
  -21.6855   -6.0730   22.5274 C   0  0  0  0  0  0
  -21.4013   -6.5633   23.8206 C   0  0  0  0  0  0
  -21.3660   -5.6785   24.9168 C   0  0  0  0  0  0
  -21.6048   -4.3050   24.7222 C   0  0  0  0  0  0
  -21.8818   -3.8143   23.4343 C   0  0  0  0  0  0
  -21.9191   -4.6958   22.3397 C   0  0  0  0  0  0
  -22.7855  -13.5231   21.1836 C   0  0  0  0  0  0
  -22.1662   -4.2144   21.0974 F   0  0  0  0  0  0
  -21.5632   -3.4535   25.7733 F   0  0  0  0  0  0
  -30.0313  -13.3389   20.4447 N   0  0  0  0  0  0
  -26.3011  -12.9329   20.3324 N   0  0  0  0  0  0
  -25.9322  -11.6485   20.5754 N   0  0  0  0  0  0
  -22.0497  -12.8233   22.0395 N   0  0  0  0  0  0
  -25.4211  -15.1833   20.3933 N   0  0  0  0  0  0
  -31.8290  -14.6636   20.1237 O   0  0  0  0  0  0
  -21.6640   -6.8868   21.4233 O   0  0  0  0  0  0
  -22.3538  -14.5537   20.6689 O   0  0  0  0  0  0
  -24.6188  -31.8657   23.2083 C   0  0  0  0  0  0
  -25.9063  -32.4811   23.8387 C   0  0  1  0  0  0
  -27.2302  -27.3963   20.0900 C   0  0  0  0  0  0
  -25.5902  -33.8613   24.2317 N   0  0  0  0  0  0
  -23.4067  -30.4912   21.5516 C   0  0  2  0  0  0
  -24.8509  -28.9564   20.1139 C   0  0  0  0  0  0
  -22.7414  -29.4656   22.4983 C   0  0  0  0  0  0
  -18.0265  -28.1374   22.8493 C   0  0  0  0  0  0
  -24.1487  -36.7313   23.2637 C   0  0  0  0  0  0
  -25.9410  -30.8200   21.3663 C   0  0  0  0  0  0
  -26.0160  -29.4528   20.7114 C   0  0  0  0  0  0
  -27.2060  -28.6804   20.6967 C   0  0  0  0  0  0
  -26.0350  -26.9262   19.4921 C   0  0  0  0  0  0
  -24.8574  -27.6941   19.5020 C   0  0  0  0  0  0
  -23.6152  -29.8268   20.1663 C   0  0  0  0  0  0
  -25.4108  -36.3105   24.0337 C   0  0  1  0  0  0
  -20.5861  -28.3673   23.1310 C   0  0  2  0  0  0
  -20.6756  -26.9405   22.5418 C   0  0  0  0  0  0
  -19.5736  -26.6386   21.5214 C   0  0  0  0  0  0
  -18.1914  -26.7918   22.1622 C   0  0  0  0  0  0
  -19.1515  -28.8838   23.2898 C   0  0  0  0  0  0
  -18.9444  -30.1441   23.8920 C   0  0  0  0  0  0
  -17.6447  -30.6585   24.0565 C   0  0  0  0  0  0
  -25.9036  -34.9475   23.5130 C   0  0  0  0  0  0
  -16.5339  -29.9086   23.6327 C   0  0  0  0  0  0
  -16.7254  -28.6494   23.0361 C   0  0  0  0  0  0
  -26.4477  -31.6588   25.0724 C   0  0  0  0  0  0
  -25.3732  -31.3694   26.1461 C   0  0  0  0  0  0
  -27.0300  -30.3021   24.6115 C   0  0  0  0  0  0
  -27.6049  -32.4298   25.7490 C   0  0  0  0  0  0
  -27.5584  -37.1809   24.8461 C   0  0  0  0  0  0
  -21.4139  -29.3040   22.3718 N   0  0  0  0  0  0
  -26.4296  -37.3791   23.9410 N   0  0  0  0  0  0
  -24.6746  -31.0730   22.1000 N   0  0  0  0  0  0
  -23.4167  -28.8183   23.3026 O   0  0  0  0  0  0
  -28.3919  -26.6308   20.1176 O   0  0  0  0  0  0
  -26.5604  -34.8934   22.4693 O   0  0  0  0  0  0
  -23.5373  -32.1430   23.7457 O   0  0  0  0  0  0
  -26.9874  -18.8557   20.8338 C   0  0  0  0  0  0
  -27.9221  -17.8103   20.8463 C   0  0  0  0  0  0
  -27.4215  -20.1843   20.7456 C   0  0  0  0  0  0
  -29.3117  -18.0515   20.7551 C   0  0  0  0  0  0
  -29.7606  -19.4258   20.6964 C   0  0  0  0  0  0
  -28.7971  -20.5014   20.6864 C   0  0  0  0  0  0
  -30.1950  -16.8216   20.6444 C   0  0  0  0  0  0
  -28.3551  -25.3078   19.6985 C   0  0  0  0  0  0
  -31.2283  -19.7266   20.7061 C   0  0  0  0  0  0
  -28.7962  -24.2490   20.4245 C   0  0  0  0  0  0
  -28.6454  -22.8760   19.9027 C   0  0  0  0  0  0
  -31.7442  -20.7567   19.7083 C   0  0  0  0  0  0
  -29.8393  -15.6090   20.9220 N   0  0  0  0  0  0
  -29.1214  -21.9098   20.7259 N   0  0  0  0  0  0
  -32.0370  -19.1631   21.4492 O   0  0  0  0  0  0
  -28.1452  -22.6018   18.8078 O   0  0  0  0  0  0
  -29.3454  -24.4498   21.6329 O   0  0  0  0  0  0
  -31.4758  -12.4227   19.1472 H   0  0  0  0  0  0
  -30.3264  -11.3281   19.8616 H   0  0  0  0  0  0
  -29.7590  -11.7757   17.4513 H   0  0  0  0  0  0
  -29.6698  -13.4889   17.7732 H   0  0  0  0  0  0
  -27.8426  -11.3055   18.8303 H   0  0  0  0  0  0
  -27.3790  -12.6220   17.7852 H   0  0  0  0  0  0
  -27.6931  -14.2569   19.5570 H   0  0  0  0  0  0
  -28.6849  -12.0022   21.3641 H   0  0  0  0  0  0
  -28.4549  -13.6551   21.8518 H   0  0  0  0  0  0
  -25.2747   -9.5690   22.4756 H   0  0  0  0  0  0
  -23.9988   -7.4639   22.7481 H   0  0  0  0  0  0
  -21.0829   -8.8750   19.8954 H   0  0  0  0  0  0
  -22.3672  -10.9655   19.6155 H   0  0  0  0  0  0
  -21.2006   -7.6143   23.9707 H   0  0  0  0  0  0
  -21.1488   -6.0520   25.9069 H   0  0  0  0  0  0
  -22.0600   -2.7606   23.2842 H   0  0  0  0  0  0
  -22.4111  -11.9889   22.4778 H   0  0  0  0  0  0
  -21.1120  -13.1263   22.2615 H   0  0  0  0  0  0
  -24.6501  -15.8361   20.4808 H   0  0  0  0  0  0
  -26.2652  -15.6038   20.0279 H   0  0  0  0  0  0
  -26.7130  -32.5501   23.1140 H   0  0  0  0  0  0
  -25.0039  -33.9769   25.0454 H   0  0  0  0  0  0
  -22.6979  -31.3103   21.4133 H   0  0  0  0  0  0
  -23.3758  -35.9639   23.3297 H   0  0  0  0  0  0
  -24.3581  -36.8932   22.2051 H   0  0  0  0  0  0
  -23.7234  -37.6517   23.6654 H   0  0  0  0  0  0
  -26.0588  -31.5857   20.5986 H   0  0  0  0  0  0
  -26.8266  -30.8707   21.9882 H   0  0  0  0  0  0
  -28.1045  -29.0609   21.1624 H   0  0  0  0  0  0
  -25.9757  -25.9578   19.0191 H   0  0  0  0  0  0
  -23.9600  -27.3038   19.0417 H   0  0  0  0  0  0
  -23.7251  -30.6034   19.4089 H   0  0  0  0  0  0
  -22.7375  -29.2491   19.8710 H   0  0  0  0  0  0
  -25.1286  -36.1977   25.0833 H   0  0  0  0  0  0
  -20.9949  -28.3239   24.1431 H   0  0  0  0  0  0
  -20.5652  -26.2283   23.3604 H   0  0  0  0  0  0
  -21.6627  -26.7429   22.1218 H   0  0  0  0  0  0
  -19.6903  -25.6295   21.1238 H   0  0  0  0  0  0
  -19.6693  -27.3201   20.6745 H   0  0  0  0  0  0
  -17.4187  -26.6677   21.4018 H   0  0  0  0  0  0
  -18.0310  -26.0049   22.9008 H   0  0  0  0  0  0
  -19.7925  -30.7243   24.2308 H   0  0  0  0  0  0
  -17.5010  -31.6275   24.5146 H   0  0  0  0  0  0
  -15.5343  -30.3005   23.7635 H   0  0  0  0  0  0
  -15.8650  -28.0817   22.7088 H   0  0  0  0  0  0
  -24.5934  -30.7006   25.7788 H   0  0  0  0  0  0
  -24.8896  -32.2848   26.4885 H   0  0  0  0  0  0
  -25.8086  -30.8886   27.0230 H   0  0  0  0  0  0
  -26.2850  -29.6790   24.1151 H   0  0  0  0  0  0
  -27.4031  -29.7243   25.4579 H   0  0  0  0  0  0
  -27.8700  -30.4319   23.9289 H   0  0  0  0  0  0
  -27.2674  -33.3590   26.2099 H   0  0  0  0  0  0
  -28.3853  -32.6871   25.0313 H   0  0  0  0  0  0
  -28.0733  -31.8404   26.5386 H   0  0  0  0  0  0
  -28.2595  -38.0111   24.7514 H   0  0  0  0  0  0
  -28.1085  -36.2646   24.6275 H   0  0  0  0  0  0
  -27.2303  -37.1433   25.8863 H   0  0  0  0  0  0
  -20.9295  -29.8781   21.6965 H   0  0  0  0  0  0
  -26.0188  -38.2870   24.1419 H   0  0  0  0  0  0
  -25.9300  -18.6373   20.8918 H   0  0  0  0  0  0
  -27.5510  -16.7982   20.9065 H   0  0  0  0  0  0
  -26.6769  -20.9685   20.7555 H   0  0  0  0  0  0
  -31.1936  -17.0211   20.2444 H   0  0  0  0  0  0
  -27.9316  -25.2005   18.7081 H   0  0  0  0  0  0
  -31.0627  -20.8531   18.8637 H   0  0  0  0  0  0
  -32.7211  -20.4578   19.3299 H   0  0  0  0  0  0
  -31.8439  -21.7288   20.1894 H   0  0  0  0  0  0
  -29.6098  -22.2609   21.5406 H   0  0  0  0  0  0
  -29.3280  -25.3861   21.7869 H   0  0  0  0  0  0
  1 25  1  0  0  0
  1 30  2  0  0  0
  1 83  1  0  0  0
  2  3  1  0  0  0
  2 25  1  0  0  0
  2 88  1  0  0  0
  2 89  1  0  0  0
  3  4  1  0  0  0
  3 90  1  0  0  0
  3 91  1  0  0  0
  4  5  1  0  0  0
  4 92  1  0  0  0
  4 93  1  0  0  0
  5  6  1  0  0  0
  5 26  1  0  0  0
  5 94  1  0  0  0
  6 25  1  0  0  0
  6 95  1  0  0  0
  6 96  1  0  0  0
  7  8  2  0  0  0
  7 26  1  0  0  0
  7 29  1  0  0  0
  8  9  1  0  0  0
  8 22  1  0  0  0
  9 10  1  0  0  0
  9 27  2  0  0  0
 10 11  2  0  0  0
 10 15  1  0  0  0
 11 12  1  0  0  0
 11 97  1  0  0  0
 12 13  2  0  0  0
 12 98  1  0  0  0
 13 14  1  0  0  0
 13 31  1  0  0  0
 14 15  2  0  0  0
 14 99  1  0  0  0
 15100  1  0  0  0
 16 17  2  0  0  0
 16 21  1  0  0  0
 16 31  1  0  0  0
 17 18  1  0  0  0
 17101  1  0  0  0
 18 19  2  0  0  0
 18102  1  0  0  0
 19 20  1  0  0  0
 19 24  1  0  0  0
 20 21  2  0  0  0
 20103  1  0  0  0
 21 23  1  0  0  0
 22 28  1  0  0  0
 22 32  2  0  0  0
 26 27  1  0  0  0
 28104  1  0  0  0
 28105  1  0  0  0
 29106  1  0  0  0
 29107  1  0  0  0
 33 34  1  0  0  0
 33 66  1  0  0  0
 33 70  2  0  0  0
 34 36  1  0  0  0
 34 59  1  0  0  0
 34108  1  0  0  0
 35 44  2  0  0  0
 35 45  1  0  0  0
 35 68  1  0  0  0
 36 56  1  0  0  0
 36109  1  0  0  0
 37 39  1  0  0  0
 37 47  1  0  0  0
 37 66  1  0  0  0
 37110  1  0  0  0
 38 43  2  0  0  0
 38 46  1  0  0  0
 38 47  1  0  0  0
 39 64  1  0  0  0
 39 67  2  0  0  0
 40 52  1  0  0  0
 40 53  2  0  0  0
 40 58  1  0  0  0
 41111  1  0  0  0
 41112  1  0  0  0
 41113  1  0  0  0
 41 48  1  0  0  0
 42 43  1  0  0  0
 42 66  1  0  0  0
 42114  1  0  0  0
 42115  1  0  0  0
 43 44  1  0  0  0
 44116  1  0  0  0
 45 46  2  0  0  0
 45117  1  0  0  0
 46118  1  0  0  0
 47119  1  0  0  0
 47120  1  0  0  0
 48 56  1  0  0  0
 48 65  1  0  0  0
 48121  1  0  0  0
 49 50  1  0  0  0
 49 53  1  0  0  0
 49 64  1  0  0  0
 49122  1  0  0  0
 50 51  1  0  0  0
 50123  1  0  0  0
 50124  1  0  0  0
 51 52  1  0  0  0
 51125  1  0  0  0
 51126  1  0  0  0
 52127  1  0  0  0
 52128  1  0  0  0
 53 54  1  0  0  0
 54 55  2  0  0  0
 54129  1  0  0  0
 55 57  1  0  0  0
 55130  1  0  0  0
 56 69  2  0  0  0
 57 58  2  0  0  0
 57131  1  0  0  0
 58132  1  0  0  0
 59 60  1  0  0  0
 59 61  1  0  0  0
 59 62  1  0  0  0
 60133  1  0  0  0
 60134  1  0  0  0
 60135  1  0  0  0
 61136  1  0  0  0
 61137  1  0  0  0
 61138  1  0  0  0
 62139  1  0  0  0
 62140  1  0  0  0
 62141  1  0  0  0
 63 65  1  0  0  0
 63142  1  0  0  0
 63143  1  0  0  0
 63144  1  0  0  0
 64145  1  0  0  0
 65146  1  0  0  0
 68 78  1  0  0  0
 71 72  2  0  0  0
 71 73  1  0  0  0
 71147  1  0  0  0
 72 74  1  0  0  0
 72148  1  0  0  0
 73 76  2  0  0  0
 73149  1  0  0  0
 74 75  2  0  0  0
 74 77  1  0  0  0
 75 76  1  0  0  0
 75 79  1  0  0  0
 76 84  1  0  0  0
 77 83  2  0  0  0
 77150  1  0  0  0
 78 80  2  0  0  0
 78151  1  0  0  0
 79 82  1  0  0  0
 79 85  2  0  0  0
 80 81  1  0  0  0
 80 87  1  0  0  0
 81 84  1  0  0  0
 81 86  2  0  0  0
 82152  1  0  0  0
 82153  1  0  0  0
 82154  1  0  0  0
 84155  1  0  0  0
 87156  1  0  0  0
M  ISO  4   1 100  68 101  78 101  83 100
M  END
> <chiral flag>
0

> <version>
0

> <s_m_source_file>
/data/baiqing/PycharmProjects/Reinvent-master-3.2/result/LINK_invent/BTK/process_docking_weight1_custom_product_contain_oxygen_bond_distance_aromatic_linkinvent_7_9_3/rearranged_h_0170.sdf

> <i_m_source_file_index>
14

> <r_mmod_Potential_Energy-OPLS-2005>
-20.3057079315186

> <r_mmod_Stretch_Energy-OPLS-2005>
58.400146484375

> <r_mmod_Bend_Energy-OPLS-2005>
106.35326385498

> <r_mmod_Torsional_Energy-OPLS-2005>
231.012466430664

> <r_mmod_Improper_Torsional_Energy-OPLS-2005>
5.9934229850769

> <r_mmod_Van_der_Waal_Energy-OPLS-2005>
179.768661499023

> <r_mmod_Electrostatic_Energy-OPLS-2005>
-418.694915771484

> <r_mmod_Solvation_Energy-OPLS-2005>
-204.969085693359

> <b_mmod_Minimization_Converged-OPLS-2005>
0

> <r_mmod_RMS_Derivative-OPLS-2005>
1.20238435268402

$$$$
14
                    3D
 Structure written by MMmdl.
156164  0  0  1  0            999 V2000
  -30.5777  -14.8135   20.4534 C   0  0  0  0  0  0
  -30.4378  -12.5048   19.4666 C   0  0  0  0  0  0
  -29.5101  -12.5108   18.2313 C   0  0  0  0  0  0
  -28.0390  -12.3184   18.6520 C   0  0  0  0  0  0
  -27.6337  -13.2333   19.8386 C   0  0  2  0  0  0
  -28.6806  -13.2026   20.9711 C   0  0  0  0  0  0
  -25.2482  -13.8185   20.5683 C   0  0  0  0  0  0
  -24.1785  -13.0430   20.9211 C   0  0  0  0  0  0
  -24.6386  -11.6911   20.8746 C   0  0  0  0  0  0
  -23.9071  -10.4286   21.0409 C   0  0  0  0  0  0
  -24.3621   -9.4202   21.9185 C   0  0  0  0  0  0
  -23.6293   -8.2240   22.0753 C   0  0  0  0  0  0
  -22.4277   -8.0278   21.3544 C   0  0  0  0  0  0
  -21.9915   -9.0251   20.4645 C   0  0  0  0  0  0
  -22.7244  -10.2128   20.3056 C   0  0  0  0  0  0
  -21.6855   -6.0731   22.5279 C   0  0  0  0  0  0
  -21.4015   -6.5638   23.8210 C   0  0  0  0  0  0
  -21.3659   -5.6792   24.9171 C   0  0  0  0  0  0
  -21.6043   -4.3053   24.7223 C   0  0  0  0  0  0
  -21.8821   -3.8144   23.4347 C   0  0  0  0  0  0
  -21.9195   -4.6960   22.3404 C   0  0  0  0  0  0
  -22.7813  -13.5216   21.1875 C   0  0  0  0  0  0
  -22.1660   -4.2146   21.0980 F   0  0  0  0  0  0
  -21.5628   -3.4537   25.7737 F   0  0  0  0  0  0
  -29.9669  -13.5778   20.3738 N   0  0  0  0  0  0
  -26.2899  -12.9396   20.3235 N   0  0  0  0  0  0
  -25.9313  -11.6540   20.5735 N   0  0  0  0  0  0
  -22.0463  -12.8201   22.0429 N   0  0  0  0  0  0
  -25.4152  -15.1909   20.4085 N   0  0  0  0  0  0
  -31.7869  -14.8978   20.2174 O   0  0  0  0  0  0
  -21.6641   -6.8874   21.4242 O   0  0  0  0  0  0
  -22.3503  -14.5528   20.6730 O   0  0  0  0  0  0
  -24.6351  -31.8506   23.1944 C   0  0  0  0  0  0
  -25.9156  -32.4731   23.8306 C   0  0  1  0  0  0
  -27.2199  -27.2217   20.1486 C   0  0  0  0  0  0
  -25.5947  -33.8533   24.2234 N   0  0  0  0  0  0
  -23.4339  -30.4704   21.5382 C   0  0  2  0  0  0
  -24.8820  -28.9019   20.1191 C   0  0  0  0  0  0
  -22.7512  -29.4579   22.4905 C   0  0  0  0  0  0
  -18.0292  -28.1379   22.8483 C   0  0  0  0  0  0
  -24.1487  -36.7264   23.2641 C   0  0  0  0  0  0
  -25.9816  -30.7514   21.3788 C   0  0  0  0  0  0
  -26.0548  -29.3663   20.7296 C   0  0  0  0  0  0
  -27.2296  -28.5404   20.7283 C   0  0  0  0  0  0
  -26.0243  -26.8258   19.5181 C   0  0  0  0  0  0
  -24.8724  -27.6400   19.5024 C   0  0  0  0  0  0
  -23.6549  -29.7952   20.1584 C   0  0  0  0  0  0
  -25.4115  -36.3049   24.0326 C   0  0  1  0  0  0
  -20.5895  -28.3697   23.1252 C   0  0  2  0  0  0
  -20.6773  -26.9405   22.5405 C   0  0  0  0  0  0
  -19.5752  -26.6371   21.5204 C   0  0  0  0  0  0
  -18.1931  -26.7926   22.1611 C   0  0  0  0  0  0
  -19.1546  -28.8853   23.2865 C   0  0  0  0  0  0
  -18.9468  -30.1454   23.8882 C   0  0  0  0  0  0
  -17.6469  -30.6585   24.0554 C   0  0  0  0  0  0
  -25.9063  -34.9425   23.5079 C   0  0  0  0  0  0
  -16.5358  -29.9079   23.6336 C   0  0  0  0  0  0
  -16.7277  -28.6491   23.0364 C   0  0  0  0  0  0
  -26.4516  -31.6575   25.0711 C   0  0  0  0  0  0
  -25.3733  -31.3732   26.1425 C   0  0  0  0  0  0
  -27.0378  -30.2987   24.6229 C   0  0  0  0  0  0
  -27.6064  -32.4324   25.7486 C   0  0  0  0  0  0
  -27.5579  -37.1776   24.8461 C   0  0  0  0  0  0
  -21.4217  -29.3042   22.3641 N   0  0  0  0  0  0
  -26.4277  -37.3762   23.9426 N   0  0  0  0  0  0
  -24.7028  -31.0445   22.0929 N   0  0  0  0  0  0
  -23.4193  -28.8124   23.3022 O   0  0  0  0  0  0
  -28.3131  -26.3196   20.0973 O   0  0  0  0  0  0
  -26.5638  -34.8911   22.4649 O   0  0  0  0  0  0
  -23.5490  -32.1338   23.7222 O   0  0  0  0  0  0
  -30.6541  -20.0863   21.7237 C   0  0  0  0  0  0
  -31.0707  -17.6622   21.7687 C   0  0  0  0  0  0
  -29.3504  -18.5943   20.3043 C   0  0  0  0  0  0
  -29.6400  -19.9733   20.7464 C   0  0  0  0  0  0
  -30.0635  -17.4030   20.8143 C   0  0  0  0  0  0
  -31.3526  -18.9672   22.2177 C   0  0  0  0  0  0
  -28.2529  -24.9926   20.6492 C   0  0  0  0  0  0
  -28.7001  -23.7807   20.1068 C   0  0  0  0  0  0
  -28.7621  -22.4621   20.8768 C   0  0  0  0  0  0
  -28.8102  -18.1156   17.8691 C   0  0  0  0  0  0
  -28.2533  -18.3860   19.2719 C   0  0  0  0  0  0
  -29.0813  -21.2705   20.2121 N   0  0  0  0  0  0
  -29.7693  -15.9592   20.5057 N   0  0  0  0  0  0
  -28.5335  -22.4205   22.0880 O   0  0  0  0  0  0
  -29.1480  -23.7785   18.8437 O   0  0  0  0  0  0
  -32.3216  -19.1503   23.1462 F   0  0  0  0  0  0
  -31.4740  -12.6548   19.1586 H   0  0  0  0  0  0
  -30.4097  -11.5370   19.9698 H   0  0  0  0  0  0
  -29.8049  -11.7267   17.5325 H   0  0  0  0  0  0
  -29.6173  -13.4552   17.6948 H   0  0  0  0  0  0
  -27.9133  -11.2720   18.9343 H   0  0  0  0  0  0
  -27.3767  -12.4833   17.8012 H   0  0  0  0  0  0
  -27.6133  -14.2460   19.4355 H   0  0  0  0  0  0
  -28.7373  -12.2134   21.4279 H   0  0  0  0  0  0
  -28.4071  -13.8963   21.7684 H   0  0  0  0  0  0
  -25.2763   -9.5683   22.4759 H   0  0  0  0  0  0
  -23.9997   -7.4633   22.7476 H   0  0  0  0  0  0
  -21.0843   -8.8772   19.8952 H   0  0  0  0  0  0
  -22.3702  -10.9666   19.6164 H   0  0  0  0  0  0
  -21.2004   -7.6145   23.9712 H   0  0  0  0  0  0
  -21.1479   -6.0521   25.9073 H   0  0  0  0  0  0
  -22.0602   -2.7606   23.2846 H   0  0  0  0  0  0
  -22.4087  -11.9857   22.4800 H   0  0  0  0  0  0
  -21.1085  -13.1230   22.2653 H   0  0  0  0  0  0
  -24.6419  -15.8383   20.5134 H   0  0  0  0  0  0
  -26.2507  -15.6307   20.0499 H   0  0  0  0  0  0
  -26.7220  -32.5369   23.1047 H   0  0  0  0  0  0
  -25.0129  -33.9661   25.0404 H   0  0  0  0  0  0
  -22.7334  -31.2939   21.3859 H   0  0  0  0  0  0
  -23.3766  -35.9577   23.3277 H   0  0  0  0  0  0
  -24.3585  -36.8914   22.2061 H   0  0  0  0  0  0
  -23.7212  -37.6444   23.6683 H   0  0  0  0  0  0
  -26.1240  -31.5051   20.6035 H   0  0  0  0  0  0
  -26.8574  -30.8055   22.0135 H   0  0  0  0  0  0
  -28.1348  -28.8971   21.1988 H   0  0  0  0  0  0
  -25.9797  -25.8578   19.0394 H   0  0  0  0  0  0
  -23.9740  -27.2790   19.0206 H   0  0  0  0  0  0
  -23.7845  -30.5660   19.3980 H   0  0  0  0  0  0
  -22.7727  -29.2294   19.8526 H   0  0  0  0  0  0
  -25.1298  -36.1881   25.0816 H   0  0  0  0  0  0
  -20.9988  -28.3269   24.1373 H   0  0  0  0  0  0
  -20.5649  -26.2314   23.3622 H   0  0  0  0  0  0
  -21.6641  -26.7404   22.1209 H   0  0  0  0  0  0
  -19.6913  -25.6277   21.1242 H   0  0  0  0  0  0
  -19.6689  -27.3171   20.6725 H   0  0  0  0  0  0
  -17.4202  -26.6681   21.4009 H   0  0  0  0  0  0
  -18.0331  -26.0059   22.8996 H   0  0  0  0  0  0
  -19.7947  -30.7273   24.2241 H   0  0  0  0  0  0
  -17.5026  -31.6265   24.5154 H   0  0  0  0  0  0
  -15.5360  -30.2979   23.7674 H   0  0  0  0  0  0
  -15.8676  -28.0799   22.7103 H   0  0  0  0  0  0
  -24.5938  -30.7042   25.7763 H   0  0  0  0  0  0
  -24.8896  -32.2899   26.4806 H   0  0  0  0  0  0
  -25.8057  -30.8955   27.0225 H   0  0  0  0  0  0
  -26.2968  -29.6716   24.1257 H   0  0  0  0  0  0
  -27.4050  -29.7276   25.4769 H   0  0  0  0  0  0
  -27.8850  -30.4261   23.9488 H   0  0  0  0  0  0
  -27.2668  -33.3643   26.2016 H   0  0  0  0  0  0
  -28.3901  -32.6843   25.0330 H   0  0  0  0  0  0
  -28.0702  -31.8476   26.5439 H   0  0  0  0  0  0
  -28.2559  -38.0110   24.7562 H   0  0  0  0  0  0
  -28.1107  -36.2644   24.6210 H   0  0  0  0  0  0
  -27.2312  -37.1328   25.8865 H   0  0  0  0  0  0
  -20.9413  -29.8780   21.6849 H   0  0  0  0  0  0
  -26.0145  -38.2819   24.1471 H   0  0  0  0  0  0
  -30.9403  -21.0593   22.0954 H   0  0  0  0  0  0
  -31.6313  -16.8475   22.2023 H   0  0  0  0  0  0
  -27.8444  -25.0268   21.6508 H   0  0  0  0  0  0
  -28.0025  -17.9735   17.1510 H   0  0  0  0  0  0
  -29.4271  -17.2170   17.8535 H   0  0  0  0  0  0
  -29.4210  -18.9486   17.5199 H   0  0  0  0  0  0
  -27.5982  -19.2570   19.2444 H   0  0  0  0  0  0
  -27.6213  -17.5562   19.5885 H   0  0  0  0  0  0
  -29.0530  -21.3546   19.2044 H   0  0  0  0  0  0
  -28.7914  -15.7509   20.3824 H   0  0  0  0  0  0
  -29.0658  -24.6675   18.5214 H   0  0  0  0  0  0
  1 25  1  0  0  0
  1 30  2  0  0  0
  1 83  1  0  0  0
  2  3  1  0  0  0
  2 25  1  0  0  0
  2 87  1  0  0  0
  2 88  1  0  0  0
  3  4  1  0  0  0
  3 89  1  0  0  0
  3 90  1  0  0  0
  4  5  1  0  0  0
  4 91  1  0  0  0
  4 92  1  0  0  0
  5  6  1  0  0  0
  5 26  1  0  0  0
  5 93  1  0  0  0
  6 25  1  0  0  0
  6 94  1  0  0  0
  6 95  1  0  0  0
  7  8  2  0  0  0
  7 26  1  0  0  0
  7 29  1  0  0  0
  8  9  1  0  0  0
  8 22  1  0  0  0
  9 10  1  0  0  0
  9 27  2  0  0  0
 10 11  2  0  0  0
 10 15  1  0  0  0
 11 12  1  0  0  0
 11 96  1  0  0  0
 12 13  2  0  0  0
 12 97  1  0  0  0
 13 14  1  0  0  0
 13 31  1  0  0  0
 14 15  2  0  0  0
 14 98  1  0  0  0
 15 99  1  0  0  0
 16 17  2  0  0  0
 16 21  1  0  0  0
 16 31  1  0  0  0
 17 18  1  0  0  0
 17100  1  0  0  0
 18 19  2  0  0  0
 18101  1  0  0  0
 19 20  1  0  0  0
 19 24  1  0  0  0
 20 21  2  0  0  0
 20102  1  0  0  0
 21 23  1  0  0  0
 22 28  1  0  0  0
 22 32  2  0  0  0
 26 27  1  0  0  0
 28103  1  0  0  0
 28104  1  0  0  0
 29105  1  0  0  0
 29106  1  0  0  0
 33 34  1  0  0  0
 33 66  1  0  0  0
 33 70  2  0  0  0
 34 36  1  0  0  0
 34 59  1  0  0  0
 34107  1  0  0  0
 35 44  2  0  0  0
 35 45  1  0  0  0
 35 68  1  0  0  0
 36 56  1  0  0  0
 36108  1  0  0  0
 37 39  1  0  0  0
 37 47  1  0  0  0
 37 66  1  0  0  0
 37109  1  0  0  0
 38 43  2  0  0  0
 38 46  1  0  0  0
 38 47  1  0  0  0
 39 64  1  0  0  0
 39 67  2  0  0  0
 40 52  1  0  0  0
 40 53  2  0  0  0
 40 58  1  0  0  0
 41110  1  0  0  0
 41111  1  0  0  0
 41112  1  0  0  0
 41 48  1  0  0  0
 42 43  1  0  0  0
 42 66  1  0  0  0
 42113  1  0  0  0
 42114  1  0  0  0
 43 44  1  0  0  0
 44115  1  0  0  0
 45 46  2  0  0  0
 45116  1  0  0  0
 46117  1  0  0  0
 47118  1  0  0  0
 47119  1  0  0  0
 48 56  1  0  0  0
 48 65  1  0  0  0
 48120  1  0  0  0
 49 50  1  0  0  0
 49 53  1  0  0  0
 49 64  1  0  0  0
 49121  1  0  0  0
 50 51  1  0  0  0
 50122  1  0  0  0
 50123  1  0  0  0
 51 52  1  0  0  0
 51124  1  0  0  0
 51125  1  0  0  0
 52126  1  0  0  0
 52127  1  0  0  0
 53 54  1  0  0  0
 54 55  2  0  0  0
 54128  1  0  0  0
 55 57  1  0  0  0
 55129  1  0  0  0
 56 69  2  0  0  0
 57 58  2  0  0  0
 57130  1  0  0  0
 58131  1  0  0  0
 59 60  1  0  0  0
 59 61  1  0  0  0
 59 62  1  0  0  0
 60132  1  0  0  0
 60133  1  0  0  0
 60134  1  0  0  0
 61135  1  0  0  0
 61136  1  0  0  0
 61137  1  0  0  0
 62138  1  0  0  0
 62139  1  0  0  0
 62140  1  0  0  0
 63 65  1  0  0  0
 63141  1  0  0  0
 63142  1  0  0  0
 63143  1  0  0  0
 64144  1  0  0  0
 65145  1  0  0  0
 68 77  1  0  0  0
 71 74  2  0  0  0
 71 76  1  0  0  0
 71146  1  0  0  0
 72 75  1  0  0  0
 72 76  2  0  0  0
 72147  1  0  0  0
 73 74  1  0  0  0
 73 75  2  0  0  0
 73 81  1  0  0  0
 74 82  1  0  0  0
 75 83  1  0  0  0
 76 86  1  0  0  0
 77 78  2  0  0  0
 77148  1  0  0  0
 78 79  1  0  0  0
 78 85  1  0  0  0
 79 82  1  0  0  0
 79 84  2  0  0  0
 80 81  1  0  0  0
 80149  1  0  0  0
 80150  1  0  0  0
 80151  1  0  0  0
 81152  1  0  0  0
 81153  1  0  0  0
 82154  1  0  0  0
 83155  1  0  0  0
 85156  1  0  0  0
M  ISO  4   1 100  68 101  77 101  83 100
M  END
> <chiral flag>
0

> <version>
0

> <s_m_source_file>
/data/baiqing/PycharmProjects/Reinvent-master-3.2/result/LINK_invent/BTK/process_docking_weight1_custom_product_contain_oxygen_bond_distance_aromatic_linkinvent_7_9_3/rearranged_h_0170.sdf

> <i_m_source_file_index>
15

> <r_mmod_Potential_Energy-OPLS-2005>
215.113265991211

> <r_mmod_Stretch_Energy-OPLS-2005>
153.667678833008

> <r_mmod_Bend_Energy-OPLS-2005>
166.502197265625

> <r_mmod_Torsional_Energy-OPLS-2005>
257.409271240234

> <r_mmod_Improper_Torsional_Energy-OPLS-2005>
8.56374168395996

> <r_mmod_Van_der_Waal_Energy-OPLS-2005>
127.135719299316

> <r_mmod_Electrostatic_Energy-OPLS-2005>
-389.666717529297

> <r_mmod_Solvation_Energy-OPLS-2005>
-222.226974487305

> <b_mmod_Minimization_Converged-OPLS-2005>
0

> <r_mmod_RMS_Derivative-OPLS-2005>
0.911807954311371

$$$$
15
                    3D
 Structure written by MMmdl.
155163  0  0  1  0            999 V2000
  -30.7457  -14.5154   20.4583 C   0  0  0  0  0  0
  -30.4061  -12.3037   19.4676 C   0  0  0  0  0  0
  -29.4977  -12.4672   18.2315 C   0  0  0  0  0  0
  -28.0195  -12.3330   18.6428 C   0  0  0  0  0  0
  -27.6541  -13.2231   19.8627 C   0  0  2  0  0  0
  -28.6989  -13.1054   20.9988 C   0  0  0  0  0  0
  -25.2550  -13.8215   20.5692 C   0  0  0  0  0  0
  -24.1835  -13.0448   20.9181 C   0  0  0  0  0  0
  -24.6408  -11.6926   20.8733 C   0  0  0  0  0  0
  -23.9077  -10.4298   21.0424 C   0  0  0  0  0  0
  -24.3628   -9.4209   21.9204 C   0  0  0  0  0  0
  -23.6304   -8.2240   22.0765 C   0  0  0  0  0  0
  -22.4286   -8.0280   21.3562 C   0  0  0  0  0  0
  -21.9926   -9.0243   20.4648 C   0  0  0  0  0  0
  -22.7243  -10.2127   20.3076 C   0  0  0  0  0  0
  -21.6863   -6.0736   22.5271 C   0  0  0  0  0  0
  -21.4004   -6.5636   23.8203 C   0  0  0  0  0  0
  -21.3648   -5.6792   24.9167 C   0  0  0  0  0  0
  -21.6035   -4.3059   24.7226 C   0  0  0  0  0  0
  -21.8825   -3.8150   23.4363 C   0  0  0  0  0  0
  -21.9196   -4.6968   22.3399 C   0  0  0  0  0  0
  -22.7848  -13.5206   21.1811 C   0  0  0  0  0  0
  -22.1671   -4.2154   21.0983 F   0  0  0  0  0  0
  -21.5636   -3.4558   25.7746 F   0  0  0  0  0  0
  -30.0307  -13.3523   20.4332 N   0  0  0  0  0  0
  -26.2991  -12.9416   20.3339 N   0  0  0  0  0  0
  -25.9349  -11.6566   20.5820 N   0  0  0  0  0  0
  -22.0496  -12.8188   22.0373 N   0  0  0  0  0  0
  -25.4294  -15.1932   20.4109 N   0  0  0  0  0  0
  -31.9254  -14.5393   20.1021 O   0  0  0  0  0  0
  -21.6653   -6.8884   21.4238 O   0  0  0  0  0  0
  -22.3510  -14.5510   20.6660 O   0  0  0  0  0  0
  -24.6176  -31.8644   23.2083 C   0  0  0  0  0  0
  -25.9052  -32.4821   23.8366 C   0  0  1  0  0  0
  -27.2443  -27.4313   20.0909 C   0  0  0  0  0  0
  -25.5890  -33.8601   24.2307 N   0  0  0  0  0  0
  -23.4031  -30.4944   21.5457 C   0  0  2  0  0  0
  -24.8522  -28.9552   20.1155 C   0  0  0  0  0  0
  -22.7405  -29.4709   22.4981 C   0  0  0  0  0  0
  -18.0248  -28.1404   22.8474 C   0  0  0  0  0  0
  -24.1493  -36.7292   23.2641 C   0  0  0  0  0  0
  -25.9325  -30.8352   21.3571 C   0  0  0  0  0  0
  -26.0132  -29.4683   20.7059 C   0  0  0  0  0  0
  -27.2123  -28.7160   20.6863 C   0  0  0  0  0  0
  -26.0619  -26.9269   19.5069 C   0  0  0  0  0  0
  -24.8719  -27.6808   19.5211 C   0  0  0  0  0  0
  -23.6119  -29.8232   20.1630 C   0  0  0  0  0  0
  -25.4094  -36.3071   24.0357 C   0  0  1  0  0  0
  -20.5847  -28.3687   23.1295 C   0  0  2  0  0  0
  -20.6761  -26.9438   22.5405 C   0  0  0  0  0  0
  -19.5734  -26.6396   21.5217 C   0  0  0  0  0  0
  -18.1891  -26.7951   22.1599 C   0  0  0  0  0  0
  -19.1508  -28.8852   23.2886 C   0  0  0  0  0  0
  -18.9449  -30.1444   23.8930 C   0  0  0  0  0  0
  -17.6471  -30.6618   24.0568 C   0  0  0  0  0  0
  -25.9048  -34.9462   23.5119 C   0  0  0  0  0  0
  -16.5346  -29.9113   23.6354 C   0  0  0  0  0  0
  -16.7247  -28.6516   23.0378 C   0  0  0  0  0  0
  -26.4487  -31.6584   25.0688 C   0  0  0  0  0  0
  -25.3752  -31.3555   26.1423 C   0  0  0  0  0  0
  -27.0395  -30.3066   24.6017 C   0  0  0  0  0  0
  -27.6092  -32.4283   25.7440 C   0  0  0  0  0  0
  -27.5561  -37.1746   24.8456 C   0  0  0  0  0  0
  -21.4136  -29.3052   22.3698 N   0  0  0  0  0  0
  -26.4260  -37.3784   23.9438 N   0  0  0  0  0  0
  -24.6694  -31.0794   22.0949 N   0  0  0  0  0  0
  -23.4176  -28.8248   23.3042 O   0  0  0  0  0  0
  -28.4200  -26.7061   20.0597 O   0  0  0  0  0  0
  -26.5660  -34.8911   22.4713 O   0  0  0  0  0  0
  -23.5374  -32.1378   23.7502 O   0  0  0  0  0  0
  -30.6097  -20.3647   21.1652 C   0  0  0  0  0  0
  -31.0044  -18.9809   21.2167 C   0  0  0  0  0  0
  -30.1345  -18.1640   20.5176 C   0  0  0  0  0  0
  -29.4907  -20.6209   20.3947 C   0  0  0  0  0  0
  -32.2225  -18.4753   21.8710 C   0  0  0  0  0  0
  -30.3380  -16.8021   19.9554 C   0  0  0  0  0  0
  -29.4482  -23.0406   19.9908 C   0  0  0  0  0  0
  -33.4136  -19.4309   21.9830 C   0  0  0  0  0  0
  -28.5786  -24.2313   19.5054 C   0  0  0  0  0  0
  -28.3843  -25.3548   20.5693 C   0  0  0  0  0  0
  -28.8953  -21.8064   20.0500 N   0  0  0  0  0  0
  -30.0712  -15.6730   20.6667 N   0  0  0  0  0  0
  -32.3678  -17.3271   22.2974 O   0  0  0  0  0  0
  -30.7909  -16.7739   18.8048 O   0  0  0  0  0  0
  -30.6295  -23.2503   20.2750 O   0  0  0  0  0  0
  -28.8296  -19.1008   19.8148 S   0  0  0  0  0  0
  -31.4590  -12.3443   19.1734 H   0  0  0  0  0  0
  -30.2712  -11.3223   19.9219 H   0  0  0  0  0  0
  -29.7486  -11.7163   17.4780 H   0  0  0  0  0  0
  -29.6655  -13.4407   17.7690 H   0  0  0  0  0  0
  -27.8348  -11.2837   18.8794 H   0  0  0  0  0  0
  -27.3702  -12.5656   17.7979 H   0  0  0  0  0  0
  -27.6713  -14.2529   19.5030 H   0  0  0  0  0  0
  -28.6685  -12.1108   21.4440 H   0  0  0  0  0  0
  -28.4756  -13.8114   21.7997 H   0  0  0  0  0  0
  -25.2800   -9.5668   22.4762 H   0  0  0  0  0  0
  -24.0002   -7.4646   22.7513 H   0  0  0  0  0  0
  -21.0849   -8.8750   19.8973 H   0  0  0  0  0  0
  -22.3713  -10.9651   19.6171 H   0  0  0  0  0  0
  -21.1987   -7.6147   23.9690 H   0  0  0  0  0  0
  -21.1460   -6.0541   25.9055 H   0  0  0  0  0  0
  -22.0623   -2.7622   23.2861 H   0  0  0  0  0  0
  -22.4142  -11.9814   22.4674 H   0  0  0  0  0  0
  -21.1126  -13.1209   22.2660 H   0  0  0  0  0  0
  -24.6657  -15.8533   20.5124 H   0  0  0  0  0  0
  -26.2854  -15.6238   20.0810 H   0  0  0  0  0  0
  -26.7127  -32.5576   23.1143 H   0  0  0  0  0  0
  -25.0042  -33.9817   25.0450 H   0  0  0  0  0  0
  -22.6959  -31.3119   21.4034 H   0  0  0  0  0  0
  -23.3788  -35.9598   23.3281 H   0  0  0  0  0  0
  -24.3568  -36.8941   22.2054 H   0  0  0  0  0  0
  -23.7232  -37.6463   23.6723 H   0  0  0  0  0  0
  -26.0420  -31.5986   20.5841 H   0  0  0  0  0  0
  -26.8260  -30.8957   21.9682 H   0  0  0  0  0  0
  -28.1115  -29.1100   21.1401 H   0  0  0  0  0  0
  -26.0656  -25.9594   19.0289 H   0  0  0  0  0  0
  -23.9769  -27.2772   19.0732 H   0  0  0  0  0  0
  -23.7160  -30.5992   19.4029 H   0  0  0  0  0  0
  -22.7347  -29.2426   19.8758 H   0  0  0  0  0  0
  -25.1242  -36.1924   25.0861 H   0  0  0  0  0  0
  -20.9927  -28.3282   24.1422 H   0  0  0  0  0  0
  -20.5688  -26.2313   23.3590 H   0  0  0  0  0  0
  -21.6623  -26.7514   22.1179 H   0  0  0  0  0  0
  -19.6960  -25.6311   21.1226 H   0  0  0  0  0  0
  -19.6705  -27.3223   20.6776 H   0  0  0  0  0  0
  -17.4188  -26.6697   21.3989 H   0  0  0  0  0  0
  -18.0273  -26.0096   22.9006 H   0  0  0  0  0  0
  -19.7951  -30.7170   24.2383 H   0  0  0  0  0  0
  -17.5064  -31.6337   24.5082 H   0  0  0  0  0  0
  -15.5355  -30.3008   23.7733 H   0  0  0  0  0  0
  -15.8627  -28.0834   22.7128 H   0  0  0  0  0  0
  -24.6033  -30.6808   25.7679 H   0  0  0  0  0  0
  -24.8828  -32.2617   26.4958 H   0  0  0  0  0  0
  -25.8134  -30.8669   27.0141 H   0  0  0  0  0  0
  -26.2924  -29.6660   24.1333 H   0  0  0  0  0  0
  -27.4513  -29.7467   25.4423 H   0  0  0  0  0  0
  -27.8574  -30.4430   23.8951 H   0  0  0  0  0  0
  -27.2836  -33.3665   26.1976 H   0  0  0  0  0  0
  -28.3934  -32.6738   25.0252 H   0  0  0  0  0  0
  -28.0768  -31.8398   26.5342 H   0  0  0  0  0  0
  -28.2521  -38.0103   24.7626 H   0  0  0  0  0  0
  -28.1122  -36.2645   24.6176 H   0  0  0  0  0  0
  -27.2309  -37.1268   25.8862 H   0  0  0  0  0  0
  -20.9333  -29.8744   21.6877 H   0  0  0  0  0  0
  -26.0136  -38.2844   24.1523 H   0  0  0  0  0  0
  -31.2022  -21.1260   21.6569 H   0  0  0  0  0  0
  -33.4273  -20.1503   21.1643 H   0  0  0  0  0  0
  -34.3496  -18.8710   21.9308 H   0  0  0  0  0  0
  -33.4002  -19.9704   22.9313 H   0  0  0  0  0  0
  -27.6116  -23.8838   19.1378 H   0  0  0  0  0  0
  -29.0852  -24.6515   18.6350 H   0  0  0  0  0  0
  -29.1731  -25.2881   21.3214 H   0  0  0  0  0  0
  -27.4676  -25.1713   21.1261 H   0  0  0  0  0  0
  -27.9419  -21.7417   19.7205 H   0  0  0  0  0  0
  -29.3446  -15.6972   21.3624 H   0  0  0  0  0  0
  1 25  1  0  0  0
  1 30  2  0  0  0
  1 82  1  0  0  0
  2  3  1  0  0  0
  2 25  1  0  0  0
  2 87  1  0  0  0
  2 88  1  0  0  0
  3  4  1  0  0  0
  3 89  1  0  0  0
  3 90  1  0  0  0
  4  5  1  0  0  0
  4 91  1  0  0  0
  4 92  1  0  0  0
  5  6  1  0  0  0
  5 26  1  0  0  0
  5 93  1  0  0  0
  6 25  1  0  0  0
  6 94  1  0  0  0
  6 95  1  0  0  0
  7  8  2  0  0  0
  7 26  1  0  0  0
  7 29  1  0  0  0
  8  9  1  0  0  0
  8 22  1  0  0  0
  9 10  1  0  0  0
  9 27  2  0  0  0
 10 11  2  0  0  0
 10 15  1  0  0  0
 11 12  1  0  0  0
 11 96  1  0  0  0
 12 13  2  0  0  0
 12 97  1  0  0  0
 13 14  1  0  0  0
 13 31  1  0  0  0
 14 15  2  0  0  0
 14 98  1  0  0  0
 15 99  1  0  0  0
 16 17  2  0  0  0
 16 21  1  0  0  0
 16 31  1  0  0  0
 17 18  1  0  0  0
 17100  1  0  0  0
 18 19  2  0  0  0
 18101  1  0  0  0
 19 20  1  0  0  0
 19 24  1  0  0  0
 20 21  2  0  0  0
 20102  1  0  0  0
 21 23  1  0  0  0
 22 28  1  0  0  0
 22 32  2  0  0  0
 26 27  1  0  0  0
 28103  1  0  0  0
 28104  1  0  0  0
 29105  1  0  0  0
 29106  1  0  0  0
 33 34  1  0  0  0
 33 66  1  0  0  0
 33 70  2  0  0  0
 34 36  1  0  0  0
 34 59  1  0  0  0
 34107  1  0  0  0
 35 44  2  0  0  0
 35 45  1  0  0  0
 35 68  1  0  0  0
 36 56  1  0  0  0
 36108  1  0  0  0
 37 39  1  0  0  0
 37 47  1  0  0  0
 37 66  1  0  0  0
 37109  1  0  0  0
 38 43  2  0  0  0
 38 46  1  0  0  0
 38 47  1  0  0  0
 39 64  1  0  0  0
 39 67  2  0  0  0
 40 52  1  0  0  0
 40 53  2  0  0  0
 40 58  1  0  0  0
 41110  1  0  0  0
 41111  1  0  0  0
 41112  1  0  0  0
 41 48  1  0  0  0
 42 43  1  0  0  0
 42 66  1  0  0  0
 42113  1  0  0  0
 42114  1  0  0  0
 43 44  1  0  0  0
 44115  1  0  0  0
 45 46  2  0  0  0
 45116  1  0  0  0
 46117  1  0  0  0
 47118  1  0  0  0
 47119  1  0  0  0
 48 56  1  0  0  0
 48 65  1  0  0  0
 48120  1  0  0  0
 49 50  1  0  0  0
 49 53  1  0  0  0
 49 64  1  0  0  0
 49121  1  0  0  0
 50 51  1  0  0  0
 50122  1  0  0  0
 50123  1  0  0  0
 51 52  1  0  0  0
 51124  1  0  0  0
 51125  1  0  0  0
 52126  1  0  0  0
 52127  1  0  0  0
 53 54  1  0  0  0
 54 55  2  0  0  0
 54128  1  0  0  0
 55 57  1  0  0  0
 55129  1  0  0  0
 56 69  2  0  0  0
 57 58  2  0  0  0
 57130  1  0  0  0
 58131  1  0  0  0
 59 60  1  0  0  0
 59 61  1  0  0  0
 59 62  1  0  0  0
 60132  1  0  0  0
 60133  1  0  0  0
 60134  1  0  0  0
 61135  1  0  0  0
 61136  1  0  0  0
 61137  1  0  0  0
 62138  1  0  0  0
 62139  1  0  0  0
 62140  1  0  0  0
 63 65  1  0  0  0
 63141  1  0  0  0
 63142  1  0  0  0
 63143  1  0  0  0
 64144  1  0  0  0
 65145  1  0  0  0
 68 80  1  0  0  0
 71 72  1  0  0  0
 71 74  2  0  0  0
 71146  1  0  0  0
 72 73  2  0  0  0
 72 75  1  0  0  0
 73 76  1  0  0  0
 73 86  1  0  0  0
 74 81  1  0  0  0
 74 86  1  0  0  0
 75 78  1  0  0  0
 75 83  2  0  0  0
 76 82  1  0  0  0
 76 84  2  0  0  0
 77 79  1  0  0  0
 77 81  1  0  0  0
 77 85  2  0  0  0
 78147  1  0  0  0
 78148  1  0  0  0
 78149  1  0  0  0
 79 80  1  0  0  0
 79150  1  0  0  0
 79151  1  0  0  0
 80152  1  0  0  0
 80153  1  0  0  0
 81154  1  0  0  0
 82155  1  0  0  0
M  ISO  4   1 100  68 101  80 101  82 100
M  END
> <chiral flag>
0

> <version>
0

> <s_m_source_file>
/data/baiqing/PycharmProjects/Reinvent-master-3.2/result/LINK_invent/BTK/process_docking_weight1_custom_product_contain_oxygen_bond_distance_aromatic_linkinvent_7_9_3/rearranged_h_0170.sdf

> <i_m_source_file_index>
16

> <r_mmod_Potential_Energy-OPLS-2005>
-151.645782470703

> <r_mmod_Stretch_Energy-OPLS-2005>
42.2118377685547

> <r_mmod_Bend_Energy-OPLS-2005>
113.169448852539

> <r_mmod_Torsional_Energy-OPLS-2005>
358.984771728516

> <r_mmod_Improper_Torsional_Energy-OPLS-2005>
8.63917541503906

> <r_mmod_Van_der_Waal_Energy-OPLS-2005>
135.967041015625

> <r_mmod_Electrostatic_Energy-OPLS-2005>
-580.770141601562

> <r_mmod_Solvation_Energy-OPLS-2005>
-254.531997680664

> <b_mmod_Minimization_Converged-OPLS-2005>
0

> <r_mmod_RMS_Derivative-OPLS-2005>
5.77213954925537

$$$$
16
                    3D
 Structure written by MMmdl.
151159  0  0  1  0            999 V2000
  -29.0663  -12.9057   21.5963 C   0  0  0  0  0  0
  -30.6145  -12.5849   19.4284 C   0  0  0  0  0  0
  -29.9461  -12.8572   17.9625 C   0  0  0  0  0  0
  -28.3871  -13.1867   17.9477 C   0  0  0  0  0  0
  -28.1083  -13.5931   19.3730 C   0  0  2  0  0  0
  -28.5377  -12.1279   19.8602 C   0  0  0  0  0  0
  -26.1049  -14.8937   20.7474 C   0  0  0  0  0  0
  -24.9926  -14.3234   21.1798 C   0  0  0  0  0  0
  -25.4524  -13.1646   20.3451 C   0  0  0  0  0  0
  -23.8737  -10.5175   20.8144 C   0  0  0  0  0  0
  -24.2464   -9.4620   21.7818 C   0  0  0  0  0  0
  -23.5580   -8.2574   22.0208 C   0  0  0  0  0  0
  -22.3648   -8.0006   21.3384 C   0  0  0  0  0  0
  -21.8942   -8.9614   20.4553 C   0  0  0  0  0  0
  -22.5950  -10.1454   20.2358 C   0  0  0  0  0  0
  -21.6756   -6.0568   22.5392 C   0  0  0  0  0  0
  -21.3986   -6.5556   23.8306 C   0  0  0  0  0  0
  -21.3685   -5.6734   24.9283 C   0  0  0  0  0  0
  -21.6070   -4.2996   24.7328 C   0  0  0  0  0  0
  -21.8856   -3.8049   23.4465 C   0  0  0  0  0  0
  -21.9173   -4.6832   22.3511 C   0  0  0  0  0  0
  -23.4882  -14.6429   21.9411 C   0  0  0  0  0  0
  -22.1596   -4.2046   21.1065 F   0  0  0  0  0  0
  -21.5670   -3.4494   25.7842 F   0  0  0  0  0  0
  -29.6440  -12.2898   20.5417 N   0  0  0  0  0  0
  -26.8495  -14.0047   19.9221 N   0  0  0  0  0  0
  -26.1177  -13.3415   19.3234 N   0  0  0  0  0  0
  -22.6415  -13.7487   22.5549 N   0  0  0  0  0  0
  -26.4720  -16.1431   20.9332 N   0  0  0  0  0  0
  -29.8618  -13.9300   21.7306 O   0  0  0  0  0  0
  -21.6293   -6.8515   21.4295 O   0  0  0  0  0  0
  -22.7398  -15.5368   21.5911 O   0  0  0  0  0  0
  -24.7235  -31.7473   23.1314 C   0  0  0  0  0  0
  -25.9689  -32.4132   23.7887 C   0  0  1  0  0  0
  -26.4263  -26.0422   20.1519 C   0  0  0  0  0  0
  -25.6132  -33.8021   24.1694 N   0  0  0  0  0  0
  -23.5189  -30.3954   21.5099 C   0  0  2  0  0  0
  -24.8253  -28.6785   20.0411 C   0  0  0  0  0  0
  -22.7750  -29.4138   22.4576 C   0  0  0  0  0  0
  -18.0321  -28.1414   22.8447 C   0  0  0  0  0  0
  -24.1508  -36.6997   23.2662 C   0  0  0  0  0  0
  -26.0973  -30.2081   21.4880 C   0  0  0  0  0  0
  -25.9950  -28.7439   20.7909 C   0  0  0  0  0  0
  -26.8095  -27.4358   20.8231 C   0  0  0  0  0  0
  -25.4492  -26.4007   19.2306 C   0  0  0  0  0  0
  -24.6510  -27.5673   19.2181 C   0  0  0  0  0  0
  -23.7460  -29.7651   20.1112 C   0  0  0  0  0  0
  -25.4186  -36.2704   24.0235 C   0  0  1  0  0  0
  -20.5954  -28.3764   23.1104 C   0  0  2  0  0  0
  -20.6767  -26.9410   22.5405 C   0  0  0  0  0  0
  -19.5754  -26.6345   21.5210 C   0  0  0  0  0  0
  -18.1937  -26.7940   22.1606 C   0  0  0  0  0  0
  -19.1593  -28.8919   23.2756 C   0  0  0  0  0  0
  -18.9508  -30.1500   23.8811 C   0  0  0  0  0  0
  -17.6502  -30.6600   24.0547 C   0  0  0  0  0  0
  -25.9220  -34.9110   23.4818 C   0  0  0  0  0  0
  -16.5385  -29.9088   23.6353 C   0  0  0  0  0  0
  -16.7303  -28.6507   23.0371 C   0  0  0  0  0  0
  -26.4702  -31.6434   25.0743 C   0  0  0  0  0  0
  -25.3641  -31.3919   26.1275 C   0  0  0  0  0  0
  -27.0708  -30.2715   24.7081 C   0  0  0  0  0  0
  -27.6058  -32.4437   25.7548 C   0  0  0  0  0  0
  -27.5551  -37.1665   24.8465 C   0  0  0  0  0  0
  -21.4389  -29.2974   22.3373 N   0  0  0  0  0  0
  -26.4252  -37.3536   23.9408 N   0  0  0  0  0  0
  -24.8224  -30.8393   22.0865 N   0  0  0  0  0  0
  -23.4121  -28.7698   23.2951 O   0  0  0  0  0  0
  -26.6663  -24.3833   20.1778 O   0  0  0  0  0  0
  -26.5895  -34.8785   22.4463 O   0  0  0  0  0  0
  -23.6233  -32.0930   23.6044 O   0  0  0  0  0  0
  -23.3431  -12.7514   20.0901 C   0  0  0  0  0  0
  -26.0502  -11.4246   21.5837 C   0  0  0  0  0  0
  -25.5189  -20.4827   19.9208 C   0  0  0  0  0  0
  -24.3237  -18.5108   19.4591 C   0  0  0  0  0  0
  -23.5069  -14.7044   17.7491 C   0  0  0  0  0  0
  -25.6306  -22.6425   19.8065 C   0  0  0  0  0  0
  -23.4276  -14.8811   19.2713 C   0  0  2  0  0  0
  -24.2264  -11.7987   18.9788 N   0  0  0  0  0  0
  -25.9118  -10.9454   19.9433 N   0  0  0  0  0  0
  -27.5838  -12.3263   22.0934 N   0  0  0  0  0  0
  -24.2425  -16.7752   19.5926 N   0  0  0  0  0  0
  -26.5677  -20.1294   20.4708 O   0  0  0  0  0  0
  -23.3163  -18.8629   18.8381 O   0  0  0  0  0  0
  -24.3690  -12.2336   21.8959 O   0  0  0  0  0  0
  -31.2132  -13.4560   19.7000 H   0  0  0  0  0  0
  -31.3284  -11.7629   19.3645 H   0  0  0  0  0  0
  -30.1325  -12.0036   17.3097 H   0  0  0  0  0  0
  -30.4821  -13.6837   17.4931 H   0  0  0  0  0  0
  -27.7712  -12.3700   17.5582 H   0  0  0  0  0  0
  -28.1986  -14.0263   17.2795 H   0  0  0  0  0  0
  -28.7867  -14.4344   19.5518 H   0  0  0  0  0  0
  -28.7125  -11.3460   19.1056 H   0  0  0  0  0  0
  -28.0387  -11.2619   20.2159 H   0  0  0  0  0  0
  -25.1168   -9.5025   22.4160 H   0  0  0  0  0  0
  -23.9551   -7.5416   22.7274 H   0  0  0  0  0  0
  -20.9700   -8.7879   19.9216 H   0  0  0  0  0  0
  -22.0854  -10.7691   19.5167 H   0  0  0  0  0  0
  -21.1924   -7.6060   23.9775 H   0  0  0  0  0  0
  -21.1500   -6.0474   25.9184 H   0  0  0  0  0  0
  -22.0632   -2.7510   23.2969 H   0  0  0  0  0  0
  -23.0102  -12.8252   22.7624 H   0  0  0  0  0  0
  -21.7144  -14.0190   22.8487 H   0  0  0  0  0  0
  -26.1837  -16.6323   21.7757 H   0  0  0  0  0  0
  -27.4057  -16.4204   20.6484 H   0  0  0  0  0  0
  -26.7751  -32.4340   23.0539 H   0  0  0  0  0  0
  -25.0131  -33.8998   24.9751 H   0  0  0  0  0  0
  -22.8712  -31.2621   21.3589 H   0  0  0  0  0  0
  -23.3814  -35.9279   23.3228 H   0  0  0  0  0  0
  -24.3552  -36.8792   22.2095 H   0  0  0  0  0  0
  -23.7232  -37.6109   23.6851 H   0  0  0  0  0  0
  -26.4431  -30.8999   20.7186 H   0  0  0  0  0  0
  -26.9161  -30.1741   22.1899 H   0  0  0  0  0  0
  -27.6495  -27.4243   21.5031 H   0  0  0  0  0  0
  -25.1104  -25.6121   18.5736 H   0  0  0  0  0  0
  -23.8023  -27.5638   18.5479 H   0  0  0  0  0  0
  -24.0279  -30.5508   19.4098 H   0  0  0  0  0  0
  -22.8032  -29.3657   19.7329 H   0  0  0  0  0  0
  -25.1420  -36.1385   25.0722 H   0  0  0  0  0  0
  -21.0036  -28.3408   24.1231 H   0  0  0  0  0  0
  -20.5600  -26.2395   23.3680 H   0  0  0  0  0  0
  -21.6629  -26.7316   22.1243 H   0  0  0  0  0  0
  -19.6900  -25.6232   21.1297 H   0  0  0  0  0  0
  -19.6707  -27.3108   20.6705 H   0  0  0  0  0  0
  -17.4206  -26.6693   21.4007 H   0  0  0  0  0  0
  -18.0310  -26.0100   22.9017 H   0  0  0  0  0  0
  -19.7990  -30.7328   24.2143 H   0  0  0  0  0  0
  -17.5059  -31.6273   24.5164 H   0  0  0  0  0  0
  -15.5385  -30.2967   23.7727 H   0  0  0  0  0  0
  -15.8697  -28.0800   22.7138 H   0  0  0  0  0  0
  -24.5913  -30.7151   25.7611 H   0  0  0  0  0  0
  -24.8738  -32.3182   26.4273 H   0  0  0  0  0  0
  -25.7725  -30.9397   27.0322 H   0  0  0  0  0  0
  -26.3391  -29.6039   24.2523 H   0  0  0  0  0  0
  -27.4295  -29.7545   25.5991 H   0  0  0  0  0  0
  -27.9356  -30.3701   24.0518 H   0  0  0  0  0  0
  -27.2539  -33.3884   26.1710 H   0  0  0  0  0  0
  -28.4057  -32.6762   25.0504 H   0  0  0  0  0  0
  -28.0518  -31.8871   26.5801 H   0  0  0  0  0  0
  -28.2492  -38.0029   24.7531 H   0  0  0  0  0  0
  -28.1125  -36.2542   24.6277 H   0  0  0  0  0  0
  -27.2263  -37.1262   25.8865 H   0  0  0  0  0  0
  -20.9694  -29.8707   21.6501 H   0  0  0  0  0  0
  -26.0020  -38.2549   24.1450 H   0  0  0  0  0  0
  -22.7000  -14.0640   17.3921 H   0  0  0  0  0  0
  -24.4461  -14.2379   17.4536 H   0  0  0  0  0  0
  -23.4317  -15.6596   17.2325 H   0  0  0  0  0  0
  -24.6674  -22.8994   20.2447 H   0  0  0  0  0  0
  -25.4554  -22.7670   18.7386 H   0  0  0  0  0  0
  -22.3729  -15.1557   19.3350 H   0  0  0  0  0  0
  -27.3774  -12.8276   22.9447 H   0  0  0  0  0  0
  -25.1093  -16.5647   20.1036 H   0  0  0  0  0  0
  1 25  1  0  0  0
  1 30  2  0  0  0
  1 80  1  0  0  0
  2  3  1  0  0  0
  2 25  1  0  0  0
  2 85  1  0  0  0
  2 86  1  0  0  0
  3  4  1  0  0  0
  3 87  1  0  0  0
  3 88  1  0  0  0
  4  5  1  0  0  0
  4 89  1  0  0  0
  4 90  1  0  0  0
  5  6  1  0  0  0
  5 26  1  0  0  0
  5 91  1  0  0  0
  6 25  1  0  0  0
  6 92  1  0  0  0
  6 93  1  0  0  0
  7  8  2  0  0  0
  7 26  1  0  0  0
  7 29  1  0  0  0
  8  9  1  0  0  0
  8 22  1  0  0  0
  9 10  1  0  0  0
  9 27  2  0  0  0
 10 11  2  0  0  0
 10 15  1  0  0  0
 11 12  1  0  0  0
 11 94  1  0  0  0
 12 13  2  0  0  0
 12 95  1  0  0  0
 13 14  1  0  0  0
 13 31  1  0  0  0
 14 15  2  0  0  0
 14 96  1  0  0  0
 15 97  1  0  0  0
 16 17  2  0  0  0
 16 21  1  0  0  0
 16 31  1  0  0  0
 17 18  1  0  0  0
 17 98  1  0  0  0
 18 19  2  0  0  0
 18 99  1  0  0  0
 19 20  1  0  0  0
 19 24  1  0  0  0
 20 21  2  0  0  0
 20100  1  0  0  0
 21 23  1  0  0  0
 22 28  1  0  0  0
 22 32  2  0  0  0
 26 27  1  0  0  0
 28101  1  0  0  0
 28102  1  0  0  0
 29103  1  0  0  0
 29104  1  0  0  0
 33 34  1  0  0  0
 33 66  1  0  0  0
 33 70  2  0  0  0
 34 36  1  0  0  0
 34 59  1  0  0  0
 34105  1  0  0  0
 35 44  2  0  0  0
 35 45  1  0  0  0
 35 68  1  0  0  0
 36 56  1  0  0  0
 36106  1  0  0  0
 37 39  1  0  0  0
 37 47  1  0  0  0
 37 66  1  0  0  0
 37107  1  0  0  0
 38 43  2  0  0  0
 38 46  1  0  0  0
 38 47  1  0  0  0
 39 64  1  0  0  0
 39 67  2  0  0  0
 40 52  1  0  0  0
 40 53  2  0  0  0
 40 58  1  0  0  0
 41108  1  0  0  0
 41109  1  0  0  0
 41110  1  0  0  0
 41 48  1  0  0  0
 42 43  1  0  0  0
 42 66  1  0  0  0
 42111  1  0  0  0
 42112  1  0  0  0
 43 44  1  0  0  0
 44113  1  0  0  0
 45 46  2  0  0  0
 45114  1  0  0  0
 46115  1  0  0  0
 47116  1  0  0  0
 47117  1  0  0  0
 48 56  1  0  0  0
 48 65  1  0  0  0
 48118  1  0  0  0
 49 50  1  0  0  0
 49 53  1  0  0  0
 49 64  1  0  0  0
 49119  1  0  0  0
 50 51  1  0  0  0
 50120  1  0  0  0
 50121  1  0  0  0
 51 52  1  0  0  0
 51122  1  0  0  0
 51123  1  0  0  0
 52124  1  0  0  0
 52125  1  0  0  0
 53 54  1  0  0  0
 54 55  2  0  0  0
 54126  1  0  0  0
 55 57  1  0  0  0
 55127  1  0  0  0
 56 69  2  0  0  0
 57 58  2  0  0  0
 57128  1  0  0  0
 58129  1  0  0  0
 59 60  1  0  0  0
 59 61  1  0  0  0
 59 62  1  0  0  0
 60130  1  0  0  0
 60131  1  0  0  0
 60132  1  0  0  0
 61133  1  0  0  0
 61134  1  0  0  0
 61135  1  0  0  0
 62136  1  0  0  0
 62137  1  0  0  0
 62138  1  0  0  0
 63 65  1  0  0  0
 63139  1  0  0  0
 63140  1  0  0  0
 63141  1  0  0  0
 64142  1  0  0  0
 65143  1  0  0  0
 68 76  1  0  0  0
 71 77  1  0  0  0
 71 78  2  0  0  0
 71 84  1  0  0  0
 72 79  2  0  0  0
 72 80  1  0  0  0
 72 84  1  0  0  0
 73 74  1  0  0  0
 73 76  1  0  0  0
 73 82  2  0  0  0
 74 81  1  0  0  0
 74 83  2  0  0  0
 75144  1  0  0  0
 75145  1  0  0  0
 75146  1  0  0  0
 75 77  1  0  0  0
 76147  1  0  0  0
 76148  1  0  0  0
 77 81  1  0  0  0
 77149  1  0  0  0
 78 79  1  0  0  0
 80150  1  0  0  0
 81151  1  0  0  0
M  ISO  4   1 100  68 101  76 101  80 100
M  END
> <chiral flag>
0

> <version>
0

> <s_m_source_file>
/data/baiqing/PycharmProjects/Reinvent-master-3.2/result/LINK_invent/BTK/process_docking_weight1_custom_product_contain_oxygen_bond_distance_aromatic_linkinvent_7_9_3/rearranged_h_0170.sdf

> <i_m_source_file_index>
17

> <r_mmod_Potential_Energy-OPLS-2005>
22432.408203125

> <r_mmod_Stretch_Energy-OPLS-2005>
11499.935546875

> <r_mmod_Bend_Energy-OPLS-2005>
1868.75085449219

> <r_mmod_Torsional_Energy-OPLS-2005>
542.581909179688

> <r_mmod_Improper_Torsional_Energy-OPLS-2005>
90.8689117431641

> <r_mmod_Van_der_Waal_Energy-OPLS-2005>
3603.86499023438

> <r_mmod_Electrostatic_Energy-OPLS-2005>
-473.625732421875

> <r_mmod_Solvation_Energy-OPLS-2005>
-277.455505371094

> <b_mmod_Minimization_Converged-OPLS-2005>
0

> <r_mmod_RMS_Derivative-OPLS-2005>
4.24748563766479

$$$$
17
                    3D
 Structure written by MMmdl.
151159  0  0  1  0            999 V2000
  -30.6258  -14.7219   20.4397 C   0  0  0  0  0  0
  -30.4292  -12.4293   19.4886 C   0  0  0  0  0  0
  -29.5182  -12.5055   18.2438 C   0  0  0  0  0  0
  -28.0397  -12.3468   18.6444 C   0  0  0  0  0  0
  -27.6471  -13.2365   19.8536 C   0  0  2  0  0  0
  -28.6875  -13.1612   20.9929 C   0  0  0  0  0  0
  -25.2536  -13.8198   20.5681 C   0  0  0  0  0  0
  -24.1820  -13.0444   20.9180 C   0  0  0  0  0  0
  -24.6412  -11.6919   20.8724 C   0  0  0  0  0  0
  -23.9095  -10.4292   21.0387 C   0  0  0  0  0  0
  -24.3641   -9.4204   21.9168 C   0  0  0  0  0  0
  -23.6307   -8.2244   22.0741 C   0  0  0  0  0  0
  -22.4281   -8.0287   21.3541 C   0  0  0  0  0  0
  -21.9923   -9.0261   20.4638 C   0  0  0  0  0  0
  -22.7264  -10.2134   20.3042 C   0  0  0  0  0  0
  -21.6857   -6.0744   22.5276 C   0  0  0  0  0  0
  -21.4020   -6.5640   23.8210 C   0  0  0  0  0  0
  -21.3662   -5.6787   24.9166 C   0  0  0  0  0  0
  -21.6047   -4.3052   24.7214 C   0  0  0  0  0  0
  -21.8819   -3.8152   23.4329 C   0  0  0  0  0  0
  -21.9194   -4.6973   22.3394 C   0  0  0  0  0  0
  -22.7850  -13.5226   21.1852 C   0  0  0  0  0  0
  -22.1664   -4.2168   21.0971 F   0  0  0  0  0  0
  -21.5627   -3.4531   25.7723 F   0  0  0  0  0  0
  -29.9996  -13.4949   20.4235 N   0  0  0  0  0  0
  -26.2970  -12.9420   20.3273 N   0  0  0  0  0  0
  -25.9344  -11.6557   20.5720 N   0  0  0  0  0  0
  -22.0504  -12.8215   22.0409 N   0  0  0  0  0  0
  -25.4238  -15.1918   20.4105 N   0  0  0  0  0  0
  -31.8057  -14.8144   20.0897 O   0  0  0  0  0  0
  -21.6639   -6.8889   21.4235 O   0  0  0  0  0  0
  -22.3530  -14.5535   20.6721 O   0  0  0  0  0  0
  -24.6330  -31.8557   23.2001 C   0  0  0  0  0  0
  -25.9154  -32.4758   23.8350 C   0  0  1  0  0  0
  -27.2171  -27.2645   20.1160 C   0  0  0  0  0  0
  -25.5954  -33.8564   24.2276 N   0  0  0  0  0  0
  -23.4296  -30.4821   21.5424 C   0  0  2  0  0  0
  -24.8752  -28.9342   20.1073 C   0  0  0  0  0  0
  -22.7513  -29.4619   22.4892 C   0  0  0  0  0  0
  -18.0304  -28.1398   22.8466 C   0  0  0  0  0  0
  -24.1494  -36.7293   23.2633 C   0  0  0  0  0  0
  -25.9775  -30.7663   21.3828 C   0  0  0  0  0  0
  -26.0479  -29.3909   20.7220 C   0  0  0  0  0  0
  -27.2207  -28.5676   20.7196 C   0  0  0  0  0  0
  -26.0200  -26.8862   19.4613 C   0  0  0  0  0  0
  -24.8667  -27.6891   19.4666 C   0  0  0  0  0  0
  -23.6479  -29.8218   20.1572 C   0  0  0  0  0  0
  -25.4113  -36.3077   24.0330 C   0  0  1  0  0  0
  -20.5907  -28.3722   23.1241 C   0  0  2  0  0  0
  -20.6785  -26.9434   22.5394 C   0  0  0  0  0  0
  -19.5764  -26.6389   21.5198 C   0  0  0  0  0  0
  -18.1945  -26.7936   22.1611 C   0  0  0  0  0  0
  -19.1555  -28.8872   23.2850 C   0  0  0  0  0  0
  -18.9477  -30.1468   23.8887 C   0  0  0  0  0  0
  -17.6471  -30.6588   24.0566 C   0  0  0  0  0  0
  -25.9053  -34.9443   23.5100 C   0  0  0  0  0  0
  -16.5365  -29.9087   23.6326 C   0  0  0  0  0  0
  -16.7286  -28.6509   23.0333 C   0  0  0  0  0  0
  -26.4507  -31.6578   25.0744 C   0  0  0  0  0  0
  -25.3725  -31.3752   26.1466 C   0  0  0  0  0  0
  -27.0336  -30.2979   24.6250 C   0  0  0  0  0  0
  -27.6078  -32.4306   25.7506 C   0  0  0  0  0  0
  -27.5590  -37.1790   24.8452 C   0  0  0  0  0  0
  -21.4217  -29.3069   22.3631 N   0  0  0  0  0  0
  -26.4288  -37.3775   23.9416 N   0  0  0  0  0  0
  -24.6990  -31.0529   22.0977 N   0  0  0  0  0  0
  -23.4198  -28.8142   23.2988 O   0  0  0  0  0  0
  -28.2987  -26.3519   20.1831 O   0  0  0  0  0  0
  -26.5621  -34.8912   22.4667 O   0  0  0  0  0  0
  -23.5478  -32.1389   23.7291 O   0  0  0  0  0  0
  -29.6508  -18.4745   20.6533 C   0  0  0  0  0  0
  -30.0656  -18.4128   17.9073 C   0  0  0  0  0  0
  -29.9115  -17.1808   20.0293 C   0  0  0  0  0  0
  -29.6039  -19.7425   19.9294 C   0  0  0  0  0  0
  -30.0912  -17.2032   18.6251 C   0  0  0  0  0  0
  -29.8417  -19.6521   18.5335 C   0  0  0  0  0  0
  -28.9686  -23.7401   20.3597 C   0  0  0  0  0  0
  -28.6510  -22.2270   19.9323 C   0  0  0  0  0  0
  -28.0059  -24.9119   19.8572 C   0  0  0  0  0  0
  -29.8827  -15.8599   20.7148 N   0  0  0  0  0  0
  -29.3854  -21.0403   20.5506 N   0  0  0  0  0  0
  -29.9464  -23.9867   21.0735 O   0  0  0  0  0  0
  -30.2407  -16.0522   17.9260 F   0  0  0  0  0  0
  -29.8884  -20.7630   17.7588 F   0  0  0  0  0  0
  -31.4755  -12.5297   19.1975 H   0  0  0  0  0  0
  -30.3469  -11.4518   19.9664 H   0  0  0  0  0  0
  -29.7939  -11.7347   17.5242 H   0  0  0  0  0  0
  -29.6634  -13.4622   17.7386 H   0  0  0  0  0  0
  -27.8771  -11.2969   18.8895 H   0  0  0  0  0  0
  -27.3940  -12.5657   17.7932 H   0  0  0  0  0  0
  -27.6463  -14.2620   19.4825 H   0  0  0  0  0  0
  -28.7037  -12.1636   21.4336 H   0  0  0  0  0  0
  -28.4243  -13.8458   21.8007 H   0  0  0  0  0  0
  -25.2784   -9.5684   22.4750 H   0  0  0  0  0  0
  -24.0019   -7.4627   22.7452 H   0  0  0  0  0  0
  -21.0861   -8.8791   19.8936 H   0  0  0  0  0  0
  -22.3722  -10.9683   19.6159 H   0  0  0  0  0  0
  -21.2015   -7.6153   23.9723 H   0  0  0  0  0  0
  -21.1486   -6.0514   25.9075 H   0  0  0  0  0  0
  -22.0598   -2.7621   23.2818 H   0  0  0  0  0  0
  -22.4139  -11.9898   22.4820 H   0  0  0  0  0  0
  -21.1119  -13.1228   22.2610 H   0  0  0  0  0  0
  -24.6568  -15.8467   20.5170 H   0  0  0  0  0  0
  -26.2741  -15.6274   20.0776 H   0  0  0  0  0  0
  -26.7228  -32.5403   23.1098 H   0  0  0  0  0  0
  -25.0104  -33.9700   25.0427 H   0  0  0  0  0  0
  -22.7278  -31.3065   21.3992 H   0  0  0  0  0  0
  -23.3759  -35.9619   23.3266 H   0  0  0  0  0  0
  -24.3598  -36.8942   22.2054 H   0  0  0  0  0  0
  -23.7238  -37.6483   23.6670 H   0  0  0  0  0  0
  -26.1215  -31.5267   20.6143 H   0  0  0  0  0  0
  -26.8534  -30.8115   22.0179 H   0  0  0  0  0  0
  -28.1137  -28.9089   21.2237 H   0  0  0  0  0  0
  -25.9313  -25.9439   18.9434 H   0  0  0  0  0  0
  -23.9722  -27.3362   18.9715 H   0  0  0  0  0  0
  -23.7753  -30.6009   19.4052 H   0  0  0  0  0  0
  -22.7647  -29.2594   19.8484 H   0  0  0  0  0  0
  -25.1286  -36.1924   25.0820 H   0  0  0  0  0  0
  -21.0005  -28.3312   24.1358 H   0  0  0  0  0  0
  -20.5668  -26.2342   23.3607 H   0  0  0  0  0  0
  -21.6655  -26.7437   22.1208 H   0  0  0  0  0  0
  -19.6923  -25.6295   21.1241 H   0  0  0  0  0  0
  -19.6694  -27.3183   20.6715 H   0  0  0  0  0  0
  -17.4205  -26.6670   21.4024 H   0  0  0  0  0  0
  -18.0355  -26.0092   22.9022 H   0  0  0  0  0  0
  -19.7951  -30.7288   24.2243 H   0  0  0  0  0  0
  -17.5027  -31.6262   24.5181 H   0  0  0  0  0  0
  -15.5364  -30.2983   23.7658 H   0  0  0  0  0  0
  -15.8688  -28.0831   22.7033 H   0  0  0  0  0  0
  -24.5906  -30.7084   25.7809 H   0  0  0  0  0  0
  -24.8908  -32.2926   26.4858 H   0  0  0  0  0  0
  -25.8041  -30.8962   27.0264 H   0  0  0  0  0  0
  -26.2917  -29.6735   24.1255 H   0  0  0  0  0  0
  -27.3964  -29.7243   25.4790 H   0  0  0  0  0  0
  -27.8828  -30.4223   23.9528 H   0  0  0  0  0  0
  -27.2705  -33.3609   26.2085 H   0  0  0  0  0  0
  -28.3883  -32.6852   25.0326 H   0  0  0  0  0  0
  -28.0748  -31.8424   26.5416 H   0  0  0  0  0  0
  -28.2575  -38.0117   24.7541 H   0  0  0  0  0  0
  -28.1117  -36.2656   24.6213 H   0  0  0  0  0  0
  -27.2324  -37.1362   25.8855 H   0  0  0  0  0  0
  -20.9403  -29.8821   21.6865 H   0  0  0  0  0  0
  -26.0170  -38.2845   24.1428 H   0  0  0  0  0  0
  -29.4785  -18.4921   21.7190 H   0  0  0  0  0  0
  -30.2166  -18.3911   16.8400 H   0  0  0  0  0  0
  -28.7140  -22.2082   18.8479 H   0  0  0  0  0  0
  -27.5915  -22.0768   20.1441 H   0  0  0  0  0  0
  -27.0309  -24.6565   20.2718 H   0  0  0  0  0  0
  -27.9201  -24.8174   18.7746 H   0  0  0  0  0  0
  -29.0566  -15.6912   21.2663 H   0  0  0  0  0  0
  -29.3791  -21.0524   21.5663 H   0  0  0  0  0  0
  1 25  1  0  0  0
  1 30  2  0  0  0
  1 80  1  0  0  0
  2  3  1  0  0  0
  2 25  1  0  0  0
  2 85  1  0  0  0
  2 86  1  0  0  0
  3  4  1  0  0  0
  3 87  1  0  0  0
  3 88  1  0  0  0
  4  5  1  0  0  0
  4 89  1  0  0  0
  4 90  1  0  0  0
  5  6  1  0  0  0
  5 26  1  0  0  0
  5 91  1  0  0  0
  6 25  1  0  0  0
  6 92  1  0  0  0
  6 93  1  0  0  0
  7  8  2  0  0  0
  7 26  1  0  0  0
  7 29  1  0  0  0
  8  9  1  0  0  0
  8 22  1  0  0  0
  9 10  1  0  0  0
  9 27  2  0  0  0
 10 11  2  0  0  0
 10 15  1  0  0  0
 11 12  1  0  0  0
 11 94  1  0  0  0
 12 13  2  0  0  0
 12 95  1  0  0  0
 13 14  1  0  0  0
 13 31  1  0  0  0
 14 15  2  0  0  0
 14 96  1  0  0  0
 15 97  1  0  0  0
 16 17  2  0  0  0
 16 21  1  0  0  0
 16 31  1  0  0  0
 17 18  1  0  0  0
 17 98  1  0  0  0
 18 19  2  0  0  0
 18 99  1  0  0  0
 19 20  1  0  0  0
 19 24  1  0  0  0
 20 21  2  0  0  0
 20100  1  0  0  0
 21 23  1  0  0  0
 22 28  1  0  0  0
 22 32  2  0  0  0
 26 27  1  0  0  0
 28101  1  0  0  0
 28102  1  0  0  0
 29103  1  0  0  0
 29104  1  0  0  0
 33 34  1  0  0  0
 33 66  1  0  0  0
 33 70  2  0  0  0
 34 36  1  0  0  0
 34 59  1  0  0  0
 34105  1  0  0  0
 35 44  2  0  0  0
 35 45  1  0  0  0
 35 68  1  0  0  0
 36 56  1  0  0  0
 36106  1  0  0  0
 37 39  1  0  0  0
 37 47  1  0  0  0
 37 66  1  0  0  0
 37107  1  0  0  0
 38 43  2  0  0  0
 38 46  1  0  0  0
 38 47  1  0  0  0
 39 64  1  0  0  0
 39 67  2  0  0  0
 40 52  1  0  0  0
 40 53  2  0  0  0
 40 58  1  0  0  0
 41108  1  0  0  0
 41109  1  0  0  0
 41110  1  0  0  0
 41 48  1  0  0  0
 42 43  1  0  0  0
 42 66  1  0  0  0
 42111  1  0  0  0
 42112  1  0  0  0
 43 44  1  0  0  0
 44113  1  0  0  0
 45 46  2  0  0  0
 45114  1  0  0  0
 46115  1  0  0  0
 47116  1  0  0  0
 47117  1  0  0  0
 48 56  1  0  0  0
 48 65  1  0  0  0
 48118  1  0  0  0
 49 50  1  0  0  0
 49 53  1  0  0  0
 49 64  1  0  0  0
 49119  1  0  0  0
 50 51  1  0  0  0
 50120  1  0  0  0
 50121  1  0  0  0
 51 52  1  0  0  0
 51122  1  0  0  0
 51123  1  0  0  0
 52124  1  0  0  0
 52125  1  0  0  0
 53 54  1  0  0  0
 54 55  2  0  0  0
 54126  1  0  0  0
 55 57  1  0  0  0
 55127  1  0  0  0
 56 69  2  0  0  0
 57 58  2  0  0  0
 57128  1  0  0  0
 58129  1  0  0  0
 59 60  1  0  0  0
 59 61  1  0  0  0
 59 62  1  0  0  0
 60130  1  0  0  0
 60131  1  0  0  0
 60132  1  0  0  0
 61133  1  0  0  0
 61134  1  0  0  0
 61135  1  0  0  0
 62136  1  0  0  0
 62137  1  0  0  0
 62138  1  0  0  0
 63 65  1  0  0  0
 63139  1  0  0  0
 63140  1  0  0  0
 63141  1  0  0  0
 64142  1  0  0  0
 65143  1  0  0  0
 68 79  1  0  0  0
 71 73  2  0  0  0
 71 74  1  0  0  0
 71144  1  0  0  0
 72 75  2  0  0  0
 72 76  1  0  0  0
 72145  1  0  0  0
 73 75  1  0  0  0
 73 80  1  0  0  0
 74 76  2  0  0  0
 74 81  1  0  0  0
 75 83  1  0  0  0
 76 84  1  0  0  0
 77 78  1  0  0  0
 77 79  1  0  0  0
 77 82  2  0  0  0
 78 81  1  0  0  0
 78146  1  0  0  0
 78147  1  0  0  0
 79148  1  0  0  0
 79149  1  0  0  0
 80150  1  0  0  0
 81151  1  0  0  0
M  ISO  4   1 100  68 101  79 101  80 100
M  END
> <chiral flag>
0

> <version>
0

> <s_m_source_file>
/data/baiqing/PycharmProjects/Reinvent-master-3.2/result/LINK_invent/BTK/process_docking_weight1_custom_product_contain_oxygen_bond_distance_aromatic_linkinvent_7_9_3/rearranged_h_0170.sdf

> <i_m_source_file_index>
18

> <r_mmod_Potential_Energy-OPLS-2005>
168.201217651367

> <r_mmod_Stretch_Energy-OPLS-2005>
121.526763916016

> <r_mmod_Bend_Energy-OPLS-2005>
162.69660949707

> <r_mmod_Torsional_Energy-OPLS-2005>
231.20085144043

> <r_mmod_Improper_Torsional_Energy-OPLS-2005>
6.17145776748657

> <r_mmod_Van_der_Waal_Energy-OPLS-2005>
147.817489624023

> <r_mmod_Electrostatic_Energy-OPLS-2005>
-327.195007324219

> <r_mmod_Solvation_Energy-OPLS-2005>
-255.620697021484

> <b_mmod_Minimization_Converged-OPLS-2005>
0

> <r_mmod_RMS_Derivative-OPLS-2005>
1.81561088562012

$$$$
18
                    3D
 Structure written by MMmdl.
160169  0  0  1  0            999 V2000
  -30.5813  -14.8023   20.4592 C   0  0  0  0  0  0
  -30.4387  -12.4981   19.4827 C   0  0  0  0  0  0
  -29.5177  -12.5275   18.2427 C   0  0  0  0  0  0
  -28.0463  -12.3333   18.6546 C   0  0  0  0  0  0
  -27.6419  -13.2312   19.8555 C   0  0  2  0  0  0
  -28.6826  -13.1797   20.9930 C   0  0  0  0  0  0
  -25.2502  -13.8170   20.5671 C   0  0  0  0  0  0
  -24.1793  -13.0419   20.9197 C   0  0  0  0  0  0
  -24.6379  -11.6899   20.8732 C   0  0  0  0  0  0
  -23.9040  -10.4276   21.0390 C   0  0  0  0  0  0
  -24.3615   -9.4195   21.9147 C   0  0  0  0  0  0
  -23.6307   -8.2219   22.0719 C   0  0  0  0  0  0
  -22.4284   -8.0236   21.3524 C   0  0  0  0  0  0
  -21.9900   -9.0214   20.4639 C   0  0  0  0  0  0
  -22.7214  -10.2108   20.3047 C   0  0  0  0  0  0
  -21.6867   -6.0719   22.5270 C   0  0  0  0  0  0
  -21.4013   -6.5631   23.8197 C   0  0  0  0  0  0
  -21.3661   -5.6797   24.9166 C   0  0  0  0  0  0
  -21.6050   -4.3053   24.7239 C   0  0  0  0  0  0
  -21.8824   -3.8137   23.4351 C   0  0  0  0  0  0
  -21.9198   -4.6949   22.3417 C   0  0  0  0  0  0
  -22.7824  -13.5183   21.1876 C   0  0  0  0  0  0
  -22.1671   -4.2123   21.1000 F   0  0  0  0  0  0
  -21.5631   -3.4546   25.7754 F   0  0  0  0  0  0
  -29.9704  -13.5636   20.4055 N   0  0  0  0  0  0
  -26.2934  -12.9368   20.3292 N   0  0  0  0  0  0
  -25.9311  -11.6501   20.5744 N   0  0  0  0  0  0
  -22.0525  -12.8175   22.0459 N   0  0  0  0  0  0
  -25.4214  -15.1893   20.4044 N   0  0  0  0  0  0
  -31.7731  -14.8750   20.1396 O   0  0  0  0  0  0
  -21.6643   -6.8854   21.4221 O   0  0  0  0  0  0
  -22.3497  -14.5496   20.6735 O   0  0  0  0  0  0
  -24.6414  -31.8503   23.1902 C   0  0  0  0  0  0
  -25.9233  -32.4730   23.8264 C   0  0  1  0  0  0
  -27.1964  -27.1999   20.1225 C   0  0  0  0  0  0
  -25.6021  -33.8532   24.2220 N   0  0  0  0  0  0
  -23.4334  -30.4697   21.5390 C   0  0  2  0  0  0
  -24.8702  -28.8998   20.1031 C   0  0  0  0  0  0
  -22.7532  -29.4594   22.4926 C   0  0  0  0  0  0
  -18.0285  -28.1439   22.8500 C   0  0  0  0  0  0
  -24.1464  -36.7232   23.2637 C   0  0  0  0  0  0
  -25.9796  -30.7369   21.3703 C   0  0  0  0  0  0
  -26.0454  -29.3539   20.7150 C   0  0  0  0  0  0
  -27.2052  -28.5117   20.7193 C   0  0  0  0  0  0
  -25.9960  -26.8108   19.4903 C   0  0  0  0  0  0
  -24.8540  -27.6414   19.4785 C   0  0  0  0  0  0
  -23.6477  -29.7997   20.1554 C   0  0  0  0  0  0
  -25.4081  -36.3051   24.0341 C   0  0  1  0  0  0
  -20.5892  -28.3734   23.1287 C   0  0  2  0  0  0
  -20.6750  -26.9459   22.5444 C   0  0  0  0  0  0
  -19.5729  -26.6415   21.5242 C   0  0  0  0  0  0
  -18.1899  -26.7989   22.1602 C   0  0  0  0  0  0
  -19.1550  -28.8905   23.2875 C   0  0  0  0  0  0
  -18.9464  -30.1511   23.8895 C   0  0  0  0  0  0
  -17.6461  -30.6617   24.0597 C   0  0  0  0  0  0
  -25.9057  -34.9444   23.5030 C   0  0  0  0  0  0
  -16.5363  -29.9115   23.6387 C   0  0  0  0  0  0
  -16.7272  -28.6545   23.0401 C   0  0  0  0  0  0
  -26.4556  -31.6597   25.0672 C   0  0  0  0  0  0
  -25.3791  -31.3891   26.1446 C   0  0  0  0  0  0
  -27.0338  -30.2986   24.6190 C   0  0  0  0  0  0
  -27.6158  -32.4332   25.7383 C   0  0  0  0  0  0
  -27.5585  -37.1707   24.8453 C   0  0  0  0  0  0
  -21.4241  -29.3035   22.3665 N   0  0  0  0  0  0
  -26.4252  -37.3782   23.9473 N   0  0  0  0  0  0
  -24.7051  -31.0374   22.0910 N   0  0  0  0  0  0
  -23.4216  -28.8175   23.3075 O   0  0  0  0  0  0
  -28.2781  -26.2878   20.2348 O   0  0  0  0  0  0
  -26.5630  -34.8938   22.4601 O   0  0  0  0  0  0
  -23.5562  -32.1378   23.7153 O   0  0  0  0  0  0
  -31.4841  -17.7628   20.9900 C   0  0  0  0  0  0
  -29.2785  -18.5857   20.4401 C   0  0  0  0  0  0
  -31.9359  -19.0873   21.1119 C   0  0  0  0  0  0
  -31.0768  -20.2018   20.8753 C   0  0  0  0  0  0
  -30.1604  -17.4250   20.6498 C   0  0  0  0  0  0
  -29.7036  -19.9996   20.5212 C   0  0  0  0  0  0
  -28.3362  -24.9516   19.7023 C   0  0  0  0  0  0
  -28.4683  -23.7362   20.3890 C   0  0  0  0  0  0
  -28.8374  -22.3976   19.7350 C   0  0  0  0  0  0
  -33.3913  -19.2571   21.5458 C   0  0  0  0  0  0
  -31.6273  -21.6128   21.1404 C   0  0  0  0  0  0
  -33.6857  -20.6155   22.1803 C   0  0  0  0  0  0
  -33.1539  -21.7084   21.2646 C   0  0  0  0  0  0
  -28.7917  -21.2080   20.4785 N   0  0  0  0  0  0
  -29.7962  -15.9601   20.6320 N   0  0  0  0  0  0
  -29.2054  -22.3390   18.5616 O   0  0  0  0  0  0
  -28.3593  -23.7663   21.7266 O   0  0  0  0  0  0
  -31.4758  -12.6465   19.1727 H   0  0  0  0  0  0
  -30.4084  -11.5221   19.9716 H   0  0  0  0  0  0
  -29.8178  -11.7607   17.5282 H   0  0  0  0  0  0
  -29.6289  -13.4854   17.7275 H   0  0  0  0  0  0
  -27.9199  -11.2851   18.9218 H   0  0  0  0  0  0
  -27.3867  -12.5145   17.8044 H   0  0  0  0  0  0
  -27.6311  -14.2511   19.4684 H   0  0  0  0  0  0
  -28.7408  -12.1795   21.4253 H   0  0  0  0  0  0
  -28.4070  -13.8540   21.8051 H   0  0  0  0  0  0
  -25.2772   -9.5663   22.4698 H   0  0  0  0  0  0
  -24.0042   -7.4599   22.7411 H   0  0  0  0  0  0
  -21.0829   -8.8708   19.8954 H   0  0  0  0  0  0
  -22.3637  -10.9632   19.6154 H   0  0  0  0  0  0
  -21.2000   -7.6132   23.9687 H   0  0  0  0  0  0
  -21.1488   -6.0535   25.9073 H   0  0  0  0  0  0
  -22.0611   -2.7590   23.2883 H   0  0  0  0  0  0
  -22.4214  -11.9856   22.4838 H   0  0  0  0  0  0
  -21.1135  -13.1144   22.2716 H   0  0  0  0  0  0
  -24.6427  -15.8369   20.4615 H   0  0  0  0  0  0
  -26.2596  -15.6132   20.0299 H   0  0  0  0  0  0
  -26.7273  -32.5367   23.0998 H   0  0  0  0  0  0
  -25.0288  -33.9665   25.0463 H   0  0  0  0  0  0
  -22.7333  -31.2957   21.3972 H   0  0  0  0  0  0
  -23.3763  -35.9526   23.3257 H   0  0  0  0  0  0
  -24.3542  -36.8890   22.2051 H   0  0  0  0  0  0
  -23.7157  -37.6396   23.6675 H   0  0  0  0  0  0
  -26.1117  -31.4797   20.5836 H   0  0  0  0  0  0
  -26.8638  -30.8017   21.9922 H   0  0  0  0  0  0
  -28.0973  -28.8371   21.2333 H   0  0  0  0  0  0
  -25.9082  -25.8328   19.0436 H   0  0  0  0  0  0
  -23.9509  -27.2865   18.9998 H   0  0  0  0  0  0
  -23.7786  -30.5730   19.3993 H   0  0  0  0  0  0
  -22.7589  -29.2407   19.8577 H   0  0  0  0  0  0
  -25.1258  -36.1849   25.0835 H   0  0  0  0  0  0
  -20.9992  -28.3331   24.1412 H   0  0  0  0  0  0
  -20.5605  -26.2385   23.3663 H   0  0  0  0  0  0
  -21.6634  -26.7439   22.1302 H   0  0  0  0  0  0
  -19.6864  -25.6312   21.1303 H   0  0  0  0  0  0
  -19.6684  -27.3199   20.6759 H   0  0  0  0  0  0
  -17.4222  -26.6883   21.3948 H   0  0  0  0  0  0
  -18.0174  -26.0090   22.8925 H   0  0  0  0  0  0
  -19.7944  -30.7348   24.2240 H   0  0  0  0  0  0
  -17.5019  -31.6298   24.5205 H   0  0  0  0  0  0
  -15.5367  -30.3013   23.7675 H   0  0  0  0  0  0
  -15.8683  -28.0829   22.7143 H   0  0  0  0  0  0
  -24.6029  -30.7102   25.7932 H   0  0  0  0  0  0
  -24.8911  -32.3111   26.4626 H   0  0  0  0  0  0
  -25.8155  -30.9375   27.0367 H   0  0  0  0  0  0
  -26.2889  -29.6729   24.1260 H   0  0  0  0  0  0
  -27.4055  -29.7278   25.4703 H   0  0  0  0  0  0
  -27.8779  -30.4214   23.9388 H   0  0  0  0  0  0
  -27.2842  -33.3670   26.1928 H   0  0  0  0  0  0
  -28.3951  -32.6811   25.0175 H   0  0  0  0  0  0
  -28.0856  -31.8481   26.5310 H   0  0  0  0  0  0
  -28.2619  -37.9999   24.7577 H   0  0  0  0  0  0
  -28.1063  -36.2551   24.6138 H   0  0  0  0  0  0
  -27.2368  -37.1238   25.8879 H   0  0  0  0  0  0
  -20.9463  -29.8716   21.6821 H   0  0  0  0  0  0
  -26.0103  -38.2829   24.1623 H   0  0  0  0  0  0
  -32.1914  -16.9825   21.2176 H   0  0  0  0  0  0
  -28.2410  -18.3831   20.2215 H   0  0  0  0  0  0
  -28.3776  -24.9811   18.6225 H   0  0  0  0  0  0
  -34.0217  -19.1073   20.6672 H   0  0  0  0  0  0
  -33.6629  -18.4670   22.2463 H   0  0  0  0  0  0
  -31.1779  -21.9635   22.0722 H   0  0  0  0  0  0
  -31.3386  -22.3079   20.3567 H   0  0  0  0  0  0
  -34.7549  -20.7372   22.3605 H   0  0  0  0  0  0
  -33.1981  -20.6849   23.1541 H   0  0  0  0  0  0
  -33.4485  -22.6952   21.6234 H   0  0  0  0  0  0
  -33.6038  -21.5934   20.2761 H   0  0  0  0  0  0
  -28.0358  -21.1812   21.1481 H   0  0  0  0  0  0
  -28.8191  -15.7613   20.7843 H   0  0  0  0  0  0
  -28.7949  -22.9985   22.0625 H   0  0  0  0  0  0
  1 25  1  0  0  0
  1 30  2  0  0  0
  1 85  1  0  0  0
  2  3  1  0  0  0
  2 25  1  0  0  0
  2 88  1  0  0  0
  2 89  1  0  0  0
  3  4  1  0  0  0
  3 90  1  0  0  0
  3 91  1  0  0  0
  4  5  1  0  0  0
  4 92  1  0  0  0
  4 93  1  0  0  0
  5  6  1  0  0  0
  5 26  1  0  0  0
  5 94  1  0  0  0
  6 25  1  0  0  0
  6 95  1  0  0  0
  6 96  1  0  0  0
  7  8  2  0  0  0
  7 26  1  0  0  0
  7 29  1  0  0  0
  8  9  1  0  0  0
  8 22  1  0  0  0
  9 10  1  0  0  0
  9 27  2  0  0  0
 10 11  2  0  0  0
 10 15  1  0  0  0
 11 12  1  0  0  0
 11 97  1  0  0  0
 12 13  2  0  0  0
 12 98  1  0  0  0
 13 14  1  0  0  0
 13 31  1  0  0  0
 14 15  2  0  0  0
 14 99  1  0  0  0
 15100  1  0  0  0
 16 17  2  0  0  0
 16 21  1  0  0  0
 16 31  1  0  0  0
 17 18  1  0  0  0
 17101  1  0  0  0
 18 19  2  0  0  0
 18102  1  0  0  0
 19 20  1  0  0  0
 19 24  1  0  0  0
 20 21  2  0  0  0
 20103  1  0  0  0
 21 23  1  0  0  0
 22 28  1  0  0  0
 22 32  2  0  0  0
 26 27  1  0  0  0
 28104  1  0  0  0
 28105  1  0  0  0
 29106  1  0  0  0
 29107  1  0  0  0
 33 34  1  0  0  0
 33 66  1  0  0  0
 33 70  2  0  0  0
 34 36  1  0  0  0
 34 59  1  0  0  0
 34108  1  0  0  0
 35 44  2  0  0  0
 35 45  1  0  0  0
 35 68  1  0  0  0
 36 56  1  0  0  0
 36109  1  0  0  0
 37 39  1  0  0  0
 37 47  1  0  0  0
 37 66  1  0  0  0
 37110  1  0  0  0
 38 43  2  0  0  0
 38 46  1  0  0  0
 38 47  1  0  0  0
 39 64  1  0  0  0
 39 67  2  0  0  0
 40 52  1  0  0  0
 40 53  2  0  0  0
 40 58  1  0  0  0
 41111  1  0  0  0
 41112  1  0  0  0
 41113  1  0  0  0
 41 48  1  0  0  0
 42 43  1  0  0  0
 42 66  1  0  0  0
 42114  1  0  0  0
 42115  1  0  0  0
 43 44  1  0  0  0
 44116  1  0  0  0
 45 46  2  0  0  0
 45117  1  0  0  0
 46118  1  0  0  0
 47119  1  0  0  0
 47120  1  0  0  0
 48 56  1  0  0  0
 48 65  1  0  0  0
 48121  1  0  0  0
 49 50  1  0  0  0
 49 53  1  0  0  0
 49 64  1  0  0  0
 49122  1  0  0  0
 50 51  1  0  0  0
 50123  1  0  0  0
 50124  1  0  0  0
 51 52  1  0  0  0
 51125  1  0  0  0
 51126  1  0  0  0
 52127  1  0  0  0
 52128  1  0  0  0
 53 54  1  0  0  0
 54 55  2  0  0  0
 54129  1  0  0  0
 55 57  1  0  0  0
 55130  1  0  0  0
 56 69  2  0  0  0
 57 58  2  0  0  0
 57131  1  0  0  0
 58132  1  0  0  0
 59 60  1  0  0  0
 59 61  1  0  0  0
 59 62  1  0  0  0
 60133  1  0  0  0
 60134  1  0  0  0
 60135  1  0  0  0
 61136  1  0  0  0
 61137  1  0  0  0
 61138  1  0  0  0
 62139  1  0  0  0
 62140  1  0  0  0
 62141  1  0  0  0
 63 65  1  0  0  0
 63142  1  0  0  0
 63143  1  0  0  0
 63144  1  0  0  0
 64145  1  0  0  0
 65146  1  0  0  0
 68 77  1  0  0  0
 71 73  2  0  0  0
 71 75  1  0  0  0
 71147  1  0  0  0
 72 75  2  0  0  0
 72 76  1  0  0  0
 72148  1  0  0  0
 73 74  1  0  0  0
 73 80  1  0  0  0
 74 76  2  0  0  0
 74 81  1  0  0  0
 75 85  1  0  0  0
 76 84  1  0  0  0
 77 78  2  0  0  0
 77149  1  0  0  0
 78 79  1  0  0  0
 78 87  1  0  0  0
 79 84  1  0  0  0
 79 86  2  0  0  0
 80 82  1  0  0  0
 80150  1  0  0  0
 80151  1  0  0  0
 81 83  1  0  0  0
 81152  1  0  0  0
 81153  1  0  0  0
 82 83  1  0  0  0
 82154  1  0  0  0
 82155  1  0  0  0
 83156  1  0  0  0
 83157  1  0  0  0
 84158  1  0  0  0
 85159  1  0  0  0
 87160  1  0  0  0
M  ISO  4   1 100  68 101  77 101  85 100
M  END
> <chiral flag>
0

> <version>
0

> <s_m_source_file>
/data/baiqing/PycharmProjects/Reinvent-master-3.2/result/LINK_invent/BTK/process_docking_weight1_custom_product_contain_oxygen_bond_distance_aromatic_linkinvent_7_9_3/rearranged_h_0170.sdf

> <i_m_source_file_index>
19

> <r_mmod_Potential_Energy-OPLS-2005>
287.225463867188

> <r_mmod_Stretch_Energy-OPLS-2005>
165.493530273438

> <r_mmod_Bend_Energy-OPLS-2005>
183.316909790039

> <r_mmod_Torsional_Energy-OPLS-2005>
292.80810546875

> <r_mmod_Improper_Torsional_Energy-OPLS-2005>
9.97377872467041

> <r_mmod_Van_der_Waal_Energy-OPLS-2005>
148.871917724609

> <r_mmod_Electrostatic_Energy-OPLS-2005>
-388.007537841797

> <r_mmod_Solvation_Energy-OPLS-2005>
-244.808334350586

> <b_mmod_Minimization_Converged-OPLS-2005>
0

> <r_mmod_RMS_Derivative-OPLS-2005>
6.18984317779541

$$$$
19
                    3D
 Structure written by MMmdl.
153161  0  0  1  0            999 V2000
  -30.6990  -14.4805   20.5518 C   0  0  0  0  0  0
  -30.4312  -12.2974   19.4517 C   0  0  0  0  0  0
  -29.5094  -12.4686   18.2249 C   0  0  0  0  0  0
  -28.0255  -12.3513   18.6227 C   0  0  0  0  0  0
  -27.6615  -13.2078   19.8650 C   0  0  2  0  0  0
  -28.6971  -13.0097   20.9955 C   0  0  0  0  0  0
  -25.2588  -13.8158   20.5670 C   0  0  0  0  0  0
  -24.1828  -13.0438   20.9153 C   0  0  0  0  0  0
  -24.6371  -11.6901   20.8703 C   0  0  0  0  0  0
  -23.9044  -10.4294   21.0383 C   0  0  0  0  0  0
  -24.3588   -9.4207   21.9161 C   0  0  0  0  0  0
  -23.6256   -8.2252   22.0753 C   0  0  0  0  0  0
  -22.4240   -8.0267   21.3552 C   0  0  0  0  0  0
  -21.9879   -9.0250   20.4652 C   0  0  0  0  0  0
  -22.7219  -10.2113   20.3053 C   0  0  0  0  0  0
  -21.6819   -6.0711   22.5279 C   0  0  0  0  0  0
  -21.3991   -6.5615   23.8201 C   0  0  0  0  0  0
  -21.3694   -5.6774   24.9174 C   0  0  0  0  0  0
  -21.6069   -4.3042   24.7224 C   0  0  0  0  0  0
  -21.8828   -3.8133   23.4350 C   0  0  0  0  0  0
  -21.9181   -4.6952   22.3403 C   0  0  0  0  0  0
  -22.7851  -13.5252   21.1823 C   0  0  0  0  0  0
  -22.1662   -4.2145   21.0985 F   0  0  0  0  0  0
  -21.5653   -3.4531   25.7741 F   0  0  0  0  0  0
  -30.0360  -13.2963   20.4567 N   0  0  0  0  0  0
  -26.3003  -12.9330   20.3281 N   0  0  0  0  0  0
  -25.9287  -11.6486   20.5680 N   0  0  0  0  0  0
  -22.0448  -12.8279   22.0371 N   0  0  0  0  0  0
  -25.4325  -15.1877   20.4171 N   0  0  0  0  0  0
  -31.8561  -14.6339   20.1445 O   0  0  0  0  0  0
  -21.6617   -6.8849   21.4224 O   0  0  0  0  0  0
  -22.3577  -14.5564   20.6668 O   0  0  0  0  0  0
  -24.6153  -31.8698   23.2118 C   0  0  0  0  0  0
  -25.9043  -32.4834   23.8411 C   0  0  1  0  0  0
  -27.2185  -27.4322   20.0975 C   0  0  0  0  0  0
  -25.5892  -33.8628   24.2350 N   0  0  0  0  0  0
  -23.4005  -30.4997   21.5526 C   0  0  2  0  0  0
  -24.8435  -28.9734   20.1091 C   0  0  0  0  0  0
  -22.7404  -29.4686   22.4962 C   0  0  0  0  0  0
  -18.0268  -28.1376   22.8496 C   0  0  0  0  0  0
  -24.1481  -36.7334   23.2637 C   0  0  0  0  0  0
  -25.9309  -30.8414   21.3596 C   0  0  0  0  0  0
  -26.0063  -29.4756   20.7060 C   0  0  0  0  0  0
  -27.1997  -28.7141   20.6944 C   0  0  0  0  0  0
  -26.0375  -26.9567   19.4798 C   0  0  0  0  0  0
  -24.8542  -27.7138   19.4916 C   0  0  0  0  0  0
  -23.6081  -29.8429   20.1634 C   0  0  0  0  0  0
  -25.4089  -36.3124   24.0351 C   0  0  1  0  0  0
  -20.5859  -28.3672   23.1310 C   0  0  2  0  0  0
  -20.6753  -26.9395   22.5415 C   0  0  0  0  0  0
  -19.5723  -26.6383   21.5202 C   0  0  0  0  0  0
  -18.1913  -26.7921   22.1630 C   0  0  0  0  0  0
  -19.1521  -28.8832   23.2919 C   0  0  0  0  0  0
  -18.9455  -30.1438   23.8934 C   0  0  0  0  0  0
  -17.6466  -30.6582   24.0571 C   0  0  0  0  0  0
  -25.9010  -34.9479   23.5146 C   0  0  0  0  0  0
  -16.5358  -29.9094   23.6318 C   0  0  0  0  0  0
  -16.7264  -28.6508   23.0341 C   0  0  0  0  0  0
  -26.4466  -31.6602   25.0726 C   0  0  0  0  0  0
  -25.3771  -31.3716   26.1518 C   0  0  0  0  0  0
  -27.0275  -30.3049   24.6070 C   0  0  0  0  0  0
  -27.6069  -32.4292   25.7475 C   0  0  0  0  0  0
  -27.5575  -37.1818   24.8463 C   0  0  0  0  0  0
  -21.4119  -29.3057   22.3719 N   0  0  0  0  0  0
  -26.4284  -37.3807   23.9414 N   0  0  0  0  0  0
  -24.6682  -31.0832   22.1010 N   0  0  0  0  0  0
  -23.4204  -28.8176   23.2950 O   0  0  0  0  0  0
  -28.3595  -26.6559   20.1444 O   0  0  0  0  0  0
  -26.5572  -34.8931   22.4710 O   0  0  0  0  0  0
  -23.5354  -32.1430   23.7534 O   0  0  0  0  0  0
  -29.9782  -19.3463   19.0157 C   0  0  0  0  0  0
  -30.1423  -18.1680   18.2759 C   0  0  0  0  0  0
  -29.8023  -18.0322   21.0633 C   0  0  0  0  0  0
  -29.7813  -19.3012   20.4157 C   0  0  0  0  0  0
  -29.9925  -16.8285   20.3228 C   0  0  0  0  0  0
  -30.1246  -16.9190   18.9122 C   0  0  0  0  0  0
  -29.1078  -23.0145   21.2664 C   0  0  0  0  0  0
  -29.3397  -24.4269   20.6540 C   0  0  0  0  0  0
  -29.6025  -21.8032   20.4540 C   0  0  0  0  0  0
  -28.0899  -25.2486   20.3183 C   0  0  0  0  0  0
  -29.9688  -15.5390   20.9606 N   0  0  0  0  0  0
  -29.5524  -20.4918   21.1382 N   0  0  0  0  0  0
  -28.5636  -22.8681   22.3695 O   0  0  0  0  0  0
  -30.4822  -24.8553   20.4399 O   0  0  0  0  0  0
  -30.1874  -15.8124   18.1363 F   0  0  0  0  0  0
  -31.4781  -12.3925   19.1580 H   0  0  0  0  0  0
  -30.3337  -11.2947   19.8691 H   0  0  0  0  0  0
  -29.7493  -11.7123   17.4767 H   0  0  0  0  0  0
  -29.6926  -13.4311   17.7468 H   0  0  0  0  0  0
  -27.8184  -11.3000   18.8246 H   0  0  0  0  0  0
  -27.3949  -12.6282   17.7774 H   0  0  0  0  0  0
  -27.7023  -14.2496   19.5461 H   0  0  0  0  0  0
  -28.6640  -11.9845   21.3622 H   0  0  0  0  0  0
  -28.4549  -13.6342   21.8565 H   0  0  0  0  0  0
  -25.2747   -9.5691   22.4711 H   0  0  0  0  0  0
  -23.9976   -7.4662   22.7494 H   0  0  0  0  0  0
  -21.0813   -8.8780   19.8946 H   0  0  0  0  0  0
  -22.3698  -10.9642   19.6148 H   0  0  0  0  0  0
  -21.1935   -7.6113   23.9705 H   0  0  0  0  0  0
  -21.1518   -6.0493   25.9076 H   0  0  0  0  0  0
  -22.0566   -2.7587   23.2843 H   0  0  0  0  0  0
  -22.4016  -11.9969   22.4838 H   0  0  0  0  0  0
  -21.1066  -13.1382   22.2510 H   0  0  0  0  0  0
  -24.6700  -15.8449   20.5454 H   0  0  0  0  0  0
  -26.2927  -15.6298   20.1207 H   0  0  0  0  0  0
  -26.7122  -32.5557   23.1188 H   0  0  0  0  0  0
  -25.0058  -33.9781   25.0507 H   0  0  0  0  0  0
  -22.6900  -31.3189   21.4187 H   0  0  0  0  0  0
  -23.3723  -35.9687   23.3324 H   0  0  0  0  0  0
  -24.3591  -36.8920   22.2049 H   0  0  0  0  0  0
  -23.7259  -37.6559   23.6631 H   0  0  0  0  0  0
  -26.0342  -31.6065   20.5877 H   0  0  0  0  0  0
  -26.8248  -30.9024   21.9699 H   0  0  0  0  0  0
  -28.0942  -29.0955   21.1663 H   0  0  0  0  0  0
  -26.0049  -26.0010   18.9806 H   0  0  0  0  0  0
  -23.9611  -27.3250   19.0238 H   0  0  0  0  0  0
  -23.7233  -30.6231   19.4094 H   0  0  0  0  0  0
  -22.7290  -29.2710   19.8605 H   0  0  0  0  0  0
  -25.1254  -36.2001   25.0843 H   0  0  0  0  0  0
  -20.9979  -28.3240   24.1418 H   0  0  0  0  0  0
  -20.5618  -26.2266   23.3610 H   0  0  0  0  0  0
  -21.6638  -26.7411   22.1233 H   0  0  0  0  0  0
  -19.6871  -25.6294   21.1226 H   0  0  0  0  0  0
  -19.6646  -27.3192   20.6728 H   0  0  0  0  0  0
  -17.4163  -26.6677   21.4056 H   0  0  0  0  0  0
  -18.0316  -26.0069   22.9028 H   0  0  0  0  0  0
  -19.7930  -30.7236   24.2340 H   0  0  0  0  0  0
  -17.5015  -31.6268   24.5163 H   0  0  0  0  0  0
  -15.5354  -30.3015   23.7592 H   0  0  0  0  0  0
  -15.8664  -28.0829   22.7036 H   0  0  0  0  0  0
  -24.5861  -30.7147   25.7880 H   0  0  0  0  0  0
  -24.9061  -32.2882   26.5074 H   0  0  0  0  0  0
  -25.8148  -30.8797   27.0215 H   0  0  0  0  0  0
  -26.2798  -29.6816   24.1154 H   0  0  0  0  0  0
  -27.4089  -29.7268   25.4492 H   0  0  0  0  0  0
  -27.8610  -30.4364   23.9170 H   0  0  0  0  0  0
  -27.2716  -33.3576   26.2109 H   0  0  0  0  0  0
  -28.3851  -32.6880   25.0282 H   0  0  0  0  0  0
  -28.0773  -31.8382   26.5345 H   0  0  0  0  0  0
  -28.2608  -38.0099   24.7495 H   0  0  0  0  0  0
  -28.1057  -36.2635   24.6293 H   0  0  0  0  0  0
  -27.2315  -37.1500   25.8875 H   0  0  0  0  0  0
  -20.9225  -29.8882   21.7059 H   0  0  0  0  0  0
  -26.0175  -38.2889   24.1407 H   0  0  0  0  0  0
  -29.9890  -20.2710   18.4598 H   0  0  0  0  0  0
  -30.2544  -18.2224   17.2047 H   0  0  0  0  0  0
  -29.6704  -17.9780   22.1358 H   0  0  0  0  0  0
  -30.6194  -22.0036   20.1150 H   0  0  0  0  0  0
  -28.9663  -21.7718   19.5683 H   0  0  0  0  0  0
  -27.3474  -25.1054   21.1054 H   0  0  0  0  0  0
  -27.6849  -24.8273   19.3984 H   0  0  0  0  0  0
  -29.1438  -15.3301   21.5024 H   0  0  0  0  0  0
  -29.3836  -20.4916   22.1436 H   0  0  0  0  0  0
  1 25  1  0  0  0
  1 30  2  0  0  0
  1 81  1  0  0  0
  2  3  1  0  0  0
  2 25  1  0  0  0
  2 86  1  0  0  0
  2 87  1  0  0  0
  3  4  1  0  0  0
  3 88  1  0  0  0
  3 89  1  0  0  0
  4  5  1  0  0  0
  4 90  1  0  0  0
  4 91  1  0  0  0
  5  6  1  0  0  0
  5 26  1  0  0  0
  5 92  1  0  0  0
  6 25  1  0  0  0
  6 93  1  0  0  0
  6 94  1  0  0  0
  7  8  2  0  0  0
  7 26  1  0  0  0
  7 29  1  0  0  0
  8  9  1  0  0  0
  8 22  1  0  0  0
  9 10  1  0  0  0
  9 27  2  0  0  0
 10 11  2  0  0  0
 10 15  1  0  0  0
 11 12  1  0  0  0
 11 95  1  0  0  0
 12 13  2  0  0  0
 12 96  1  0  0  0
 13 14  1  0  0  0
 13 31  1  0  0  0
 14 15  2  0  0  0
 14 97  1  0  0  0
 15 98  1  0  0  0
 16 17  2  0  0  0
 16 21  1  0  0  0
 16 31  1  0  0  0
 17 18  1  0  0  0
 17 99  1  0  0  0
 18 19  2  0  0  0
 18100  1  0  0  0
 19 20  1  0  0  0
 19 24  1  0  0  0
 20 21  2  0  0  0
 20101  1  0  0  0
 21 23  1  0  0  0
 22 28  1  0  0  0
 22 32  2  0  0  0
 26 27  1  0  0  0
 28102  1  0  0  0
 28103  1  0  0  0
 29104  1  0  0  0
 29105  1  0  0  0
 33 34  1  0  0  0
 33 66  1  0  0  0
 33 70  2  0  0  0
 34 36  1  0  0  0
 34 59  1  0  0  0
 34106  1  0  0  0
 35 44  2  0  0  0
 35 45  1  0  0  0
 35 68  1  0  0  0
 36 56  1  0  0  0
 36107  1  0  0  0
 37 39  1  0  0  0
 37 47  1  0  0  0
 37 66  1  0  0  0
 37108  1  0  0  0
 38 43  2  0  0  0
 38 46  1  0  0  0
 38 47  1  0  0  0
 39 64  1  0  0  0
 39 67  2  0  0  0
 40 52  1  0  0  0
 40 53  2  0  0  0
 40 58  1  0  0  0
 41109  1  0  0  0
 41110  1  0  0  0
 41111  1  0  0  0
 41 48  1  0  0  0
 42 43  1  0  0  0
 42 66  1  0  0  0
 42112  1  0  0  0
 42113  1  0  0  0
 43 44  1  0  0  0
 44114  1  0  0  0
 45 46  2  0  0  0
 45115  1  0  0  0
 46116  1  0  0  0
 47117  1  0  0  0
 47118  1  0  0  0
 48 56  1  0  0  0
 48 65  1  0  0  0
 48119  1  0  0  0
 49 50  1  0  0  0
 49 53  1  0  0  0
 49 64  1  0  0  0
 49120  1  0  0  0
 50 51  1  0  0  0
 50121  1  0  0  0
 50122  1  0  0  0
 51 52  1  0  0  0
 51123  1  0  0  0
 51124  1  0  0  0
 52125  1  0  0  0
 52126  1  0  0  0
 53 54  1  0  0  0
 54 55  2  0  0  0
 54127  1  0  0  0
 55 57  1  0  0  0
 55128  1  0  0  0
 56 69  2  0  0  0
 57 58  2  0  0  0
 57129  1  0  0  0
 58130  1  0  0  0
 59 60  1  0  0  0
 59 61  1  0  0  0
 59 62  1  0  0  0
 60131  1  0  0  0
 60132  1  0  0  0
 60133  1  0  0  0
 61134  1  0  0  0
 61135  1  0  0  0
 61136  1  0  0  0
 62137  1  0  0  0
 62138  1  0  0  0
 62139  1  0  0  0
 63 65  1  0  0  0
 63140  1  0  0  0
 63141  1  0  0  0
 63142  1  0  0  0
 64143  1  0  0  0
 65144  1  0  0  0
 68 80  1  0  0  0
 71 72  2  0  0  0
 71 74  1  0  0  0
 71145  1  0  0  0
 72 76  1  0  0  0
 72146  1  0  0  0
 73 74  2  0  0  0
 73 75  1  0  0  0
 73147  1  0  0  0
 74 82  1  0  0  0
 75 76  2  0  0  0
 75 81  1  0  0  0
 76 85  1  0  0  0
 77 78  1  0  0  0
 77 79  1  0  0  0
 77 83  2  0  0  0
 78 80  1  0  0  0
 78 84  2  0  0  0
 79 82  1  0  0  0
 79148  1  0  0  0
 79149  1  0  0  0
 80150  1  0  0  0
 80151  1  0  0  0
 81152  1  0  0  0
 82153  1  0  0  0
M  ISO  4   1 100  68 101  80 101  81 100
M  END
> <chiral flag>
0

> <version>
0

> <s_m_source_file>
/data/baiqing/PycharmProjects/Reinvent-master-3.2/result/LINK_invent/BTK/process_docking_weight1_custom_product_contain_oxygen_bond_distance_aromatic_linkinvent_7_9_3/rearranged_h_0170.sdf

> <i_m_source_file_index>
20

> <r_mmod_Potential_Energy-OPLS-2005>
42.6359443664551

> <r_mmod_Stretch_Energy-OPLS-2005>
41.9319305419922

> <r_mmod_Bend_Energy-OPLS-2005>
101.135780334473

> <r_mmod_Torsional_Energy-OPLS-2005>
256.544891357422

> <r_mmod_Improper_Torsional_Energy-OPLS-2005>
5.26361608505249

> <r_mmod_Van_der_Waal_Energy-OPLS-2005>
162.011123657227

> <r_mmod_Electrostatic_Energy-OPLS-2005>
-287.267425537109

> <r_mmod_Solvation_Energy-OPLS-2005>
-254.415451049805

> <b_mmod_Minimization_Converged-OPLS-2005>
0

> <r_mmod_RMS_Derivative-OPLS-2005>
3.5086305141449

$$$$
20
                    3D
 Structure written by MMmdl.
157165  0  0  1  0            999 V2000
  -30.6387  -14.5361   20.5020 C   0  0  0  0  0  0
  -30.4145  -12.3209   19.4339 C   0  0  0  0  0  0
  -29.4903  -12.4694   18.2060 C   0  0  0  0  0  0
  -28.0100  -12.3362   18.6186 C   0  0  0  0  0  0
  -27.6464  -13.1990   19.8568 C   0  0  2  0  0  0
  -28.6875  -13.0261   20.9839 C   0  0  0  0  0  0
  -25.2558  -13.8149   20.5648 C   0  0  0  0  0  0
  -24.1842  -13.0477   20.9190 C   0  0  0  0  0  0
  -24.6368  -11.6915   20.8762 C   0  0  0  0  0  0
  -23.9042  -10.4307   21.0431 C   0  0  0  0  0  0
  -24.3602   -9.4226   21.9208 C   0  0  0  0  0  0
  -23.6292   -8.2254   22.0773 C   0  0  0  0  0  0
  -22.4275   -8.0285   21.3548 C   0  0  0  0  0  0
  -21.9913   -9.0262   20.4632 C   0  0  0  0  0  0
  -22.7233  -10.2148   20.3059 C   0  0  0  0  0  0
  -21.6838   -6.0749   22.5274 C   0  0  0  0  0  0
  -21.4008   -6.5674   23.8197 C   0  0  0  0  0  0
  -21.3653   -5.6826   24.9182 C   0  0  0  0  0  0
  -21.6032   -4.3064   24.7224 C   0  0  0  0  0  0
  -21.8824   -3.8168   23.4330 C   0  0  0  0  0  0
  -21.9199   -4.6987   22.3397 C   0  0  0  0  0  0
  -22.7859  -13.5261   21.1854 C   0  0  0  0  0  0
  -22.1667   -4.2168   21.0982 F   0  0  0  0  0  0
  -21.5628   -3.4540   25.7758 F   0  0  0  0  0  0
  -30.0060  -13.3336   20.4168 N   0  0  0  0  0  0
  -26.2935  -12.9286   20.3260 N   0  0  0  0  0  0
  -25.9263  -11.6447   20.5744 N   0  0  0  0  0  0
  -22.0489  -12.8250   22.0373 N   0  0  0  0  0  0
  -25.4366  -15.1873   20.4015 N   0  0  0  0  0  0
  -31.8069  -14.6922   20.1331 O   0  0  0  0  0  0
  -21.6646   -6.8890   21.4261 O   0  0  0  0  0  0
  -22.3558  -14.5603   20.6727 O   0  0  0  0  0  0
  -24.6119  -31.8670   23.2083 C   0  0  0  0  0  0
  -25.9007  -32.4811   23.8387 C   0  0  1  0  0  0
  -27.2487  -27.4163   20.0800 C   0  0  0  0  0  0
  -25.5847  -33.8598   24.2304 N   0  0  0  0  0  0
  -23.4038  -30.4859   21.5461 C   0  0  2  0  0  0
  -24.8530  -28.9479   20.1142 C   0  0  0  0  0  0
  -22.7437  -29.4614   22.4954 C   0  0  0  0  0  0
  -18.0287  -28.1363   22.8477 C   0  0  0  0  0  0
  -24.1496  -36.7280   23.2635 C   0  0  0  0  0  0
  -25.9378  -30.8142   21.3779 C   0  0  0  0  0  0
  -26.0116  -29.4512   20.7166 C   0  0  0  0  0  0
  -27.2030  -28.6888   20.7008 C   0  0  0  0  0  0
  -26.0579  -26.9162   19.5014 C   0  0  0  0  0  0
  -24.8696  -27.6777   19.5116 C   0  0  0  0  0  0
  -23.6165  -29.8181   20.1616 C   0  0  0  0  0  0
  -25.4128  -36.3086   24.0333 C   0  0  1  0  0  0
  -20.5860  -28.3614   23.1329 C   0  0  2  0  0  0
  -20.6796  -26.9333   22.5431 C   0  0  0  0  0  0
  -19.5785  -26.6350   21.5200 C   0  0  0  0  0  0
  -18.1937  -26.7892   22.1581 C   0  0  0  0  0  0
  -19.1530  -28.8797   23.2900 C   0  0  0  0  0  0
  -18.9474  -30.1415   23.8891 C   0  0  0  0  0  0
  -17.6472  -30.6578   24.0529 C   0  0  0  0  0  0
  -25.9030  -34.9460   23.5121 C   0  0  0  0  0  0
  -16.5360  -29.9048   23.6333 C   0  0  0  0  0  0
  -16.7274  -28.6473   23.0332 C   0  0  0  0  0  0
  -26.4439  -31.6640   25.0742 C   0  0  0  0  0  0
  -25.3705  -31.3753   26.1495 C   0  0  0  0  0  0
  -27.0329  -30.3080   24.6182 C   0  0  0  0  0  0
  -27.5997  -32.4408   25.7509 C   0  0  0  0  0  0
  -27.5608  -37.1793   24.8464 C   0  0  0  0  0  0
  -21.4143  -29.2994   22.3753 N   0  0  0  0  0  0
  -26.4329  -37.3778   23.9391 N   0  0  0  0  0  0
  -24.6662  -31.0760   22.0982 N   0  0  0  0  0  0
  -23.4222  -28.8169   23.3001 O   0  0  0  0  0  0
  -28.4505  -26.7221   20.0988 O   0  0  0  0  0  0
  -26.5630  -34.8927   22.4702 O   0  0  0  0  0  0
  -23.5320  -32.1420   23.7512 O   0  0  0  0  0  0
  -29.8441  -18.0818   20.3183 C   0  0  0  0  0  0
  -31.1479  -17.1391   22.1407 C   0  0  0  0  0  0
  -31.3767  -19.5244   21.6014 C   0  0  0  0  0  0
  -30.2849  -16.9388   21.0524 C   0  0  0  0  0  0
  -30.3458  -19.3944   20.6028 C   0  0  0  0  0  0
  -31.6881  -18.4028   22.4095 C   0  0  0  0  0  0
  -29.4849  -21.7363   20.3477 C   0  0  0  0  0  0
  -29.2602  -22.9501   19.3951 C   0  0  0  0  0  0
  -28.7198  -24.2324   20.1301 C   0  0  0  0  0  0
  -28.6782  -25.5429   19.2952 C   0  0  0  0  0  0
  -32.2470  -20.7751   21.8411 C   0  0  0  0  0  0
  -29.8210  -20.5179   19.8483 N   0  0  0  0  0  0
  -29.8439  -15.5987   20.7954 N   0  0  0  0  0  0
  -29.3358  -21.8953   21.5598 O   0  0  0  0  0  0
  -32.5327  -18.5173   23.4632 F   0  0  0  0  0  0
  -31.8688  -21.4148   22.9500 F   0  0  0  0  0  0
  -33.5177  -20.3974   22.0096 F   0  0  0  0  0  0
  -32.2796  -21.6372   20.8228 F   0  0  0  0  0  0
  -31.4598  -12.4224   19.1378 H   0  0  0  0  0  0
  -30.3218  -11.3209   19.8639 H   0  0  0  0  0  0
  -29.7335  -11.7135   17.4599 H   0  0  0  0  0  0
  -29.6539  -13.4353   17.7277 H   0  0  0  0  0  0
  -27.8231  -11.2827   18.8369 H   0  0  0  0  0  0
  -27.3608  -12.5879   17.7779 H   0  0  0  0  0  0
  -27.6769  -14.2350   19.5193 H   0  0  0  0  0  0
  -28.6727  -12.0049   21.3680 H   0  0  0  0  0  0
  -28.4468  -13.6664   21.8331 H   0  0  0  0  0  0
  -25.2745   -9.5730   22.4795 H   0  0  0  0  0  0
  -24.0011   -7.4652   22.7497 H   0  0  0  0  0  0
  -21.0866   -8.8759   19.8913 H   0  0  0  0  0  0
  -22.3691  -10.9696   19.6168 H   0  0  0  0  0  0
  -21.1988   -7.6160   23.9729 H   0  0  0  0  0  0
  -21.1462   -6.0541   25.9097 H   0  0  0  0  0  0
  -22.0599   -2.7620   23.2840 H   0  0  0  0  0  0
  -22.4067  -11.9863   22.4713 H   0  0  0  0  0  0
  -21.1101  -13.1276   22.2585 H   0  0  0  0  0  0
  -24.6749  -15.8492   20.4998 H   0  0  0  0  0  0
  -26.2824  -15.6102   20.0441 H   0  0  0  0  0  0
  -26.7073  -32.5510   23.1143 H   0  0  0  0  0  0
  -24.9972  -33.9742   25.0423 H   0  0  0  0  0  0
  -22.6907  -31.3005   21.4057 H   0  0  0  0  0  0
  -23.3788  -35.9592   23.3330 H   0  0  0  0  0  0
  -24.3543  -36.8856   22.2037 H   0  0  0  0  0  0
  -23.7247  -37.6465   23.6673 H   0  0  0  0  0  0
  -26.0805  -31.5945   20.6281 H   0  0  0  0  0  0
  -26.8116  -30.8451   22.0169 H   0  0  0  0  0  0
  -28.0962  -29.0722   21.1763 H   0  0  0  0  0  0
  -26.0171  -25.9352   19.0481 H   0  0  0  0  0  0
  -23.9732  -27.2763   19.0581 H   0  0  0  0  0  0
  -23.7217  -30.5896   19.3974 H   0  0  0  0  0  0
  -22.7448  -29.2284   19.8724 H   0  0  0  0  0  0
  -25.1327  -36.1936   25.0838 H   0  0  0  0  0  0
  -20.9962  -28.3209   24.1442 H   0  0  0  0  0  0
  -20.5696  -26.2188   23.3618 H   0  0  0  0  0  0
  -21.6672  -26.7415   22.1195 H   0  0  0  0  0  0
  -19.6922  -25.6250   21.1236 H   0  0  0  0  0  0
  -19.6765  -27.3183   20.6752 H   0  0  0  0  0  0
  -17.4223  -26.6649   21.3986 H   0  0  0  0  0  0
  -18.0296  -26.0065   22.9006 H   0  0  0  0  0  0
  -19.7955  -30.7191   24.2305 H   0  0  0  0  0  0
  -17.5034  -31.6260   24.5096 H   0  0  0  0  0  0
  -15.5344  -30.2922   23.7695 H   0  0  0  0  0  0
  -15.8674  -28.0788   22.7039 H   0  0  0  0  0  0
  -24.5810  -30.7170   25.7816 H   0  0  0  0  0  0
  -24.8959  -32.2917   26.5033 H   0  0  0  0  0  0
  -25.8013  -30.8827   27.0222 H   0  0  0  0  0  0
  -26.2911  -29.6790   24.1227 H   0  0  0  0  0  0
  -27.4051  -29.7355   25.4691 H   0  0  0  0  0  0
  -27.8785  -30.4379   23.9416 H   0  0  0  0  0  0
  -27.2573  -33.3718   26.2073 H   0  0  0  0  0  0
  -28.3808  -32.6970   25.0318 H   0  0  0  0  0  0
  -28.0683  -31.8545   26.5413 H   0  0  0  0  0  0
  -28.2621  -38.0107   24.7527 H   0  0  0  0  0  0
  -28.1121  -36.2619   24.6325 H   0  0  0  0  0  0
  -27.2296  -37.1468   25.8860 H   0  0  0  0  0  0
  -20.9299  -29.8693   21.6933 H   0  0  0  0  0  0
  -26.0225  -38.2849   24.1382 H   0  0  0  0  0  0
  -29.1131  -17.9507   19.5322 H   0  0  0  0  0  0
  -31.4314  -16.3079   22.7672 H   0  0  0  0  0  0
  -28.6172  -22.6643   18.5561 H   0  0  0  0  0  0
  -30.2278  -23.1979   18.9443 H   0  0  0  0  0  0
  -29.3510  -24.4424   20.9992 H   0  0  0  0  0  0
  -27.7268  -24.0268   20.5334 H   0  0  0  0  0  0
  -28.0065  -25.4558   18.4432 H   0  0  0  0  0  0
  -29.6642  -25.6900   18.8523 H   0  0  0  0  0  0
  -29.6047  -20.3522   18.8751 H   0  0  0  0  0  0
  -28.8691  -15.3914   20.9578 H   0  0  0  0  0  0
  1 25  1  0  0  0
  1 30  2  0  0  0
  1 83  1  0  0  0
  2  3  1  0  0  0
  2 25  1  0  0  0
  2 89  1  0  0  0
  2 90  1  0  0  0
  3  4  1  0  0  0
  3 91  1  0  0  0
  3 92  1  0  0  0
  4  5  1  0  0  0
  4 93  1  0  0  0
  4 94  1  0  0  0
  5  6  1  0  0  0
  5 26  1  0  0  0
  5 95  1  0  0  0
  6 25  1  0  0  0
  6 96  1  0  0  0
  6 97  1  0  0  0
  7  8  2  0  0  0
  7 26  1  0  0  0
  7 29  1  0  0  0
  8  9  1  0  0  0
  8 22  1  0  0  0
  9 10  1  0  0  0
  9 27  2  0  0  0
 10 11  2  0  0  0
 10 15  1  0  0  0
 11 12  1  0  0  0
 11 98  1  0  0  0
 12 13  2  0  0  0
 12 99  1  0  0  0
 13 14  1  0  0  0
 13 31  1  0  0  0
 14 15  2  0  0  0
 14100  1  0  0  0
 15101  1  0  0  0
 16 17  2  0  0  0
 16 21  1  0  0  0
 16 31  1  0  0  0
 17 18  1  0  0  0
 17102  1  0  0  0
 18 19  2  0  0  0
 18103  1  0  0  0
 19 20  1  0  0  0
 19 24  1  0  0  0
 20 21  2  0  0  0
 20104  1  0  0  0
 21 23  1  0  0  0
 22 28  1  0  0  0
 22 32  2  0  0  0
 26 27  1  0  0  0
 28105  1  0  0  0
 28106  1  0  0  0
 29107  1  0  0  0
 29108  1  0  0  0
 33 34  1  0  0  0
 33 66  1  0  0  0
 33 70  2  0  0  0
 34 36  1  0  0  0
 34 59  1  0  0  0
 34109  1  0  0  0
 35 44  2  0  0  0
 35 45  1  0  0  0
 35 68  1  0  0  0
 36 56  1  0  0  0
 36110  1  0  0  0
 37 39  1  0  0  0
 37 47  1  0  0  0
 37 66  1  0  0  0
 37111  1  0  0  0
 38 43  2  0  0  0
 38 46  1  0  0  0
 38 47  1  0  0  0
 39 64  1  0  0  0
 39 67  2  0  0  0
 40 52  1  0  0  0
 40 53  2  0  0  0
 40 58  1  0  0  0
 41112  1  0  0  0
 41113  1  0  0  0
 41114  1  0  0  0
 41 48  1  0  0  0
 42 43  1  0  0  0
 42 66  1  0  0  0
 42115  1  0  0  0
 42116  1  0  0  0
 43 44  1  0  0  0
 44117  1  0  0  0
 45 46  2  0  0  0
 45118  1  0  0  0
 46119  1  0  0  0
 47120  1  0  0  0
 47121  1  0  0  0
 48 56  1  0  0  0
 48 65  1  0  0  0
 48122  1  0  0  0
 49 50  1  0  0  0
 49 53  1  0  0  0
 49 64  1  0  0  0
 49123  1  0  0  0
 50 51  1  0  0  0
 50124  1  0  0  0
 50125  1  0  0  0
 51 52  1  0  0  0
 51126  1  0  0  0
 51127  1  0  0  0
 52128  1  0  0  0
 52129  1  0  0  0
 53 54  1  0  0  0
 54 55  2  0  0  0
 54130  1  0  0  0
 55 57  1  0  0  0
 55131  1  0  0  0
 56 69  2  0  0  0
 57 58  2  0  0  0
 57132  1  0  0  0
 58133  1  0  0  0
 59 60  1  0  0  0
 59 61  1  0  0  0
 59 62  1  0  0  0
 60134  1  0  0  0
 60135  1  0  0  0
 60136  1  0  0  0
 61137  1  0  0  0
 61138  1  0  0  0
 61139  1  0  0  0
 62140  1  0  0  0
 62141  1  0  0  0
 62142  1  0  0  0
 63 65  1  0  0  0
 63143  1  0  0  0
 63144  1  0  0  0
 63145  1  0  0  0
 64146  1  0  0  0
 65147  1  0  0  0
 68 80  1  0  0  0
 71 74  2  0  0  0
 71 75  1  0  0  0
 71148  1  0  0  0
 72 74  1  0  0  0
 72 76  2  0  0  0
 72149  1  0  0  0
 73 75  2  0  0  0
 73 76  1  0  0  0
 73 81  1  0  0  0
 74 83  1  0  0  0
 75 82  1  0  0  0
 76 85  1  0  0  0
 77 78  1  0  0  0
 77 82  1  0  0  0
 77 84  2  0  0  0
 78 79  1  0  0  0
 78150  1  0  0  0
 78151  1  0  0  0
 79 80  1  0  0  0
 79152  1  0  0  0
 79153  1  0  0  0
 80154  1  0  0  0
 80155  1  0  0  0
 81 86  1  0  0  0
 81 87  1  0  0  0
 81 88  1  0  0  0
 82156  1  0  0  0
 83157  1  0  0  0
M  ISO  4   1 100  68 101  80 101  83 100
M  END
> <chiral flag>
0

> <version>
0

> <s_m_source_file>
/data/baiqing/PycharmProjects/Reinvent-master-3.2/result/LINK_invent/BTK/process_docking_weight1_custom_product_contain_oxygen_bond_distance_aromatic_linkinvent_7_9_3/rearranged_h_0170.sdf

> <i_m_source_file_index>
21

> <r_mmod_Potential_Energy-OPLS-2005>
54.1533164978027

> <r_mmod_Stretch_Energy-OPLS-2005>
53.7344818115234

> <r_mmod_Bend_Energy-OPLS-2005>
119.673049926758

> <r_mmod_Torsional_Energy-OPLS-2005>
262.786651611328

> <r_mmod_Improper_Torsional_Energy-OPLS-2005>
5.75090980529785

> <r_mmod_Van_der_Waal_Energy-OPLS-2005>
158.713394165039

> <r_mmod_Electrostatic_Energy-OPLS-2005>
-328.541290283203

> <r_mmod_Solvation_Energy-OPLS-2005>
-239.821151733398

> <b_mmod_Minimization_Converged-OPLS-2005>
0

> <r_mmod_RMS_Derivative-OPLS-2005>
7.44204425811768

$$$$
21
                    3D
 Structure written by MMmdl.
162170  0  0  1  0            999 V2000
  -30.5829  -14.8355   20.4592 C   0  0  0  0  0  0
  -30.4388  -12.5195   19.4837 C   0  0  0  0  0  0
  -29.5154  -12.5195   18.2451 C   0  0  0  0  0  0
  -28.0456  -12.3236   18.6632 C   0  0  0  0  0  0
  -27.6373  -13.2379   19.8483 C   0  0  2  0  0  0
  -28.6819  -13.2110   20.9847 C   0  0  0  0  0  0
  -25.2495  -13.8191   20.5708 C   0  0  0  0  0  0
  -24.1798  -13.0429   20.9232 C   0  0  0  0  0  0
  -24.6402  -11.6918   20.8761 C   0  0  0  0  0  0
  -23.9079  -10.4293   21.0416 C   0  0  0  0  0  0
  -24.3632   -9.4208   21.9188 C   0  0  0  0  0  0
  -23.6308   -8.2235   22.0748 C   0  0  0  0  0  0
  -22.4283   -8.0278   21.3545 C   0  0  0  0  0  0
  -21.9927   -9.0254   20.4647 C   0  0  0  0  0  0
  -22.7254  -10.2137   20.3065 C   0  0  0  0  0  0
  -21.6857   -6.0747   22.5284 C   0  0  0  0  0  0
  -21.4010   -6.5647   23.8221 C   0  0  0  0  0  0
  -21.3655   -5.6796   24.9181 C   0  0  0  0  0  0
  -21.6044   -4.3060   24.7231 C   0  0  0  0  0  0
  -21.8817   -3.8156   23.4349 C   0  0  0  0  0  0
  -21.9196   -4.6977   22.3411 C   0  0  0  0  0  0
  -22.7820  -13.5210   21.1872 C   0  0  0  0  0  0
  -22.1666   -4.2162   21.0988 F   0  0  0  0  0  0
  -21.5625   -3.4544   25.7742 F   0  0  0  0  0  0
  -29.9683  -13.5967   20.3926 N   0  0  0  0  0  0
  -26.2923  -12.9407   20.3285 N   0  0  0  0  0  0
  -25.9334  -11.6547   20.5761 N   0  0  0  0  0  0
  -22.0475  -12.8202   22.0436 N   0  0  0  0  0  0
  -25.4185  -15.1916   20.4122 N   0  0  0  0  0  0
  -31.7806  -14.9019   20.1650 O   0  0  0  0  0  0
  -21.6635   -6.8882   21.4240 O   0  0  0  0  0  0
  -22.3518  -14.5516   20.6724 O   0  0  0  0  0  0
  -24.6327  -31.8507   23.1907 C   0  0  0  0  0  0
  -25.9149  -32.4728   23.8279 C   0  0  1  0  0  0
  -27.2318  -27.2391   20.1251 C   0  0  0  0  0  0
  -25.5930  -33.8525   24.2217 N   0  0  0  0  0  0
  -23.4308  -30.4687   21.5332 C   0  0  2  0  0  0
  -24.8815  -28.9043   20.1025 C   0  0  0  0  0  0
  -22.7513  -29.4580   22.4885 C   0  0  0  0  0  0
  -18.0308  -28.1390   22.8503 C   0  0  0  0  0  0
  -24.1490  -36.7255   23.2645 C   0  0  0  0  0  0
  -25.9755  -30.7581   21.3705 C   0  0  0  0  0  0
  -26.0500  -29.3777   20.7095 C   0  0  0  0  0  0
  -27.2226  -28.5554   20.7103 C   0  0  0  0  0  0
  -26.0424  -26.8315   19.4849 C   0  0  0  0  0  0
  -24.8849  -27.6423   19.4785 C   0  0  0  0  0  0
  -23.6510  -29.7922   20.1514 C   0  0  0  0  0  0
  -25.4117  -36.3041   24.0330 C   0  0  1  0  0  0
  -20.5903  -28.3708   23.1271 C   0  0  2  0  0  0
  -20.6770  -26.9430   22.5409 C   0  0  0  0  0  0
  -19.5738  -26.6394   21.5213 C   0  0  0  0  0  0
  -18.1932  -26.7941   22.1628 C   0  0  0  0  0  0
  -19.1559  -28.8872   23.2877 C   0  0  0  0  0  0
  -18.9478  -30.1478   23.8880 C   0  0  0  0  0  0
  -17.6470  -30.6586   24.0590 C   0  0  0  0  0  0
  -25.9054  -34.9421   23.5072 C   0  0  0  0  0  0
  -16.5369  -29.9083   23.6341 C   0  0  0  0  0  0
  -16.7291  -28.6506   23.0359 C   0  0  0  0  0  0
  -26.4515  -31.6564   25.0682 C   0  0  0  0  0  0
  -25.3748  -31.3739   26.1418 C   0  0  0  0  0  0
  -27.0353  -30.2969   24.6181 C   0  0  0  0  0  0
  -27.6076  -32.4313   25.7447 C   0  0  0  0  0  0
  -27.5573  -37.1784   24.8481 C   0  0  0  0  0  0
  -21.4217  -29.3027   22.3641 N   0  0  0  0  0  0
  -26.4285  -37.3751   23.9418 N   0  0  0  0  0  0
  -24.6984  -31.0451   22.0882 N   0  0  0  0  0  0
  -23.4209  -28.8165   23.3029 O   0  0  0  0  0  0
  -28.3325  -26.3557   20.2666 O   0  0  0  0  0  0
  -26.5646  -34.8916   22.4650 O   0  0  0  0  0  0
  -23.5477  -32.1331   23.7199 O   0  0  0  0  0  0
  -31.0059  -20.2481   20.7967 C   0  0  0  0  0  0
  -31.4703  -17.8417   21.0471 C   0  0  0  0  0  0
  -29.2429  -18.6102   20.4472 C   0  0  0  0  0  0
  -31.8900  -19.1936   21.1088 C   0  0  0  0  0  0
  -29.6470  -20.0273   20.4936 C   0  0  0  0  0  0
  -30.1536  -17.4712   20.6745 C   0  0  0  0  0  0
  -28.4836  -25.0276   19.7386 C   0  0  0  0  0  0
  -28.5293  -23.8035   20.4158 C   0  0  0  0  0  0
  -29.0534  -22.5001   19.8108 C   0  0  0  0  0  0
  -34.9419  -20.0193   23.2950 C   0  0  0  0  0  0
  -32.6426  -20.7934   23.5737 C   0  0  0  0  0  0
  -33.3225  -19.5385   21.5152 C   0  0  0  0  0  0
  -28.7943  -21.2661   20.4237 N   0  0  0  0  0  0
  -29.8024  -15.9990   20.6226 N   0  0  0  0  0  0
  -33.5200  -19.7580   22.9755 N   0  3  0  0  0  0
  -29.7408  -22.5104   18.7874 O   0  0  0  0  0  0
  -28.1846  -23.7809   21.7114 O   0  0  0  0  0  0
  -31.4752  -12.6649   19.1734 H   0  0  0  0  0  0
  -30.4124  -11.5532   19.9898 H   0  0  0  0  0  0
  -29.8149  -11.7360   17.5476 H   0  0  0  0  0  0
  -29.6219  -13.4646   17.7102 H   0  0  0  0  0  0
  -27.9233  -11.2779   18.9479 H   0  0  0  0  0  0
  -27.3840  -12.4860   17.8120 H   0  0  0  0  0  0
  -27.6185  -14.2506   19.4453 H   0  0  0  0  0  0
  -28.7454  -12.2186   21.4347 H   0  0  0  0  0  0
  -28.4025  -13.8974   21.7859 H   0  0  0  0  0  0
  -25.2779   -9.5677   22.4766 H   0  0  0  0  0  0
  -24.0028   -7.4619   22.7461 H   0  0  0  0  0  0
  -21.0863   -8.8776   19.8957 H   0  0  0  0  0  0
  -22.3711  -10.9678   19.6182 H   0  0  0  0  0  0
  -21.1994   -7.6153   23.9727 H   0  0  0  0  0  0
  -21.1475   -6.0527   25.9084 H   0  0  0  0  0  0
  -22.0598   -2.7619   23.2849 H   0  0  0  0  0  0
  -22.4099  -11.9867   22.4815 H   0  0  0  0  0  0
  -21.1096  -13.1229   22.2636 H   0  0  0  0  0  0
  -24.6460  -15.8418   20.5114 H   0  0  0  0  0  0
  -26.2562  -15.6295   20.0514 H   0  0  0  0  0  0
  -26.7229  -32.5386   23.1033 H   0  0  0  0  0  0
  -25.0095  -33.9655   25.0374 H   0  0  0  0  0  0
  -22.7282  -31.2911   21.3816 H   0  0  0  0  0  0
  -23.3740  -35.9601   23.3337 H   0  0  0  0  0  0
  -24.3558  -36.8837   22.2050 H   0  0  0  0  0  0
  -23.7266  -37.6474   23.6646 H   0  0  0  0  0  0
  -26.1165  -31.5224   20.6052 H   0  0  0  0  0  0
  -26.8503  -30.8071   22.0069 H   0  0  0  0  0  0
  -28.1155  -28.9102   21.2060 H   0  0  0  0  0  0
  -25.9911  -25.8554   19.0243 H   0  0  0  0  0  0
  -23.9874  -27.2712   19.0032 H   0  0  0  0  0  0
  -23.7784  -30.5633   19.3903 H   0  0  0  0  0  0
  -22.7699  -29.2227   19.8503 H   0  0  0  0  0  0
  -25.1311  -36.1870   25.0826 H   0  0  0  0  0  0
  -21.0017  -28.3292   24.1379 H   0  0  0  0  0  0
  -20.5634  -26.2343   23.3618 H   0  0  0  0  0  0
  -21.6653  -26.7418   22.1242 H   0  0  0  0  0  0
  -19.6888  -25.6296   21.1262 H   0  0  0  0  0  0
  -19.6665  -27.3193   20.6735 H   0  0  0  0  0  0
  -17.4207  -26.6726   21.4026 H   0  0  0  0  0  0
  -18.0317  -26.0063   22.9000 H   0  0  0  0  0  0
  -19.7953  -30.7324   24.2214 H   0  0  0  0  0  0
  -17.5021  -31.6260   24.5204 H   0  0  0  0  0  0
  -15.5365  -30.2985   23.7639 H   0  0  0  0  0  0
  -15.8700  -28.0815   22.7057 H   0  0  0  0  0  0
  -24.5935  -30.7057   25.7784 H   0  0  0  0  0  0
  -24.8924  -32.2913   26.4800 H   0  0  0  0  0  0
  -25.8081  -30.8976   27.0220 H   0  0  0  0  0  0
  -26.2919  -29.6701   24.1232 H   0  0  0  0  0  0
  -27.4054  -29.7257   25.4704 H   0  0  0  0  0  0
  -27.8807  -30.4227   23.9409 H   0  0  0  0  0  0
  -27.2687  -33.3630   26.1991 H   0  0  0  0  0  0
  -28.3890  -32.6831   25.0268 H   0  0  0  0  0  0
  -28.0738  -31.8452   26.5375 H   0  0  0  0  0  0
  -28.2640  -38.0032   24.7472 H   0  0  0  0  0  0
  -28.1013  -36.2560   24.6374 H   0  0  0  0  0  0
  -27.2292  -37.1546   25.8888 H   0  0  0  0  0  0
  -20.9403  -29.8725   21.6823 H   0  0  0  0  0  0
  -26.0151  -38.2831   24.1375 H   0  0  0  0  0  0
  -31.3730  -21.2646   20.8615 H   0  0  0  0  0  0
  -32.1882  -17.0779   21.3067 H   0  0  0  0  0  0
  -28.2067  -18.3950   20.2274 H   0  0  0  0  0  0
  -28.6986  -25.0777   18.6788 H   0  0  0  0  0  0
  -35.0955  -20.0958   24.3717 H   0  0  0  0  0  0
  -35.2755  -20.9548   22.8442 H   0  0  0  0  0  0
  -35.5838  -19.2190   22.9278 H   0  0  0  0  0  0
  -32.8483  -20.9065   24.6392 H   0  0  0  0  0  0
  -31.5883  -20.5334   23.4862 H   0  0  0  0  0  0
  -32.8006  -21.7638   23.1020 H   0  0  0  0  0  0
  -33.6449  -20.4265   20.9688 H   0  0  0  0  0  0
  -33.9773  -18.7313   21.1848 H   0  0  0  0  0  0
  -27.9665  -21.2475   21.0038 H   0  0  0  0  0  0
  -28.8160  -15.8012   20.6968 H   0  0  0  0  0  0
  -33.2831  -18.8881   23.4271 H   0  0  0  0  0  0
  -28.4094  -22.9211   22.0463 H   0  0  0  0  0  0
  1 25  1  0  0  0
  1 30  2  0  0  0
  1 84  1  0  0  0
  2  3  1  0  0  0
  2 25  1  0  0  0
  2 88  1  0  0  0
  2 89  1  0  0  0
  3  4  1  0  0  0
  3 90  1  0  0  0
  3 91  1  0  0  0
  4  5  1  0  0  0
  4 92  1  0  0  0
  4 93  1  0  0  0
  5  6  1  0  0  0
  5 26  1  0  0  0
  5 94  1  0  0  0
  6 25  1  0  0  0
  6 95  1  0  0  0
  6 96  1  0  0  0
  7  8  2  0  0  0
  7 26  1  0  0  0
  7 29  1  0  0  0
  8  9  1  0  0  0
  8 22  1  0  0  0
  9 10  1  0  0  0
  9 27  2  0  0  0
 10 11  2  0  0  0
 10 15  1  0  0  0
 11 12  1  0  0  0
 11 97  1  0  0  0
 12 13  2  0  0  0
 12 98  1  0  0  0
 13 14  1  0  0  0
 13 31  1  0  0  0
 14 15  2  0  0  0
 14 99  1  0  0  0
 15100  1  0  0  0
 16 17  2  0  0  0
 16 21  1  0  0  0
 16 31  1  0  0  0
 17 18  1  0  0  0
 17101  1  0  0  0
 18 19  2  0  0  0
 18102  1  0  0  0
 19 20  1  0  0  0
 19 24  1  0  0  0
 20 21  2  0  0  0
 20103  1  0  0  0
 21 23  1  0  0  0
 22 28  1  0  0  0
 22 32  2  0  0  0
 26 27  1  0  0  0
 28104  1  0  0  0
 28105  1  0  0  0
 29106  1  0  0  0
 29107  1  0  0  0
 33 34  1  0  0  0
 33 66  1  0  0  0
 33 70  2  0  0  0
 34 36  1  0  0  0
 34 59  1  0  0  0
 34108  1  0  0  0
 35 44  2  0  0  0
 35 45  1  0  0  0
 35 68  1  0  0  0
 36 56  1  0  0  0
 36109  1  0  0  0
 37 39  1  0  0  0
 37 47  1  0  0  0
 37 66  1  0  0  0
 37110  1  0  0  0
 38 43  2  0  0  0
 38 46  1  0  0  0
 38 47  1  0  0  0
 39 64  1  0  0  0
 39 67  2  0  0  0
 40 52  1  0  0  0
 40 53  2  0  0  0
 40 58  1  0  0  0
 41111  1  0  0  0
 41112  1  0  0  0
 41113  1  0  0  0
 41 48  1  0  0  0
 42 43  1  0  0  0
 42 66  1  0  0  0
 42114  1  0  0  0
 42115  1  0  0  0
 43 44  1  0  0  0
 44116  1  0  0  0
 45 46  2  0  0  0
 45117  1  0  0  0
 46118  1  0  0  0
 47119  1  0  0  0
 47120  1  0  0  0
 48 56  1  0  0  0
 48 65  1  0  0  0
 48121  1  0  0  0
 49 50  1  0  0  0
 49 53  1  0  0  0
 49 64  1  0  0  0
 49122  1  0  0  0
 50 51  1  0  0  0
 50123  1  0  0  0
 50124  1  0  0  0
 51 52  1  0  0  0
 51125  1  0  0  0
 51126  1  0  0  0
 52127  1  0  0  0
 52128  1  0  0  0
 53 54  1  0  0  0
 54 55  2  0  0  0
 54129  1  0  0  0
 55 57  1  0  0  0
 55130  1  0  0  0
 56 69  2  0  0  0
 57 58  2  0  0  0
 57131  1  0  0  0
 58132  1  0  0  0
 59 60  1  0  0  0
 59 61  1  0  0  0
 59 62  1  0  0  0
 60133  1  0  0  0
 60134  1  0  0  0
 60135  1  0  0  0
 61136  1  0  0  0
 61137  1  0  0  0
 61138  1  0  0  0
 62139  1  0  0  0
 62140  1  0  0  0
 62141  1  0  0  0
 63 65  1  0  0  0
 63142  1  0  0  0
 63143  1  0  0  0
 63144  1  0  0  0
 64145  1  0  0  0
 65146  1  0  0  0
 68 77  1  0  0  0
 71 74  2  0  0  0
 71 75  1  0  0  0
 71147  1  0  0  0
 72 74  1  0  0  0
 72 76  2  0  0  0
 72148  1  0  0  0
 73 75  2  0  0  0
 73 76  1  0  0  0
 73149  1  0  0  0
 74 82  1  0  0  0
 75 83  1  0  0  0
 76 84  1  0  0  0
 77 78  2  0  0  0
 77150  1  0  0  0
 78 79  1  0  0  0
 78 87  1  0  0  0
 79 83  1  0  0  0
 79 86  2  0  0  0
 80151  1  0  0  0
 80152  1  0  0  0
 80153  1  0  0  0
 80 85  1  0  0  0
 81 85  1  0  0  0
 81154  1  0  0  0
 81155  1  0  0  0
 81156  1  0  0  0
 82 85  1  0  0  0
 82157  1  0  0  0
 82158  1  0  0  0
 83159  1  0  0  0
 84160  1  0  0  0
 85161  1  0  0  0
 87162  1  0  0  0
M  CHG  1  85   1
M  ISO  4   1 100  68 101  77 101  84 100
M  END
> <chiral flag>
0

> <version>
0

> <s_m_source_file>
/data/baiqing/PycharmProjects/Reinvent-master-3.2/result/LINK_invent/BTK/process_docking_weight1_custom_product_contain_oxygen_bond_distance_aromatic_linkinvent_7_9_3/rearranged_h_0170.sdf

> <i_m_source_file_index>
22

> <r_mmod_Potential_Energy-OPLS-2005>
84.2436752319336

> <r_mmod_Stretch_Energy-OPLS-2005>
158.564056396484

> <r_mmod_Bend_Energy-OPLS-2005>
188.391250610352

> <r_mmod_Torsional_Energy-OPLS-2005>
267.866851806641

> <r_mmod_Improper_Torsional_Energy-OPLS-2005>
9.15802001953125

> <r_mmod_Van_der_Waal_Energy-OPLS-2005>
136.535232543945

> <r_mmod_Electrostatic_Energy-OPLS-2005>
-298.161865234375

> <r_mmod_Solvation_Energy-OPLS-2005>
-494.961517333984

> <b_mmod_Minimization_Converged-OPLS-2005>
0

> <r_mmod_RMS_Derivative-OPLS-2005>
2.81881356239319

$$$$
22
                    3D
 Structure written by MMmdl.
154162  0  0  1  0            999 V2000
  -30.7026  -14.5500   20.4785 C   0  0  0  0  0  0
  -30.4152  -12.3331   19.4511 C   0  0  0  0  0  0
  -29.5010  -12.4986   18.2196 C   0  0  0  0  0  0
  -28.0211  -12.3588   18.6272 C   0  0  0  0  0  0
  -27.6542  -13.2234   19.8648 C   0  0  2  0  0  0
  -28.7003  -13.0817   20.9949 C   0  0  0  0  0  0
  -25.2558  -13.8192   20.5687 C   0  0  0  0  0  0
  -24.1829  -13.0446   20.9181 C   0  0  0  0  0  0
  -24.6409  -11.6919   20.8739 C   0  0  0  0  0  0
  -23.9077  -10.4297   21.0397 C   0  0  0  0  0  0
  -24.3630   -9.4210   21.9176 C   0  0  0  0  0  0
  -23.6307   -8.2245   22.0750 C   0  0  0  0  0  0
  -22.4290   -8.0279   21.3534 C   0  0  0  0  0  0
  -21.9920   -9.0252   20.4641 C   0  0  0  0  0  0
  -22.7247  -10.2135   20.3050 C   0  0  0  0  0  0
  -21.6851   -6.0741   22.5274 C   0  0  0  0  0  0
  -21.4015   -6.5646   23.8210 C   0  0  0  0  0  0
  -21.3664   -5.6797   24.9170 C   0  0  0  0  0  0
  -21.6047   -4.3058   24.7217 C   0  0  0  0  0  0
  -21.8820   -3.8148   23.4339 C   0  0  0  0  0  0
  -21.9191   -4.6969   22.3397 C   0  0  0  0  0  0
  -22.7846  -13.5231   21.1829 C   0  0  0  0  0  0
  -22.1656   -4.2158   21.0976 F   0  0  0  0  0  0
  -21.5637   -3.4537   25.7727 F   0  0  0  0  0  0
  -30.0234  -13.3673   20.4257 N   0  0  0  0  0  0
  -26.3001  -12.9394   20.3346 N   0  0  0  0  0  0
  -25.9345  -11.6537   20.5766 N   0  0  0  0  0  0
  -22.0493  -12.8233   22.0400 N   0  0  0  0  0  0
  -25.4264  -15.1913   20.4085 N   0  0  0  0  0  0
  -31.8867  -14.6245   20.1458 O   0  0  0  0  0  0
  -21.6643   -6.8883   21.4237 O   0  0  0  0  0  0
  -22.3533  -14.5529   20.6663 O   0  0  0  0  0  0
  -24.6215  -31.8677   23.2053 C   0  0  0  0  0  0
  -25.9077  -32.4824   23.8374 C   0  0  1  0  0  0
  -27.2143  -27.3692   20.1022 C   0  0  0  0  0  0
  -25.5896  -33.8620   24.2302 N   0  0  0  0  0  0
  -23.4107  -30.4947   21.5495 C   0  0  2  0  0  0
  -24.8530  -28.9648   20.1071 C   0  0  0  0  0  0
  -22.7458  -29.4660   22.4952 C   0  0  0  0  0  0
  -18.0276  -28.1381   22.8495 C   0  0  0  0  0  0
  -24.1484  -36.7325   23.2637 C   0  0  0  0  0  0
  -25.9486  -30.8145   21.3677 C   0  0  0  0  0  0
  -26.0206  -29.4459   20.7122 C   0  0  0  0  0  0
  -27.2038  -28.6572   20.7076 C   0  0  0  0  0  0
  -26.0266  -26.9450   19.4534 C   0  0  0  0  0  0
  -24.8556  -27.7180   19.4701 C   0  0  0  0  0  0
  -23.6201  -29.8386   20.1611 C   0  0  0  0  0  0
  -25.4107  -36.3120   24.0336 C   0  0  1  0  0  0
  -20.5877  -28.3679   23.1302 C   0  0  2  0  0  0
  -20.6763  -26.9409   22.5417 C   0  0  0  0  0  0
  -19.5734  -26.6379   21.5222 C   0  0  0  0  0  0
  -18.1917  -26.7921   22.1639 C   0  0  0  0  0  0
  -19.1531  -28.8844   23.2896 C   0  0  0  0  0  0
  -18.9459  -30.1449   23.8909 C   0  0  0  0  0  0
  -17.6462  -30.6588   24.0563 C   0  0  0  0  0  0
  -25.9048  -34.9485   23.5127 C   0  0  0  0  0  0
  -16.5353  -29.9100   23.6312 C   0  0  0  0  0  0
  -16.7265  -28.6513   23.0342 C   0  0  0  0  0  0
  -26.4447  -31.6602   25.0723 C   0  0  0  0  0  0
  -25.3677  -31.3754   26.1450 C   0  0  0  0  0  0
  -27.0244  -30.3019   24.6127 C   0  0  0  0  0  0
  -27.6007  -32.4322   25.7505 C   0  0  0  0  0  0
  -27.5587  -37.1824   24.8467 C   0  0  0  0  0  0
  -21.4173  -29.3052   22.3715 N   0  0  0  0  0  0
  -26.4294  -37.3809   23.9416 N   0  0  0  0  0  0
  -24.6794  -31.0739   22.0980 N   0  0  0  0  0  0
  -23.4224  -28.8182   23.2983 O   0  0  0  0  0  0
  -28.3352  -26.5385   20.1735 O   0  0  0  0  0  0
  -26.5636  -34.8939   22.4706 O   0  0  0  0  0  0
  -23.5390  -32.1452   23.7408 O   0  0  0  0  0  0
  -30.8336  -16.9892   18.7914 C   0  0  0  0  0  0
  -30.2688  -16.9793   20.1009 C   0  0  0  0  0  0
  -30.9966  -19.2702   18.7882 C   0  0  0  0  0  0
  -30.3867  -19.3345   20.0685 C   0  0  0  0  0  0
  -29.0483  -24.0779   20.4699 C   0  0  0  0  0  0
  -28.1177  -25.1362   19.8130 C   0  0  0  0  0  0
  -29.0743  -21.3614   20.7538 C   0  0  0  0  0  0
  -29.0072  -22.6469   19.8387 C   0  0  2  0  0  0
  -31.2009  -18.1139   18.1393 N   0  0  0  0  0  0
  -30.0040  -18.1873   20.7172 N   0  0  0  0  0  0
  -31.4561  -20.4106   18.1435 N   0  0  0  0  0  0
  -29.9829  -15.6866   20.6938 N   0  0  0  0  0  0
  -30.3400  -20.5950   20.7085 N   0  0  0  0  0  0
  -29.7759  -24.3541   21.4312 O   0  0  0  0  0  0
  -29.9408  -22.5627   18.8887 F   0  0  0  0  0  0
  -31.4642  -12.4033   19.1564 H   0  0  0  0  0  0
  -30.2985  -11.3388   19.8850 H   0  0  0  0  0  0
  -29.7511  -11.7576   17.4598 H   0  0  0  0  0  0
  -29.6685  -13.4749   17.7615 H   0  0  0  0  0  0
  -27.8366  -11.3053   18.8407 H   0  0  0  0  0  0
  -27.3740  -12.6138   17.7871 H   0  0  0  0  0  0
  -27.6737  -14.2606   19.5296 H   0  0  0  0  0  0
  -28.6859  -12.0717   21.4075 H   0  0  0  0  0  0
  -28.4742  -13.7522   21.8256 H   0  0  0  0  0  0
  -25.2774   -9.5691   22.4752 H   0  0  0  0  0  0
  -24.0016   -7.4642   22.7476 H   0  0  0  0  0  0
  -21.0847   -8.8763   19.8955 H   0  0  0  0  0  0
  -22.3691  -10.9671   19.6160 H   0  0  0  0  0  0
  -21.2005   -7.6153   23.9716 H   0  0  0  0  0  0
  -21.1489   -6.0523   25.9077 H   0  0  0  0  0  0
  -22.0597   -2.7610   23.2827 H   0  0  0  0  0  0
  -22.4101  -11.9910   22.4819 H   0  0  0  0  0  0
  -21.1101  -13.1252   22.2577 H   0  0  0  0  0  0
  -24.6590  -15.8456   20.5166 H   0  0  0  0  0  0
  -26.2761  -15.6300   20.0772 H   0  0  0  0  0  0
  -26.7157  -32.5513   23.1143 H   0  0  0  0  0  0
  -24.9973  -33.9773   25.0394 H   0  0  0  0  0  0
  -22.7015  -31.3141   21.4134 H   0  0  0  0  0  0
  -23.3743  -35.9663   23.3302 H   0  0  0  0  0  0
  -24.3584  -36.8942   22.2054 H   0  0  0  0  0  0
  -23.7230  -37.6529   23.6646 H   0  0  0  0  0  0
  -26.0707  -31.5765   20.5960 H   0  0  0  0  0  0
  -26.8353  -30.8664   21.9881 H   0  0  0  0  0  0
  -28.0980  -29.0216   21.1938 H   0  0  0  0  0  0
  -25.9583  -26.0072   18.9228 H   0  0  0  0  0  0
  -23.9633  -27.3514   18.9810 H   0  0  0  0  0  0
  -23.7350  -30.6192   19.4079 H   0  0  0  0  0  0
  -22.7403  -29.2683   19.8573 H   0  0  0  0  0  0
  -25.1275  -36.1990   25.0828 H   0  0  0  0  0  0
  -20.9967  -28.3237   24.1423 H   0  0  0  0  0  0
  -20.5654  -26.2297   23.3618 H   0  0  0  0  0  0
  -21.6635  -26.7436   22.1218 H   0  0  0  0  0  0
  -19.6892  -25.6289   21.1252 H   0  0  0  0  0  0
  -19.6655  -27.3188   20.6751 H   0  0  0  0  0  0
  -17.4185  -26.6664   21.4044 H   0  0  0  0  0  0
  -18.0314  -26.0064   22.9035 H   0  0  0  0  0  0
  -19.7939  -30.7254   24.2285 H   0  0  0  0  0  0
  -17.5024  -31.6266   24.5171 H   0  0  0  0  0  0
  -15.5358  -30.3022   23.7604 H   0  0  0  0  0  0
  -15.8663  -28.0842   22.7044 H   0  0  0  0  0  0
  -24.5864  -30.7075   25.7799 H   0  0  0  0  0  0
  -24.8840  -32.2923   26.4829 H   0  0  0  0  0  0
  -25.7997  -30.8986   27.0257 H   0  0  0  0  0  0
  -26.2791  -29.6840   24.1101 H   0  0  0  0  0  0
  -27.3883  -29.7201   25.4605 H   0  0  0  0  0  0
  -27.8690  -30.4293   23.9352 H   0  0  0  0  0  0
  -27.2599  -33.3617   26.2081 H   0  0  0  0  0  0
  -28.3818  -32.6900   25.0340 H   0  0  0  0  0  0
  -28.0658  -31.8449   26.5433 H   0  0  0  0  0  0
  -28.2605  -38.0123   24.7516 H   0  0  0  0  0  0
  -28.1078  -36.2656   24.6269 H   0  0  0  0  0  0
  -27.2320  -37.1453   25.8874 H   0  0  0  0  0  0
  -20.9331  -29.8848   21.7003 H   0  0  0  0  0  0
  -26.0184  -38.2894   24.1398 H   0  0  0  0  0  0
  -31.0105  -16.0764   18.2403 H   0  0  0  0  0  0
  -27.1232  -24.8186   20.1255 H   0  0  0  0  0  0
  -28.1733  -25.0356   18.7289 H   0  0  0  0  0  0
  -28.2544  -20.6959   20.4772 H   0  0  0  0  0  0
  -28.8784  -21.6463   21.7886 H   0  0  0  0  0  0
  -28.0580  -22.6017   19.3022 H   0  0  0  0  0  0
  -30.9515  -21.2651   18.3682 H   0  0  0  0  0  0
  -31.6251  -20.3186   17.1506 H   0  0  0  0  0  0
  -29.0903  -15.5860   21.1488 H   0  0  0  0  0  0
  -31.0361  -21.1598   20.2266 H   0  0  0  0  0  0
  1 25  1  0  0  0
  1 30  2  0  0  0
  1 82  1  0  0  0
  2  3  1  0  0  0
  2 25  1  0  0  0
  2 86  1  0  0  0
  2 87  1  0  0  0
  3  4  1  0  0  0
  3 88  1  0  0  0
  3 89  1  0  0  0
  4  5  1  0  0  0
  4 90  1  0  0  0
  4 91  1  0  0  0
  5  6  1  0  0  0
  5 26  1  0  0  0
  5 92  1  0  0  0
  6 25  1  0  0  0
  6 93  1  0  0  0
  6 94  1  0  0  0
  7  8  2  0  0  0
  7 26  1  0  0  0
  7 29  1  0  0  0
  8  9  1  0  0  0
  8 22  1  0  0  0
  9 10  1  0  0  0
  9 27  2  0  0  0
 10 11  2  0  0  0
 10 15  1  0  0  0
 11 12  1  0  0  0
 11 95  1  0  0  0
 12 13  2  0  0  0
 12 96  1  0  0  0
 13 14  1  0  0  0
 13 31  1  0  0  0
 14 15  2  0  0  0
 14 97  1  0  0  0
 15 98  1  0  0  0
 16 17  2  0  0  0
 16 21  1  0  0  0
 16 31  1  0  0  0
 17 18  1  0  0  0
 17 99  1  0  0  0
 18 19  2  0  0  0
 18100  1  0  0  0
 19 20  1  0  0  0
 19 24  1  0  0  0
 20 21  2  0  0  0
 20101  1  0  0  0
 21 23  1  0  0  0
 22 28  1  0  0  0
 22 32  2  0  0  0
 26 27  1  0  0  0
 28102  1  0  0  0
 28103  1  0  0  0
 29104  1  0  0  0
 29105  1  0  0  0
 33 34  1  0  0  0
 33 66  1  0  0  0
 33 70  2  0  0  0
 34 36  1  0  0  0
 34 59  1  0  0  0
 34106  1  0  0  0
 35 44  2  0  0  0
 35 45  1  0  0  0
 35 68  1  0  0  0
 36 56  1  0  0  0
 36107  1  0  0  0
 37 39  1  0  0  0
 37 47  1  0  0  0
 37 66  1  0  0  0
 37108  1  0  0  0
 38 43  2  0  0  0
 38 46  1  0  0  0
 38 47  1  0  0  0
 39 64  1  0  0  0
 39 67  2  0  0  0
 40 52  1  0  0  0
 40 53  2  0  0  0
 40 58  1  0  0  0
 41109  1  0  0  0
 41110  1  0  0  0
 41111  1  0  0  0
 41 48  1  0  0  0
 42 43  1  0  0  0
 42 66  1  0  0  0
 42112  1  0  0  0
 42113  1  0  0  0
 43 44  1  0  0  0
 44114  1  0  0  0
 45 46  2  0  0  0
 45115  1  0  0  0
 46116  1  0  0  0
 47117  1  0  0  0
 47118  1  0  0  0
 48 56  1  0  0  0
 48 65  1  0  0  0
 48119  1  0  0  0
 49 50  1  0  0  0
 49 53  1  0  0  0
 49 64  1  0  0  0
 49120  1  0  0  0
 50 51  1  0  0  0
 50121  1  0  0  0
 50122  1  0  0  0
 51 52  1  0  0  0
 51123  1  0  0  0
 51124  1  0  0  0
 52125  1  0  0  0
 52126  1  0  0  0
 53 54  1  0  0  0
 54 55  2  0  0  0
 54127  1  0  0  0
 55 57  1  0  0  0
 55128  1  0  0  0
 56 69  2  0  0  0
 57 58  2  0  0  0
 57129  1  0  0  0
 58130  1  0  0  0
 59 60  1  0  0  0
 59 61  1  0  0  0
 59 62  1  0  0  0
 60131  1  0  0  0
 60132  1  0  0  0
 60133  1  0  0  0
 61134  1  0  0  0
 61135  1  0  0  0
 61136  1  0  0  0
 62137  1  0  0  0
 62138  1  0  0  0
 62139  1  0  0  0
 63 65  1  0  0  0
 63140  1  0  0  0
 63141  1  0  0  0
 63142  1  0  0  0
 64143  1  0  0  0
 65144  1  0  0  0
 68 76  1  0  0  0
 71 72  2  0  0  0
 71 79  1  0  0  0
 71145  1  0  0  0
 72 80  1  0  0  0
 72 82  1  0  0  0
 73 74  1  0  0  0
 73 79  2  0  0  0
 73 81  1  0  0  0
 74 80  2  0  0  0
 74 83  1  0  0  0
 75 76  1  0  0  0
 75 78  1  0  0  0
 75 84  2  0  0  0
 76146  1  0  0  0
 76147  1  0  0  0
 77 78  1  0  0  0
 77 83  1  0  0  0
 77148  1  0  0  0
 77149  1  0  0  0
 78 85  1  0  0  0
 78150  1  0  0  0
 81151  1  0  0  0
 81152  1  0  0  0
 82153  1  0  0  0
 83154  1  0  0  0
M  ISO  4   1 100  68 101  76 101  82 100
M  END
> <chiral flag>
0

> <version>
0

> <s_m_source_file>
/data/baiqing/PycharmProjects/Reinvent-master-3.2/result/LINK_invent/BTK/process_docking_weight1_custom_product_contain_oxygen_bond_distance_aromatic_linkinvent_7_9_3/rearranged_h_0170.sdf

> <i_m_source_file_index>
23

> <r_mmod_Potential_Energy-OPLS-2005>
-37.6578025817871

> <r_mmod_Stretch_Energy-OPLS-2005>
60.4605140686035

> <r_mmod_Bend_Energy-OPLS-2005>
127.783874511719

> <r_mmod_Torsional_Energy-OPLS-2005>
264.173950195312

> <r_mmod_Improper_Torsional_Energy-OPLS-2005>
16.4104118347168

> <r_mmod_Van_der_Waal_Energy-OPLS-2005>
172.216018676758

> <r_mmod_Electrostatic_Energy-OPLS-2005>
-442.660125732422

> <r_mmod_Solvation_Energy-OPLS-2005>
-269.864959716797

> <b_mmod_Minimization_Converged-OPLS-2005>
0

> <r_mmod_RMS_Derivative-OPLS-2005>
1.41293740272522

$$$$
23
                    3D
 Structure written by MMmdl.
153161  0  0  1  0            999 V2000
  -30.6391  -14.5170   20.4960 C   0  0  0  0  0  0
  -30.4559  -12.3129   19.4012 C   0  0  0  0  0  0
  -29.5030  -12.4499   18.1920 C   0  0  0  0  0  0
  -28.0379  -12.2682   18.6306 C   0  0  0  0  0  0
  -27.6631  -13.1632   19.8422 C   0  0  2  0  0  0
  -28.7134  -13.0057   20.9670 C   0  0  0  0  0  0
  -25.2742  -13.8005   20.5682 C   0  0  0  0  0  0
  -24.1965  -13.0346   20.9184 C   0  0  0  0  0  0
  -24.6453  -11.6791   20.8759 C   0  0  0  0  0  0
  -23.9108  -10.4213   21.0420 C   0  0  0  0  0  0
  -24.3641   -9.4156   21.9201 C   0  0  0  0  0  0
  -23.6304   -8.2201   22.0746 C   0  0  0  0  0  0
  -22.4300   -8.0249   21.3536 C   0  0  0  0  0  0
  -21.9942   -9.0249   20.4664 C   0  0  0  0  0  0
  -22.7291  -10.2104   20.3080 C   0  0  0  0  0  0
  -21.6818   -6.0756   22.5284 C   0  0  0  0  0  0
  -21.3970   -6.5661   23.8221 C   0  0  0  0  0  0
  -21.3652   -5.6826   24.9195 C   0  0  0  0  0  0
  -21.6039   -4.3087   24.7246 C   0  0  0  0  0  0
  -21.8827   -3.8182   23.4371 C   0  0  0  0  0  0
  -21.9187   -4.6986   22.3425 C   0  0  0  0  0  0
  -22.8013  -13.5168   21.1914 C   0  0  0  0  0  0
  -22.1676   -4.2167   21.1011 F   0  0  0  0  0  0
  -21.5651   -3.4570   25.7764 F   0  0  0  0  0  0
  -30.0284  -13.3079   20.3847 N   0  0  0  0  0  0
  -26.3061  -12.9053   20.3223 N   0  0  0  0  0  0
  -25.9336  -11.6265   20.5665 N   0  0  0  0  0  0
  -22.0712  -12.8057   22.0423 N   0  0  0  0  0  0
  -25.4721  -15.1685   20.4196 N   0  0  0  0  0  0
  -31.8468  -14.6799   20.2841 O   0  0  0  0  0  0
  -21.6631   -6.8886   21.4248 O   0  0  0  0  0  0
  -22.3747  -14.5581   20.6931 O   0  0  0  0  0  0
  -24.6157  -31.8688   23.2240 C   0  0  0  0  0  0
  -25.9060  -32.4804   23.8484 C   0  0  1  0  0  0
  -27.1762  -27.4222   20.1011 C   0  0  0  0  0  0
  -25.5926  -33.8614   24.2366 N   0  0  0  0  0  0
  -23.3920  -30.5041   21.5667 C   0  0  2  0  0  0
  -24.8209  -28.9849   20.1069 C   0  0  0  0  0  0
  -22.7350  -29.4724   22.5103 C   0  0  0  0  0  0
  -18.0265  -28.1389   22.8593 C   0  0  0  0  0  0
  -24.1489  -36.7362   23.2628 C   0  0  0  0  0  0
  -25.9188  -30.8322   21.3724 C   0  0  0  0  0  0
  -25.9820  -29.4663   20.7224 C   0  0  0  0  0  0
  -27.1641  -28.6865   20.7262 C   0  0  0  0  0  0
  -26.0087  -26.9814   19.4315 C   0  0  0  0  0  0
  -24.8294  -27.7443   19.4568 C   0  0  0  0  0  0
  -23.5899  -29.8616   20.1695 C   0  0  0  0  0  0
  -25.4103  -36.3117   24.0310 C   0  0  1  0  0  0
  -20.5856  -28.3695   23.1457 C   0  0  2  0  0  0
  -20.6777  -26.9416   22.5605 C   0  0  0  0  0  0
  -19.5778  -26.6314   21.5369 C   0  0  0  0  0  0
  -18.1955  -26.7907   22.1775 C   0  0  0  0  0  0
  -19.1518  -28.8851   23.3016 C   0  0  0  0  0  0
  -18.9447  -30.1495   23.8948 C   0  0  0  0  0  0
  -17.6446  -30.6650   24.0543 C   0  0  0  0  0  0
  -25.9045  -34.9466   23.5156 C   0  0  0  0  0  0
  -16.5334  -29.9139   23.6306 C   0  0  0  0  0  0
  -16.7276  -28.6487   23.0382 C   0  0  0  0  0  0
  -26.4501  -31.6607   25.0809 C   0  0  0  0  0  0
  -25.3860  -31.3702   26.1617 C   0  0  0  0  0  0
  -27.0299  -30.3061   24.6146 C   0  0  0  0  0  0
  -27.6051  -32.4321   25.7614 C   0  0  0  0  0  0
  -27.5562  -37.1828   24.8442 C   0  0  0  0  0  0
  -21.4101  -29.3094   22.3834 N   0  0  0  0  0  0
  -26.4281  -37.3800   23.9382 N   0  0  0  0  0  0
  -24.6620  -31.0831   22.1115 N   0  0  0  0  0  0
  -23.4085  -28.8201   23.3131 O   0  0  0  0  0  0
  -28.2908  -26.6141   20.1660 O   0  0  0  0  0  0
  -26.5587  -34.8921   22.4709 O   0  0  0  0  0  0
  -23.5385  -32.1462   23.7614 O   0  0  0  0  0  0
  -30.2863  -16.9036   22.5131 C   0  0  0  0  0  0
  -30.4239  -18.1538   23.1348 C   0  0  0  0  0  0
  -30.0096  -16.8324   21.1357 C   0  0  0  0  0  0
  -30.0496  -19.3056   21.0135 C   0  0  0  0  0  0
  -30.2925  -19.3509   22.4121 C   0  0  0  0  0  0
  -29.8729  -18.0401   20.3970 C   0  0  0  0  0  0
  -29.0495  -22.8235   20.2700 C   0  0  0  0  0  0
  -29.1833  -24.3398   20.6476 C   0  0  0  0  0  0
  -30.2388  -21.8669   20.5388 C   0  0  0  0  0  0
  -27.9500  -25.2282   20.4137 C   0  0  0  0  0  0
  -29.7698  -15.5494   20.5470 N   0  0  0  0  0  0
  -29.9560  -20.4552   20.1906 N   0  0  0  0  0  0
  -28.0086  -22.3901   19.7542 O   0  0  0  0  0  0
  -30.2163  -24.8082   21.1473 O   0  0  0  0  0  0
  -30.3779  -20.5138   23.0986 F   0  0  0  0  0  0
  -29.5592  -17.9871   19.0745 F   0  0  0  0  0  0
  -31.4985  -12.4491   19.0928 H   0  0  0  0  0  0
  -30.4063  -11.3122   19.8309 H   0  0  0  0  0  0
  -29.7641  -11.7170   17.4257 H   0  0  0  0  0  0
  -29.6257  -13.4289   17.7246 H   0  0  0  0  0  0
  -27.9165  -11.2209   18.9050 H   0  0  0  0  0  0
  -27.3662  -12.4395   17.7882 H   0  0  0  0  0  0
  -27.6863  -14.1870   19.4771 H   0  0  0  0  0  0
  -28.7115  -11.9955   21.3822 H   0  0  0  0  0  0
  -28.4915  -13.6727   21.7980 H   0  0  0  0  0  0
  -25.2794   -9.5554   22.4763 H   0  0  0  0  0  0
  -24.0002   -7.4542   22.7389 H   0  0  0  0  0  0
  -21.0910   -8.8813   19.8914 H   0  0  0  0  0  0
  -22.3832  -10.9677   19.6172 H   0  0  0  0  0  0
  -21.1948   -7.6164   23.9706 H   0  0  0  0  0  0
  -21.1458   -6.0589   25.9093 H   0  0  0  0  0  0
  -22.0620   -2.7633   23.2895 H   0  0  0  0  0  0
  -22.4371  -11.9504   22.4393 H   0  0  0  0  0  0
  -21.1374  -13.1029   22.2861 H   0  0  0  0  0  0
  -24.7355  -15.8542   20.5314 H   0  0  0  0  0  0
  -26.3556  -15.5834   20.1469 H   0  0  0  0  0  0
  -26.7137  -32.5472   23.1256 H   0  0  0  0  0  0
  -25.0057  -33.9862   25.0483 H   0  0  0  0  0  0
  -22.6800  -31.3213   21.4528 H   0  0  0  0  0  0
  -23.3729  -35.9734   23.3323 H   0  0  0  0  0  0
  -24.3634  -36.8956   22.2058 H   0  0  0  0  0  0
  -23.7284  -37.6582   23.6654 H   0  0  0  0  0  0
  -26.0150  -31.5962   20.6041 H   0  0  0  0  0  0
  -26.8124  -30.8851   21.9775 H   0  0  0  0  0  0
  -28.0532  -29.0421   21.2257 H   0  0  0  0  0  0
  -25.9623  -26.0583   18.8726 H   0  0  0  0  0  0
  -23.9355  -27.3874   18.9630 H   0  0  0  0  0  0
  -23.6916  -30.6497   19.4229 H   0  0  0  0  0  0
  -22.7034  -29.2954   19.8786 H   0  0  0  0  0  0
  -25.1298  -36.1997   25.0801 H   0  0  0  0  0  0
  -20.9905  -28.3344   24.1608 H   0  0  0  0  0  0
  -20.5717  -26.2356   23.3862 H   0  0  0  0  0  0
  -21.6652  -26.7438   22.1463 H   0  0  0  0  0  0
  -19.7023  -25.6159   21.1516 H   0  0  0  0  0  0
  -19.6771  -27.3104   20.6877 H   0  0  0  0  0  0
  -17.4222  -26.6570   21.4175 H   0  0  0  0  0  0
  -18.0379  -26.0087   22.9189 H   0  0  0  0  0  0
  -19.7889  -30.7318   24.2295 H   0  0  0  0  0  0
  -17.4949  -31.6321   24.5107 H   0  0  0  0  0  0
  -15.5331  -30.3028   23.7562 H   0  0  0  0  0  0
  -15.8707  -28.0784   22.7144 H   0  0  0  0  0  0
  -24.6005  -30.7055   25.8045 H   0  0  0  0  0  0
  -24.9126  -32.2868   26.5136 H   0  0  0  0  0  0
  -25.8303  -30.8872   27.0330 H   0  0  0  0  0  0
  -26.2830  -29.6885   24.1156 H   0  0  0  0  0  0
  -27.4050  -29.7218   25.4551 H   0  0  0  0  0  0
  -27.8689  -30.4408   23.9324 H   0  0  0  0  0  0
  -27.2615  -33.3534   26.2330 H   0  0  0  0  0  0
  -28.3832  -32.7010   25.0477 H   0  0  0  0  0  0
  -28.0787  -31.8395   26.5452 H   0  0  0  0  0  0
  -28.2563  -38.0121   24.7469 H   0  0  0  0  0  0
  -28.1041  -36.2659   24.6273 H   0  0  0  0  0  0
  -27.2302  -37.1518   25.8840 H   0  0  0  0  0  0
  -20.9175  -29.8948   21.7229 H   0  0  0  0  0  0
  -26.0159  -38.2858   24.1426 H   0  0  0  0  0  0
  -30.3952  -16.0033   23.0957 H   0  0  0  0  0  0
  -30.6178  -18.2152   24.1939 H   0  0  0  0  0  0
  -31.0453  -22.2041   19.8843 H   0  0  0  0  0  0
  -30.6169  -22.0114   21.5496 H   0  0  0  0  0  0
  -27.3076  -25.1684   21.2991 H   0  0  0  0  0  0
  -27.3771  -24.7982   19.5935 H   0  0  0  0  0  0
  -28.7985  -15.3259   20.3932 H   0  0  0  0  0  0
  -29.6770  -20.2844   19.2293 H   0  0  0  0  0  0
  1 25  1  0  0  0
  1 30  2  0  0  0
  1 81  1  0  0  0
  2  3  1  0  0  0
  2 25  1  0  0  0
  2 87  1  0  0  0
  2 88  1  0  0  0
  3  4  1  0  0  0
  3 89  1  0  0  0
  3 90  1  0  0  0
  4  5  1  0  0  0
  4 91  1  0  0  0
  4 92  1  0  0  0
  5  6  1  0  0  0
  5 26  1  0  0  0
  5 93  1  0  0  0
  6 25  1  0  0  0
  6 94  1  0  0  0
  6 95  1  0  0  0
  7  8  2  0  0  0
  7 26  1  0  0  0
  7 29  1  0  0  0
  8  9  1  0  0  0
  8 22  1  0  0  0
  9 10  1  0  0  0
  9 27  2  0  0  0
 10 11  2  0  0  0
 10 15  1  0  0  0
 11 12  1  0  0  0
 11 96  1  0  0  0
 12 13  2  0  0  0
 12 97  1  0  0  0
 13 14  1  0  0  0
 13 31  1  0  0  0
 14 15  2  0  0  0
 14 98  1  0  0  0
 15 99  1  0  0  0
 16 17  2  0  0  0
 16 21  1  0  0  0
 16 31  1  0  0  0
 17 18  1  0  0  0
 17100  1  0  0  0
 18 19  2  0  0  0
 18101  1  0  0  0
 19 20  1  0  0  0
 19 24  1  0  0  0
 20 21  2  0  0  0
 20102  1  0  0  0
 21 23  1  0  0  0
 22 28  1  0  0  0
 22 32  2  0  0  0
 26 27  1  0  0  0
 28103  1  0  0  0
 28104  1  0  0  0
 29105  1  0  0  0
 29106  1  0  0  0
 33 34  1  0  0  0
 33 66  1  0  0  0
 33 70  2  0  0  0
 34 36  1  0  0  0
 34 59  1  0  0  0
 34107  1  0  0  0
 35 44  2  0  0  0
 35 45  1  0  0  0
 35 68  1  0  0  0
 36 56  1  0  0  0
 36108  1  0  0  0
 37 39  1  0  0  0
 37 47  1  0  0  0
 37 66  1  0  0  0
 37109  1  0  0  0
 38 43  2  0  0  0
 38 46  1  0  0  0
 38 47  1  0  0  0
 39 64  1  0  0  0
 39 67  2  0  0  0
 40 52  1  0  0  0
 40 53  2  0  0  0
 40 58  1  0  0  0
 41110  1  0  0  0
 41111  1  0  0  0
 41112  1  0  0  0
 41 48  1  0  0  0
 42 43  1  0  0  0
 42 66  1  0  0  0
 42113  1  0  0  0
 42114  1  0  0  0
 43 44  1  0  0  0
 44115  1  0  0  0
 45 46  2  0  0  0
 45116  1  0  0  0
 46117  1  0  0  0
 47118  1  0  0  0
 47119  1  0  0  0
 48 56  1  0  0  0
 48 65  1  0  0  0
 48120  1  0  0  0
 49 50  1  0  0  0
 49 53  1  0  0  0
 49 64  1  0  0  0
 49121  1  0  0  0
 50 51  1  0  0  0
 50122  1  0  0  0
 50123  1  0  0  0
 51 52  1  0  0  0
 51124  1  0  0  0
 51125  1  0  0  0
 52126  1  0  0  0
 52127  1  0  0  0
 53 54  1  0  0  0
 54 55  2  0  0  0
 54128  1  0  0  0
 55 57  1  0  0  0
 55129  1  0  0  0
 56 69  2  0  0  0
 57 58  2  0  0  0
 57130  1  0  0  0
 58131  1  0  0  0
 59 60  1  0  0  0
 59 61  1  0  0  0
 59 62  1  0  0  0
 60132  1  0  0  0
 60133  1  0  0  0
 60134  1  0  0  0
 61135  1  0  0  0
 61136  1  0  0  0
 61137  1  0  0  0
 62138  1  0  0  0
 62139  1  0  0  0
 62140  1  0  0  0
 63 65  1  0  0  0
 63141  1  0  0  0
 63142  1  0  0  0
 63143  1  0  0  0
 64144  1  0  0  0
 65145  1  0  0  0
 68 80  1  0  0  0
 71 72  2  0  0  0
 71 73  1  0  0  0
 71146  1  0  0  0
 72 75  1  0  0  0
 72147  1  0  0  0
 73 76  2  0  0  0
 73 81  1  0  0  0
 74 75  2  0  0  0
 74 76  1  0  0  0
 74 82  1  0  0  0
 75 85  1  0  0  0
 76 86  1  0  0  0
 77 78  1  0  0  0
 77 79  1  0  0  0
 77 83  2  0  0  0
 78 80  1  0  0  0
 78 84  2  0  0  0
 79 82  1  0  0  0
 79148  1  0  0  0
 79149  1  0  0  0
 80150  1  0  0  0
 80151  1  0  0  0
 81152  1  0  0  0
 82153  1  0  0  0
M  ISO  4   1 100  68 101  80 101  81 100
M  END
> <chiral flag>
0

> <version>
0

> <s_m_source_file>
/data/baiqing/PycharmProjects/Reinvent-master-3.2/result/LINK_invent/BTK/process_docking_weight1_custom_product_contain_oxygen_bond_distance_aromatic_linkinvent_7_9_3/rearranged_h_0170.sdf

> <i_m_source_file_index>
24

> <r_mmod_Potential_Energy-OPLS-2005>
154.706283569336

> <r_mmod_Stretch_Energy-OPLS-2005>
40.7902870178223

> <r_mmod_Bend_Energy-OPLS-2005>
113.709678649902

> <r_mmod_Torsional_Energy-OPLS-2005>
246.791595458984

> <r_mmod_Improper_Torsional_Energy-OPLS-2005>
8.52804565429688

> <r_mmod_Van_der_Waal_Energy-OPLS-2005>
159.747039794922

> <r_mmod_Electrostatic_Energy-OPLS-2005>
-212.893112182617

> <r_mmod_Solvation_Energy-OPLS-2005>
-236.589065551758

> <b_mmod_Minimization_Converged-OPLS-2005>
0

> <r_mmod_RMS_Derivative-OPLS-2005>
13.6709585189819

$$$$
24
                    3D
 Structure written by MMmdl.
156164  0  0  1  0            999 V2000
  -30.6513  -14.5894   20.4972 C   0  0  0  0  0  0
  -30.4300  -12.3573   19.4618 C   0  0  0  0  0  0
  -29.5078  -12.4950   18.2312 C   0  0  0  0  0  0
  -28.0319  -12.3344   18.6436 C   0  0  0  0  0  0
  -27.6556  -13.2128   19.8666 C   0  0  2  0  0  0
  -28.6940  -13.0700   21.0024 C   0  0  0  0  0  0
  -25.2569  -13.8162   20.5685 C   0  0  0  0  0  0
  -24.1832  -13.0445   20.9184 C   0  0  0  0  0  0
  -24.6392  -11.6910   20.8737 C   0  0  0  0  0  0
  -23.9062  -10.4297   21.0403 C   0  0  0  0  0  0
  -24.3611   -9.4214   21.9188 C   0  0  0  0  0  0
  -23.6288   -8.2248   22.0759 C   0  0  0  0  0  0
  -22.4277   -8.0280   21.3545 C   0  0  0  0  0  0
  -21.9908   -9.0250   20.4649 C   0  0  0  0  0  0
  -22.7233  -10.2130   20.3053 C   0  0  0  0  0  0
  -21.6856   -6.0732   22.5285 C   0  0  0  0  0  0
  -21.4016   -6.5637   23.8216 C   0  0  0  0  0  0
  -21.3655   -5.6791   24.9177 C   0  0  0  0  0  0
  -21.6041   -4.3053   24.7230 C   0  0  0  0  0  0
  -21.8820   -3.8144   23.4352 C   0  0  0  0  0  0
  -21.9195   -4.6959   22.3408 C   0  0  0  0  0  0
  -22.7857  -13.5240   21.1851 C   0  0  0  0  0  0
  -22.1664   -4.2144   21.0984 F   0  0  0  0  0  0
  -21.5623   -3.4537   25.7741 F   0  0  0  0  0  0
  -30.0172  -13.3804   20.4437 N   0  0  0  0  0  0
  -26.2999  -12.9344   20.3330 N   0  0  0  0  0  0
  -25.9320  -11.6504   20.5768 N   0  0  0  0  0  0
  -22.0487  -12.8223   22.0382 N   0  0  0  0  0  0
  -25.4301  -15.1886   20.4110 N   0  0  0  0  0  0
  -31.8210  -14.7147   20.1211 O   0  0  0  0  0  0
  -21.6643   -6.8875   21.4245 O   0  0  0  0  0  0
  -22.3549  -14.5556   20.6713 O   0  0  0  0  0  0
  -24.6213  -31.8615   23.2036 C   0  0  0  0  0  0
  -25.9078  -32.4797   23.8364 C   0  0  1  0  0  0
  -27.2262  -27.3579   20.1121 C   0  0  0  0  0  0
  -25.5914  -33.8594   24.2314 N   0  0  0  0  0  0
  -23.4145  -30.4855   21.5431 C   0  0  2  0  0  0
  -24.8636  -28.9491   20.1047 C   0  0  0  0  0  0
  -22.7448  -29.4628   22.4917 C   0  0  0  0  0  0
  -18.0280  -28.1384   22.8481 C   0  0  0  0  0  0
  -24.1476  -36.7289   23.2644 C   0  0  0  0  0  0
  -25.9489  -30.8097   21.3650 C   0  0  0  0  0  0
  -26.0276  -29.4372   20.7114 C   0  0  0  0  0  0
  -27.2111  -28.6477   20.7160 C   0  0  0  0  0  0
  -26.0390  -26.9086   19.4892 C   0  0  0  0  0  0
  -24.8687  -27.6897   19.4851 C   0  0  0  0  0  0
  -23.6278  -29.8217   20.1568 C   0  0  0  0  0  0
  -25.4107  -36.3101   24.0338 C   0  0  1  0  0  0
  -20.5870  -28.3681   23.1277 C   0  0  2  0  0  0
  -20.6756  -26.9405   22.5399 C   0  0  0  0  0  0
  -19.5743  -26.6385   21.5189 C   0  0  0  0  0  0
  -18.1928  -26.7931   22.1607 C   0  0  0  0  0  0
  -19.1530  -28.8850   23.2880 C   0  0  0  0  0  0
  -18.9457  -30.1450   23.8900 C   0  0  0  0  0  0
  -17.6460  -30.6586   24.0566 C   0  0  0  0  0  0
  -25.9027  -34.9464   23.5121 C   0  0  0  0  0  0
  -16.5349  -29.9088   23.6331 C   0  0  0  0  0  0
  -16.7267  -28.6504   23.0349 C   0  0  0  0  0  0
  -26.4508  -31.6576   25.0692 C   0  0  0  0  0  0
  -25.3773  -31.3675   26.1428 C   0  0  0  0  0  0
  -27.0347  -30.3025   24.6060 C   0  0  0  0  0  0
  -27.6080  -32.4291   25.7466 C   0  0  0  0  0  0
  -27.5557  -37.1831   24.8485 C   0  0  0  0  0  0
  -21.4158  -29.3047   22.3674 N   0  0  0  0  0  0
  -26.4302  -37.3774   23.9386 N   0  0  0  0  0  0
  -24.6804  -31.0659   22.0970 N   0  0  0  0  0  0
  -23.4191  -28.8146   23.2967 O   0  0  0  0  0  0
  -28.3302  -26.5105   20.2040 O   0  0  0  0  0  0
  -26.5567  -34.8924   22.4667 O   0  0  0  0  0  0
  -23.5379  -32.1379   23.7383 O   0  0  0  0  0  0
  -30.5909  -18.4859   18.3790 C   0  0  0  0  0  0
  -30.0331  -19.6016   19.0272 C   0  0  0  0  0  0
  -30.5556  -17.2138   18.9746 C   0  0  0  0  0  0
  -29.4153  -19.4804   20.2942 C   0  0  0  0  0  0
  -29.9744  -17.0195   20.2493 C   0  0  0  0  0  0
  -29.4077  -18.1690   20.9000 C   0  0  0  0  0  0
  -28.5483  -25.5698   19.2073 C   0  0  0  0  0  0
  -28.7221  -24.2082   19.2653 C   0  0  0  0  0  0
  -28.6934  -23.3329   20.4661 C   0  0  0  0  0  0
  -27.2928  -20.5173   21.2962 C   0  0  0  0  0  0
  -28.7764  -20.7567   20.9538 C   0  0  2  0  0  0
  -29.8930  -15.6787   20.8180 N   0  0  0  0  0  0
  -28.8640  -22.0157   20.1465 N   0  0  0  0  0  0
  -28.5148  -23.7091   21.6254 O   0  0  0  0  0  0
  -28.9334  -23.5881   18.0889 O   0  0  0  0  0  0
  -28.8513  -17.9970   22.1236 F   0  0  0  0  0  0
  -31.4740  -12.4630   19.1611 H   0  0  0  0  0  0
  -30.3476  -11.3603   19.8979 H   0  0  0  0  0  0
  -29.7694  -11.7504   17.4786 H   0  0  0  0  0  0
  -29.6556  -13.4691   17.7621 H   0  0  0  0  0  0
  -27.8741  -11.2821   18.8850 H   0  0  0  0  0  0
  -27.3750  -12.5522   17.8011 H   0  0  0  0  0  0
  -27.6782  -14.2468   19.5219 H   0  0  0  0  0  0
  -28.6895  -12.0561   21.4054 H   0  0  0  0  0  0
  -28.4479  -13.7262   21.8386 H   0  0  0  0  0  0
  -25.2755   -9.5690   22.4767 H   0  0  0  0  0  0
  -23.9997   -7.4637   22.7482 H   0  0  0  0  0  0
  -21.0841   -8.8768   19.8951 H   0  0  0  0  0  0
  -22.3696  -10.9667   19.6155 H   0  0  0  0  0  0
  -21.2011   -7.6149   23.9718 H   0  0  0  0  0  0
  -21.1471   -6.0522   25.9079 H   0  0  0  0  0  0
  -22.0601   -2.7609   23.2857 H   0  0  0  0  0  0
  -22.4084  -11.9852   22.4734 H   0  0  0  0  0  0
  -21.1108  -13.1258   22.2597 H   0  0  0  0  0  0
  -24.6661  -15.8453   20.5270 H   0  0  0  0  0  0
  -26.2841  -15.6289   20.0929 H   0  0  0  0  0  0
  -26.7133  -32.5510   23.1110 H   0  0  0  0  0  0
  -25.0170  -33.9751   25.0534 H   0  0  0  0  0  0
  -22.7088  -31.3060   21.4010 H   0  0  0  0  0  0
  -23.3710  -35.9659   23.3410 H   0  0  0  0  0  0
  -24.3556  -36.8777   22.2036 H   0  0  0  0  0  0
  -23.7269  -37.6546   23.6578 H   0  0  0  0  0  0
  -26.0587  -31.5749   20.5940 H   0  0  0  0  0  0
  -26.8366  -30.8710   21.9828 H   0  0  0  0  0  0
  -28.1015  -29.0078   21.2130 H   0  0  0  0  0  0
  -25.9943  -25.9315   19.0296 H   0  0  0  0  0  0
  -23.9723  -27.3095   19.0152 H   0  0  0  0  0  0
  -23.7418  -30.5974   19.3992 H   0  0  0  0  0  0
  -22.7522  -29.2433   19.8564 H   0  0  0  0  0  0
  -25.1294  -36.1988   25.0835 H   0  0  0  0  0  0
  -20.9970  -28.3232   24.1390 H   0  0  0  0  0  0
  -20.5628  -26.2279   23.3589 H   0  0  0  0  0  0
  -21.6628  -26.7417   22.1210 H   0  0  0  0  0  0
  -19.6900  -25.6294   21.1220 H   0  0  0  0  0  0
  -19.6691  -27.3191   20.6717 H   0  0  0  0  0  0
  -17.4187  -26.6669   21.4016 H   0  0  0  0  0  0
  -18.0348  -26.0079   22.9009 H   0  0  0  0  0  0
  -19.7937  -30.7260   24.2262 H   0  0  0  0  0  0
  -17.5024  -31.6270   24.5162 H   0  0  0  0  0  0
  -15.5353  -30.2998   23.7652 H   0  0  0  0  0  0
  -15.8662  -28.0830   22.7059 H   0  0  0  0  0  0
  -24.5981  -30.6978   25.7763 H   0  0  0  0  0  0
  -24.8927  -32.2822   26.4851 H   0  0  0  0  0  0
  -25.8136  -30.8875   27.0197 H   0  0  0  0  0  0
  -26.2891  -29.6773   24.1124 H   0  0  0  0  0  0
  -27.4143  -29.7268   25.4512 H   0  0  0  0  0  0
  -27.8717  -30.4351   23.9200 H   0  0  0  0  0  0
  -27.2715  -33.3605   26.2032 H   0  0  0  0  0  0
  -28.3912  -32.6805   25.0301 H   0  0  0  0  0  0
  -28.0720  -31.8407   26.5390 H   0  0  0  0  0  0
  -28.2649  -38.0045   24.7406 H   0  0  0  0  0  0
  -28.0967  -36.2570   24.6481 H   0  0  0  0  0  0
  -27.2254  -37.1687   25.8885 H   0  0  0  0  0  0
  -20.9302  -29.8834   21.6960 H   0  0  0  0  0  0
  -26.0189  -38.2864   24.1323 H   0  0  0  0  0  0
  -31.0425  -18.6043   17.4034 H   0  0  0  0  0  0
  -30.0902  -20.5532   18.5198 H   0  0  0  0  0  0
  -30.9714  -16.3868   18.4179 H   0  0  0  0  0  0
  -28.5809  -26.0796   18.2536 H   0  0  0  0  0  0
  -27.1582  -19.6675   21.9621 H   0  0  0  0  0  0
  -26.7063  -20.3247   20.3977 H   0  0  0  0  0  0
  -26.8546  -21.3784   21.8022 H   0  0  0  0  0  0
  -29.3184  -20.9268   21.8862 H   0  0  0  0  0  0
  -29.0551  -15.4872   21.3463 H   0  0  0  0  0  0
  -29.0099  -21.8901   19.1534 H   0  0  0  0  0  0
  -28.9271  -24.2485   17.4092 H   0  0  0  0  0  0
  1 25  1  0  0  0
  1 30  2  0  0  0
  1 82  1  0  0  0
  2  3  1  0  0  0
  2 25  1  0  0  0
  2 87  1  0  0  0
  2 88  1  0  0  0
  3  4  1  0  0  0
  3 89  1  0  0  0
  3 90  1  0  0  0
  4  5  1  0  0  0
  4 91  1  0  0  0
  4 92  1  0  0  0
  5  6  1  0  0  0
  5 26  1  0  0  0
  5 93  1  0  0  0
  6 25  1  0  0  0
  6 94  1  0  0  0
  6 95  1  0  0  0
  7  8  2  0  0  0
  7 26  1  0  0  0
  7 29  1  0  0  0
  8  9  1  0  0  0
  8 22  1  0  0  0
  9 10  1  0  0  0
  9 27  2  0  0  0
 10 11  2  0  0  0
 10 15  1  0  0  0
 11 12  1  0  0  0
 11 96  1  0  0  0
 12 13  2  0  0  0
 12 97  1  0  0  0
 13 14  1  0  0  0
 13 31  1  0  0  0
 14 15  2  0  0  0
 14 98  1  0  0  0
 15 99  1  0  0  0
 16 17  2  0  0  0
 16 21  1  0  0  0
 16 31  1  0  0  0
 17 18  1  0  0  0
 17100  1  0  0  0
 18 19  2  0  0  0
 18101  1  0  0  0
 19 20  1  0  0  0
 19 24  1  0  0  0
 20 21  2  0  0  0
 20102  1  0  0  0
 21 23  1  0  0  0
 22 28  1  0  0  0
 22 32  2  0  0  0
 26 27  1  0  0  0
 28103  1  0  0  0
 28104  1  0  0  0
 29105  1  0  0  0
 29106  1  0  0  0
 33 34  1  0  0  0
 33 66  1  0  0  0
 33 70  2  0  0  0
 34 36  1  0  0  0
 34 59  1  0  0  0
 34107  1  0  0  0
 35 44  2  0  0  0
 35 45  1  0  0  0
 35 68  1  0  0  0
 36 56  1  0  0  0
 36108  1  0  0  0
 37 39  1  0  0  0
 37 47  1  0  0  0
 37 66  1  0  0  0
 37109  1  0  0  0
 38 43  2  0  0  0
 38 46  1  0  0  0
 38 47  1  0  0  0
 39 64  1  0  0  0
 39 67  2  0  0  0
 40 52  1  0  0  0
 40 53  2  0  0  0
 40 58  1  0  0  0
 41110  1  0  0  0
 41111  1  0  0  0
 41112  1  0  0  0
 41 48  1  0  0  0
 42 43  1  0  0  0
 42 66  1  0  0  0
 42113  1  0  0  0
 42114  1  0  0  0
 43 44  1  0  0  0
 44115  1  0  0  0
 45 46  2  0  0  0
 45116  1  0  0  0
 46117  1  0  0  0
 47118  1  0  0  0
 47119  1  0  0  0
 48 56  1  0  0  0
 48 65  1  0  0  0
 48120  1  0  0  0
 49 50  1  0  0  0
 49 53  1  0  0  0
 49 64  1  0  0  0
 49121  1  0  0  0
 50 51  1  0  0  0
 50122  1  0  0  0
 50123  1  0  0  0
 51 52  1  0  0  0
 51124  1  0  0  0
 51125  1  0  0  0
 52126  1  0  0  0
 52127  1  0  0  0
 53 54  1  0  0  0
 54 55  2  0  0  0
 54128  1  0  0  0
 55 57  1  0  0  0
 55129  1  0  0  0
 56 69  2  0  0  0
 57 58  2  0  0  0
 57130  1  0  0  0
 58131  1  0  0  0
 59 60  1  0  0  0
 59 61  1  0  0  0
 59 62  1  0  0  0
 60132  1  0  0  0
 60133  1  0  0  0
 60134  1  0  0  0
 61135  1  0  0  0
 61136  1  0  0  0
 61137  1  0  0  0
 62138  1  0  0  0
 62139  1  0  0  0
 62140  1  0  0  0
 63 65  1  0  0  0
 63141  1  0  0  0
 63142  1  0  0  0
 63143  1  0  0  0
 64144  1  0  0  0
 65145  1  0  0  0
 68 77  1  0  0  0
 71 72  2  0  0  0
 71 73  1  0  0  0
 71146  1  0  0  0
 72 74  1  0  0  0
 72147  1  0  0  0
 73 75  2  0  0  0
 73148  1  0  0  0
 74 76  2  0  0  0
 74 81  1  0  0  0
 75 76  1  0  0  0
 75 82  1  0  0  0
 76 86  1  0  0  0
 77 78  2  0  0  0
 77149  1  0  0  0
 78 79  1  0  0  0
 78 85  1  0  0  0
 79 83  1  0  0  0
 79 84  2  0  0  0
 80150  1  0  0  0
 80151  1  0  0  0
 80152  1  0  0  0
 80 81  1  0  0  0
 81 83  1  0  0  0
 81153  1  0  0  0
 82154  1  0  0  0
 83155  1  0  0  0
 85156  1  0  0  0
M  ISO  4   1 100  68 101  77 101  82 100
M  END
> <chiral flag>
0

> <version>
0

> <s_m_source_file>
/data/baiqing/PycharmProjects/Reinvent-master-3.2/result/LINK_invent/BTK/process_docking_weight1_custom_product_contain_oxygen_bond_distance_aromatic_linkinvent_7_9_3/rearranged_h_0170.sdf

> <i_m_source_file_index>
25

> <r_mmod_Potential_Energy-OPLS-2005>
-72.3320999145508

> <r_mmod_Stretch_Energy-OPLS-2005>
66.1201629638672

> <r_mmod_Bend_Energy-OPLS-2005>
130.797225952148

> <r_mmod_Torsional_Energy-OPLS-2005>
215.614852905273

> <r_mmod_Improper_Torsional_Energy-OPLS-2005>
4.86884021759033

> <r_mmod_Van_der_Waal_Energy-OPLS-2005>
157.863723754883

> <r_mmod_Electrostatic_Energy-OPLS-2005>
-453.209533691406

> <r_mmod_Solvation_Energy-OPLS-2005>
-232.301712036133

> <b_mmod_Minimization_Converged-OPLS-2005>
0

> <r_mmod_RMS_Derivative-OPLS-2005>
1.84398460388184

$$$$
25
                    3D
 Structure written by MMmdl.
153161  0  0  1  0            999 V2000
  -30.6706  -14.5450   20.4676 C   0  0  0  0  0  0
  -30.4242  -12.3282   19.4430 C   0  0  0  0  0  0
  -29.4970  -12.4725   18.2173 C   0  0  0  0  0  0
  -28.0252  -12.3114   18.6422 C   0  0  0  0  0  0
  -27.6512  -13.2039   19.8548 C   0  0  2  0  0  0
  -28.6948  -13.0673   20.9902 C   0  0  0  0  0  0
  -25.2581  -13.8144   20.5645 C   0  0  0  0  0  0
  -24.1829  -13.0443   20.9162 C   0  0  0  0  0  0
  -24.6357  -11.6896   20.8722 C   0  0  0  0  0  0
  -23.9012  -10.4293   21.0403 C   0  0  0  0  0  0
  -24.3580   -9.4215   21.9173 C   0  0  0  0  0  0
  -23.6279   -8.2237   22.0743 C   0  0  0  0  0  0
  -22.4256   -8.0269   21.3539 C   0  0  0  0  0  0
  -21.9855   -9.0244   20.4659 C   0  0  0  0  0  0
  -22.7172  -10.2139   20.3074 C   0  0  0  0  0  0
  -21.6852   -6.0727   22.5260 C   0  0  0  0  0  0
  -21.4022   -6.5626   23.8198 C   0  0  0  0  0  0
  -21.3657   -5.6783   24.9159 C   0  0  0  0  0  0
  -21.6047   -4.3045   24.7204 C   0  0  0  0  0  0
  -21.8828   -3.8137   23.4332 C   0  0  0  0  0  0
  -21.9193   -4.6953   22.3385 C   0  0  0  0  0  0
  -22.7861  -13.5276   21.1842 C   0  0  0  0  0  0
  -22.1655   -4.2143   21.0965 F   0  0  0  0  0  0
  -21.5630   -3.4521   25.7721 F   0  0  0  0  0  0
  -30.0192  -13.3515   20.4214 N   0  0  0  0  0  0
  -26.2979  -12.9283   20.3277 N   0  0  0  0  0  0
  -25.9286  -11.6460   20.5747 N   0  0  0  0  0  0
  -22.0512  -12.8294   22.0424 N   0  0  0  0  0  0
  -25.4373  -15.1852   20.4031 N   0  0  0  0  0  0
  -31.8665  -14.6405   20.1806 O   0  0  0  0  0  0
  -21.6645   -6.8860   21.4216 O   0  0  0  0  0  0
  -22.3558  -14.5586   20.6704 O   0  0  0  0  0  0
  -24.6187  -31.8669   23.2084 C   0  0  0  0  0  0
  -25.9068  -32.4818   23.8387 C   0  0  1  0  0  0
  -27.2262  -27.3951   20.0962 C   0  0  0  0  0  0
  -25.5916  -33.8621   24.2324 N   0  0  0  0  0  0
  -23.4071  -30.4903   21.5509 C   0  0  2  0  0  0
  -24.8485  -28.9522   20.1140 C   0  0  0  0  0  0
  -22.7444  -29.4656   22.5001 C   0  0  0  0  0  0
  -18.0287  -28.1387   22.8462 C   0  0  0  0  0  0
  -24.1499  -36.7320   23.2634 C   0  0  0  0  0  0
  -25.9396  -30.8193   21.3674 C   0  0  0  0  0  0
  -26.0117  -29.4512   20.7109 C   0  0  0  0  0  0
  -27.2012  -28.6826   20.6932 C   0  0  0  0  0  0
  -26.0347  -26.9142   19.5045 C   0  0  0  0  0  0
  -24.8570  -27.6848   19.5082 C   0  0  0  0  0  0
  -23.6150  -29.8254   20.1642 C   0  0  0  0  0  0
  -25.4115  -36.3117   24.0338 C   0  0  1  0  0  0
  -20.5875  -28.3684   23.1310 C   0  0  2  0  0  0
  -20.6777  -26.9410   22.5447 C   0  0  0  0  0  0
  -19.5775  -26.6379   21.5221 C   0  0  0  0  0  0
  -18.1931  -26.7936   22.1583 C   0  0  0  0  0  0
  -19.1532  -28.8849   23.2875 C   0  0  0  0  0  0
  -18.9459  -30.1446   23.8904 C   0  0  0  0  0  0
  -17.6457  -30.6581   24.0572 C   0  0  0  0  0  0
  -25.9042  -34.9481   23.5131 C   0  0  0  0  0  0
  -16.5354  -29.9083   23.6318 C   0  0  0  0  0  0
  -16.7274  -28.6506   23.0325 C   0  0  0  0  0  0
  -26.4482  -31.6599   25.0720 C   0  0  0  0  0  0
  -25.3741  -31.3753   26.1480 C   0  0  0  0  0  0
  -27.0261  -30.3007   24.6123 C   0  0  0  0  0  0
  -27.6106  -32.4296   25.7425 C   0  0  0  0  0  0
  -27.5615  -37.1788   24.8444 C   0  0  0  0  0  0
  -21.4171  -29.3033   22.3715 N   0  0  0  0  0  0
  -26.4302  -37.3800   23.9429 N   0  0  0  0  0  0
  -24.6735  -31.0744   22.0998 N   0  0  0  0  0  0
  -23.4196  -28.8212   23.3067 O   0  0  0  0  0  0
  -28.4076  -26.6679   20.1077 O   0  0  0  0  0  0
  -26.5611  -34.8933   22.4695 O   0  0  0  0  0  0
  -23.5375  -32.1454   23.7457 O   0  0  0  0  0  0
  -30.9654  -17.1638   18.9531 C   0  0  0  0  0  0
  -31.1101  -18.4268   18.3553 C   0  0  0  0  0  0
  -29.3259  -18.0931   20.4944 C   0  0  0  0  0  0
  -30.0784  -16.9630   20.0420 C   0  0  0  0  0  0
  -29.4788  -19.3870   19.9024 C   0  0  0  0  0  0
  -30.3729  -19.5277   18.8131 C   0  0  0  0  0  0
  -27.8361  -22.8113   20.4338 C   0  0  0  0  0  0
  -29.0421  -21.8093   20.3950 C   0  0  0  0  0  0
  -28.0841  -24.2815   20.8568 C   0  0  0  0  0  0
  -28.4420  -25.2732   19.7111 C   0  0  0  0  0  0
  -28.6714  -20.5065   20.3110 N   0  0  0  0  0  0
  -29.8886  -15.6474   20.6231 N   0  0  0  0  0  0
  -26.6875  -22.4396   20.1594 O   0  0  0  0  0  0
  -30.2130  -22.1971   20.4831 O   0  0  0  0  0  0
  -30.5012  -20.7033   18.1526 F   0  0  0  0  0  0
  -31.4671  -12.4289   19.1362 H   0  0  0  0  0  0
  -30.3403  -11.3346   19.8824 H   0  0  0  0  0  0
  -29.7493  -11.7237   17.4645 H   0  0  0  0  0  0
  -29.6436  -13.4456   17.7475 H   0  0  0  0  0  0
  -27.8789  -11.2625   18.9025 H   0  0  0  0  0  0
  -27.3635  -12.5108   17.7985 H   0  0  0  0  0  0
  -27.6705  -14.2331   19.4964 H   0  0  0  0  0  0
  -28.6796  -12.0596   21.4064 H   0  0  0  0  0  0
  -28.4633  -13.7377   21.8199 H   0  0  0  0  0  0
  -25.2727   -9.5706   22.4735 H   0  0  0  0  0  0
  -24.0008   -7.4623   22.7449 H   0  0  0  0  0  0
  -21.0778   -8.8776   19.8956 H   0  0  0  0  0  0
  -22.3622  -10.9687   19.6203 H   0  0  0  0  0  0
  -21.2029   -7.6137   23.9701 H   0  0  0  0  0  0
  -21.1463   -6.0511   25.9067 H   0  0  0  0  0  0
  -22.0615   -2.7593   23.2841 H   0  0  0  0  0  0
  -22.4107  -11.9978   22.4865 H   0  0  0  0  0  0
  -21.1154  -13.1378   22.2655 H   0  0  0  0  0  0
  -24.6832  -15.8529   20.5145 H   0  0  0  0  0  0
  -26.2919  -15.6064   20.0623 H   0  0  0  0  0  0
  -26.7132  -32.5506   23.1139 H   0  0  0  0  0  0
  -25.0088  -33.9777   25.0488 H   0  0  0  0  0  0
  -22.6963  -31.3076   21.4140 H   0  0  0  0  0  0
  -23.3773  -35.9635   23.3263 H   0  0  0  0  0  0
  -24.3612  -36.8974   22.2057 H   0  0  0  0  0  0
  -23.7225  -37.6502   23.6676 H   0  0  0  0  0  0
  -26.0595  -31.5866   20.6013 H   0  0  0  0  0  0
  -26.8246  -30.8692   21.9897 H   0  0  0  0  0  0
  -28.1027  -29.0706   21.1474 H   0  0  0  0  0  0
  -25.9815  -25.9456   19.0334 H   0  0  0  0  0  0
  -23.9612  -27.2950   19.0458 H   0  0  0  0  0  0
  -23.7305  -30.6027   19.4076 H   0  0  0  0  0  0
  -22.7354  -29.2533   19.8652 H   0  0  0  0  0  0
  -25.1278  -36.1987   25.0826 H   0  0  0  0  0  0
  -20.9933  -28.3278   24.1443 H   0  0  0  0  0  0
  -20.5652  -26.2313   23.3657 H   0  0  0  0  0  0
  -21.6667  -26.7436   22.1288 H   0  0  0  0  0  0
  -19.6946  -25.6284   21.1267 H   0  0  0  0  0  0
  -19.6728  -27.3182   20.6746 H   0  0  0  0  0  0
  -17.4232  -26.6718   21.3951 H   0  0  0  0  0  0
  -18.0268  -26.0071   22.8957 H   0  0  0  0  0  0
  -19.7934  -30.7256   24.2289 H   0  0  0  0  0  0
  -17.5011  -31.6254   24.5185 H   0  0  0  0  0  0
  -15.5351  -30.2976   23.7637 H   0  0  0  0  0  0
  -15.8679  -28.0825   22.7023 H   0  0  0  0  0  0
  -24.5929  -30.7056   25.7863 H   0  0  0  0  0  0
  -24.8902  -32.2919   26.4864 H   0  0  0  0  0  0
  -25.8090  -30.8999   27.0278 H   0  0  0  0  0  0
  -26.2772  -29.6780   24.1204 H   0  0  0  0  0  0
  -27.4020  -29.7247   25.4593 H   0  0  0  0  0  0
  -27.8640  -30.4285   23.9261 H   0  0  0  0  0  0
  -27.2774  -33.3573   26.2090 H   0  0  0  0  0  0
  -28.3821  -32.6893   25.0160 H   0  0  0  0  0  0
  -28.0879  -31.8366   26.5236 H   0  0  0  0  0  0
  -28.2613  -38.0107   24.7551 H   0  0  0  0  0  0
  -28.1128  -36.2657   24.6160 H   0  0  0  0  0  0
  -27.2374  -37.1319   25.8853 H   0  0  0  0  0  0
  -20.9364  -29.8734   21.6902 H   0  0  0  0  0  0
  -26.0202  -38.2877   24.1455 H   0  0  0  0  0  0
  -31.5399  -16.3550   18.5294 H   0  0  0  0  0  0
  -31.7783  -18.5516   17.5169 H   0  0  0  0  0  0
  -28.6237  -17.9716   21.3060 H   0  0  0  0  0  0
  -28.8646  -24.2978   21.6162 H   0  0  0  0  0  0
  -27.1750  -24.6235   21.3501 H   0  0  0  0  0  0
  -27.8693  -25.0827   18.8041 H   0  0  0  0  0  0
  -29.4747  -25.0784   19.4201 H   0  0  0  0  0  0
  -27.6787  -20.3425   20.4258 H   0  0  0  0  0  0
  -28.9733  -15.4645   21.0058 H   0  0  0  0  0  0
  1 25  1  0  0  0
  1 30  2  0  0  0
  1 82  1  0  0  0
  2  3  1  0  0  0
  2 25  1  0  0  0
  2 86  1  0  0  0
  2 87  1  0  0  0
  3  4  1  0  0  0
  3 88  1  0  0  0
  3 89  1  0  0  0
  4  5  1  0  0  0
  4 90  1  0  0  0
  4 91  1  0  0  0
  5  6  1  0  0  0
  5 26  1  0  0  0
  5 92  1  0  0  0
  6 25  1  0  0  0
  6 93  1  0  0  0
  6 94  1  0  0  0
  7  8  2  0  0  0
  7 26  1  0  0  0
  7 29  1  0  0  0
  8  9  1  0  0  0
  8 22  1  0  0  0
  9 10  1  0  0  0
  9 27  2  0  0  0
 10 11  2  0  0  0
 10 15  1  0  0  0
 11 12  1  0  0  0
 11 95  1  0  0  0
 12 13  2  0  0  0
 12 96  1  0  0  0
 13 14  1  0  0  0
 13 31  1  0  0  0
 14 15  2  0  0  0
 14 97  1  0  0  0
 15 98  1  0  0  0
 16 17  2  0  0  0
 16 21  1  0  0  0
 16 31  1  0  0  0
 17 18  1  0  0  0
 17 99  1  0  0  0
 18 19  2  0  0  0
 18100  1  0  0  0
 19 20  1  0  0  0
 19 24  1  0  0  0
 20 21  2  0  0  0
 20101  1  0  0  0
 21 23  1  0  0  0
 22 28  1  0  0  0
 22 32  2  0  0  0
 26 27  1  0  0  0
 28102  1  0  0  0
 28103  1  0  0  0
 29104  1  0  0  0
 29105  1  0  0  0
 33 34  1  0  0  0
 33 66  1  0  0  0
 33 70  2  0  0  0
 34 36  1  0  0  0
 34 59  1  0  0  0
 34106  1  0  0  0
 35 44  2  0  0  0
 35 45  1  0  0  0
 35 68  1  0  0  0
 36 56  1  0  0  0
 36107  1  0  0  0
 37 39  1  0  0  0
 37 47  1  0  0  0
 37 66  1  0  0  0
 37108  1  0  0  0
 38 43  2  0  0  0
 38 46  1  0  0  0
 38 47  1  0  0  0
 39 64  1  0  0  0
 39 67  2  0  0  0
 40 52  1  0  0  0
 40 53  2  0  0  0
 40 58  1  0  0  0
 41109  1  0  0  0
 41110  1  0  0  0
 41111  1  0  0  0
 41 48  1  0  0  0
 42 43  1  0  0  0
 42 66  1  0  0  0
 42112  1  0  0  0
 42113  1  0  0  0
 43 44  1  0  0  0
 44114  1  0  0  0
 45 46  2  0  0  0
 45115  1  0  0  0
 46116  1  0  0  0
 47117  1  0  0  0
 47118  1  0  0  0
 48 56  1  0  0  0
 48 65  1  0  0  0
 48119  1  0  0  0
 49 50  1  0  0  0
 49 53  1  0  0  0
 49 64  1  0  0  0
 49120  1  0  0  0
 50 51  1  0  0  0
 50121  1  0  0  0
 50122  1  0  0  0
 51 52  1  0  0  0
 51123  1  0  0  0
 51124  1  0  0  0
 52125  1  0  0  0
 52126  1  0  0  0
 53 54  1  0  0  0
 54 55  2  0  0  0
 54127  1  0  0  0
 55 57  1  0  0  0
 55128  1  0  0  0
 56 69  2  0  0  0
 57 58  2  0  0  0
 57129  1  0  0  0
 58130  1  0  0  0
 59 60  1  0  0  0
 59 61  1  0  0  0
 59 62  1  0  0  0
 60131  1  0  0  0
 60132  1  0  0  0
 60133  1  0  0  0
 61134  1  0  0  0
 61135  1  0  0  0
 61136  1  0  0  0
 62137  1  0  0  0
 62138  1  0  0  0
 62139  1  0  0  0
 63 65  1  0  0  0
 63140  1  0  0  0
 63141  1  0  0  0
 63142  1  0  0  0
 64143  1  0  0  0
 65144  1  0  0  0
 68 80  1  0  0  0
 71 72  2  0  0  0
 71 74  1  0  0  0
 71145  1  0  0  0
 72 76  1  0  0  0
 72146  1  0  0  0
 73 74  2  0  0  0
 73 75  1  0  0  0
 73147  1  0  0  0
 74 82  1  0  0  0
 75 76  2  0  0  0
 75 81  1  0  0  0
 76 85  1  0  0  0
 77 78  1  0  0  0
 77 79  1  0  0  0
 77 83  2  0  0  0
 78 81  1  0  0  0
 78 84  2  0  0  0
 79 80  1  0  0  0
 79148  1  0  0  0
 79149  1  0  0  0
 80150  1  0  0  0
 80151  1  0  0  0
 81152  1  0  0  0
 82153  1  0  0  0
M  ISO  4   1 100  68 101  80 101  82 100
M  END
> <chiral flag>
0

> <version>
0

> <s_m_source_file>
/data/baiqing/PycharmProjects/Reinvent-master-3.2/result/LINK_invent/BTK/process_docking_weight1_custom_product_contain_oxygen_bond_distance_aromatic_linkinvent_7_9_3/rearranged_h_0170.sdf

> <i_m_source_file_index>
26

> <r_mmod_Potential_Energy-OPLS-2005>
-32.2638473510742

> <r_mmod_Stretch_Energy-OPLS-2005>
49.8351440429688

> <r_mmod_Bend_Energy-OPLS-2005>
110.963676452637

> <r_mmod_Torsional_Energy-OPLS-2005>
249.66780090332

> <r_mmod_Improper_Torsional_Energy-OPLS-2005>
6.6109824180603

> <r_mmod_Van_der_Waal_Energy-OPLS-2005>
157.090393066406

> <r_mmod_Electrostatic_Energy-OPLS-2005>
-397.949066162109

> <r_mmod_Solvation_Energy-OPLS-2005>
-235.96467590332

> <b_mmod_Minimization_Converged-OPLS-2005>
0

> <r_mmod_RMS_Derivative-OPLS-2005>
2.93908858299255

$$$$
26
                    3D
 Structure written by MMmdl.
155163  0  0  1  0            999 V2000
  -30.5995  -14.7996   20.4349 C   0  0  0  0  0  0
  -30.4331  -12.4856   19.4939 C   0  0  0  0  0  0
  -29.5171  -12.5187   18.2498 C   0  0  0  0  0  0
  -28.0435  -12.3345   18.6578 C   0  0  0  0  0  0
  -27.6399  -13.2417   19.8503 C   0  0  2  0  0  0
  -28.6816  -13.2022   20.9903 C   0  0  0  0  0  0
  -25.2495  -13.8215   20.5704 C   0  0  0  0  0  0
  -24.1794  -13.0447   20.9202 C   0  0  0  0  0  0
  -24.6395  -11.6927   20.8733 C   0  0  0  0  0  0
  -23.9076  -10.4296   21.0398 C   0  0  0  0  0  0
  -24.3622   -9.4210   21.9175 C   0  0  0  0  0  0
  -23.6293   -8.2245   22.0748 C   0  0  0  0  0  0
  -22.4275   -8.0282   21.3542 C   0  0  0  0  0  0
  -21.9909   -9.0259   20.4645 C   0  0  0  0  0  0
  -22.7241  -10.2134   20.3051 C   0  0  0  0  0  0
  -21.6856   -6.0732   22.5277 C   0  0  0  0  0  0
  -21.4022   -6.5635   23.8208 C   0  0  0  0  0  0
  -21.3659   -5.6787   24.9170 C   0  0  0  0  0  0
  -21.6039   -4.3051   24.7223 C   0  0  0  0  0  0
  -21.8821   -3.8143   23.4344 C   0  0  0  0  0  0
  -21.9195   -4.6958   22.3401 C   0  0  0  0  0  0
  -22.7817  -13.5227   21.1863 C   0  0  0  0  0  0
  -22.1663   -4.2145   21.0976 F   0  0  0  0  0  0
  -21.5624   -3.4534   25.7735 F   0  0  0  0  0  0
  -29.9825  -13.5620   20.4132 N   0  0  0  0  0  0
  -26.2929  -12.9440   20.3280 N   0  0  0  0  0  0
  -25.9330  -11.6571   20.5740 N   0  0  0  0  0  0
  -22.0462  -12.8219   22.0421 N   0  0  0  0  0  0
  -25.4182  -15.1943   20.4146 N   0  0  0  0  0  0
  -31.7924  -14.8712   20.1238 O   0  0  0  0  0  0
  -21.6643   -6.8876   21.4238 O   0  0  0  0  0  0
  -22.3497  -14.5529   20.6706 O   0  0  0  0  0  0
  -24.6355  -31.8522   23.1973 C   0  0  0  0  0  0
  -25.9167  -32.4734   23.8324 C   0  0  1  0  0  0
  -27.2108  -27.2073   20.1314 C   0  0  0  0  0  0
  -25.5945  -33.8538   24.2239 N   0  0  0  0  0  0
  -23.4339  -30.4766   21.5418 C   0  0  2  0  0  0
  -24.8810  -28.9220   20.1083 C   0  0  0  0  0  0
  -22.7521  -29.4589   22.4893 C   0  0  0  0  0  0
  -18.0299  -28.1394   22.8479 C   0  0  0  0  0  0
  -24.1495  -36.7280   23.2636 C   0  0  0  0  0  0
  -25.9857  -30.7452   21.3902 C   0  0  0  0  0  0
  -26.0539  -29.3632   20.7335 C   0  0  0  0  0  0
  -27.2159  -28.5156   20.7431 C   0  0  0  0  0  0
  -26.0201  -26.8712   19.4432 C   0  0  0  0  0  0
  -24.8727  -27.6854   19.4527 C   0  0  0  0  0  0
  -23.6552  -29.8154   20.1570 C   0  0  0  0  0  0
  -25.4119  -36.3055   24.0320 C   0  0  1  0  0  0
  -20.5905  -28.3711   23.1256 C   0  0  2  0  0  0
  -20.6786  -26.9421   22.5408 C   0  0  0  0  0  0
  -19.5760  -26.6385   21.5213 C   0  0  0  0  0  0
  -18.1940  -26.7934   22.1625 C   0  0  0  0  0  0
  -19.1552  -28.8869   23.2863 C   0  0  0  0  0  0
  -18.9470  -30.1467   23.8886 C   0  0  0  0  0  0
  -17.6467  -30.6589   24.0561 C   0  0  0  0  0  0
  -25.9066  -34.9426   23.5084 C   0  0  0  0  0  0
  -16.5359  -29.9085   23.6329 C   0  0  0  0  0  0
  -16.7284  -28.6506   23.0345 C   0  0  0  0  0  0
  -26.4511  -31.6571   25.0734 C   0  0  0  0  0  0
  -25.3714  -31.3749   26.1443 C   0  0  0  0  0  0
  -27.0354  -30.2967   24.6273 C   0  0  0  0  0  0
  -27.6058  -32.4318   25.7509 C   0  0  0  0  0  0
  -27.5582  -37.1792   24.8456 C   0  0  0  0  0  0
  -21.4225  -29.3051   22.3637 N   0  0  0  0  0  0
  -26.4287  -37.3759   23.9409 N   0  0  0  0  0  0
  -24.7043  -31.0443   22.0982 N   0  0  0  0  0  0
  -23.4206  -28.8121   23.2997 O   0  0  0  0  0  0
  -28.2871  -26.2679   20.2013 O   0  0  0  0  0  0
  -26.5643  -34.8908   22.4657 O   0  0  0  0  0  0
  -23.5497  -32.1375   23.7234 O   0  0  0  0  0  0
  -30.4559  -18.5615   17.9591 C   0  0  0  0  0  0
  -29.5996  -18.6270   20.5944 C   0  0  0  0  0  0
  -30.1683  -19.8172   18.5359 C   0  0  0  0  0  0
  -29.6707  -19.9135   19.8740 C   0  0  0  0  0  0
  -29.9523  -17.3160   20.0173 C   0  0  0  0  0  0
  -30.3390  -17.3506   18.6579 C   0  0  0  0  0  0
  -28.0916  -24.8393   20.0568 C   0  0  0  0  0  0
  -30.4363  -20.9781   17.6424 C   0  0  0  0  0  0
  -28.9178  -23.7624   20.3911 C   0  0  0  0  0  0
  -28.5706  -22.3067   20.0777 C   0  0  0  0  0  0
  -31.8973  -21.2180   17.2853 C   0  0  0  0  0  0
  -29.4452  -21.2860   20.4604 N   0  0  0  0  0  0
  -29.8495  -15.9605   20.6656 N   0  0  0  0  0  0
  -29.5677  -21.7152   17.1717 O   0  0  0  0  0  0
  -27.5236  -21.9980   19.5045 O   0  0  0  0  0  0
  -30.0897  -24.0111   20.9920 O   0  0  0  0  0  0
  -30.5731  -16.2070   17.9705 F   0  0  0  0  0  0
  -31.4740  -12.6090   19.1910 H   0  0  0  0  0  0
  -30.3810  -11.5151   19.9892 H   0  0  0  0  0  0
  -29.8096  -11.7418   17.5419 H   0  0  0  0  0  0
  -29.6380  -13.4700   17.7291 H   0  0  0  0  0  0
  -27.9074  -11.2870   18.9283 H   0  0  0  0  0  0
  -27.3894  -12.5165   17.8041 H   0  0  0  0  0  0
  -27.6265  -14.2591   19.4587 H   0  0  0  0  0  0
  -28.7234  -12.2114   21.4442 H   0  0  0  0  0  0
  -28.4071  -13.8938   21.7880 H   0  0  0  0  0  0
  -25.2763   -9.5688   22.4754 H   0  0  0  0  0  0
  -23.9997   -7.4638   22.7469 H   0  0  0  0  0  0
  -21.0834   -8.8781   19.8959 H   0  0  0  0  0  0
  -22.3691  -10.9672   19.6166 H   0  0  0  0  0  0
  -21.2018   -7.6143   23.9713 H   0  0  0  0  0  0
  -21.1481   -6.0518   25.9072 H   0  0  0  0  0  0
  -22.0600   -2.7605   23.2849 H   0  0  0  0  0  0
  -22.4086  -11.9891   22.4824 H   0  0  0  0  0  0
  -21.1082  -13.1250   22.2622 H   0  0  0  0  0  0
  -24.6514  -15.8487   20.5249 H   0  0  0  0  0  0
  -26.2676  -15.6332   20.0830 H   0  0  0  0  0  0
  -26.7229  -32.5363   23.1058 H   0  0  0  0  0  0
  -25.0058  -33.9666   25.0361 H   0  0  0  0  0  0
  -22.7323  -31.3008   21.3961 H   0  0  0  0  0  0
  -23.3756  -35.9612   23.3276 H   0  0  0  0  0  0
  -24.3588  -36.8930   22.2055 H   0  0  0  0  0  0
  -23.7252  -37.6473   23.6682 H   0  0  0  0  0  0
  -26.1345  -31.5017   20.6184 H   0  0  0  0  0  0
  -26.8597  -30.7928   22.0279 H   0  0  0  0  0  0
  -28.1069  -28.8432   21.2599 H   0  0  0  0  0  0
  -25.9238  -25.9564   18.8828 H   0  0  0  0  0  0
  -23.9825  -27.3504   18.9378 H   0  0  0  0  0  0
  -23.7847  -30.5944   19.4049 H   0  0  0  0  0  0
  -22.7711  -29.2553   19.8471 H   0  0  0  0  0  0
  -25.1302  -36.1890   25.0811 H   0  0  0  0  0  0
  -20.9999  -28.3295   24.1376 H   0  0  0  0  0  0
  -20.5681  -26.2319   23.3618 H   0  0  0  0  0  0
  -21.6652  -26.7435   22.1203 H   0  0  0  0  0  0
  -19.6918  -25.6293   21.1248 H   0  0  0  0  0  0
  -19.6695  -27.3190   20.6739 H   0  0  0  0  0  0
  -17.4205  -26.6673   21.4033 H   0  0  0  0  0  0
  -18.0343  -26.0085   22.9033 H   0  0  0  0  0  0
  -19.7943  -30.7289   24.2250 H   0  0  0  0  0  0
  -17.5017  -31.6264   24.5169 H   0  0  0  0  0  0
  -15.5357  -30.2981   23.7659 H   0  0  0  0  0  0
  -15.8687  -28.0824   22.7059 H   0  0  0  0  0  0
  -24.5892  -30.7095   25.7773 H   0  0  0  0  0  0
  -24.8908  -32.2929   26.4832 H   0  0  0  0  0  0
  -25.8012  -30.8948   27.0242 H   0  0  0  0  0  0
  -26.2949  -29.6709   24.1275 H   0  0  0  0  0  0
  -27.3966  -29.7244   25.4828 H   0  0  0  0  0  0
  -27.8866  -30.4202   23.9575 H   0  0  0  0  0  0
  -27.2658  -33.3624   26.2066 H   0  0  0  0  0  0
  -28.3880  -32.6864   25.0346 H   0  0  0  0  0  0
  -28.0711  -31.8456   26.5443 H   0  0  0  0  0  0
  -28.2576  -38.0112   24.7518 H   0  0  0  0  0  0
  -28.1104  -36.2641   24.6255 H   0  0  0  0  0  0
  -27.2305  -37.1404   25.8859 H   0  0  0  0  0  0
  -20.9414  -29.8784   21.6850 H   0  0  0  0  0  0
  -26.0159  -38.2828   24.1418 H   0  0  0  0  0  0
  -30.7854  -18.5116   16.9307 H   0  0  0  0  0  0
  -29.2745  -18.6495   21.6243 H   0  0  0  0  0  0
  -27.1529  -24.5930   19.5939 H   0  0  0  0  0  0
  -32.5531  -20.6345   17.9316 H   0  0  0  0  0  0
  -32.1453  -22.2719   17.4059 H   0  0  0  0  0  0
  -32.0845  -20.9324   16.2507 H   0  0  0  0  0  0
  -30.1699  -21.6131   21.0874 H   0  0  0  0  0  0
  -28.9882  -15.8007   21.1643 H   0  0  0  0  0  0
  -30.1498  -24.9522   21.0980 H   0  0  0  0  0  0
  1 25  1  0  0  0
  1 30  2  0  0  0
  1 83  1  0  0  0
  2  3  1  0  0  0
  2 25  1  0  0  0
  2 88  1  0  0  0
  2 89  1  0  0  0
  3  4  1  0  0  0
  3 90  1  0  0  0
  3 91  1  0  0  0
  4  5  1  0  0  0
  4 92  1  0  0  0
  4 93  1  0  0  0
  5  6  1  0  0  0
  5 26  1  0  0  0
  5 94  1  0  0  0
  6 25  1  0  0  0
  6 95  1  0  0  0
  6 96  1  0  0  0
  7  8  2  0  0  0
  7 26  1  0  0  0
  7 29  1  0  0  0
  8  9  1  0  0  0
  8 22  1  0  0  0
  9 10  1  0  0  0
  9 27  2  0  0  0
 10 11  2  0  0  0
 10 15  1  0  0  0
 11 12  1  0  0  0
 11 97  1  0  0  0
 12 13  2  0  0  0
 12 98  1  0  0  0
 13 14  1  0  0  0
 13 31  1  0  0  0
 14 15  2  0  0  0
 14 99  1  0  0  0
 15100  1  0  0  0
 16 17  2  0  0  0
 16 21  1  0  0  0
 16 31  1  0  0  0
 17 18  1  0  0  0
 17101  1  0  0  0
 18 19  2  0  0  0
 18102  1  0  0  0
 19 20  1  0  0  0
 19 24  1  0  0  0
 20 21  2  0  0  0
 20103  1  0  0  0
 21 23  1  0  0  0
 22 28  1  0  0  0
 22 32  2  0  0  0
 26 27  1  0  0  0
 28104  1  0  0  0
 28105  1  0  0  0
 29106  1  0  0  0
 29107  1  0  0  0
 33 34  1  0  0  0
 33 66  1  0  0  0
 33 70  2  0  0  0
 34 36  1  0  0  0
 34 59  1  0  0  0
 34108  1  0  0  0
 35 44  2  0  0  0
 35 45  1  0  0  0
 35 68  1  0  0  0
 36 56  1  0  0  0
 36109  1  0  0  0
 37 39  1  0  0  0
 37 47  1  0  0  0
 37 66  1  0  0  0
 37110  1  0  0  0
 38 43  2  0  0  0
 38 46  1  0  0  0
 38 47  1  0  0  0
 39 64  1  0  0  0
 39 67  2  0  0  0
 40 52  1  0  0  0
 40 53  2  0  0  0
 40 58  1  0  0  0
 41111  1  0  0  0
 41112  1  0  0  0
 41113  1  0  0  0
 41 48  1  0  0  0
 42 43  1  0  0  0
 42 66  1  0  0  0
 42114  1  0  0  0
 42115  1  0  0  0
 43 44  1  0  0  0
 44116  1  0  0  0
 45 46  2  0  0  0
 45117  1  0  0  0
 46118  1  0  0  0
 47119  1  0  0  0
 47120  1  0  0  0
 48 56  1  0  0  0
 48 65  1  0  0  0
 48121  1  0  0  0
 49 50  1  0  0  0
 49 53  1  0  0  0
 49 64  1  0  0  0
 49122  1  0  0  0
 50 51  1  0  0  0
 50123  1  0  0  0
 50124  1  0  0  0
 51 52  1  0  0  0
 51125  1  0  0  0
 51126  1  0  0  0
 52127  1  0  0  0
 52128  1  0  0  0
 53 54  1  0  0  0
 54 55  2  0  0  0
 54129  1  0  0  0
 55 57  1  0  0  0
 55130  1  0  0  0
 56 69  2  0  0  0
 57 58  2  0  0  0
 57131  1  0  0  0
 58132  1  0  0  0
 59 60  1  0  0  0
 59 61  1  0  0  0
 59 62  1  0  0  0
 60133  1  0  0  0
 60134  1  0  0  0
 60135  1  0  0  0
 61136  1  0  0  0
 61137  1  0  0  0
 61138  1  0  0  0
 62139  1  0  0  0
 62140  1  0  0  0
 62141  1  0  0  0
 63 65  1  0  0  0
 63142  1  0  0  0
 63143  1  0  0  0
 63144  1  0  0  0
 64145  1  0  0  0
 65146  1  0  0  0
 68 77  1  0  0  0
 71 73  2  0  0  0
 71 76  1  0  0  0
 71147  1  0  0  0
 72 74  2  0  0  0
 72 75  1  0  0  0
 72148  1  0  0  0
 73 74  1  0  0  0
 73 78  1  0  0  0
 74 82  1  0  0  0
 75 76  2  0  0  0
 75 83  1  0  0  0
 76 87  1  0  0  0
 77 79  2  0  0  0
 77149  1  0  0  0
 78 81  1  0  0  0
 78 84  2  0  0  0
 79 80  1  0  0  0
 79 86  1  0  0  0
 80 82  1  0  0  0
 80 85  2  0  0  0
 81150  1  0  0  0
 81151  1  0  0  0
 81152  1  0  0  0
 82153  1  0  0  0
 83154  1  0  0  0
 86155  1  0  0  0
M  ISO  4   1 100  68 101  77 101  83 100
M  END
> <chiral flag>
0

> <version>
0

> <s_m_source_file>
/data/baiqing/PycharmProjects/Reinvent-master-3.2/result/LINK_invent/BTK/process_docking_weight1_custom_product_contain_oxygen_bond_distance_aromatic_linkinvent_7_9_3/rearranged_h_0170.sdf

> <i_m_source_file_index>
27

> <r_mmod_Potential_Energy-OPLS-2005>
228.070755004883

> <r_mmod_Stretch_Energy-OPLS-2005>
160.111434936523

> <r_mmod_Bend_Energy-OPLS-2005>
172.461288452148

> <r_mmod_Torsional_Energy-OPLS-2005>
312.087707519531

> <r_mmod_Improper_Torsional_Energy-OPLS-2005>
5.58940649032593

> <r_mmod_Van_der_Waal_Energy-OPLS-2005>
149.296157836914

> <r_mmod_Electrostatic_Energy-OPLS-2005>
-440.018524169922

> <r_mmod_Solvation_Energy-OPLS-2005>
-248.029937744141

> <b_mmod_Minimization_Converged-OPLS-2005>
0

> <r_mmod_RMS_Derivative-OPLS-2005>
0.822706460952759

$$$$
27
                    3D
 Structure written by MMmdl.
160168  0  0  1  0            999 V2000
  -30.7370  -14.3898   20.6615 C   0  0  0  0  0  0
  -30.4172  -12.2926   19.3985 C   0  0  0  0  0  0
  -29.4858  -12.5193   18.1925 C   0  0  0  0  0  0
  -28.0083  -12.3820   18.6072 C   0  0  0  0  0  0
  -27.6647  -13.2005   19.8805 C   0  0  2  0  0  0
  -28.7018  -12.9346   20.9929 C   0  0  0  0  0  0
  -25.2599  -13.8144   20.5642 C   0  0  0  0  0  0
  -24.1844  -13.0424   20.9146 C   0  0  0  0  0  0
  -24.6391  -11.6892   20.8719 C   0  0  0  0  0  0
  -23.9052  -10.4280   21.0407 C   0  0  0  0  0  0
  -24.3610   -9.4208   21.9182 C   0  0  0  0  0  0
  -23.6285   -8.2244   22.0763 C   0  0  0  0  0  0
  -22.4267   -8.0281   21.3544 C   0  0  0  0  0  0
  -21.9905   -9.0253   20.4647 C   0  0  0  0  0  0
  -22.7229  -10.2127   20.3056 C   0  0  0  0  0  0
  -21.6845   -6.0725   22.5276 C   0  0  0  0  0  0
  -21.4009   -6.5629   23.8211 C   0  0  0  0  0  0
  -21.3656   -5.6790   24.9172 C   0  0  0  0  0  0
  -21.6042   -4.3053   24.7221 C   0  0  0  0  0  0
  -21.8823   -3.8138   23.4345 C   0  0  0  0  0  0
  -21.9198   -4.6956   22.3397 C   0  0  0  0  0  0
  -22.7873  -13.5239   21.1817 C   0  0  0  0  0  0
  -22.1664   -4.2140   21.0975 F   0  0  0  0  0  0
  -21.5633   -3.4537   25.7733 F   0  0  0  0  0  0
  -30.0376  -13.2442   20.4542 N   0  0  0  0  0  0
  -26.3035  -12.9303   20.3365 N   0  0  0  0  0  0
  -25.9316  -11.6465   20.5752 N   0  0  0  0  0  0
  -22.0508  -12.8244   22.0384 N   0  0  0  0  0  0
  -25.4318  -15.1855   20.4014 N   0  0  0  0  0  0
  -31.7952  -14.6452   20.0793 O   0  0  0  0  0  0
  -21.6634   -6.8870   21.4236 O   0  0  0  0  0  0
  -22.3562  -14.5550   20.6669 O   0  0  0  0  0  0
  -24.6118  -31.8715   23.2102 C   0  0  0  0  0  0
  -25.9022  -32.4846   23.8390 C   0  0  1  0  0  0
  -27.2337  -27.4385   20.0804 C   0  0  0  0  0  0
  -25.5883  -33.8646   24.2314 N   0  0  0  0  0  0
  -23.4001  -30.4951   21.5518 C   0  0  2  0  0  0
  -24.8450  -28.9587   20.1179 C   0  0  0  0  0  0
  -22.7405  -29.4677   22.4986 C   0  0  0  0  0  0
  -18.0276  -28.1412   22.8484 C   0  0  0  0  0  0
  -24.1495  -36.7299   23.2650 C   0  0  0  0  0  0
  -25.9310  -30.8318   21.3698 C   0  0  0  0  0  0
  -26.0062  -29.4682   20.7132 C   0  0  0  0  0  0
  -27.2011  -28.7126   20.6936 C   0  0  0  0  0  0
  -26.0468  -26.9410   19.4904 C   0  0  0  0  0  0
  -24.8586  -27.6938   19.5093 C   0  0  0  0  0  0
  -23.6100  -29.8306   20.1670 C   0  0  0  0  0  0
  -25.4128  -36.3110   24.0329 C   0  0  1  0  0  0
  -20.5865  -28.3683   23.1336 C   0  0  2  0  0  0
  -20.6771  -26.9421   22.5436 C   0  0  0  0  0  0
  -19.5754  -26.6407   21.5222 C   0  0  0  0  0  0
  -18.1921  -26.7962   22.1603 C   0  0  0  0  0  0
  -19.1524  -28.8847   23.2911 C   0  0  0  0  0  0
  -18.9450  -30.1452   23.8928 C   0  0  0  0  0  0
  -17.6454  -30.6608   24.0582 C   0  0  0  0  0  0
  -25.9044  -34.9492   23.5122 C   0  0  0  0  0  0
  -16.5342  -29.9118   23.6356 C   0  0  0  0  0  0
  -16.7267  -28.6541   23.0347 C   0  0  0  0  0  0
  -26.4451  -31.6650   25.0731 C   0  0  0  0  0  0
  -25.3706  -31.3727   26.1457 C   0  0  0  0  0  0
  -27.0329  -30.3102   24.6149 C   0  0  0  0  0  0
  -27.6020  -32.4394   25.7472 C   0  0  0  0  0  0
  -27.5584  -37.1798   24.8471 C   0  0  0  0  0  0
  -21.4129  -29.3037   22.3735 N   0  0  0  0  0  0
  -26.4305  -37.3793   23.9401 N   0  0  0  0  0  0
  -24.6658  -31.0805   22.1016 N   0  0  0  0  0  0
  -23.4188  -28.8222   23.3025 O   0  0  0  0  0  0
  -28.4275  -26.7420   20.0799 O   0  0  0  0  0  0
  -26.5621  -34.8948   22.4688 O   0  0  0  0  0  0
  -23.5311  -32.1477   23.7486 O   0  0  0  0  0  0
  -29.5724  -17.6960   23.7832 C   0  0  0  0  0  0
  -28.7632  -18.7412   24.2559 C   0  0  0  0  0  0
  -29.8499  -17.5740   22.4053 C   0  0  0  0  0  0
  -29.2679  -18.4912   21.4840 C   0  0  0  0  0  0
  -28.4860  -19.5799   21.9669 C   0  0  0  0  0  0
  -28.2294  -19.6840   23.3617 C   0  0  0  0  0  0
  -28.0080  -22.9252   20.3167 C   0  0  0  0  0  0
  -29.5006  -18.3290   19.9812 C   0  0  0  0  0  0
  -30.8335  -16.4901   21.9688 C   0  0  0  0  0  0
  -27.8463  -24.4107   20.6645 C   0  0  0  0  0  0
  -27.8118  -21.9212   21.4619 C   0  0  0  0  0  0
  -28.4632  -25.3801   19.6289 C   0  0  0  0  0  0
  -28.0000  -20.5303   21.0447 N   0  0  0  0  0  0
  -30.2026  -15.2436   21.5460 N   0  0  0  0  0  0
  -28.2783  -22.5389   19.1733 O   0  0  0  0  0  0
  -27.4651  -20.6845   23.8668 F   0  0  0  0  0  0
  -31.4614  -12.3955   19.0956 H   0  0  0  0  0  0
  -30.3169  -11.2702   19.7669 H   0  0  0  0  0  0
  -29.7167  -11.8062   17.4005 H   0  0  0  0  0  0
  -29.6604  -13.5107   17.7697 H   0  0  0  0  0  0
  -27.8121  -11.3236   18.7822 H   0  0  0  0  0  0
  -27.3571  -12.6776   17.7836 H   0  0  0  0  0  0
  -27.7260  -14.2552   19.6132 H   0  0  0  0  0  0
  -28.6710  -11.8842   21.2892 H   0  0  0  0  0  0
  -28.4528  -13.4920   21.8963 H   0  0  0  0  0  0
  -25.2754   -9.5670   22.4755 H   0  0  0  0  0  0
  -23.9980   -7.4636   22.7494 H   0  0  0  0  0  0
  -21.0838   -8.8769   19.8955 H   0  0  0  0  0  0
  -22.3692  -10.9668   19.6166 H   0  0  0  0  0  0
  -21.1994   -7.6142   23.9702 H   0  0  0  0  0  0
  -21.1476   -6.0518   25.9068 H   0  0  0  0  0  0
  -22.0608   -2.7602   23.2846 H   0  0  0  0  0  0
  -22.4127  -11.9902   22.4769 H   0  0  0  0  0  0
  -21.1139  -13.1288   22.2593 H   0  0  0  0  0  0
  -24.6635  -15.8407   20.4974 H   0  0  0  0  0  0
  -26.2888  -15.6235   20.0878 H   0  0  0  0  0  0
  -26.7083  -32.5553   23.1153 H   0  0  0  0  0  0
  -24.9961  -33.9805   25.0404 H   0  0  0  0  0  0
  -22.6869  -31.3103   21.4154 H   0  0  0  0  0  0
  -23.3764  -35.9619   23.3320 H   0  0  0  0  0  0
  -24.3557  -36.8922   22.2064 H   0  0  0  0  0  0
  -23.7242  -37.6499   23.6667 H   0  0  0  0  0  0
  -26.0552  -31.6039   20.6091 H   0  0  0  0  0  0
  -26.8135  -30.8744   21.9967 H   0  0  0  0  0  0
  -28.0988  -29.1018   21.1531 H   0  0  0  0  0  0
  -26.0103  -25.9738   19.0112 H   0  0  0  0  0  0
  -23.9639  -27.2961   19.0501 H   0  0  0  0  0  0
  -23.7252  -30.6112   19.4131 H   0  0  0  0  0  0
  -22.7317  -29.2576   19.8629 H   0  0  0  0  0  0
  -25.1311  -36.1951   25.0817 H   0  0  0  0  0  0
  -20.9934  -28.3253   24.1472 H   0  0  0  0  0  0
  -20.5678  -26.2287   23.3615 H   0  0  0  0  0  0
  -21.6651  -26.7482   22.1240 H   0  0  0  0  0  0
  -19.6928  -25.6320   21.1262 H   0  0  0  0  0  0
  -19.6736  -27.3210   20.6748 H   0  0  0  0  0  0
  -17.4220  -26.6728   21.3995 H   0  0  0  0  0  0
  -18.0281  -26.0110   22.8991 H   0  0  0  0  0  0
  -19.7915  -30.7253   24.2340 H   0  0  0  0  0  0
  -17.5017  -31.6298   24.5173 H   0  0  0  0  0  0
  -15.5343  -30.3017   23.7701 H   0  0  0  0  0  0
  -15.8661  -28.0890   22.7040 H   0  0  0  0  0  0
  -24.5948  -30.7001   25.7782 H   0  0  0  0  0  0
  -24.8783  -32.2845   26.4849 H   0  0  0  0  0  0
  -25.8045  -30.8964   27.0259 H   0  0  0  0  0  0
  -26.2897  -29.6812   24.1227 H   0  0  0  0  0  0
  -27.4131  -29.7392   25.4636 H   0  0  0  0  0  0
  -27.8702  -30.4440   23.9292 H   0  0  0  0  0  0
  -27.2648  -33.3663   26.2118 H   0  0  0  0  0  0
  -28.3754  -32.7042   25.0255 H   0  0  0  0  0  0
  -28.0796  -31.8524   26.5324 H   0  0  0  0  0  0
  -28.2622  -38.0083   24.7526 H   0  0  0  0  0  0
  -28.1077  -36.2625   24.6301 H   0  0  0  0  0  0
  -27.2303  -37.1438   25.8877 H   0  0  0  0  0  0
  -20.9291  -29.8751   21.6956 H   0  0  0  0  0  0
  -26.0202  -38.2865   24.1413 H   0  0  0  0  0  0
  -30.0014  -17.0032   24.4941 H   0  0  0  0  0  0
  -28.5665  -18.8347   25.3139 H   0  0  0  0  0  0
  -29.6954  -17.2935   19.7065 H   0  0  0  0  0  0
  -30.3476  -18.9323   19.6568 H   0  0  0  0  0  0
  -28.6279  -18.6271   19.4006 H   0  0  0  0  0  0
  -31.5051  -16.2538   22.7966 H   0  0  0  0  0  0
  -31.4769  -16.9008   21.1883 H   0  0  0  0  0  0
  -28.3114  -24.5771   21.6350 H   0  0  0  0  0  0
  -26.7823  -24.6092   20.7929 H   0  0  0  0  0  0
  -26.8066  -22.0443   21.8673 H   0  0  0  0  0  0
  -28.5162  -22.1836   22.2537 H   0  0  0  0  0  0
  -28.0132  -25.2718   18.6413 H   0  0  0  0  0  0
  -29.5135  -25.1203   19.4848 H   0  0  0  0  0  0
  -28.3469  -20.4540   20.0921 H   0  0  0  0  0  0
  -29.3413  -14.9751   21.9976 H   0  0  0  0  0  0
  1 25  1  0  0  0
  1 30  2  0  0  0
  1 84  1  0  0  0
  2  3  1  0  0  0
  2 25  1  0  0  0
  2 87  1  0  0  0
  2 88  1  0  0  0
  3  4  1  0  0  0
  3 89  1  0  0  0
  3 90  1  0  0  0
  4  5  1  0  0  0
  4 91  1  0  0  0
  4 92  1  0  0  0
  5  6  1  0  0  0
  5 26  1  0  0  0
  5 93  1  0  0  0
  6 25  1  0  0  0
  6 94  1  0  0  0
  6 95  1  0  0  0
  7  8  2  0  0  0
  7 26  1  0  0  0
  7 29  1  0  0  0
  8  9  1  0  0  0
  8 22  1  0  0  0
  9 10  1  0  0  0
  9 27  2  0  0  0
 10 11  2  0  0  0
 10 15  1  0  0  0
 11 12  1  0  0  0
 11 96  1  0  0  0
 12 13  2  0  0  0
 12 97  1  0  0  0
 13 14  1  0  0  0
 13 31  1  0  0  0
 14 15  2  0  0  0
 14 98  1  0  0  0
 15 99  1  0  0  0
 16 17  2  0  0  0
 16 21  1  0  0  0
 16 31  1  0  0  0
 17 18  1  0  0  0
 17100  1  0  0  0
 18 19  2  0  0  0
 18101  1  0  0  0
 19 20  1  0  0  0
 19 24  1  0  0  0
 20 21  2  0  0  0
 20102  1  0  0  0
 21 23  1  0  0  0
 22 28  1  0  0  0
 22 32  2  0  0  0
 26 27  1  0  0  0
 28103  1  0  0  0
 28104  1  0  0  0
 29105  1  0  0  0
 29106  1  0  0  0
 33 34  1  0  0  0
 33 66  1  0  0  0
 33 70  2  0  0  0
 34 36  1  0  0  0
 34 59  1  0  0  0
 34107  1  0  0  0
 35 44  2  0  0  0
 35 45  1  0  0  0
 35 68  1  0  0  0
 36 56  1  0  0  0
 36108  1  0  0  0
 37 39  1  0  0  0
 37 47  1  0  0  0
 37 66  1  0  0  0
 37109  1  0  0  0
 38 43  2  0  0  0
 38 46  1  0  0  0
 38 47  1  0  0  0
 39 64  1  0  0  0
 39 67  2  0  0  0
 40 52  1  0  0  0
 40 53  2  0  0  0
 40 58  1  0  0  0
 41110  1  0  0  0
 41111  1  0  0  0
 41112  1  0  0  0
 41 48  1  0  0  0
 42 43  1  0  0  0
 42 66  1  0  0  0
 42113  1  0  0  0
 42114  1  0  0  0
 43 44  1  0  0  0
 44115  1  0  0  0
 45 46  2  0  0  0
 45116  1  0  0  0
 46117  1  0  0  0
 47118  1  0  0  0
 47119  1  0  0  0
 48 56  1  0  0  0
 48 65  1  0  0  0
 48120  1  0  0  0
 49 50  1  0  0  0
 49 53  1  0  0  0
 49 64  1  0  0  0
 49121  1  0  0  0
 50 51  1  0  0  0
 50122  1  0  0  0
 50123  1  0  0  0
 51 52  1  0  0  0
 51124  1  0  0  0
 51125  1  0  0  0
 52126  1  0  0  0
 52127  1  0  0  0
 53 54  1  0  0  0
 54 55  2  0  0  0
 54128  1  0  0  0
 55 57  1  0  0  0
 55129  1  0  0  0
 56 69  2  0  0  0
 57 58  2  0  0  0
 57130  1  0  0  0
 58131  1  0  0  0
 59 60  1  0  0  0
 59 61  1  0  0  0
 59 62  1  0  0  0
 60132  1  0  0  0
 60133  1  0  0  0
 60134  1  0  0  0
 61135  1  0  0  0
 61136  1  0  0  0
 61137  1  0  0  0
 62138  1  0  0  0
 62139  1  0  0  0
 62140  1  0  0  0
 63 65  1  0  0  0
 63141  1  0  0  0
 63142  1  0  0  0
 63143  1  0  0  0
 64144  1  0  0  0
 65145  1  0  0  0
 68 82  1  0  0  0
 71 72  2  0  0  0
 71 73  1  0  0  0
 71146  1  0  0  0
 72 76  1  0  0  0
 72147  1  0  0  0
 73 74  2  0  0  0
 73 79  1  0  0  0
 74 75  1  0  0  0
 74 78  1  0  0  0
 75 76  2  0  0  0
 75 83  1  0  0  0
 76 86  1  0  0  0
 77 80  1  0  0  0
 77 81  1  0  0  0
 77 85  2  0  0  0
 78148  1  0  0  0
 78149  1  0  0  0
 78150  1  0  0  0
 79 84  1  0  0  0
 79151  1  0  0  0
 79152  1  0  0  0
 80 82  1  0  0  0
 80153  1  0  0  0
 80154  1  0  0  0
 81 83  1  0  0  0
 81155  1  0  0  0
 81156  1  0  0  0
 82157  1  0  0  0
 82158  1  0  0  0
 83159  1  0  0  0
 84160  1  0  0  0
M  ISO  4   1 100  68 101  82 101  84 100
M  END
> <chiral flag>
0

> <version>
0

> <s_m_source_file>
/data/baiqing/PycharmProjects/Reinvent-master-3.2/result/LINK_invent/BTK/process_docking_weight1_custom_product_contain_oxygen_bond_distance_aromatic_linkinvent_7_9_3/rearranged_h_0170.sdf

> <i_m_source_file_index>
28

> <r_mmod_Potential_Energy-OPLS-2005>
-144.420562744141

> <r_mmod_Stretch_Energy-OPLS-2005>
36.6672859191895

> <r_mmod_Bend_Energy-OPLS-2005>
100.682319641113

> <r_mmod_Torsional_Energy-OPLS-2005>
185.903533935547

> <r_mmod_Improper_Torsional_Energy-OPLS-2005>
5.20215272903442

> <r_mmod_Van_der_Waal_Energy-OPLS-2005>
166.390991210938

> <r_mmod_Electrostatic_Energy-OPLS-2005>
-432.592529296875

> <r_mmod_Solvation_Energy-OPLS-2005>
-215.356155395508

> <b_mmod_Minimization_Converged-OPLS-2005>
0

> <r_mmod_RMS_Derivative-OPLS-2005>
2.80006957054138

$$$$
28
                    3D
 Structure written by MMmdl.
156164  0  0  1  0            999 V2000
  -30.5977  -14.7593   20.4434 C   0  0  0  0  0  0
  -30.4284  -12.4589   19.4804 C   0  0  0  0  0  0
  -29.5124  -12.5143   18.2374 C   0  0  0  0  0  0
  -28.0359  -12.3410   18.6443 C   0  0  0  0  0  0
  -27.6403  -13.2356   19.8493 C   0  0  2  0  0  0
  -28.6830  -13.1707   20.9876 C   0  0  0  0  0  0
  -25.2500  -13.8197   20.5681 C   0  0  0  0  0  0
  -24.1805  -13.0442   20.9207 C   0  0  0  0  0  0
  -24.6397  -11.6923   20.8733 C   0  0  0  0  0  0
  -23.9070  -10.4298   21.0390 C   0  0  0  0  0  0
  -24.3626   -9.4220   21.9168 C   0  0  0  0  0  0
  -23.6304   -8.2254   22.0746 C   0  0  0  0  0  0
  -22.4283   -8.0286   21.3543 C   0  0  0  0  0  0
  -21.9917   -9.0254   20.4642 C   0  0  0  0  0  0
  -22.7241  -10.2136   20.3042 C   0  0  0  0  0  0
  -21.6856   -6.0736   22.5281 C   0  0  0  0  0  0
  -21.4018   -6.5641   23.8212 C   0  0  0  0  0  0
  -21.3657   -5.6793   24.9172 C   0  0  0  0  0  0
  -21.6041   -4.3055   24.7221 C   0  0  0  0  0  0
  -21.8825   -3.8150   23.4345 C   0  0  0  0  0  0
  -21.9199   -4.6965   22.3403 C   0  0  0  0  0  0
  -22.7829  -13.5216   21.1868 C   0  0  0  0  0  0
  -22.1670   -4.2159   21.0976 F   0  0  0  0  0  0
  -21.5625   -3.4538   25.7731 F   0  0  0  0  0  0
  -29.9823  -13.5267   20.4053 N   0  0  0  0  0  0
  -26.2929  -12.9417   20.3265 N   0  0  0  0  0  0
  -25.9333  -11.6554   20.5741 N   0  0  0  0  0  0
  -22.0481  -12.8202   22.0424 N   0  0  0  0  0  0
  -25.4139  -15.1915   20.4063 N   0  0  0  0  0  0
  -31.7858  -14.8555   20.1228 O   0  0  0  0  0  0
  -21.6647   -6.8885   21.4244 O   0  0  0  0  0  0
  -22.3517  -14.5516   20.6707 O   0  0  0  0  0  0
  -24.6302  -31.8537   23.1981 C   0  0  0  0  0  0
  -25.9126  -32.4736   23.8316 C   0  0  1  0  0  0
  -27.2132  -27.2429   20.1084 C   0  0  0  0  0  0
  -25.5932  -33.8546   24.2228 N   0  0  0  0  0  0
  -23.4258  -30.4784   21.5418 C   0  0  2  0  0  0
  -24.8710  -28.9247   20.1068 C   0  0  0  0  0  0
  -22.7479  -29.4602   22.4895 C   0  0  0  0  0  0
  -18.0286  -28.1399   22.8468 C   0  0  0  0  0  0
  -24.1494  -36.7294   23.2638 C   0  0  0  0  0  0
  -25.9739  -30.7581   21.3824 C   0  0  0  0  0  0
  -26.0435  -29.3810   20.7195 C   0  0  0  0  0  0
  -27.2121  -28.5506   20.7124 C   0  0  0  0  0  0
  -26.0100  -26.8584   19.4740 C   0  0  0  0  0  0
  -24.8608  -27.6736   19.4741 C   0  0  0  0  0  0
  -23.6435  -29.8149   20.1566 C   0  0  0  0  0  0
  -25.4121  -36.3063   24.0313 C   0  0  1  0  0  0
  -20.5884  -28.3694   23.1246 C   0  0  2  0  0  0
  -20.6769  -26.9398   22.5405 C   0  0  0  0  0  0
  -19.5743  -26.6388   21.5200 C   0  0  0  0  0  0
  -18.1923  -26.7938   22.1609 C   0  0  0  0  0  0
  -19.1542  -28.8862   23.2849 C   0  0  0  0  0  0
  -18.9492  -30.1461   23.8873 C   0  0  0  0  0  0
  -17.6495  -30.6595   24.0567 C   0  0  0  0  0  0
  -25.9062  -34.9432   23.5073 C   0  0  0  0  0  0
  -16.5377  -29.9112   23.6333 C   0  0  0  0  0  0
  -16.7277  -28.6530   23.0334 C   0  0  0  0  0  0
  -26.4498  -31.6576   25.0716 C   0  0  0  0  0  0
  -25.3718  -31.3741   26.1436 C   0  0  0  0  0  0
  -27.0351  -30.2982   24.6227 C   0  0  0  0  0  0
  -27.6027  -32.4338   25.7510 C   0  0  0  0  0  0
  -27.5577  -37.1807   24.8456 C   0  0  0  0  0  0
  -21.4190  -29.3045   22.3629 N   0  0  0  0  0  0
  -26.4289  -37.3764   23.9401 N   0  0  0  0  0  0
  -24.6957  -31.0485   22.0965 N   0  0  0  0  0  0
  -23.4184  -28.8150   23.3006 O   0  0  0  0  0  0
  -28.3229  -26.3605   20.1966 O   0  0  0  0  0  0
  -26.5636  -34.8908   22.4645 O   0  0  0  0  0  0
  -23.5456  -32.1382   23.7271 O   0  0  0  0  0  0
  -28.3604  -18.4430   21.7426 C   0  0  0  0  0  0
  -27.7958  -20.8241   21.6408 C   0  0  0  0  0  0
  -27.6113  -19.5436   22.2048 C   0  0  0  0  0  0
  -29.3022  -18.6017   20.7081 C   0  0  0  0  0  0
  -28.7286  -21.0502   20.5979 C   0  0  0  0  0  0
  -28.5282  -23.6899   20.4952 C   0  0  0  0  0  0
  -29.6400  -25.1081   18.6156 C   0  0  0  0  0  0
  -30.1687  -17.3437   20.2314 C   0  0  0  0  0  0
  -28.4197  -24.9936   19.5447 C   0  0  1  0  0  0
  -29.4300  -19.8978   20.1837 N   0  3  0  0  0  0
  -26.6717  -19.3610   23.2225 N   0  0  0  0  0  0
  -28.8246  -22.4168   19.9863 N   0  0  0  0  0  0
  -29.8170  -15.8971   20.6049 N   0  0  0  0  0  0
  -28.3400  -23.8730   21.7063 O   0  0  0  0  0  0
  -31.4728  -12.5741   19.1859 H   0  0  0  0  0  0
  -30.3619  -11.4819   19.9639 H   0  0  0  0  0  0
  -29.7976  -11.7394   17.5249 H   0  0  0  0  0  0
  -29.6438  -13.4676   17.7227 H   0  0  0  0  0  0
  -27.8858  -11.2907   18.8983 H   0  0  0  0  0  0
  -27.3822  -12.5441   17.7946 H   0  0  0  0  0  0
  -27.6311  -14.2578   19.4694 H   0  0  0  0  0  0
  -28.7222  -12.1719   21.4243 H   0  0  0  0  0  0
  -28.4157  -13.8494   21.7995 H   0  0  0  0  0  0
  -25.2770   -9.5711   22.4742 H   0  0  0  0  0  0
  -24.0020   -7.4649   22.7476 H   0  0  0  0  0  0
  -21.0840   -8.8766   19.8953 H   0  0  0  0  0  0
  -22.3686  -10.9670   19.6155 H   0  0  0  0  0  0
  -21.2015   -7.6150   23.9719 H   0  0  0  0  0  0
  -21.1464   -6.0519   25.9073 H   0  0  0  0  0  0
  -22.0604   -2.7616   23.2835 H   0  0  0  0  0  0
  -22.4101  -11.9868   22.4815 H   0  0  0  0  0  0
  -21.1086  -13.1212   22.2597 H   0  0  0  0  0  0
  -24.6283  -15.8283   20.4847 H   0  0  0  0  0  0
  -26.2443  -15.6345   20.0371 H   0  0  0  0  0  0
  -26.7163  -32.5356   23.1030 H   0  0  0  0  0  0
  -25.0049  -33.9678   25.0350 H   0  0  0  0  0  0
  -22.7218  -31.3011   21.3972 H   0  0  0  0  0  0
  -23.3747  -35.9635   23.3296 H   0  0  0  0  0  0
  -24.3571  -36.8939   22.2052 H   0  0  0  0  0  0
  -23.7272  -37.6496   23.6684 H   0  0  0  0  0  0
  -26.1142  -31.5207   20.6163 H   0  0  0  0  0  0
  -26.8506  -30.8057   22.0161 H   0  0  0  0  0  0
  -28.1079  -28.8918   21.2114 H   0  0  0  0  0  0
  -25.8944  -25.9037   18.9908 H   0  0  0  0  0  0
  -23.9621  -27.3194   18.9896 H   0  0  0  0  0  0
  -23.7690  -30.5936   19.4042 H   0  0  0  0  0  0
  -22.7604  -29.2533   19.8469 H   0  0  0  0  0  0
  -25.1315  -36.1898   25.0805 H   0  0  0  0  0  0
  -20.9964  -28.3287   24.1370 H   0  0  0  0  0  0
  -20.5631  -26.2289   23.3608 H   0  0  0  0  0  0
  -21.6662  -26.7397   22.1265 H   0  0  0  0  0  0
  -19.6888  -25.6291   21.1236 H   0  0  0  0  0  0
  -19.6668  -27.3183   20.6713 H   0  0  0  0  0  0
  -17.4198  -26.6667   21.4015 H   0  0  0  0  0  0
  -18.0332  -26.0096   22.9033 H   0  0  0  0  0  0
  -19.7977  -30.7284   24.2232 H   0  0  0  0  0  0
  -17.5080  -31.6269   24.5196 H   0  0  0  0  0  0
  -15.5393  -30.3048   23.7665 H   0  0  0  0  0  0
  -15.8670  -28.0868   22.7053 H   0  0  0  0  0  0
  -24.5889  -30.7092   25.7774 H   0  0  0  0  0  0
  -24.8918  -32.2920   26.4837 H   0  0  0  0  0  0
  -25.8033  -30.8939   27.0229 H   0  0  0  0  0  0
  -26.2939  -29.6720   24.1242 H   0  0  0  0  0  0
  -27.4004  -29.7259   25.4769 H   0  0  0  0  0  0
  -27.8835  -30.4241   23.9497 H   0  0  0  0  0  0
  -27.2590  -33.3635   26.2063 H   0  0  0  0  0  0
  -28.3856  -32.6908   25.0362 H   0  0  0  0  0  0
  -28.0668  -31.8487   26.5463 H   0  0  0  0  0  0
  -28.2587  -38.0110   24.7496 H   0  0  0  0  0  0
  -28.1088  -36.2642   24.6298 H   0  0  0  0  0  0
  -27.2291  -37.1466   25.8857 H   0  0  0  0  0  0
  -20.9363  -29.8737   21.6821 H   0  0  0  0  0  0
  -26.0164  -38.2837   24.1396 H   0  0  0  0  0  0
  -28.2201  -17.4706   22.1884 H   0  0  0  0  0  0
  -27.1907  -21.6436   21.9982 H   0  0  0  0  0  0
  -30.5518  -25.3143   19.1761 H   0  0  0  0  0  0
  -29.5025  -25.9211   17.9024 H   0  0  0  0  0  0
  -29.8007  -24.2036   18.0297 H   0  0  0  0  0  0
  -31.1952  -17.5276   20.5528 H   0  0  0  0  0  0
  -30.1996  -17.3805   19.1415 H   0  0  0  0  0  0
  -27.5753  -24.7987   18.8923 H   0  0  0  0  0  0
  -30.1112  -20.0167   19.4257 H   0  0  0  0  0  0
  -26.7482  -18.5231   23.7879 H   0  0  0  0  0  0
  -26.4108  -20.1725   23.7694 H   0  0  0  0  0  0
  -29.0926  -22.4230   19.0170 H   0  0  0  0  0  0
  -28.8494  -15.7280   20.8302 H   0  0  0  0  0  0
  1 25  1  0  0  0
  1 30  2  0  0  0
  1 83  1  0  0  0
  2  3  1  0  0  0
  2 25  1  0  0  0
  2 85  1  0  0  0
  2 86  1  0  0  0
  3  4  1  0  0  0
  3 87  1  0  0  0
  3 88  1  0  0  0
  4  5  1  0  0  0
  4 89  1  0  0  0
  4 90  1  0  0  0
  5  6  1  0  0  0
  5 26  1  0  0  0
  5 91  1  0  0  0
  6 25  1  0  0  0
  6 92  1  0  0  0
  6 93  1  0  0  0
  7  8  2  0  0  0
  7 26  1  0  0  0
  7 29  1  0  0  0
  8  9  1  0  0  0
  8 22  1  0  0  0
  9 10  1  0  0  0
  9 27  2  0  0  0
 10 11  2  0  0  0
 10 15  1  0  0  0
 11 12  1  0  0  0
 11 94  1  0  0  0
 12 13  2  0  0  0
 12 95  1  0  0  0
 13 14  1  0  0  0
 13 31  1  0  0  0
 14 15  2  0  0  0
 14 96  1  0  0  0
 15 97  1  0  0  0
 16 17  2  0  0  0
 16 21  1  0  0  0
 16 31  1  0  0  0
 17 18  1  0  0  0
 17 98  1  0  0  0
 18 19  2  0  0  0
 18 99  1  0  0  0
 19 20  1  0  0  0
 19 24  1  0  0  0
 20 21  2  0  0  0
 20100  1  0  0  0
 21 23  1  0  0  0
 22 28  1  0  0  0
 22 32  2  0  0  0
 26 27  1  0  0  0
 28101  1  0  0  0
 28102  1  0  0  0
 29103  1  0  0  0
 29104  1  0  0  0
 33 34  1  0  0  0
 33 66  1  0  0  0
 33 70  2  0  0  0
 34 36  1  0  0  0
 34 59  1  0  0  0
 34105  1  0  0  0
 35 44  2  0  0  0
 35 45  1  0  0  0
 35 68  1  0  0  0
 36 56  1  0  0  0
 36106  1  0  0  0
 37 39  1  0  0  0
 37 47  1  0  0  0
 37 66  1  0  0  0
 37107  1  0  0  0
 38 43  2  0  0  0
 38 46  1  0  0  0
 38 47  1  0  0  0
 39 64  1  0  0  0
 39 67  2  0  0  0
 40 52  1  0  0  0
 40 53  2  0  0  0
 40 58  1  0  0  0
 41108  1  0  0  0
 41109  1  0  0  0
 41110  1  0  0  0
 41 48  1  0  0  0
 42 43  1  0  0  0
 42 66  1  0  0  0
 42111  1  0  0  0
 42112  1  0  0  0
 43 44  1  0  0  0
 44113  1  0  0  0
 45 46  2  0  0  0
 45114  1  0  0  0
 46115  1  0  0  0
 47116  1  0  0  0
 47117  1  0  0  0
 48 56  1  0  0  0
 48 65  1  0  0  0
 48118  1  0  0  0
 49 50  1  0  0  0
 49 53  1  0  0  0
 49 64  1  0  0  0
 49119  1  0  0  0
 50 51  1  0  0  0
 50120  1  0  0  0
 50121  1  0  0  0
 51 52  1  0  0  0
 51122  1  0  0  0
 51123  1  0  0  0
 52124  1  0  0  0
 52125  1  0  0  0
 53 54  1  0  0  0
 54 55  2  0  0  0
 54126  1  0  0  0
 55 57  1  0  0  0
 55127  1  0  0  0
 56 69  2  0  0  0
 57 58  2  0  0  0
 57128  1  0  0  0
 58129  1  0  0  0
 59 60  1  0  0  0
 59 61  1  0  0  0
 59 62  1  0  0  0
 60130  1  0  0  0
 60131  1  0  0  0
 60132  1  0  0  0
 61133  1  0  0  0
 61134  1  0  0  0
 61135  1  0  0  0
 62136  1  0  0  0
 62137  1  0  0  0
 62138  1  0  0  0
 63 65  1  0  0  0
 63139  1  0  0  0
 63140  1  0  0  0
 63141  1  0  0  0
 64142  1  0  0  0
 65143  1  0  0  0
 68 79  1  0  0  0
 71 73  2  0  0  0
 71 74  1  0  0  0
 71144  1  0  0  0
 72 73  1  0  0  0
 72 75  2  0  0  0
 72145  1  0  0  0
 73 81  1  0  0  0
 74 78  1  0  0  0
 74 80  2  0  0  0
 75 80  1  0  0  0
 75 82  1  0  0  0
 76 79  1  0  0  0
 76 82  1  0  0  0
 76 84  2  0  0  0
 77146  1  0  0  0
 77147  1  0  0  0
 77148  1  0  0  0
 77 79  1  0  0  0
 78 83  1  0  0  0
 78149  1  0  0  0
 78150  1  0  0  0
 79151  1  0  0  0
 80152  1  0  0  0
 81153  1  0  0  0
 81154  1  0  0  0
 82155  1  0  0  0
 83156  1  0  0  0
M  CHG  1  80   1
M  ISO  4   1 100  68 101  79 101  83 100
M  END
> <chiral flag>
0

> <version>
0

> <s_m_source_file>
/data/baiqing/PycharmProjects/Reinvent-master-3.2/result/LINK_invent/BTK/process_docking_weight1_custom_product_contain_oxygen_bond_distance_aromatic_linkinvent_7_9_3/rearranged_h_0170.sdf

> <i_m_source_file_index>
29

> <r_mmod_Potential_Energy-OPLS-2005>
-63.2140502929688

> <r_mmod_Stretch_Energy-OPLS-2005>
142.169708251953

> <r_mmod_Bend_Energy-OPLS-2005>
176.18342590332

> <r_mmod_Torsional_Energy-OPLS-2005>
226.134948730469

> <r_mmod_Improper_Torsional_Energy-OPLS-2005>
9.99084091186523

> <r_mmod_Van_der_Waal_Energy-OPLS-2005>
137.492568969727

> <r_mmod_Electrostatic_Energy-OPLS-2005>
-354.121826171875

> <r_mmod_Solvation_Energy-OPLS-2005>
-493.554534912109

> <b_mmod_Minimization_Converged-OPLS-2005>
0

> <r_mmod_RMS_Derivative-OPLS-2005>
2.41655039787292

$$$$
29
                    3D
 Structure written by MMmdl.
156164  0  0  1  0            999 V2000
  -30.6299  -14.6415   20.5121 C   0  0  0  0  0  0
  -30.4370  -12.3959   19.4517 C   0  0  0  0  0  0
  -29.5067  -12.5131   18.2239 C   0  0  0  0  0  0
  -28.0289  -12.3525   18.6337 C   0  0  0  0  0  0
  -27.6543  -13.2189   19.8651 C   0  0  2  0  0  0
  -28.6991  -13.0712   20.9946 C   0  0  0  0  0  0
  -25.2561  -13.8175   20.5673 C   0  0  0  0  0  0
  -24.1831  -13.0437   20.9183 C   0  0  0  0  0  0
  -24.6398  -11.6910   20.8734 C   0  0  0  0  0  0
  -23.9060  -10.4296   21.0401 C   0  0  0  0  0  0
  -24.3613   -9.4214   21.9180 C   0  0  0  0  0  0
  -23.6290   -8.2245   22.0749 C   0  0  0  0  0  0
  -22.4270   -8.0289   21.3544 C   0  0  0  0  0  0
  -21.9904   -9.0258   20.4642 C   0  0  0  0  0  0
  -22.7231  -10.2138   20.3048 C   0  0  0  0  0  0
  -21.6856   -6.0739   22.5284 C   0  0  0  0  0  0
  -21.4018   -6.5642   23.8219 C   0  0  0  0  0  0
  -21.3656   -5.6791   24.9178 C   0  0  0  0  0  0
  -21.6043   -4.3055   24.7223 C   0  0  0  0  0  0
  -21.8820   -3.8147   23.4344 C   0  0  0  0  0  0
  -21.9192   -4.6967   22.3403 C   0  0  0  0  0  0
  -22.7855  -13.5232   21.1851 C   0  0  0  0  0  0
  -22.1658   -4.2155   21.0978 F   0  0  0  0  0  0
  -21.5625   -3.4537   25.7735 F   0  0  0  0  0  0
  -30.0150  -13.4168   20.4336 N   0  0  0  0  0  0
  -26.2996  -12.9360   20.3323 N   0  0  0  0  0  0
  -25.9329  -11.6514   20.5753 N   0  0  0  0  0  0
  -22.0494  -12.8231   22.0407 N   0  0  0  0  0  0
  -25.4256  -15.1896   20.4080 N   0  0  0  0  0  0
  -31.7814  -14.7942   20.0902 O   0  0  0  0  0  0
  -21.6635   -6.8885   21.4247 O   0  0  0  0  0  0
  -22.3547  -14.5546   20.6708 O   0  0  0  0  0  0
  -24.6261  -31.8608   23.2039 C   0  0  0  0  0  0
  -25.9112  -32.4787   23.8365 C   0  0  1  0  0  0
  -27.2225  -27.3204   20.1137 C   0  0  0  0  0  0
  -25.5925  -33.8587   24.2287 N   0  0  0  0  0  0
  -23.4196  -30.4855   21.5469 C   0  0  2  0  0  0
  -24.8651  -28.9432   20.1109 C   0  0  0  0  0  0
  -22.7480  -29.4629   22.4941 C   0  0  0  0  0  0
  -18.0288  -28.1390   22.8486 C   0  0  0  0  0  0
  -24.1492  -36.7290   23.2640 C   0  0  0  0  0  0
  -25.9615  -30.7918   21.3756 C   0  0  0  0  0  0
  -26.0351  -29.4204   20.7148 C   0  0  0  0  0  0
  -27.2167  -28.6209   20.7063 C   0  0  0  0  0  0
  -26.0278  -26.8999   19.4823 C   0  0  0  0  0  0
  -24.8631  -27.6878   19.4868 C   0  0  0  0  0  0
  -23.6338  -29.8233   20.1612 C   0  0  0  0  0  0
  -25.4117  -36.3086   24.0331 C   0  0  1  0  0  0
  -20.5891  -28.3690   23.1285 C   0  0  2  0  0  0
  -20.6779  -26.9415   22.5411 C   0  0  0  0  0  0
  -19.5754  -26.6387   21.5214 C   0  0  0  0  0  0
  -18.1934  -26.7933   22.1625 C   0  0  0  0  0  0
  -19.1542  -28.8857   23.2880 C   0  0  0  0  0  0
  -18.9465  -30.1459   23.8897 C   0  0  0  0  0  0
  -17.6466  -30.6592   24.0564 C   0  0  0  0  0  0
  -25.9055  -34.9456   23.5108 C   0  0  0  0  0  0
  -16.5356  -29.9091   23.6332 C   0  0  0  0  0  0
  -16.7276  -28.6509   23.0353 C   0  0  0  0  0  0
  -26.4496  -31.6596   25.0734 C   0  0  0  0  0  0
  -25.3727  -31.3728   26.1460 C   0  0  0  0  0  0
  -27.0346  -30.3025   24.6189 C   0  0  0  0  0  0
  -27.6057  -32.4330   25.7502 C   0  0  0  0  0  0
  -27.5582  -37.1802   24.8465 C   0  0  0  0  0  0
  -21.4196  -29.3039   22.3679 N   0  0  0  0  0  0
  -26.4295  -37.3781   23.9410 N   0  0  0  0  0  0
  -24.6879  -31.0623   22.0989 N   0  0  0  0  0  0
  -23.4206  -28.8172   23.3020 O   0  0  0  0  0  0
  -28.3379  -26.4667   20.1718 O   0  0  0  0  0  0
  -26.5629  -34.8920   22.4678 O   0  0  0  0  0  0
  -23.5424  -32.1406   23.7367 O   0  0  0  0  0  0
  -30.8818  -19.3477   21.3728 C   0  0  0  0  0  0
  -28.8941  -19.1682   20.0877 C   0  0  0  0  0  0
  -30.9373  -17.9242   21.4477 C   0  0  0  0  0  0
  -29.8393  -20.0287   20.6997 C   0  0  0  0  0  0
  -29.9478  -17.1329   20.7900 C   0  0  0  0  0  0
  -28.9152  -22.4189   20.2591 C   0  0  0  0  0  0
  -31.7523  -17.4370   23.8008 C   0  0  0  0  0  0
  -32.0466  -17.3187   22.3010 C   0  0  0  0  0  0
  -29.2189  -23.9631   20.4477 C   0  0  0  0  0  0
  -28.1114  -25.0107   19.9916 C   0  0  0  0  0  0
  -28.9502  -17.7992   20.1404 N   0  0  0  0  0  0
  -29.8257  -21.4979   20.7041 N   0  0  0  0  0  0
  -29.8519  -15.6829   20.9532 N   0  0  0  0  0  0
  -27.8657  -22.0711   19.7159 O   0  0  0  0  0  0
  -31.4781  -12.5192   19.1479 H   0  0  0  0  0  0
  -30.3721  -11.3989   19.8903 H   0  0  0  0  0  0
  -29.7708  -11.7647   17.4754 H   0  0  0  0  0  0
  -29.6505  -13.4844   17.7477 H   0  0  0  0  0  0
  -27.8613  -11.2988   18.8592 H   0  0  0  0  0  0
  -27.3748  -12.5900   17.7937 H   0  0  0  0  0  0
  -27.6736  -14.2555   19.5288 H   0  0  0  0  0  0
  -28.7113  -12.0476   21.3723 H   0  0  0  0  0  0
  -28.4414  -13.6973   21.8497 H   0  0  0  0  0  0
  -25.2756   -9.5693   22.4753 H   0  0  0  0  0  0
  -24.0009   -7.4634   22.7457 H   0  0  0  0  0  0
  -21.0837   -8.8766   19.8945 H   0  0  0  0  0  0
  -22.3684  -10.9672   19.6153 H   0  0  0  0  0  0
  -21.2019   -7.6153   23.9729 H   0  0  0  0  0  0
  -21.1474   -6.0516   25.9083 H   0  0  0  0  0  0
  -22.0602   -2.7611   23.2837 H   0  0  0  0  0  0
  -22.4102  -11.9879   22.4775 H   0  0  0  0  0  0
  -21.1121  -13.1271   22.2635 H   0  0  0  0  0  0
  -24.6528  -15.8386   20.5120 H   0  0  0  0  0  0
  -26.2705  -15.6356   20.0724 H   0  0  0  0  0  0
  -26.7180  -32.5458   23.1113 H   0  0  0  0  0  0
  -25.0052  -33.9736   25.0418 H   0  0  0  0  0  0
  -22.7127  -31.3060   21.4061 H   0  0  0  0  0  0
  -23.3759  -35.9618   23.3304 H   0  0  0  0  0  0
  -24.3576  -36.8912   22.2053 H   0  0  0  0  0  0
  -23.7244  -37.6491   23.6663 H   0  0  0  0  0  0
  -26.0948  -31.5567   20.6095 H   0  0  0  0  0  0
  -26.8412  -30.8374   22.0063 H   0  0  0  0  0  0
  -28.1134  -28.9820   21.1902 H   0  0  0  0  0  0
  -25.9606  -25.9429   18.9879 H   0  0  0  0  0  0
  -23.9655  -27.3167   19.0107 H   0  0  0  0  0  0
  -23.7538  -30.6019   19.4068 H   0  0  0  0  0  0
  -22.7542  -29.2530   19.8571 H   0  0  0  0  0  0
  -25.1300  -36.1933   25.0825 H   0  0  0  0  0  0
  -20.9978  -28.3261   24.1409 H   0  0  0  0  0  0
  -20.5685  -26.2299   23.3610 H   0  0  0  0  0  0
  -21.6648  -26.7451   22.1202 H   0  0  0  0  0  0
  -19.6916  -25.6297   21.1246 H   0  0  0  0  0  0
  -19.6696  -27.3199   20.6745 H   0  0  0  0  0  0
  -17.4207  -26.6683   21.4024 H   0  0  0  0  0  0
  -18.0333  -26.0076   22.9021 H   0  0  0  0  0  0
  -19.7942  -30.7275   24.2267 H   0  0  0  0  0  0
  -17.5023  -31.6274   24.5164 H   0  0  0  0  0  0
  -15.5357  -30.2996   23.7660 H   0  0  0  0  0  0
  -15.8675  -28.0831   22.7067 H   0  0  0  0  0  0
  -24.5894  -30.7095   25.7776 H   0  0  0  0  0  0
  -24.8928  -32.2894   26.4900 H   0  0  0  0  0  0
  -25.8044  -30.8883   27.0228 H   0  0  0  0  0  0
  -26.2926  -29.6772   24.1215 H   0  0  0  0  0  0
  -27.4054  -29.7284   25.4690 H   0  0  0  0  0  0
  -27.8788  -30.4321   23.9414 H   0  0  0  0  0  0
  -27.2672  -33.3625   26.2092 H   0  0  0  0  0  0
  -28.3858  -32.6903   25.0324 H   0  0  0  0  0  0
  -28.0742  -31.8453   26.5406 H   0  0  0  0  0  0
  -28.2600  -38.0099   24.7518 H   0  0  0  0  0  0
  -28.1080  -36.2632   24.6287 H   0  0  0  0  0  0
  -27.2301  -37.1445   25.8868 H   0  0  0  0  0  0
  -20.9379  -29.8748   21.6876 H   0  0  0  0  0  0
  -26.0175  -38.2855   24.1413 H   0  0  0  0  0  0
  -31.6414  -19.9252   21.8804 H   0  0  0  0  0  0
  -28.0522  -19.5661   19.5431 H   0  0  0  0  0  0
  -30.8320  -16.9156   24.0645 H   0  0  0  0  0  0
  -31.6505  -18.4789   24.1072 H   0  0  0  0  0  0
  -32.5603  -17.0007   24.3885 H   0  0  0  0  0  0
  -32.9818  -17.8323   22.0723 H   0  0  0  0  0  0
  -32.2281  -16.2759   22.0589 H   0  0  0  0  0  0
  -30.1448  -24.1832   19.9172 H   0  0  0  0  0  0
  -29.4314  -24.1263   21.5042 H   0  0  0  0  0  0
  -27.1977  -24.7382   20.5225 H   0  0  0  0  0  0
  -27.9147  -24.8380   18.9328 H   0  0  0  0  0  0
  -30.6333  -21.9217   21.1433 H   0  0  0  0  0  0
  -28.9280  -15.3701   21.2015 H   0  0  0  0  0  0
  1 25  1  0  0  0
  1 30  2  0  0  0
  1 83  1  0  0  0
  2  3  1  0  0  0
  2 25  1  0  0  0
  2 85  1  0  0  0
  2 86  1  0  0  0
  3  4  1  0  0  0
  3 87  1  0  0  0
  3 88  1  0  0  0
  4  5  1  0  0  0
  4 89  1  0  0  0
  4 90  1  0  0  0
  5  6  1  0  0  0
  5 26  1  0  0  0
  5 91  1  0  0  0
  6 25  1  0  0  0
  6 92  1  0  0  0
  6 93  1  0  0  0
  7  8  2  0  0  0
  7 26  1  0  0  0
  7 29  1  0  0  0
  8  9  1  0  0  0
  8 22  1  0  0  0
  9 10  1  0  0  0
  9 27  2  0  0  0
 10 11  2  0  0  0
 10 15  1  0  0  0
 11 12  1  0  0  0
 11 94  1  0  0  0
 12 13  2  0  0  0
 12 95  1  0  0  0
 13 14  1  0  0  0
 13 31  1  0  0  0
 14 15  2  0  0  0
 14 96  1  0  0  0
 15 97  1  0  0  0
 16 17  2  0  0  0
 16 21  1  0  0  0
 16 31  1  0  0  0
 17 18  1  0  0  0
 17 98  1  0  0  0
 18 19  2  0  0  0
 18 99  1  0  0  0
 19 20  1  0  0  0
 19 24  1  0  0  0
 20 21  2  0  0  0
 20100  1  0  0  0
 21 23  1  0  0  0
 22 28  1  0  0  0
 22 32  2  0  0  0
 26 27  1  0  0  0
 28101  1  0  0  0
 28102  1  0  0  0
 29103  1  0  0  0
 29104  1  0  0  0
 33 34  1  0  0  0
 33 66  1  0  0  0
 33 70  2  0  0  0
 34 36  1  0  0  0
 34 59  1  0  0  0
 34105  1  0  0  0
 35 44  2  0  0  0
 35 45  1  0  0  0
 35 68  1  0  0  0
 36 56  1  0  0  0
 36106  1  0  0  0
 37 39  1  0  0  0
 37 47  1  0  0  0
 37 66  1  0  0  0
 37107  1  0  0  0
 38 43  2  0  0  0
 38 46  1  0  0  0
 38 47  1  0  0  0
 39 64  1  0  0  0
 39 67  2  0  0  0
 40 52  1  0  0  0
 40 53  2  0  0  0
 40 58  1  0  0  0
 41108  1  0  0  0
 41109  1  0  0  0
 41110  1  0  0  0
 41 48  1  0  0  0
 42 43  1  0  0  0
 42 66  1  0  0  0
 42111  1  0  0  0
 42112  1  0  0  0
 43 44  1  0  0  0
 44113  1  0  0  0
 45 46  2  0  0  0
 45114  1  0  0  0
 46115  1  0  0  0
 47116  1  0  0  0
 47117  1  0  0  0
 48 56  1  0  0  0
 48 65  1  0  0  0
 48118  1  0  0  0
 49 50  1  0  0  0
 49 53  1  0  0  0
 49 64  1  0  0  0
 49119  1  0  0  0
 50 51  1  0  0  0
 50120  1  0  0  0
 50121  1  0  0  0
 51 52  1  0  0  0
 51122  1  0  0  0
 51123  1  0  0  0
 52124  1  0  0  0
 52125  1  0  0  0
 53 54  1  0  0  0
 54 55  2  0  0  0
 54126  1  0  0  0
 55 57  1  0  0  0
 55127  1  0  0  0
 56 69  2  0  0  0
 57 58  2  0  0  0
 57128  1  0  0  0
 58129  1  0  0  0
 59 60  1  0  0  0
 59 61  1  0  0  0
 59 62  1  0  0  0
 60130  1  0  0  0
 60131  1  0  0  0
 60132  1  0  0  0
 61133  1  0  0  0
 61134  1  0  0  0
 61135  1  0  0  0
 62136  1  0  0  0
 62137  1  0  0  0
 62138  1  0  0  0
 63 65  1  0  0  0
 63139  1  0  0  0
 63140  1  0  0  0
 63141  1  0  0  0
 64142  1  0  0  0
 65143  1  0  0  0
 68 80  1  0  0  0
 71 73  2  0  0  0
 71 74  1  0  0  0
 71144  1  0  0  0
 72 74  2  0  0  0
 72 81  1  0  0  0
 72145  1  0  0  0
 73 75  1  0  0  0
 73 78  1  0  0  0
 74 82  1  0  0  0
 75 81  2  0  0  0
 75 83  1  0  0  0
 76 79  1  0  0  0
 76 82  1  0  0  0
 76 84  2  0  0  0
 77 78  1  0  0  0
 77146  1  0  0  0
 77147  1  0  0  0
 77148  1  0  0  0
 78149  1  0  0  0
 78150  1  0  0  0
 79 80  1  0  0  0
 79151  1  0  0  0
 79152  1  0  0  0
 80153  1  0  0  0
 80154  1  0  0  0
 82155  1  0  0  0
 83156  1  0  0  0
M  ISO  4   1 100  68 101  80 101  83 100
M  END
> <chiral flag>
0

> <version>
0

> <s_m_source_file>
/data/baiqing/PycharmProjects/Reinvent-master-3.2/result/LINK_invent/BTK/process_docking_weight1_custom_product_contain_oxygen_bond_distance_aromatic_linkinvent_7_9_3/rearranged_h_0170.sdf

> <i_m_source_file_index>
30

> <r_mmod_Potential_Energy-OPLS-2005>
-147.848892211914

> <r_mmod_Stretch_Energy-OPLS-2005>
79.6754455566406

> <r_mmod_Bend_Energy-OPLS-2005>
148.246627807617

> <r_mmod_Torsional_Energy-OPLS-2005>
232.724349975586

> <r_mmod_Improper_Torsional_Energy-OPLS-2005>
5.12716674804688

> <r_mmod_Van_der_Waal_Energy-OPLS-2005>
147.933456420898

> <r_mmod_Electrostatic_Energy-OPLS-2005>
-576.329223632812

> <r_mmod_Solvation_Energy-OPLS-2005>
-233.253921508789

> <b_mmod_Minimization_Converged-OPLS-2005>
0

> <r_mmod_RMS_Derivative-OPLS-2005>
0.799398481845856

$$$$
30
                    3D
 Structure written by MMmdl.
152160  0  0  1  0            999 V2000
  -30.7002  -14.4637   20.5507 C   0  0  0  0  0  0
  -30.4175  -12.2922   19.4293 C   0  0  0  0  0  0
  -29.4960  -12.5010   18.2103 C   0  0  0  0  0  0
  -28.0155  -12.3678   18.6186 C   0  0  0  0  0  0
  -27.6614  -13.2071   19.8755 C   0  0  2  0  0  0
  -28.7008  -12.9914   20.9997 C   0  0  0  0  0  0
  -25.2585  -13.8166   20.5685 C   0  0  0  0  0  0
  -24.1834  -13.0443   20.9179 C   0  0  0  0  0  0
  -24.6383  -11.6908   20.8728 C   0  0  0  0  0  0
  -23.9055  -10.4294   21.0397 C   0  0  0  0  0  0
  -24.3611   -9.4210   21.9172 C   0  0  0  0  0  0
  -23.6285   -8.2247   22.0749 C   0  0  0  0  0  0
  -22.4265   -8.0282   21.3545 C   0  0  0  0  0  0
  -21.9893   -9.0257   20.4651 C   0  0  0  0  0  0
  -22.7224  -10.2135   20.3052 C   0  0  0  0  0  0
  -21.6856   -6.0727   22.5275 C   0  0  0  0  0  0
  -21.4020   -6.5631   23.8208 C   0  0  0  0  0  0
  -21.3660   -5.6785   24.9171 C   0  0  0  0  0  0
  -21.6043   -4.3047   24.7222 C   0  0  0  0  0  0
  -21.8820   -3.8139   23.4344 C   0  0  0  0  0  0
  -21.9195   -4.6955   22.3399 C   0  0  0  0  0  0
  -22.7854  -13.5240   21.1844 C   0  0  0  0  0  0
  -22.1662   -4.2141   21.0977 F   0  0  0  0  0  0
  -21.5629   -3.4531   25.7737 F   0  0  0  0  0  0
  -30.0351  -13.2823   20.4485 N   0  0  0  0  0  0
  -26.3017  -12.9334   20.3360 N   0  0  0  0  0  0
  -25.9312  -11.6494   20.5753 N   0  0  0  0  0  0
  -22.0496  -12.8243   22.0409 N   0  0  0  0  0  0
  -25.4312  -15.1885   20.4105 N   0  0  0  0  0  0
  -31.8364  -14.6214   20.1005 O   0  0  0  0  0  0
  -21.6641   -6.8871   21.4238 O   0  0  0  0  0  0
  -22.3536  -14.5543   20.6690 O   0  0  0  0  0  0
  -24.6142  -31.8673   23.2102 C   0  0  0  0  0  0
  -25.9036  -32.4817   23.8391 C   0  0  1  0  0  0
  -27.2321  -27.4315   20.0941 C   0  0  0  0  0  0
  -25.5893  -33.8614   24.2322 N   0  0  0  0  0  0
  -23.4015  -30.4911   21.5504 C   0  0  2  0  0  0
  -24.8471  -28.9580   20.1130 C   0  0  0  0  0  0
  -22.7406  -29.4648   22.4987 C   0  0  0  0  0  0
  -18.0272  -28.1374   22.8490 C   0  0  0  0  0  0
  -24.1488  -36.7314   23.2639 C   0  0  0  0  0  0
  -25.9308  -30.8321   21.3641 C   0  0  0  0  0  0
  -26.0069  -29.4675   20.7089 C   0  0  0  0  0  0
  -27.2010  -28.7117   20.6949 C   0  0  0  0  0  0
  -26.0533  -26.9400   19.4855 C   0  0  0  0  0  0
  -24.8654  -27.6943   19.4990 C   0  0  0  0  0  0
  -23.6090  -29.8241   20.1643 C   0  0  0  0  0  0
  -25.4105  -36.3104   24.0339 C   0  0  1  0  0  0
  -20.5861  -28.3651   23.1324 C   0  0  2  0  0  0
  -20.6757  -26.9385   22.5422 C   0  0  0  0  0  0
  -19.5738  -26.6380   21.5211 C   0  0  0  0  0  0
  -18.1919  -26.7921   22.1623 C   0  0  0  0  0  0
  -19.1522  -28.8830   23.2905 C   0  0  0  0  0  0
  -18.9449  -30.1439   23.8911 C   0  0  0  0  0  0
  -17.6449  -30.6576   24.0567 C   0  0  0  0  0  0
  -25.9030  -34.9469   23.5126 C   0  0  0  0  0  0
  -16.5342  -29.9078   23.6325 C   0  0  0  0  0  0
  -16.7261  -28.6499   23.0341 C   0  0  0  0  0  0
  -26.4467  -31.6606   25.0723 C   0  0  0  0  0  0
  -25.3753  -31.3741   26.1497 C   0  0  0  0  0  0
  -27.0275  -30.3037   24.6108 C   0  0  0  0  0  0
  -27.6058  -32.4323   25.7464 C   0  0  0  0  0  0
  -27.5580  -37.1805   24.8458 C   0  0  0  0  0  0
  -21.4135  -29.3018   22.3729 N   0  0  0  0  0  0
  -26.4290  -37.3787   23.9409 N   0  0  0  0  0  0
  -24.6668  -31.0776   22.0999 N   0  0  0  0  0  0
  -23.4186  -28.8184   23.3018 O   0  0  0  0  0  0
  -28.4098  -26.7118   20.1204 O   0  0  0  0  0  0
  -26.5590  -34.8921   22.4685 O   0  0  0  0  0  0
  -23.5336  -32.1424   23.7502 O   0  0  0  0  0  0
  -31.2241  -17.4841   20.1186 C   0  0  0  0  0  0
  -28.9839  -17.7327   20.9749 C   0  0  0  0  0  0
  -30.0882  -16.8863   20.7218 C   0  0  0  0  0  0
  -31.1755  -18.8421   19.7523 C   0  0  0  0  0  0
  -30.0078  -19.5788   20.0167 C   0  0  0  0  0  0
  -30.0542  -23.2703   20.2202 C   0  0  0  0  0  0
  -29.4436  -24.5916   20.7580 C   0  0  0  0  0  0
  -29.2521  -21.9556   20.2858 C   0  0  0  0  0  0
  -28.3427  -25.2831   19.9391 C   0  0  0  0  0  0
  -28.9327  -19.0467   20.6353 N   0  0  0  0  0  0
  -29.9818  -15.4895   21.0514 N   0  0  0  0  0  0
  -29.9460  -20.8944   19.5478 N   0  0  0  0  0  0
  -31.2039  -23.2690   19.7556 O   0  0  0  0  0  0
  -29.8651  -25.0874   21.8128 O   0  0  0  0  0  0
  -32.2298  -19.4291   19.1329 F   0  0  0  0  0  0
  -31.4644  -12.3755   19.1318 H   0  0  0  0  0  0
  -30.3022  -11.2827   19.8273 H   0  0  0  0  0  0
  -29.7342  -11.7777   17.4290 H   0  0  0  0  0  0
  -29.6722  -13.4872   17.7784 H   0  0  0  0  0  0
  -27.8198  -11.3125   18.8106 H   0  0  0  0  0  0
  -27.3699  -12.6493   17.7861 H   0  0  0  0  0  0
  -27.7054  -14.2545   19.5771 H   0  0  0  0  0  0
  -28.6694  -11.9598   21.3532 H   0  0  0  0  0  0
  -28.4653  -13.6024   21.8721 H   0  0  0  0  0  0
  -25.2760   -9.5684   22.4738 H   0  0  0  0  0  0
  -24.0001   -7.4636   22.7463 H   0  0  0  0  0  0
  -21.0819   -8.8774   19.8958 H   0  0  0  0  0  0
  -22.3678  -10.9671   19.6160 H   0  0  0  0  0  0
  -21.2015   -7.6137   23.9709 H   0  0  0  0  0  0
  -21.1481   -6.0515   25.9073 H   0  0  0  0  0  0
  -22.0599   -2.7600   23.2850 H   0  0  0  0  0  0
  -22.4107  -11.9909   22.4810 H   0  0  0  0  0  0
  -21.1121  -13.1285   22.2622 H   0  0  0  0  0  0
  -24.6633  -15.8430   20.5133 H   0  0  0  0  0  0
  -26.2774  -15.6238   20.0662 H   0  0  0  0  0  0
  -26.7107  -32.5524   23.1153 H   0  0  0  0  0  0
  -25.0048  -33.9776   25.0470 H   0  0  0  0  0  0
  -22.6898  -31.3074   21.4119 H   0  0  0  0  0  0
  -23.3746  -35.9652   23.3299 H   0  0  0  0  0  0
  -24.3589  -36.8929   22.2054 H   0  0  0  0  0  0
  -23.7246  -37.6520   23.6656 H   0  0  0  0  0  0
  -26.0465  -31.6002   20.5982 H   0  0  0  0  0  0
  -26.8175  -30.8826   21.9840 H   0  0  0  0  0  0
  -28.0972  -29.1010   21.1580 H   0  0  0  0  0  0
  -26.0320  -25.9807   18.9888 H   0  0  0  0  0  0
  -23.9739  -27.2989   19.0317 H   0  0  0  0  0  0
  -23.7157  -30.5986   19.4038 H   0  0  0  0  0  0
  -22.7332  -29.2431   19.8698 H   0  0  0  0  0  0
  -25.1281  -36.1968   25.0834 H   0  0  0  0  0  0
  -20.9955  -28.3213   24.1442 H   0  0  0  0  0  0
  -20.5647  -26.2250   23.3604 H   0  0  0  0  0  0
  -21.6631  -26.7419   22.1220 H   0  0  0  0  0  0
  -19.6894  -25.6298   21.1223 H   0  0  0  0  0  0
  -19.6682  -27.3203   20.6752 H   0  0  0  0  0  0
  -17.4186  -26.6666   21.4029 H   0  0  0  0  0  0
  -18.0319  -26.0061   22.9017 H   0  0  0  0  0  0
  -19.7926  -30.7252   24.2283 H   0  0  0  0  0  0
  -17.5004  -31.6255   24.5169 H   0  0  0  0  0  0
  -15.5343  -30.2980   23.7643 H   0  0  0  0  0  0
  -15.8661  -28.0824   22.7041 H   0  0  0  0  0  0
  -24.5864  -30.7154   25.7850 H   0  0  0  0  0  0
  -24.9028  -32.2921   26.5003 H   0  0  0  0  0  0
  -25.8115  -30.8854   27.0218 H   0  0  0  0  0  0
  -26.2798  -29.6807   24.1184 H   0  0  0  0  0  0
  -27.4050  -29.7274   25.4565 H   0  0  0  0  0  0
  -27.8641  -30.4336   23.9238 H   0  0  0  0  0  0
  -27.2689  -33.3618   26.2065 H   0  0  0  0  0  0
  -28.3840  -32.6894   25.0265 H   0  0  0  0  0  0
  -28.0752  -31.8436   26.5354 H   0  0  0  0  0  0
  -28.2603  -38.0097   24.7503 H   0  0  0  0  0  0
  -28.1070  -36.2632   24.6276 H   0  0  0  0  0  0
  -27.2305  -37.1448   25.8862 H   0  0  0  0  0  0
  -20.9291  -29.8748   21.6961 H   0  0  0  0  0  0
  -26.0180  -38.2863   24.1420 H   0  0  0  0  0  0
  -32.1288  -16.9425   19.9002 H   0  0  0  0  0  0
  -28.0911  -17.3351   21.4366 H   0  0  0  0  0  0
  -28.2613  -22.1121   19.8583 H   0  0  0  0  0  0
  -29.1176  -21.6743   21.3310 H   0  0  0  0  0  0
  -27.3898  -24.8818   20.2840 H   0  0  0  0  0  0
  -28.4522  -25.0368   18.8822 H   0  0  0  0  0  0
  -29.1081  -15.2070   21.4723 H   0  0  0  0  0  0
  -30.8321  -21.2131   19.1609 H   0  0  0  0  0  0
  1 25  1  0  0  0
  1 30  2  0  0  0
  1 81  1  0  0  0
  2  3  1  0  0  0
  2 25  1  0  0  0
  2 86  1  0  0  0
  2 87  1  0  0  0
  3  4  1  0  0  0
  3 88  1  0  0  0
  3 89  1  0  0  0
  4  5  1  0  0  0
  4 90  1  0  0  0
  4 91  1  0  0  0
  5  6  1  0  0  0
  5 26  1  0  0  0
  5 92  1  0  0  0
  6 25  1  0  0  0
  6 93  1  0  0  0
  6 94  1  0  0  0
  7  8  2  0  0  0
  7 26  1  0  0  0
  7 29  1  0  0  0
  8  9  1  0  0  0
  8 22  1  0  0  0
  9 10  1  0  0  0
  9 27  2  0  0  0
 10 11  2  0  0  0
 10 15  1  0  0  0
 11 12  1  0  0  0
 11 95  1  0  0  0
 12 13  2  0  0  0
 12 96  1  0  0  0
 13 14  1  0  0  0
 13 31  1  0  0  0
 14 15  2  0  0  0
 14 97  1  0  0  0
 15 98  1  0  0  0
 16 17  2  0  0  0
 16 21  1  0  0  0
 16 31  1  0  0  0
 17 18  1  0  0  0
 17 99  1  0  0  0
 18 19  2  0  0  0
 18100  1  0  0  0
 19 20  1  0  0  0
 19 24  1  0  0  0
 20 21  2  0  0  0
 20101  1  0  0  0
 21 23  1  0  0  0
 22 28  1  0  0  0
 22 32  2  0  0  0
 26 27  1  0  0  0
 28102  1  0  0  0
 28103  1  0  0  0
 29104  1  0  0  0
 29105  1  0  0  0
 33 34  1  0  0  0
 33 66  1  0  0  0
 33 70  2  0  0  0
 34 36  1  0  0  0
 34 59  1  0  0  0
 34106  1  0  0  0
 35 44  2  0  0  0
 35 45  1  0  0  0
 35 68  1  0  0  0
 36 56  1  0  0  0
 36107  1  0  0  0
 37 39  1  0  0  0
 37 47  1  0  0  0
 37 66  1  0  0  0
 37108  1  0  0  0
 38 43  2  0  0  0
 38 46  1  0  0  0
 38 47  1  0  0  0
 39 64  1  0  0  0
 39 67  2  0  0  0
 40 52  1  0  0  0
 40 53  2  0  0  0
 40 58  1  0  0  0
 41109  1  0  0  0
 41110  1  0  0  0
 41111  1  0  0  0
 41 48  1  0  0  0
 42 43  1  0  0  0
 42 66  1  0  0  0
 42112  1  0  0  0
 42113  1  0  0  0
 43 44  1  0  0  0
 44114  1  0  0  0
 45 46  2  0  0  0
 45115  1  0  0  0
 46116  1  0  0  0
 47117  1  0  0  0
 47118  1  0  0  0
 48 56  1  0  0  0
 48 65  1  0  0  0
 48119  1  0  0  0
 49 50  1  0  0  0
 49 53  1  0  0  0
 49 64  1  0  0  0
 49120  1  0  0  0
 50 51  1  0  0  0
 50121  1  0  0  0
 50122  1  0  0  0
 51 52  1  0  0  0
 51123  1  0  0  0
 51124  1  0  0  0
 52125  1  0  0  0
 52126  1  0  0  0
 53 54  1  0  0  0
 54 55  2  0  0  0
 54127  1  0  0  0
 55 57  1  0  0  0
 55128  1  0  0  0
 56 69  2  0  0  0
 57 58  2  0  0  0
 57129  1  0  0  0
 58130  1  0  0  0
 59 60  1  0  0  0
 59 61  1  0  0  0
 59 62  1  0  0  0
 60131  1  0  0  0
 60132  1  0  0  0
 60133  1  0  0  0
 61134  1  0  0  0
 61135  1  0  0  0
 61136  1  0  0  0
 62137  1  0  0  0
 62138  1  0  0  0
 62139  1  0  0  0
 63 65  1  0  0  0
 63140  1  0  0  0
 63141  1  0  0  0
 63142  1  0  0  0
 64143  1  0  0  0
 65144  1  0  0  0
 68 79  1  0  0  0
 71 73  2  0  0  0
 71 74  1  0  0  0
 71145  1  0  0  0
 72 73  1  0  0  0
 72 80  2  0  0  0
 72146  1  0  0  0
 73 81  1  0  0  0
 74 75  2  0  0  0
 74 85  1  0  0  0
 75 80  1  0  0  0
 75 82  1  0  0  0
 76 77  1  0  0  0
 76 78  1  0  0  0
 76 83  2  0  0  0
 77 79  1  0  0  0
 77 84  2  0  0  0
 78 82  1  0  0  0
 78147  1  0  0  0
 78148  1  0  0  0
 79149  1  0  0  0
 79150  1  0  0  0
 81151  1  0  0  0
 82152  1  0  0  0
M  ISO  4   1 100  68 101  79 101  81 100
M  END
> <chiral flag>
0

> <version>
0

> <s_m_source_file>
/data/baiqing/PycharmProjects/Reinvent-master-3.2/result/LINK_invent/BTK/process_docking_weight1_custom_product_contain_oxygen_bond_distance_aromatic_linkinvent_7_9_3/rearranged_h_0170.sdf

> <i_m_source_file_index>
31

> <r_mmod_Potential_Energy-OPLS-2005>
-176.787704467773

> <r_mmod_Stretch_Energy-OPLS-2005>
38.3397903442383

> <r_mmod_Bend_Energy-OPLS-2005>
105.852478027344

> <r_mmod_Torsional_Energy-OPLS-2005>
241.436416625977

> <r_mmod_Improper_Torsional_Energy-OPLS-2005>
8.33562469482422

> <r_mmod_Van_der_Waal_Energy-OPLS-2005>
162.744827270508

> <r_mmod_Electrostatic_Energy-OPLS-2005>
-487.185607910156

> <r_mmod_Solvation_Energy-OPLS-2005>
-259.724761962891

> <b_mmod_Minimization_Converged-OPLS-2005>
0

> <r_mmod_RMS_Derivative-OPLS-2005>
0.947233140468597

$$$$
31
                    3D
 Structure written by MMmdl.
158166  0  0  1  0            999 V2000
  -30.6556  -14.5440   20.5573 C   0  0  0  0  0  0
  -30.4390  -12.3419   19.4400 C   0  0  0  0  0  0
  -29.5033  -12.4989   18.2216 C   0  0  0  0  0  0
  -28.0269  -12.3432   18.6388 C   0  0  0  0  0  0
  -27.6659  -13.2012   19.8798 C   0  0  2  0  0  0
  -28.7071  -12.9981   21.0032 C   0  0  0  0  0  0
  -25.2641  -13.8149   20.5711 C   0  0  0  0  0  0
  -24.1862  -13.0441   20.9156 C   0  0  0  0  0  0
  -24.6403  -11.6901   20.8721 C   0  0  0  0  0  0
  -23.9067  -10.4296   21.0405 C   0  0  0  0  0  0
  -24.3627   -9.4216   21.9179 C   0  0  0  0  0  0
  -23.6303   -8.2258   22.0750 C   0  0  0  0  0  0
  -22.4289   -8.0279   21.3537 C   0  0  0  0  0  0
  -21.9918   -9.0255   20.4648 C   0  0  0  0  0  0
  -22.7246  -10.2140   20.3045 C   0  0  0  0  0  0
  -21.6876   -6.0754   22.5275 C   0  0  0  0  0  0
  -21.4022   -6.5659   23.8208 C   0  0  0  0  0  0
  -21.3645   -5.6806   24.9168 C   0  0  0  0  0  0
  -21.6038   -4.3068   24.7213 C   0  0  0  0  0  0
  -21.8821   -3.8165   23.4338 C   0  0  0  0  0  0
  -21.9195   -4.6979   22.3401 C   0  0  0  0  0  0
  -22.7894  -13.5246   21.1855 C   0  0  0  0  0  0
  -22.1661   -4.2161   21.0976 F   0  0  0  0  0  0
  -21.5624   -3.4544   25.7730 F   0  0  0  0  0  0
  -30.0352  -13.3323   20.4535 N   0  0  0  0  0  0
  -26.3068  -12.9297   20.3410 N   0  0  0  0  0  0
  -25.9328  -11.6463   20.5768 N   0  0  0  0  0  0
  -22.0548  -12.8203   22.0409 N   0  0  0  0  0  0
  -25.4431  -15.1879   20.4196 N   0  0  0  0  0  0
  -31.7700  -14.7671   20.0789 O   0  0  0  0  0  0
  -21.6635   -6.8895   21.4238 O   0  0  0  0  0  0
  -22.3546  -14.5547   20.6713 O   0  0  0  0  0  0
  -24.6181  -31.8664   23.2099 C   0  0  0  0  0  0
  -25.9057  -32.4819   23.8413 C   0  0  1  0  0  0
  -27.2350  -27.3910   20.1239 C   0  0  0  0  0  0
  -25.5903  -33.8615   24.2328 N   0  0  0  0  0  0
  -23.4107  -30.4892   21.5466 C   0  0  2  0  0  0
  -24.8630  -28.9478   20.1184 C   0  0  0  0  0  0
  -22.7402  -29.4682   22.4968 C   0  0  0  0  0  0
  -18.0258  -28.1378   22.8540 C   0  0  0  0  0  0
  -24.1492  -36.7311   23.2641 C   0  0  0  0  0  0
  -25.9429  -30.8182   21.3717 C   0  0  0  0  0  0
  -26.0225  -29.4455   20.7286 C   0  0  0  0  0  0
  -27.2138  -28.6721   20.7351 C   0  0  0  0  0  0
  -26.0647  -26.9279   19.4922 C   0  0  0  0  0  0
  -24.8792  -27.6899   19.4970 C   0  0  0  0  0  0
  -23.6255  -29.8201   20.1627 C   0  0  0  0  0  0
  -25.4118  -36.3120   24.0339 C   0  0  1  0  0  0
  -20.5852  -28.3705   23.1321 C   0  0  2  0  0  0
  -20.6758  -26.9421   22.5468 C   0  0  0  0  0  0
  -19.5735  -26.6374   21.5285 C   0  0  0  0  0  0
  -18.1897  -26.7938   22.1653 C   0  0  0  0  0  0
  -19.1501  -28.8869   23.2926 C   0  0  0  0  0  0
  -18.9418  -30.1475   23.8945 C   0  0  0  0  0  0
  -17.6409  -30.6604   24.0560 C   0  0  0  0  0  0
  -25.9038  -34.9481   23.5133 C   0  0  0  0  0  0
  -16.5312  -29.9085   23.6331 C   0  0  0  0  0  0
  -16.7238  -28.6489   23.0392 C   0  0  0  0  0  0
  -26.4496  -31.6593   25.0733 C   0  0  0  0  0  0
  -25.3755  -31.3683   26.1473 C   0  0  0  0  0  0
  -27.0332  -30.3039   24.6115 C   0  0  0  0  0  0
  -27.6079  -32.4311   25.7497 C   0  0  0  0  0  0
  -27.5582  -37.1819   24.8472 C   0  0  0  0  0  0
  -21.4114  -29.3067   22.3694 N   0  0  0  0  0  0
  -26.4304  -37.3805   23.9408 N   0  0  0  0  0  0
  -24.6746  -31.0743   22.1024 N   0  0  0  0  0  0
  -23.4139  -28.8206   23.3023 O   0  0  0  0  0  0
  -28.3454  -26.5649   20.0561 O   0  0  0  0  0  0
  -26.5600  -34.8926   22.4690 O   0  0  0  0  0  0
  -23.5350  -32.1416   23.7466 O   0  0  0  0  0  0
  -30.8385  -17.7383   20.2851 C   0  0  0  0  0  0
  -28.6356  -19.0282   21.3302 C   0  0  0  0  0  0
  -29.8910  -16.9451   20.9656 C   0  0  0  0  0  0
  -28.7887  -17.6309   21.5003 C   0  0  0  0  0  0
  -29.6396  -19.7641   20.6376 C   0  0  0  0  0  0
  -29.3922  -23.5955   20.8321 C   0  0  0  0  0  0
  -28.9405  -24.6338   21.5996 C   0  0  0  0  0  0
  -29.4382  -22.1779   21.2922 C   0  0  0  0  0  0
  -27.3680  -19.6674   21.8818 C   0  0  0  0  0  0
  -29.4378  -21.5031   18.9070 C   0  0  0  0  0  0
  -28.9725  -26.1566   21.2831 C   0  0  0  0  0  0
  -30.7103  -19.0855   20.1321 N   0  0  0  0  0  0
  -29.9131  -15.5119   21.1427 N   0  0  0  0  0  0
  -29.4762  -21.1824   20.3399 N   0  0  0  0  0  0
  -29.4557  -21.9009   22.4965 O   0  0  0  0  0  0
  -28.4350  -24.4649   22.8352 O   0  0  0  0  0  0
  -27.8417  -16.9192   22.1609 F   0  0  0  0  0  0
  -31.4800  -12.4638   19.1356 H   0  0  0  0  0  0
  -30.3631  -11.3350   19.8545 H   0  0  0  0  0  0
  -29.7520  -11.7551   17.4628 H   0  0  0  0  0  0
  -29.6578  -13.4751   17.7624 H   0  0  0  0  0  0
  -27.8646  -11.2886   18.8654 H   0  0  0  0  0  0
  -27.3624  -12.5828   17.8066 H   0  0  0  0  0  0
  -27.7054  -14.2448   19.5697 H   0  0  0  0  0  0
  -28.7000  -11.9606   21.3412 H   0  0  0  0  0  0
  -28.4532  -13.5850   21.8862 H   0  0  0  0  0  0
  -25.2779   -9.5691   22.4741 H   0  0  0  0  0  0
  -24.0016   -7.4643   22.7453 H   0  0  0  0  0  0
  -21.0866   -8.8780   19.8945 H   0  0  0  0  0  0
  -22.3715  -10.9676   19.6151 H   0  0  0  0  0  0
  -21.2013   -7.6162   23.9714 H   0  0  0  0  0  0
  -21.1466   -6.0532   25.9075 H   0  0  0  0  0  0
  -22.0615   -2.7619   23.2826 H   0  0  0  0  0  0
  -22.4184  -11.9820   22.4688 H   0  0  0  0  0  0
  -21.1172  -13.1204   22.2684 H   0  0  0  0  0  0
  -24.6982  -15.8595   20.5650 H   0  0  0  0  0  0
  -26.3241  -15.6255   20.1835 H   0  0  0  0  0  0
  -26.7106  -32.5555   23.1160 H   0  0  0  0  0  0
  -25.0055  -33.9791   25.0473 H   0  0  0  0  0  0
  -22.7026  -31.3067   21.3995 H   0  0  0  0  0  0
  -23.3750  -35.9642   23.3326 H   0  0  0  0  0  0
  -24.3569  -36.8902   22.2046 H   0  0  0  0  0  0
  -23.7249  -37.6529   23.6630 H   0  0  0  0  0  0
  -26.0567  -31.5787   20.5982 H   0  0  0  0  0  0
  -26.8296  -30.8816   21.9897 H   0  0  0  0  0  0
  -28.1104  -29.0565   21.2033 H   0  0  0  0  0  0
  -26.0698  -25.9621   19.0070 H   0  0  0  0  0  0
  -23.9899  -27.3028   19.0217 H   0  0  0  0  0  0
  -23.7446  -30.5939   19.4046 H   0  0  0  0  0  0
  -22.7506  -29.2406   19.8629 H   0  0  0  0  0  0
  -25.1295  -36.1985   25.0829 H   0  0  0  0  0  0
  -20.9963  -28.3315   24.1440 H   0  0  0  0  0  0
  -20.5664  -26.2335   23.3694 H   0  0  0  0  0  0
  -21.6624  -26.7441   22.1269 H   0  0  0  0  0  0
  -19.6890  -25.6281   21.1338 H   0  0  0  0  0  0
  -19.6706  -27.3196   20.6842 H   0  0  0  0  0  0
  -17.4207  -26.6789   21.4004 H   0  0  0  0  0  0
  -18.0201  -26.0042   22.8999 H   0  0  0  0  0  0
  -19.7867  -30.7298   24.2353 H   0  0  0  0  0  0
  -17.4931  -31.6312   24.5092 H   0  0  0  0  0  0
  -15.5310  -30.3002   23.7611 H   0  0  0  0  0  0
  -15.8636  -28.0796   22.7126 H   0  0  0  0  0  0
  -24.5943  -30.7023   25.7789 H   0  0  0  0  0  0
  -24.8923  -32.2823   26.4943 H   0  0  0  0  0  0
  -25.8102  -30.8835   27.0223 H   0  0  0  0  0  0
  -26.2876  -29.6792   24.1177 H   0  0  0  0  0  0
  -27.4109  -29.7294   25.4583 H   0  0  0  0  0  0
  -27.8712  -30.4360   23.9263 H   0  0  0  0  0  0
  -27.2718  -33.3602   26.2112 H   0  0  0  0  0  0
  -28.3879  -32.6876   25.0314 H   0  0  0  0  0  0
  -28.0761  -31.8407   26.5392 H   0  0  0  0  0  0
  -28.2633  -38.0090   24.7509 H   0  0  0  0  0  0
  -28.1055  -36.2627   24.6317 H   0  0  0  0  0  0
  -27.2298  -37.1497   25.8878 H   0  0  0  0  0  0
  -20.9268  -29.8756   21.6884 H   0  0  0  0  0  0
  -26.0195  -38.2886   24.1389 H   0  0  0  0  0  0
  -31.7199  -17.3084   19.8354 H   0  0  0  0  0  0
  -29.7745  -23.8479   19.8548 H   0  0  0  0  0  0
  -27.4820  -19.8679   22.9481 H   0  0  0  0  0  0
  -26.5194  -18.9947   21.7589 H   0  0  0  0  0  0
  -27.1045  -20.5979   21.3825 H   0  0  0  0  0  0
  -29.1856  -20.6230   18.3127 H   0  0  0  0  0  0
  -30.4106  -21.8631   18.5712 H   0  0  0  0  0  0
  -28.6815  -22.2524   18.6694 H   0  0  0  0  0  0
  -30.0210  -26.4537   21.2273 H   0  0  0  0  0  0
  -28.5575  -26.7175   22.1245 H   0  0  0  0  0  0
  -29.0858  -15.1551   21.5996 H   0  0  0  0  0  0
  -28.5499  -23.5481   23.0702 H   0  0  0  0  0  0
  1 25  1  0  0  0
  1 30  2  0  0  0
  1 83  1  0  0  0
  2  3  1  0  0  0
  2 25  1  0  0  0
  2 88  1  0  0  0
  2 89  1  0  0  0
  3  4  1  0  0  0
  3 90  1  0  0  0
  3 91  1  0  0  0
  4  5  1  0  0  0
  4 92  1  0  0  0
  4 93  1  0  0  0
  5  6  1  0  0  0
  5 26  1  0  0  0
  5 94  1  0  0  0
  6 25  1  0  0  0
  6 95  1  0  0  0
  6 96  1  0  0  0
  7  8  2  0  0  0
  7 26  1  0  0  0
  7 29  1  0  0  0
  8  9  1  0  0  0
  8 22  1  0  0  0
  9 10  1  0  0  0
  9 27  2  0  0  0
 10 11  2  0  0  0
 10 15  1  0  0  0
 11 12  1  0  0  0
 11 97  1  0  0  0
 12 13  2  0  0  0
 12 98  1  0  0  0
 13 14  1  0  0  0
 13 31  1  0  0  0
 14 15  2  0  0  0
 14 99  1  0  0  0
 15100  1  0  0  0
 16 17  2  0  0  0
 16 21  1  0  0  0
 16 31  1  0  0  0
 17 18  1  0  0  0
 17101  1  0  0  0
 18 19  2  0  0  0
 18102  1  0  0  0
 19 20  1  0  0  0
 19 24  1  0  0  0
 20 21  2  0  0  0
 20103  1  0  0  0
 21 23  1  0  0  0
 22 28  1  0  0  0
 22 32  2  0  0  0
 26 27  1  0  0  0
 28104  1  0  0  0
 28105  1  0  0  0
 29106  1  0  0  0
 29107  1  0  0  0
 33 34  1  0  0  0
 33 66  1  0  0  0
 33 70  2  0  0  0
 34 36  1  0  0  0
 34 59  1  0  0  0
 34108  1  0  0  0
 35 44  2  0  0  0
 35 45  1  0  0  0
 35 68  1  0  0  0
 36 56  1  0  0  0
 36109  1  0  0  0
 37 39  1  0  0  0
 37 47  1  0  0  0
 37 66  1  0  0  0
 37110  1  0  0  0
 38 43  2  0  0  0
 38 46  1  0  0  0
 38 47  1  0  0  0
 39 64  1  0  0  0
 39 67  2  0  0  0
 40 52  1  0  0  0
 40 53  2  0  0  0
 40 58  1  0  0  0
 41111  1  0  0  0
 41112  1  0  0  0
 41113  1  0  0  0
 41 48  1  0  0  0
 42 43  1  0  0  0
 42 66  1  0  0  0
 42114  1  0  0  0
 42115  1  0  0  0
 43 44  1  0  0  0
 44116  1  0  0  0
 45 46  2  0  0  0
 45117  1  0  0  0
 46118  1  0  0  0
 47119  1  0  0  0
 47120  1  0  0  0
 48 56  1  0  0  0
 48 65  1  0  0  0
 48121  1  0  0  0
 49 50  1  0  0  0
 49 53  1  0  0  0
 49 64  1  0  0  0
 49122  1  0  0  0
 50 51  1  0  0  0
 50123  1  0  0  0
 50124  1  0  0  0
 51 52  1  0  0  0
 51125  1  0  0  0
 51126  1  0  0  0
 52127  1  0  0  0
 52128  1  0  0  0
 53 54  1  0  0  0
 54 55  2  0  0  0
 54129  1  0  0  0
 55 57  1  0  0  0
 55130  1  0  0  0
 56 69  2  0  0  0
 57 58  2  0  0  0
 57131  1  0  0  0
 58132  1  0  0  0
 59 60  1  0  0  0
 59 61  1  0  0  0
 59 62  1  0  0  0
 60133  1  0  0  0
 60134  1  0  0  0
 60135  1  0  0  0
 61136  1  0  0  0
 61137  1  0  0  0
 61138  1  0  0  0
 62139  1  0  0  0
 62140  1  0  0  0
 62141  1  0  0  0
 63 65  1  0  0  0
 63142  1  0  0  0
 63143  1  0  0  0
 63144  1  0  0  0
 64145  1  0  0  0
 65146  1  0  0  0
 68 81  1  0  0  0
 71 73  2  0  0  0
 71 82  1  0  0  0
 71147  1  0  0  0
 72 74  2  0  0  0
 72 75  1  0  0  0
 72 79  1  0  0  0
 73 74  1  0  0  0
 73 83  1  0  0  0
 74 87  1  0  0  0
 75 82  2  0  0  0
 75 84  1  0  0  0
 76 77  2  0  0  0
 76 78  1  0  0  0
 76148  1  0  0  0
 77 81  1  0  0  0
 77 86  1  0  0  0
 78 84  1  0  0  0
 78 85  2  0  0  0
 79149  1  0  0  0
 79150  1  0  0  0
 79151  1  0  0  0
 80 84  1  0  0  0
 80152  1  0  0  0
 80153  1  0  0  0
 80154  1  0  0  0
 81155  1  0  0  0
 81156  1  0  0  0
 83157  1  0  0  0
 86158  1  0  0  0
M  ISO  4   1 100  68 101  81 101  83 100
M  END
> <chiral flag>
0

> <version>
0

> <s_m_source_file>
/data/baiqing/PycharmProjects/Reinvent-master-3.2/result/LINK_invent/BTK/process_docking_weight1_custom_product_contain_oxygen_bond_distance_aromatic_linkinvent_7_9_3/rearranged_h_0170.sdf

> <i_m_source_file_index>
32

> <r_mmod_Potential_Energy-OPLS-2005>
-166.029769897461

> <r_mmod_Stretch_Energy-OPLS-2005>
58.4351615905762

> <r_mmod_Bend_Energy-OPLS-2005>
133.687454223633

> <r_mmod_Torsional_Energy-OPLS-2005>
268.758453369141

> <r_mmod_Improper_Torsional_Energy-OPLS-2005>
4.42260313034058

> <r_mmod_Van_der_Waal_Energy-OPLS-2005>
166.522262573242

> <r_mmod_Electrostatic_Energy-OPLS-2005>
-606.056457519531

> <r_mmod_Solvation_Energy-OPLS-2005>
-214.47477722168

> <b_mmod_Minimization_Converged-OPLS-2005>
0

> <r_mmod_RMS_Derivative-OPLS-2005>
3.70567870140076

$$$$
32
                    3D
 Structure written by MMmdl.
162170  0  0  1  0            999 V2000
  -30.6800  -14.7178   20.4685 C   0  0  0  0  0  0
  -30.4260  -12.4479   19.4544 C   0  0  0  0  0  0
  -29.4947  -12.5029   18.2242 C   0  0  0  0  0  0
  -28.0252  -12.3358   18.6495 C   0  0  0  0  0  0
  -27.6428  -13.2418   19.8487 C   0  0  2  0  0  0
  -28.6966  -13.1889   20.9741 C   0  0  0  0  0  0
  -25.2520  -13.8224   20.5732 C   0  0  0  0  0  0
  -24.1818  -13.0425   20.9213 C   0  0  0  0  0  0
  -24.6455  -11.6919   20.8798 C   0  0  0  0  0  0
  -23.9135  -10.4273   21.0422 C   0  0  0  0  0  0
  -24.3658   -9.4173   21.9204 C   0  0  0  0  0  0
  -23.6302   -8.2222   22.0762 C   0  0  0  0  0  0
  -22.4290   -8.0278   21.3541 C   0  0  0  0  0  0
  -21.9952   -9.0267   20.4635 C   0  0  0  0  0  0
  -22.7305  -10.2137   20.3065 C   0  0  0  0  0  0
  -21.6848   -6.0716   22.5260 C   0  0  0  0  0  0
  -21.4016   -6.5626   23.8199 C   0  0  0  0  0  0
  -21.3638   -5.6789   24.9171 C   0  0  0  0  0  0
  -21.6059   -4.3052   24.7219 C   0  0  0  0  0  0
  -21.8837   -3.8122   23.4351 C   0  0  0  0  0  0
  -21.9192   -4.6946   22.3405 C   0  0  0  0  0  0
  -22.7824  -13.5186   21.1837 C   0  0  0  0  0  0
  -22.1650   -4.2122   21.0996 F   0  0  0  0  0  0
  -21.5623   -3.4554   25.7735 F   0  0  0  0  0  0
  -29.9979  -13.5229   20.3807 N   0  0  0  0  0  0
  -26.2987  -12.9467   20.3376 N   0  0  0  0  0  0
  -25.9397  -11.6587   20.5841 N   0  0  0  0  0  0
  -22.0487  -12.8142   22.0401 N   0  0  0  0  0  0
  -25.4129  -15.1944   20.4084 N   0  0  0  0  0  0
  -31.8609  -14.7751   20.1199 O   0  0  0  0  0  0
  -21.6654   -6.8874   21.4216 O   0  0  0  0  0  0
  -22.3475  -14.5450   20.6654 O   0  0  0  0  0  0
  -24.6367  -31.8521   23.1933 C   0  0  0  0  0  0
  -25.9176  -32.4739   23.8306 C   0  0  1  0  0  0
  -27.2276  -27.2431   20.1195 C   0  0  0  0  0  0
  -25.5976  -33.8551   24.2249 N   0  0  0  0  0  0
  -23.4351  -30.4737   21.5359 C   0  0  2  0  0  0
  -24.8814  -28.9128   20.1117 C   0  0  0  0  0  0
  -22.7531  -29.4591   22.4877 C   0  0  0  0  0  0
  -18.0316  -28.1381   22.8503 C   0  0  0  0  0  0
  -24.1471  -36.7251   23.2636 C   0  0  0  0  0  0
  -25.9814  -30.7573   21.3761 C   0  0  0  0  0  0
  -26.0548  -29.3773   20.7195 C   0  0  0  0  0  0
  -27.2310  -28.5559   20.7096 C   0  0  0  0  0  0
  -26.0263  -26.8496   19.4856 C   0  0  0  0  0  0
  -24.8709  -27.6569   19.4870 C   0  0  0  0  0  0
  -23.6553  -29.8053   20.1534 C   0  0  0  0  0  0
  -25.4109  -36.3058   24.0322 C   0  0  1  0  0  0
  -20.5920  -28.3692   23.1252 C   0  0  2  0  0  0
  -20.6796  -26.9397   22.5391 C   0  0  0  0  0  0
  -19.5749  -26.6377   21.5205 C   0  0  0  0  0  0
  -18.1942  -26.7930   22.1626 C   0  0  0  0  0  0
  -19.1572  -28.8850   23.2871 C   0  0  0  0  0  0
  -18.9491  -30.1475   23.8865 C   0  0  0  0  0  0
  -17.6478  -30.6577   24.0570 C   0  0  0  0  0  0
  -25.9064  -34.9434   23.5074 C   0  0  0  0  0  0
  -16.5381  -29.9062   23.6344 C   0  0  0  0  0  0
  -16.7301  -28.6486   23.0363 C   0  0  0  0  0  0
  -26.4538  -31.6576   25.0718 C   0  0  0  0  0  0
  -25.3745  -31.3749   26.1430 C   0  0  0  0  0  0
  -27.0380  -30.2979   24.6236 C   0  0  0  0  0  0
  -27.6066  -32.4337   25.7514 C   0  0  0  0  0  0
  -27.5569  -37.1776   24.8480 C   0  0  0  0  0  0
  -21.4236  -29.3043   22.3634 N   0  0  0  0  0  0
  -26.4270  -37.3778   23.9437 N   0  0  0  0  0  0
  -24.7033  -31.0473   22.0909 N   0  0  0  0  0  0
  -23.4210  -28.8139   23.3005 O   0  0  0  0  0  0
  -28.3258  -26.3424   20.1764 O   0  0  0  0  0  0
  -26.5603  -34.8915   22.4617 O   0  0  0  0  0  0
  -23.5515  -32.1350   23.7209 O   0  0  0  0  0  0
  -29.5172  -17.9920   24.3775 C   0  0  0  0  0  0
  -29.4718  -18.7584   23.2082 C   0  0  0  0  0  0
  -29.7829  -16.6331   24.2928 C   0  0  0  0  0  0
  -29.6378  -18.2460   21.8856 C   0  0  0  0  0  0
  -29.8761  -16.7715   21.8128 C   0  0  0  0  0  0
  -29.9645  -16.0391   23.0443 C   0  0  0  0  0  0
  -29.5909  -19.3733   20.7638 C   0  0  0  0  0  0
  -26.6417  -20.1082   20.5279 C   0  0  0  0  0  0
  -27.5769  -20.8453   21.5165 C   0  0  0  0  0  0
  -29.1598  -23.7321   20.4396 C   0  0  0  0  0  0
  -29.1241  -22.1436   19.9753 C   0  0  0  0  0  0
  -28.1305  -24.8680   19.8963 C   0  0  0  0  0  0
  -29.0635  -20.9133   21.0574 C   0  0  2  0  0  0
  -29.9845  -15.9109   20.6187 N   0  0  0  0  0  0
  -29.9455  -19.1061   19.6140 O   0  0  0  0  0  0
  -29.8978  -21.4919   22.0489 O   0  0  0  0  0  0
  -30.2205  -14.7106   23.0875 F   0  0  0  0  0  0
  -31.4612  -12.5646   19.1313 H   0  0  0  0  0  0
  -30.3731  -11.4742   19.9422 H   0  0  0  0  0  0
  -29.7598  -11.7209   17.5126 H   0  0  0  0  0  0
  -29.6242  -13.4507   17.6987 H   0  0  0  0  0  0
  -27.8751  -11.2873   18.9124 H   0  0  0  0  0  0
  -27.3623  -12.5341   17.8074 H   0  0  0  0  0  0
  -27.6372  -14.2653   19.4736 H   0  0  0  0  0  0
  -28.7329  -12.2063   21.4451 H   0  0  0  0  0  0
  -28.4326  -13.9011   21.7531 H   0  0  0  0  0  0
  -25.2813   -9.5641   22.4769 H   0  0  0  0  0  0
  -23.9977   -7.4616   22.7505 H   0  0  0  0  0  0
  -21.0875   -8.8790   19.8948 H   0  0  0  0  0  0
  -22.3768  -10.9667   19.6167 H   0  0  0  0  0  0
  -21.2018   -7.6140   23.9692 H   0  0  0  0  0  0
  -21.1420   -6.0521   25.9070 H   0  0  0  0  0  0
  -22.0630   -2.7577   23.2869 H   0  0  0  0  0  0
  -22.4114  -11.9818   22.4805 H   0  0  0  0  0  0
  -21.1071  -13.1089   22.2556 H   0  0  0  0  0  0
  -24.6371  -15.8398   20.5125 H   0  0  0  0  0  0
  -26.2695  -15.6411   20.1062 H   0  0  0  0  0  0
  -26.7246  -32.5360   23.1054 H   0  0  0  0  0  0
  -25.0253  -33.9710   25.0485 H   0  0  0  0  0  0
  -22.7328  -31.2962   21.3860 H   0  0  0  0  0  0
  -23.3760  -35.9560   23.3309 H   0  0  0  0  0  0
  -24.3554  -36.8841   22.2045 H   0  0  0  0  0  0
  -23.7190  -37.6437   23.6655 H   0  0  0  0  0  0
  -26.1311  -31.5173   20.6077 H   0  0  0  0  0  0
  -26.8555  -30.8001   22.0149 H   0  0  0  0  0  0
  -28.1308  -28.9124   21.1939 H   0  0  0  0  0  0
  -25.9467  -25.8932   18.9897 H   0  0  0  0  0  0
  -23.9707  -27.2942   19.0091 H   0  0  0  0  0  0
  -23.7898  -30.5805   19.3973 H   0  0  0  0  0  0
  -22.7736  -29.2438   19.8434 H   0  0  0  0  0  0
  -25.1291  -36.1888   25.0814 H   0  0  0  0  0  0
  -21.0055  -28.3266   24.1359 H   0  0  0  0  0  0
  -20.5693  -26.2305   23.3610 H   0  0  0  0  0  0
  -21.6654  -26.7399   22.1179 H   0  0  0  0  0  0
  -19.6890  -25.6284   21.1226 H   0  0  0  0  0  0
  -19.6680  -27.3207   20.6742 H   0  0  0  0  0  0
  -17.4226  -26.6738   21.4015 H   0  0  0  0  0  0
  -18.0303  -26.0057   22.8991 H   0  0  0  0  0  0
  -19.7955  -30.7317   24.2193 H   0  0  0  0  0  0
  -17.5022  -31.6246   24.5180 H   0  0  0  0  0  0
  -15.5370  -30.2945   23.7669 H   0  0  0  0  0  0
  -15.8720  -28.0789   22.7067 H   0  0  0  0  0  0
  -24.5981  -30.7025   25.7798 H   0  0  0  0  0  0
  -24.8886  -32.2912   26.4771 H   0  0  0  0  0  0
  -25.8066  -30.9028   27.0255 H   0  0  0  0  0  0
  -26.2947  -29.6729   24.1282 H   0  0  0  0  0  0
  -27.4058  -29.7280   25.4773 H   0  0  0  0  0  0
  -27.8849  -30.4248   23.9493 H   0  0  0  0  0  0
  -27.2661  -33.3677   26.2011 H   0  0  0  0  0  0
  -28.3947  -32.6810   25.0386 H   0  0  0  0  0  0
  -28.0667  -31.8505   26.5503 H   0  0  0  0  0  0
  -28.2589  -38.0073   24.7540 H   0  0  0  0  0  0
  -28.1042  -36.2591   24.6287 H   0  0  0  0  0  0
  -27.2287  -37.1423   25.8882 H   0  0  0  0  0  0
  -20.9427  -29.8755   21.6831 H   0  0  0  0  0  0
  -26.0130  -38.2840   24.1462 H   0  0  0  0  0  0
  -29.3656  -18.4518   25.3461 H   0  0  0  0  0  0
  -29.2952  -19.7934   23.4189 H   0  0  0  0  0  0
  -29.8454  -16.0291   25.1868 H   0  0  0  0  0  0
  -25.5937  -20.2429   20.7997 H   0  0  0  0  0  0
  -26.8348  -19.0343   20.5194 H   0  0  0  0  0  0
  -26.7567  -20.4572   19.5007 H   0  0  0  0  0  0
  -27.4709  -20.3629   22.4851 H   0  0  0  0  0  0
  -27.1924  -21.8537   21.6695 H   0  0  0  0  0  0
  -30.1609  -24.0858   20.1868 H   0  0  0  0  0  0
  -29.1228  -23.8072   21.5248 H   0  0  0  0  0  0
  -29.9999  -21.9715   19.3473 H   0  0  0  0  0  0
  -28.3010  -22.0367   19.2723 H   0  0  0  0  0  0
  -27.1581  -24.5695   20.2951 H   0  0  0  0  0  0
  -28.0560  -24.7613   18.8132 H   0  0  0  0  0  0
  -30.0498  -16.4577   19.7727 H   0  0  0  0  0  0
  -29.6451  -22.4008   22.1414 H   0  0  0  0  0  0
  1 25  1  0  0  0
  1 30  2  0  0  0
  1 84  1  0  0  0
  2  3  1  0  0  0
  2 25  1  0  0  0
  2 88  1  0  0  0
  2 89  1  0  0  0
  3  4  1  0  0  0
  3 90  1  0  0  0
  3 91  1  0  0  0
  4  5  1  0  0  0
  4 92  1  0  0  0
  4 93  1  0  0  0
  5  6  1  0  0  0
  5 26  1  0  0  0
  5 94  1  0  0  0
  6 25  1  0  0  0
  6 95  1  0  0  0
  6 96  1  0  0  0
  7  8  2  0  0  0
  7 26  1  0  0  0
  7 29  1  0  0  0
  8  9  1  0  0  0
  8 22  1  0  0  0
  9 10  1  0  0  0
  9 27  2  0  0  0
 10 11  2  0  0  0
 10 15  1  0  0  0
 11 12  1  0  0  0
 11 97  1  0  0  0
 12 13  2  0  0  0
 12 98  1  0  0  0
 13 14  1  0  0  0
 13 31  1  0  0  0
 14 15  2  0  0  0
 14 99  1  0  0  0
 15100  1  0  0  0
 16 17  2  0  0  0
 16 21  1  0  0  0
 16 31  1  0  0  0
 17 18  1  0  0  0
 17101  1  0  0  0
 18 19  2  0  0  0
 18102  1  0  0  0
 19 20  1  0  0  0
 19 24  1  0  0  0
 20 21  2  0  0  0
 20103  1  0  0  0
 21 23  1  0  0  0
 22 28  1  0  0  0
 22 32  2  0  0  0
 26 27  1  0  0  0
 28104  1  0  0  0
 28105  1  0  0  0
 29106  1  0  0  0
 29107  1  0  0  0
 33 34  1  0  0  0
 33 66  1  0  0  0
 33 70  2  0  0  0
 34 36  1  0  0  0
 34 59  1  0  0  0
 34108  1  0  0  0
 35 44  2  0  0  0
 35 45  1  0  0  0
 35 68  1  0  0  0
 36 56  1  0  0  0
 36109  1  0  0  0
 37 39  1  0  0  0
 37 47  1  0  0  0
 37 66  1  0  0  0
 37110  1  0  0  0
 38 43  2  0  0  0
 38 46  1  0  0  0
 38 47  1  0  0  0
 39 64  1  0  0  0
 39 67  2  0  0  0
 40 52  1  0  0  0
 40 53  2  0  0  0
 40 58  1  0  0  0
 41111  1  0  0  0
 41112  1  0  0  0
 41113  1  0  0  0
 41 48  1  0  0  0
 42 43  1  0  0  0
 42 66  1  0  0  0
 42114  1  0  0  0
 42115  1  0  0  0
 43 44  1  0  0  0
 44116  1  0  0  0
 45 46  2  0  0  0
 45117  1  0  0  0
 46118  1  0  0  0
 47119  1  0  0  0
 47120  1  0  0  0
 48 56  1  0  0  0
 48 65  1  0  0  0
 48121  1  0  0  0
 49 50  1  0  0  0
 49 53  1  0  0  0
 49 64  1  0  0  0
 49122  1  0  0  0
 50 51  1  0  0  0
 50123  1  0  0  0
 50124  1  0  0  0
 51 52  1  0  0  0
 51125  1  0  0  0
 51126  1  0  0  0
 52127  1  0  0  0
 52128  1  0  0  0
 53 54  1  0  0  0
 54 55  2  0  0  0
 54129  1  0  0  0
 55 57  1  0  0  0
 55130  1  0  0  0
 56 69  2  0  0  0
 57 58  2  0  0  0
 57131  1  0  0  0
 58132  1  0  0  0
 59 60  1  0  0  0
 59 61  1  0  0  0
 59 62  1  0  0  0
 60133  1  0  0  0
 60134  1  0  0  0
 60135  1  0  0  0
 61136  1  0  0  0
 61137  1  0  0  0
 61138  1  0  0  0
 62139  1  0  0  0
 62140  1  0  0  0
 62141  1  0  0  0
 63 65  1  0  0  0
 63142  1  0  0  0
 63143  1  0  0  0
 63144  1  0  0  0
 64145  1  0  0  0
 65146  1  0  0  0
 68 82  1  0  0  0
 71 72  2  0  0  0
 71 73  1  0  0  0
 71147  1  0  0  0
 72 74  1  0  0  0
 72148  1  0  0  0
 73 76  2  0  0  0
 73149  1  0  0  0
 74 75  2  0  0  0
 74 77  1  0  0  0
 75 76  1  0  0  0
 75 84  1  0  0  0
 76 87  1  0  0  0
 77 85  2  0  0  0
 77 83  1  0  0  0
 78 79  1  0  0  0
 78150  1  0  0  0
 78151  1  0  0  0
 78152  1  0  0  0
 79 83  1  0  0  0
 79153  1  0  0  0
 79154  1  0  0  0
 80 81  1  0  0  0
 80 82  1  0  0  0
 80155  1  0  0  0
 80156  1  0  0  0
 81 83  1  0  0  0
 81157  1  0  0  0
 81158  1  0  0  0
 82159  1  0  0  0
 82160  1  0  0  0
 83 86  1  0  0  0
 84161  1  0  0  0
 86162  1  0  0  0
M  ISO  4   1 100  68 101  82 101  84 100
M  END
> <chiral flag>
0

> <version>
0

> <s_m_source_file>
/data/baiqing/PycharmProjects/Reinvent-master-3.2/result/LINK_invent/BTK/process_docking_weight1_custom_product_contain_oxygen_bond_distance_aromatic_linkinvent_7_9_3/rearranged_h_0170.sdf

> <i_m_source_file_index>
33

> <r_mmod_Potential_Energy-OPLS-2005>
436.198364257812

> <r_mmod_Stretch_Energy-OPLS-2005>
182.363555908203

> <r_mmod_Bend_Energy-OPLS-2005>
227.336776733398

> <r_mmod_Torsional_Energy-OPLS-2005>
303.887084960938

> <r_mmod_Improper_Torsional_Energy-OPLS-2005>
11.3543386459351

> <r_mmod_Van_der_Waal_Energy-OPLS-2005>
168.514526367188

> <r_mmod_Electrostatic_Energy-OPLS-2005>
-333.897033691406

> <r_mmod_Solvation_Energy-OPLS-2005>
-208.975784301758

> <b_mmod_Minimization_Converged-OPLS-2005>
0

> <r_mmod_RMS_Derivative-OPLS-2005>
3.95174193382263

$$$$
33
                    3D
 Structure written by MMmdl.
155163  0  0  1  0            999 V2000
  -30.6627  -14.6005   20.5282 C   0  0  0  0  0  0
  -30.4303  -12.3724   19.4556 C   0  0  0  0  0  0
  -29.5064  -12.5190   18.2259 C   0  0  0  0  0  0
  -28.0280  -12.3620   18.6334 C   0  0  0  0  0  0
  -27.6573  -13.2192   19.8736 C   0  0  2  0  0  0
  -28.6991  -13.0416   20.9983 C   0  0  0  0  0  0
  -25.2582  -13.8177   20.5724 C   0  0  0  0  0  0
  -24.1839  -13.0441   20.9183 C   0  0  0  0  0  0
  -24.6414  -11.6913   20.8739 C   0  0  0  0  0  0
  -23.9080  -10.4299   21.0413 C   0  0  0  0  0  0
  -24.3629   -9.4207   21.9188 C   0  0  0  0  0  0
  -23.6298   -8.2250   22.0760 C   0  0  0  0  0  0
  -22.4280   -8.0291   21.3544 C   0  0  0  0  0  0
  -21.9922   -9.0266   20.4641 C   0  0  0  0  0  0
  -22.7258  -10.2142   20.3056 C   0  0  0  0  0  0
  -21.6853   -6.0741   22.5281 C   0  0  0  0  0  0
  -21.4012   -6.5639   23.8214 C   0  0  0  0  0  0
  -21.3665   -5.6793   24.9174 C   0  0  0  0  0  0
  -21.6051   -4.3056   24.7221 C   0  0  0  0  0  0
  -21.8822   -3.8151   23.4339 C   0  0  0  0  0  0
  -21.9192   -4.6970   22.3398 C   0  0  0  0  0  0
  -22.7854  -13.5234   21.1840 C   0  0  0  0  0  0
  -22.1664   -4.2150   21.0980 F   0  0  0  0  0  0
  -21.5629   -3.4542   25.7738 F   0  0  0  0  0  0
  -30.0193  -13.3900   20.4481 N   0  0  0  0  0  0
  -26.3013  -12.9375   20.3366 N   0  0  0  0  0  0
  -25.9340  -11.6519   20.5766 N   0  0  0  0  0  0
  -22.0487  -12.8225   22.0395 N   0  0  0  0  0  0
  -25.4317  -15.1903   20.4183 N   0  0  0  0  0  0
  -31.8022  -14.7239   20.0684 O   0  0  0  0  0  0
  -21.6642   -6.8888   21.4246 O   0  0  0  0  0  0
  -22.3540  -14.5541   20.6694 O   0  0  0  0  0  0
  -24.6251  -31.8601   23.2063 C   0  0  0  0  0  0
  -25.9118  -32.4767   23.8370 C   0  0  1  0  0  0
  -27.2301  -27.3482   20.1011 C   0  0  0  0  0  0
  -25.5974  -33.8576   24.2312 N   0  0  0  0  0  0
  -23.4174  -30.4849   21.5463 C   0  0  2  0  0  0
  -24.8644  -28.9438   20.1067 C   0  0  0  0  0  0
  -22.7460  -29.4627   22.4940 C   0  0  0  0  0  0
  -18.0276  -28.1367   22.8470 C   0  0  0  0  0  0
  -24.1501  -36.7281   23.2638 C   0  0  0  0  0  0
  -25.9555  -30.7992   21.3717 C   0  0  0  0  0  0
  -26.0310  -29.4296   20.7103 C   0  0  0  0  0  0
  -27.2158  -28.6398   20.7052 C   0  0  0  0  0  0
  -26.0369  -26.8999   19.4905 C   0  0  0  0  0  0
  -24.8662  -27.6813   19.4920 C   0  0  0  0  0  0
  -23.6306  -29.8205   20.1603 C   0  0  0  0  0  0
  -25.4126  -36.3080   24.0334 C   0  0  1  0  0  0
  -20.5870  -28.3679   23.1263 C   0  0  2  0  0  0
  -20.6754  -26.9406   22.5389 C   0  0  0  0  0  0
  -19.5743  -26.6377   21.5181 C   0  0  0  0  0  0
  -18.1920  -26.7916   22.1595 C   0  0  0  0  0  0
  -19.1524  -28.8841   23.2859 C   0  0  0  0  0  0
  -18.9459  -30.1449   23.8875 C   0  0  0  0  0  0
  -17.6465  -30.6584   24.0551 C   0  0  0  0  0  0
  -25.9071  -34.9444   23.5112 C   0  0  0  0  0  0
  -16.5355  -29.9078   23.6331 C   0  0  0  0  0  0
  -16.7268  -28.6488   23.0351 C   0  0  0  0  0  0
  -26.4529  -31.6557   25.0720 C   0  0  0  0  0  0
  -25.3800  -31.3641   26.1468 C   0  0  0  0  0  0
  -27.0374  -30.2994   24.6135 C   0  0  0  0  0  0
  -27.6115  -32.4262   25.7485 C   0  0  0  0  0  0
  -27.5582  -37.1796   24.8477 C   0  0  0  0  0  0
  -21.4178  -29.3044   22.3683 N   0  0  0  0  0  0
  -26.4301  -37.3777   23.9414 N   0  0  0  0  0  0
  -24.6841  -31.0632   22.0994 N   0  0  0  0  0  0
  -23.4182  -28.8168   23.3020 O   0  0  0  0  0  0
  -28.3350  -26.4953   20.1848 O   0  0  0  0  0  0
  -26.5603  -34.8905   22.4657 O   0  0  0  0  0  0
  -23.5424  -32.1399   23.7410 O   0  0  0  0  0  0
  -29.6583  -19.5655   20.6036 C   0  0  0  0  0  0
  -28.6645  -20.8339   22.4182 C   0  0  0  0  0  0
  -29.6982  -18.3600   21.3916 C   0  0  0  0  0  0
  -29.2052  -18.4524   22.7265 C   0  0  0  0  0  0
  -29.1564  -20.8220   21.0956 C   0  0  0  0  0  0
  -28.6859  -19.6742   23.2118 C   0  0  0  0  0  0
  -30.2619  -17.0677   20.8200 C   0  0  0  0  0  0
  -29.9172  -15.7637   21.0789 C   0  0  0  0  0  0
  -28.5350  -25.5261   19.2042 C   0  0  0  0  0  0
  -28.7761  -24.1729   19.2926 C   0  0  0  0  0  0
  -28.8516  -23.3420   20.5226 C   0  0  0  0  0  0
  -29.2603  -17.2919   23.7131 C   0  0  0  0  0  0
  -29.1092  -22.0168   20.2542 N   0  0  0  0  0  0
  -28.7133  -23.7839   21.6641 O   0  0  0  0  0  0
  -28.9557  -23.5254   18.1268 O   0  0  0  0  0  0
  -28.1991  -19.7451   24.4756 F   0  0  0  0  0  0
  -31.4743  -12.4721   19.1542 H   0  0  0  0  0  0
  -30.3441  -11.3719   19.8839 H   0  0  0  0  0  0
  -29.7647  -11.7801   17.4663 H   0  0  0  0  0  0
  -29.6616  -13.4980   17.7694 H   0  0  0  0  0  0
  -27.8588  -11.3069   18.8523 H   0  0  0  0  0  0
  -27.3763  -12.6075   17.7949 H   0  0  0  0  0  0
  -27.6898  -14.2624   19.5576 H   0  0  0  0  0  0
  -28.7060  -12.0064   21.3426 H   0  0  0  0  0  0
  -28.4357  -13.6224   21.8796 H   0  0  0  0  0  0
  -25.2776   -9.5672   22.4759 H   0  0  0  0  0  0
  -23.9994   -7.4645   22.7494 H   0  0  0  0  0  0
  -21.0852   -8.8799   19.8944 H   0  0  0  0  0  0
  -22.3731  -10.9689   19.6165 H   0  0  0  0  0  0
  -21.2004   -7.6146   23.9711 H   0  0  0  0  0  0
  -21.1488   -6.0525   25.9078 H   0  0  0  0  0  0
  -22.0594   -2.7608   23.2847 H   0  0  0  0  0  0
  -22.4098  -11.9884   22.4784 H   0  0  0  0  0  0
  -21.1099  -13.1248   22.2594 H   0  0  0  0  0  0
  -24.6733  -15.8513   20.5455 H   0  0  0  0  0  0
  -26.2978  -15.6306   20.1353 H   0  0  0  0  0  0
  -26.7180  -32.5431   23.1108 H   0  0  0  0  0  0
  -25.0208  -33.9745   25.0513 H   0  0  0  0  0  0
  -22.7098  -31.3037   21.4038 H   0  0  0  0  0  0
  -23.3770  -35.9605   23.3297 H   0  0  0  0  0  0
  -24.3601  -36.8911   22.2056 H   0  0  0  0  0  0
  -23.7248  -37.6476   23.6661 H   0  0  0  0  0  0
  -26.0842  -31.5659   20.6058 H   0  0  0  0  0  0
  -26.8356  -30.8454   22.0015 H   0  0  0  0  0  0
  -28.1096  -29.0019   21.1935 H   0  0  0  0  0  0
  -25.9851  -25.9193   19.0396 H   0  0  0  0  0  0
  -23.9671  -27.2941   19.0322 H   0  0  0  0  0  0
  -23.7502  -30.5971   19.4044 H   0  0  0  0  0  0
  -22.7491  -29.2514   19.8589 H   0  0  0  0  0  0
  -25.1307  -36.1926   25.0828 H   0  0  0  0  0  0
  -20.9959  -28.3236   24.1386 H   0  0  0  0  0  0
  -20.5617  -26.2292   23.3588 H   0  0  0  0  0  0
  -21.6630  -26.7418   22.1214 H   0  0  0  0  0  0
  -19.6923  -25.6288   21.1211 H   0  0  0  0  0  0
  -19.6679  -27.3172   20.6703 H   0  0  0  0  0  0
  -17.4191  -26.6649   21.3997 H   0  0  0  0  0  0
  -18.0337  -26.0044   22.8984 H   0  0  0  0  0  0
  -19.7949  -30.7255   24.2221 H   0  0  0  0  0  0
  -17.5035  -31.6261   24.5160 H   0  0  0  0  0  0
  -15.5355  -30.2973   23.7693 H   0  0  0  0  0  0
  -15.8650  -28.0817   22.7071 H   0  0  0  0  0  0
  -24.6011  -30.6949   25.7797 H   0  0  0  0  0  0
  -24.8948  -32.2774   26.4915 H   0  0  0  0  0  0
  -25.8184  -30.8819   27.0218 H   0  0  0  0  0  0
  -26.2929  -29.6699   24.1249 H   0  0  0  0  0  0
  -27.4201  -29.7280   25.4601 H   0  0  0  0  0  0
  -27.8737  -30.4298   23.9266 H   0  0  0  0  0  0
  -27.2790  -33.3591   26.2040 H   0  0  0  0  0  0
  -28.3946  -32.6753   25.0314 H   0  0  0  0  0  0
  -28.0750  -31.8375   26.5412 H   0  0  0  0  0  0
  -28.2605  -38.0087   24.7521 H   0  0  0  0  0  0
  -28.1073  -36.2615   24.6316 H   0  0  0  0  0  0
  -27.2293  -37.1474   25.8880 H   0  0  0  0  0  0
  -20.9354  -29.8759   21.6895 H   0  0  0  0  0  0
  -26.0175  -38.2854   24.1392 H   0  0  0  0  0  0
  -30.0317  -19.5200   19.5896 H   0  0  0  0  0  0
  -28.2522  -21.7274   22.8583 H   0  0  0  0  0  0
  -31.0892  -17.2238   20.1412 H   0  0  0  0  0  0
  -29.0779  -15.5927   21.7263 H   0  0  0  0  0  0
  -28.4929  -25.9994   18.2325 H   0  0  0  0  0  0
  -28.3551  -16.6874   23.6446 H   0  0  0  0  0  0
  -29.3344  -17.6523   24.7392 H   0  0  0  0  0  0
  -30.1331  -16.6587   23.5572 H   0  0  0  0  0  0
  -29.2623  -21.8700   19.2639 H   0  0  0  0  0  0
  -28.8890  -24.1643   17.4303 H   0  0  0  0  0  0
  1 25  1  0  0  0
  1 30  2  0  0  0
  1 78  1  0  0  0
  2  3  1  0  0  0
  2 25  1  0  0  0
  2 87  1  0  0  0
  2 88  1  0  0  0
  3  4  1  0  0  0
  3 89  1  0  0  0
  3 90  1  0  0  0
  4  5  1  0  0  0
  4 91  1  0  0  0
  4 92  1  0  0  0
  5  6  1  0  0  0
  5 26  1  0  0  0
  5 93  1  0  0  0
  6 25  1  0  0  0
  6 94  1  0  0  0
  6 95  1  0  0  0
  7  8  2  0  0  0
  7 26  1  0  0  0
  7 29  1  0  0  0
  8  9  1  0  0  0
  8 22  1  0  0  0
  9 10  1  0  0  0
  9 27  2  0  0  0
 10 11  2  0  0  0
 10 15  1  0  0  0
 11 12  1  0  0  0
 11 96  1  0  0  0
 12 13  2  0  0  0
 12 97  1  0  0  0
 13 14  1  0  0  0
 13 31  1  0  0  0
 14 15  2  0  0  0
 14 98  1  0  0  0
 15 99  1  0  0  0
 16 17  2  0  0  0
 16 21  1  0  0  0
 16 31  1  0  0  0
 17 18  1  0  0  0
 17100  1  0  0  0
 18 19  2  0  0  0
 18101  1  0  0  0
 19 20  1  0  0  0
 19 24  1  0  0  0
 20 21  2  0  0  0
 20102  1  0  0  0
 21 23  1  0  0  0
 22 28  1  0  0  0
 22 32  2  0  0  0
 26 27  1  0  0  0
 28103  1  0  0  0
 28104  1  0  0  0
 29105  1  0  0  0
 29106  1  0  0  0
 33 34  1  0  0  0
 33 66  1  0  0  0
 33 70  2  0  0  0
 34 36  1  0  0  0
 34 59  1  0  0  0
 34107  1  0  0  0
 35 44  2  0  0  0
 35 45  1  0  0  0
 35 68  1  0  0  0
 36 56  1  0  0  0
 36108  1  0  0  0
 37 39  1  0  0  0
 37 47  1  0  0  0
 37 66  1  0  0  0
 37109  1  0  0  0
 38 43  2  0  0  0
 38 46  1  0  0  0
 38 47  1  0  0  0
 39 64  1  0  0  0
 39 67  2  0  0  0
 40 52  1  0  0  0
 40 53  2  0  0  0
 40 58  1  0  0  0
 41110  1  0  0  0
 41111  1  0  0  0
 41112  1  0  0  0
 41 48  1  0  0  0
 42 43  1  0  0  0
 42 66  1  0  0  0
 42113  1  0  0  0
 42114  1  0  0  0
 43 44  1  0  0  0
 44115  1  0  0  0
 45 46  2  0  0  0
 45116  1  0  0  0
 46117  1  0  0  0
 47118  1  0  0  0
 47119  1  0  0  0
 48 56  1  0  0  0
 48 65  1  0  0  0
 48120  1  0  0  0
 49 50  1  0  0  0
 49 53  1  0  0  0
 49 64  1  0  0  0
 49121  1  0  0  0
 50 51  1  0  0  0
 50122  1  0  0  0
 50123  1  0  0  0
 51 52  1  0  0  0
 51124  1  0  0  0
 51125  1  0  0  0
 52126  1  0  0  0
 52127  1  0  0  0
 53 54  1  0  0  0
 54 55  2  0  0  0
 54128  1  0  0  0
 55 57  1  0  0  0
 55129  1  0  0  0
 56 69  2  0  0  0
 57 58  2  0  0  0
 57130  1  0  0  0
 58131  1  0  0  0
 59 60  1  0  0  0
 59 61  1  0  0  0
 59 62  1  0  0  0
 60132  1  0  0  0
 60133  1  0  0  0
 60134  1  0  0  0
 61135  1  0  0  0
 61136  1  0  0  0
 61137  1  0  0  0
 62138  1  0  0  0
 62139  1  0  0  0
 62140  1  0  0  0
 63 65  1  0  0  0
 63141  1  0  0  0
 63142  1  0  0  0
 63143  1  0  0  0
 64144  1  0  0  0
 65145  1  0  0  0
 68 79  1  0  0  0
 71 73  2  0  0  0
 71 75  1  0  0  0
 71146  1  0  0  0
 72 75  2  0  0  0
 72 76  1  0  0  0
 72147  1  0  0  0
 73 74  1  0  0  0
 73 77  1  0  0  0
 74 76  2  0  0  0
 74 82  1  0  0  0
 75 83  1  0  0  0
 76 86  1  0  0  0
 77 78  2  0  0  0
 77148  1  0  0  0
 78149  1  0  0  0
 79 80  2  0  0  0
 79150  1  0  0  0
 80 81  1  0  0  0
 80 85  1  0  0  0
 81 83  1  0  0  0
 81 84  2  0  0  0
 82151  1  0  0  0
 82152  1  0  0  0
 82153  1  0  0  0
 83154  1  0  0  0
 85155  1  0  0  0
M  ISO  4   1 100  68 101  78 100  79 101
M  END
> <chiral flag>
0

> <version>
0

> <s_m_source_file>
/data/baiqing/PycharmProjects/Reinvent-master-3.2/result/LINK_invent/BTK/process_docking_weight1_custom_product_contain_oxygen_bond_distance_aromatic_linkinvent_7_9_3/rearranged_h_0170.sdf

> <i_m_source_file_index>
34

> <r_mmod_Potential_Energy-OPLS-2005>
28.2684650421143

> <r_mmod_Stretch_Energy-OPLS-2005>
73.0339660644531

> <r_mmod_Bend_Energy-OPLS-2005>
142.753387451172

> <r_mmod_Torsional_Energy-OPLS-2005>
187.538421630859

> <r_mmod_Improper_Torsional_Energy-OPLS-2005>
3.20417308807373

> <r_mmod_Van_der_Waal_Energy-OPLS-2005>
165.531936645508

> <r_mmod_Electrostatic_Energy-OPLS-2005>
-359.333190917969

> <r_mmod_Solvation_Energy-OPLS-2005>
-222.019271850586

> <b_mmod_Minimization_Converged-OPLS-2005>
0

> <r_mmod_RMS_Derivative-OPLS-2005>
1.94440567493439

$$$$
34
                    3D
 Structure written by MMmdl.
166175  0  0  1  0            999 V2000
  -30.6380  -14.6360   20.4539 C   0  0  0  0  0  0
  -30.4332  -12.3785   19.4650 C   0  0  0  0  0  0
  -29.5113  -12.4816   18.2290 C   0  0  0  0  0  0
  -28.0317  -12.3367   18.6389 C   0  0  0  0  0  0
  -27.6533  -13.2184   19.8587 C   0  0  2  0  0  0
  -28.6946  -13.0984   20.9934 C   0  0  0  0  0  0
  -25.2560  -13.8164   20.5671 C   0  0  0  0  0  0
  -24.1834  -13.0434   20.9198 C   0  0  0  0  0  0
  -24.6399  -11.6909   20.8733 C   0  0  0  0  0  0
  -23.9062  -10.4298   21.0406 C   0  0  0  0  0  0
  -24.3627   -9.4219   21.9177 C   0  0  0  0  0  0
  -23.6310   -8.2241   22.0745 C   0  0  0  0  0  0
  -22.4280   -8.0281   21.3538 C   0  0  0  0  0  0
  -21.9907   -9.0259   20.4642 C   0  0  0  0  0  0
  -22.7234  -10.2142   20.3058 C   0  0  0  0  0  0
  -21.6850   -6.0743   22.5277 C   0  0  0  0  0  0
  -21.4008   -6.5646   23.8209 C   0  0  0  0  0  0
  -21.3661   -5.6797   24.9171 C   0  0  0  0  0  0
  -21.6041   -4.3060   24.7217 C   0  0  0  0  0  0
  -21.8818   -3.8155   23.4333 C   0  0  0  0  0  0
  -21.9188   -4.6975   22.3387 C   0  0  0  0  0  0
  -22.7851  -13.5241   21.1860 C   0  0  0  0  0  0
  -22.1665   -4.2161   21.0966 F   0  0  0  0  0  0
  -21.5644   -3.4541   25.7729 F   0  0  0  0  0  0
  -30.0129  -13.4176   20.4273 N   0  0  0  0  0  0
  -26.2989  -12.9360   20.3288 N   0  0  0  0  0  0
  -25.9327  -11.6516   20.5741 N   0  0  0  0  0  0
  -22.0474  -12.8243   22.0409 N   0  0  0  0  0  0
  -25.4325  -15.1866   20.4092 N   0  0  0  0  0  0
  -31.8146  -14.7533   20.1004 O   0  0  0  0  0  0
  -21.6644   -6.8878   21.4236 O   0  0  0  0  0  0
  -22.3537  -14.5556   20.6725 O   0  0  0  0  0  0
  -24.6207  -31.8615   23.2035 C   0  0  0  0  0  0
  -25.9074  -32.4787   23.8352 C   0  0  1  0  0  0
  -27.2406  -27.3556   20.1108 C   0  0  0  0  0  0
  -25.5900  -33.8589   24.2284 N   0  0  0  0  0  0
  -23.4144  -30.4820   21.5439 C   0  0  2  0  0  0
  -24.8653  -28.9417   20.1064 C   0  0  0  0  0  0
  -22.7454  -29.4615   22.4940 C   0  0  0  0  0  0
  -18.0277  -28.1373   22.8482 C   0  0  0  0  0  0
  -24.1494  -36.7299   23.2639 C   0  0  0  0  0  0
  -25.9498  -30.8028   21.3702 C   0  0  0  0  0  0
  -26.0269  -29.4322   20.7134 C   0  0  0  0  0  0
  -27.2109  -28.6452   20.7155 C   0  0  0  0  0  0
  -26.0495  -26.8982   19.4992 C   0  0  0  0  0  0
  -24.8760  -27.6780   19.4947 C   0  0  0  0  0  0
  -23.6280  -29.8141   20.1584 C   0  0  0  0  0  0
  -25.4112  -36.3087   24.0329 C   0  0  1  0  0  0
  -20.5877  -28.3675   23.1287 C   0  0  2  0  0  0
  -20.6763  -26.9400   22.5414 C   0  0  0  0  0  0
  -19.5741  -26.6379   21.5209 C   0  0  0  0  0  0
  -18.1920  -26.7919   22.1619 C   0  0  0  0  0  0
  -19.1530  -28.8836   23.2878 C   0  0  0  0  0  0
  -18.9457  -30.1438   23.8892 C   0  0  0  0  0  0
  -17.6461  -30.6580   24.0561 C   0  0  0  0  0  0
  -25.9041  -34.9456   23.5110 C   0  0  0  0  0  0
  -16.5351  -29.9083   23.6325 C   0  0  0  0  0  0
  -16.7267  -28.6497   23.0352 C   0  0  0  0  0  0
  -26.4484  -31.6581   25.0706 C   0  0  0  0  0  0
  -25.3741  -31.3722   26.1457 C   0  0  0  0  0  0
  -27.0310  -30.3001   24.6139 C   0  0  0  0  0  0
  -27.6052  -32.4314   25.7471 C   0  0  0  0  0  0
  -27.5584  -37.1798   24.8455 C   0  0  0  0  0  0
  -21.4170  -29.3029   22.3683 N   0  0  0  0  0  0
  -26.4289  -37.3778   23.9411 N   0  0  0  0  0  0
  -24.6799  -31.0651   22.0967 N   0  0  0  0  0  0
  -23.4189  -28.8154   23.3009 O   0  0  0  0  0  0
  -28.3835  -26.5559   20.2034 O   0  0  0  0  0  0
  -26.5616  -34.8925   22.4685 O   0  0  0  0  0  0
  -23.5381  -32.1395   23.7376 O   0  0  0  0  0  0
  -29.4325  -19.0786   18.1073 C   0  0  0  0  0  0
  -29.6450  -16.7117   18.4917 C   0  0  0  0  0  0
  -29.4731  -17.7784   17.6063 C   0  0  0  0  0  0
  -29.5600  -19.3033   19.4902 C   0  0  0  0  0  0
  -29.7697  -16.9385   19.8792 C   0  0  0  0  0  0
  -31.1314  -22.6605   20.7665 C   0  0  0  0  0  0
  -30.4481  -21.2897   21.0587 C   0  0  0  0  0  0
  -28.1174  -21.4994   19.9402 C   0  0  0  0  0  0
  -30.2724  -23.9632   20.6781 C   0  0  0  0  0  0
  -27.9865  -23.0686   20.1203 C   0  0  0  0  0  0
  -29.5224  -20.8156   19.9196 C   0  0  2  0  0  0
  -29.1268  -24.0183   19.6201 C   0  0  1  0  0  0
  -30.6415  -23.9636   17.6573 C   0  0  0  0  0  0
  -28.6609  -25.5070   19.2293 C   0  0  0  0  0  0
  -29.6807  -18.2373   20.3634 N   0  0  0  0  0  0
  -29.8627  -15.7411   20.7023 N   0  0  0  0  0  0
  -29.5451  -23.4129   18.3865 O   0  0  0  0  0  0
  -29.3412  -17.5534   16.2773 F   0  0  0  0  0  0
  -31.4781  -12.4845   19.1655 H   0  0  0  0  0  0
  -30.3578  -11.3921   19.9237 H   0  0  0  0  0  0
  -29.7737  -11.7096   17.5040 H   0  0  0  0  0  0
  -29.6638  -13.4330   17.7210 H   0  0  0  0  0  0
  -27.8626  -11.2868   18.8796 H   0  0  0  0  0  0
  -27.3795  -12.5625   17.7942 H   0  0  0  0  0  0
  -27.6688  -14.2495   19.5053 H   0  0  0  0  0  0
  -28.6964  -12.0899   21.4093 H   0  0  0  0  0  0
  -28.4443  -13.7653   21.8192 H   0  0  0  0  0  0
  -25.2781   -9.5724   22.4737 H   0  0  0  0  0  0
  -24.0043   -7.4638   22.7460 H   0  0  0  0  0  0
  -21.0837   -8.8767   19.8950 H   0  0  0  0  0  0
  -22.3680  -10.9681   19.6172 H   0  0  0  0  0  0
  -21.1997   -7.6146   23.9723 H   0  0  0  0  0  0
  -21.1488   -6.0517   25.9078 H   0  0  0  0  0  0
  -22.0599   -2.7619   23.2817 H   0  0  0  0  0  0
  -22.4099  -11.9939   22.4837 H   0  0  0  0  0  0
  -21.1079  -13.1279   22.2575 H   0  0  0  0  0  0
  -24.6745  -15.8484   20.5343 H   0  0  0  0  0  0
  -26.2844  -15.6204   20.0790 H   0  0  0  0  0  0
  -26.7137  -32.5476   23.1098 H   0  0  0  0  0  0
  -25.0042  -33.9734   25.0424 H   0  0  0  0  0  0
  -22.7051  -31.2997   21.4001 H   0  0  0  0  0  0
  -23.3760  -35.9626   23.3283 H   0  0  0  0  0  0
  -24.3584  -36.8939   22.2054 H   0  0  0  0  0  0
  -23.7245  -37.6496   23.6673 H   0  0  0  0  0  0
  -26.0771  -31.5681   20.6025 H   0  0  0  0  0  0
  -26.8313  -30.8510   21.9977 H   0  0  0  0  0  0
  -28.1011  -29.0182   21.2031 H   0  0  0  0  0  0
  -25.9845  -25.9153   19.0594 H   0  0  0  0  0  0
  -23.9802  -27.2887   19.0307 H   0  0  0  0  0  0
  -23.7380  -30.5887   19.3981 H   0  0  0  0  0  0
  -22.7517  -29.2339   19.8636 H   0  0  0  0  0  0
  -25.1290  -36.1940   25.0818 H   0  0  0  0  0  0
  -20.9959  -28.3257   24.1412 H   0  0  0  0  0  0
  -20.5654  -26.2287   23.3615 H   0  0  0  0  0  0
  -21.6638  -26.7427   22.1219 H   0  0  0  0  0  0
  -19.6911  -25.6292   21.1229 H   0  0  0  0  0  0
  -19.6686  -27.3199   20.6743 H   0  0  0  0  0  0
  -17.4198  -26.6664   21.4018 H   0  0  0  0  0  0
  -18.0319  -26.0058   22.9008 H   0  0  0  0  0  0
  -19.7936  -30.7249   24.2268 H   0  0  0  0  0  0
  -17.5021  -31.6263   24.5171 H   0  0  0  0  0  0
  -15.5350  -30.2991   23.7643 H   0  0  0  0  0  0
  -15.8663  -28.0815   22.7074 H   0  0  0  0  0  0
  -24.5905  -30.7073   25.7809 H   0  0  0  0  0  0
  -24.8947  -32.2890   26.4894 H   0  0  0  0  0  0
  -25.8086  -30.8904   27.0220 H   0  0  0  0  0  0
  -26.2861  -29.6761   24.1184 H   0  0  0  0  0  0
  -27.4029  -29.7248   25.4625 H   0  0  0  0  0  0
  -27.8726  -30.4276   23.9328 H   0  0  0  0  0  0
  -27.2666  -33.3621   26.2032 H   0  0  0  0  0  0
  -28.3866  -32.6857   25.0299 H   0  0  0  0  0  0
  -28.0712  -31.8449   26.5397 H   0  0  0  0  0  0
  -28.2591  -38.0107   24.7513 H   0  0  0  0  0  0
  -28.1089  -36.2635   24.6258 H   0  0  0  0  0  0
  -27.2303  -37.1425   25.8859 H   0  0  0  0  0  0
  -20.9336  -29.8762   21.6906 H   0  0  0  0  0  0
  -26.0173  -38.2853   24.1422 H   0  0  0  0  0  0
  -29.3042  -19.9026   17.4190 H   0  0  0  0  0  0
  -29.6570  -15.7145   18.0781 H   0  0  0  0  0  0
  -31.7161  -22.5617   19.8519 H   0  0  0  0  0  0
  -31.8762  -22.8235   21.5459 H   0  0  0  0  0  0
  -29.9199  -21.3019   22.0128 H   0  0  0  0  0  0
  -31.2467  -20.5536   21.1662 H   0  0  0  0  0  0
  -27.6400  -21.2567   18.9902 H   0  0  0  0  0  0
  -27.5026  -21.0090   20.6972 H   0  0  0  0  0  0
  -30.9561  -24.7920   20.4938 H   0  0  0  0  0  0
  -29.8570  -24.1842   21.6622 H   0  0  0  0  0  0
  -27.8139  -23.2766   21.1775 H   0  0  0  0  0  0
  -27.0545  -23.3660   19.6382 H   0  0  0  0  0  0
  -30.0129  -21.2420   19.0486 H   0  0  0  0  0  0
  -31.4533  -24.3169   18.2928 H   0  0  0  0  0  0
  -30.3193  -24.7813   17.0126 H   0  0  0  0  0  0
  -31.0517  -23.1919   17.0054 H   0  0  0  0  0  0
  -27.9090  -25.4391   18.4472 H   0  0  0  0  0  0
  -29.4987  -25.9747   18.7153 H   0  0  0  0  0  0
  -29.0288  -15.5504   21.2328 H   0  0  0  0  0  0
  1 25  1  0  0  0
  1 30  2  0  0  0
  1 86  1  0  0  0
  2  3  1  0  0  0
  2 25  1  0  0  0
  2 89  1  0  0  0
  2 90  1  0  0  0
  3  4  1  0  0  0
  3 91  1  0  0  0
  3 92  1  0  0  0
  4  5  1  0  0  0
  4 93  1  0  0  0
  4 94  1  0  0  0
  5  6  1  0  0  0
  5 26  1  0  0  0
  5 95  1  0  0  0
  6 25  1  0  0  0
  6 96  1  0  0  0
  6 97  1  0  0  0
  7  8  2  0  0  0
  7 26  1  0  0  0
  7 29  1  0  0  0
  8  9  1  0  0  0
  8 22  1  0  0  0
  9 10  1  0  0  0
  9 27  2  0  0  0
 10 11  2  0  0  0
 10 15  1  0  0  0
 11 12  1  0  0  0
 11 98  1  0  0  0
 12 13  2  0  0  0
 12 99  1  0  0  0
 13 14  1  0  0  0
 13 31  1  0  0  0
 14 15  2  0  0  0
 14100  1  0  0  0
 15101  1  0  0  0
 16 17  2  0  0  0
 16 21  1  0  0  0
 16 31  1  0  0  0
 17 18  1  0  0  0
 17102  1  0  0  0
 18 19  2  0  0  0
 18103  1  0  0  0
 19 20  1  0  0  0
 19 24  1  0  0  0
 20 21  2  0  0  0
 20104  1  0  0  0
 21 23  1  0  0  0
 22 28  1  0  0  0
 22 32  2  0  0  0
 26 27  1  0  0  0
 28105  1  0  0  0
 28106  1  0  0  0
 29107  1  0  0  0
 29108  1  0  0  0
 33 34  1  0  0  0
 33 66  1  0  0  0
 33 70  2  0  0  0
 34 36  1  0  0  0
 34 59  1  0  0  0
 34109  1  0  0  0
 35 44  2  0  0  0
 35 45  1  0  0  0
 35 68  1  0  0  0
 36 56  1  0  0  0
 36110  1  0  0  0
 37 39  1  0  0  0
 37 47  1  0  0  0
 37 66  1  0  0  0
 37111  1  0  0  0
 38 43  2  0  0  0
 38 46  1  0  0  0
 38 47  1  0  0  0
 39 64  1  0  0  0
 39 67  2  0  0  0
 40 52  1  0  0  0
 40 53  2  0  0  0
 40 58  1  0  0  0
 41112  1  0  0  0
 41113  1  0  0  0
 41114  1  0  0  0
 41 48  1  0  0  0
 42 43  1  0  0  0
 42 66  1  0  0  0
 42115  1  0  0  0
 42116  1  0  0  0
 43 44  1  0  0  0
 44117  1  0  0  0
 45 46  2  0  0  0
 45118  1  0  0  0
 46119  1  0  0  0
 47120  1  0  0  0
 47121  1  0  0  0
 48 56  1  0  0  0
 48 65  1  0  0  0
 48122  1  0  0  0
 49 50  1  0  0  0
 49 53  1  0  0  0
 49 64  1  0  0  0
 49123  1  0  0  0
 50 51  1  0  0  0
 50124  1  0  0  0
 50125  1  0  0  0
 51 52  1  0  0  0
 51126  1  0  0  0
 51127  1  0  0  0
 52128  1  0  0  0
 52129  1  0  0  0
 53 54  1  0  0  0
 54 55  2  0  0  0
 54130  1  0  0  0
 55 57  1  0  0  0
 55131  1  0  0  0
 56 69  2  0  0  0
 57 58  2  0  0  0
 57132  1  0  0  0
 58133  1  0  0  0
 59 60  1  0  0  0
 59 61  1  0  0  0
 59 62  1  0  0  0
 60134  1  0  0  0
 60135  1  0  0  0
 60136  1  0  0  0
 61137  1  0  0  0
 61138  1  0  0  0
 61139  1  0  0  0
 62140  1  0  0  0
 62141  1  0  0  0
 62142  1  0  0  0
 63 65  1  0  0  0
 63143  1  0  0  0
 63144  1  0  0  0
 63145  1  0  0  0
 64146  1  0  0  0
 65147  1  0  0  0
 68 84  1  0  0  0
 71 73  2  0  0  0
 71 74  1  0  0  0
 71148  1  0  0  0
 72 73  1  0  0  0
 72 75  2  0  0  0
 72149  1  0  0  0
 73 88  1  0  0  0
 74 85  2  0  0  0
 74 81  1  0  0  0
 75 85  1  0  0  0
 75 86  1  0  0  0
 76 77  1  0  0  0
 76 79  1  0  0  0
 76150  1  0  0  0
 76151  1  0  0  0
 77 81  1  0  0  0
 77152  1  0  0  0
 77153  1  0  0  0
 78 80  1  0  0  0
 78 81  1  0  0  0
 78154  1  0  0  0
 78155  1  0  0  0
 79 82  1  0  0  0
 79156  1  0  0  0
 79157  1  0  0  0
 80 82  1  0  0  0
 80158  1  0  0  0
 80159  1  0  0  0
 81160  1  0  0  0
 82 84  1  0  0  0
 82 87  1  0  0  0
 83 87  1  0  0  0
 83161  1  0  0  0
 83162  1  0  0  0
 83163  1  0  0  0
 84164  1  0  0  0
 84165  1  0  0  0
 86166  1  0  0  0
M  ISO  4   1 100  68 101  84 101  86 100
M  END
> <chiral flag>
0

> <version>
0

> <s_m_source_file>
/data/baiqing/PycharmProjects/Reinvent-master-3.2/result/LINK_invent/BTK/process_docking_weight1_custom_product_contain_oxygen_bond_distance_aromatic_linkinvent_7_9_3/rearranged_h_0170.sdf

> <i_m_source_file_index>
35

> <r_mmod_Potential_Energy-OPLS-2005>
3.53511381149292

> <r_mmod_Stretch_Energy-OPLS-2005>
78.2426834106445

> <r_mmod_Bend_Energy-OPLS-2005>
192.129745483398

> <r_mmod_Torsional_Energy-OPLS-2005>
296.747039794922

> <r_mmod_Improper_Torsional_Energy-OPLS-2005>
6.64012336730957

> <r_mmod_Van_der_Waal_Energy-OPLS-2005>
154.139739990234

> <r_mmod_Electrostatic_Energy-OPLS-2005>
-556.236572265625

> <r_mmod_Solvation_Energy-OPLS-2005>
-211.722305297852

> <b_mmod_Minimization_Converged-OPLS-2005>
0

> <r_mmod_RMS_Derivative-OPLS-2005>
2.6142520904541

$$$$
35
                    3D
 Structure written by MMmdl.
159167  0  0  1  0            999 V2000
  -30.6404  -14.6218   20.4727 C   0  0  0  0  0  0
  -30.4178  -12.3718   19.4598 C   0  0  0  0  0  0
  -29.5064  -12.5026   18.2201 C   0  0  0  0  0  0
  -28.0223  -12.3559   18.6170 C   0  0  0  0  0  0
  -27.6434  -13.2193   19.8501 C   0  0  2  0  0  0
  -28.6838  -13.0891   20.9819 C   0  0  0  0  0  0
  -25.2550  -13.8163   20.5678 C   0  0  0  0  0  0
  -24.1827  -13.0429   20.9195 C   0  0  0  0  0  0
  -24.6387  -11.6895   20.8723 C   0  0  0  0  0  0
  -23.9056  -10.4279   21.0385 C   0  0  0  0  0  0
  -24.3611   -9.4199   21.9167 C   0  0  0  0  0  0
  -23.6300   -8.2227   22.0740 C   0  0  0  0  0  0
  -22.4283   -8.0265   21.3537 C   0  0  0  0  0  0
  -21.9901   -9.0225   20.4641 C   0  0  0  0  0  0
  -22.7219  -10.2115   20.3043 C   0  0  0  0  0  0
  -21.6856   -6.0729   22.5280 C   0  0  0  0  0  0
  -21.4013   -6.5640   23.8213 C   0  0  0  0  0  0
  -21.3656   -5.6793   24.9177 C   0  0  0  0  0  0
  -21.6042   -4.3054   24.7224 C   0  0  0  0  0  0
  -21.8831   -3.8144   23.4348 C   0  0  0  0  0  0
  -21.9192   -4.6959   22.3401 C   0  0  0  0  0  0
  -22.7866  -13.5224   21.1866 C   0  0  0  0  0  0
  -22.1675   -4.2149   21.0983 F   0  0  0  0  0  0
  -21.5617   -3.4539   25.7733 F   0  0  0  0  0  0
  -29.9998  -13.4116   20.4223 N   0  0  0  0  0  0
  -26.2940  -12.9331   20.3239 N   0  0  0  0  0  0
  -25.9307  -11.6488   20.5706 N   0  0  0  0  0  0
  -22.0499  -12.8218   22.0412 N   0  0  0  0  0  0
  -25.4270  -15.1884   20.4112 N   0  0  0  0  0  0
  -31.8335  -14.6929   20.1622 O   0  0  0  0  0  0
  -21.6652   -6.8860   21.4240 O   0  0  0  0  0  0
  -22.3547  -14.5530   20.6701 O   0  0  0  0  0  0
  -24.6267  -31.8619   23.2016 C   0  0  0  0  0  0
  -25.9111  -32.4786   23.8353 C   0  0  1  0  0  0
  -27.2211  -27.3188   20.0910 C   0  0  0  0  0  0
  -25.5926  -33.8588   24.2276 N   0  0  0  0  0  0
  -23.4180  -30.4864   21.5460 C   0  0  2  0  0  0
  -24.8608  -28.9409   20.1099 C   0  0  0  0  0  0
  -22.7464  -29.4654   22.4951 C   0  0  0  0  0  0
  -18.0286  -28.1373   22.8515 C   0  0  0  0  0  0
  -24.1480  -36.7282   23.2636 C   0  0  0  0  0  0
  -25.9618  -30.7887   21.3744 C   0  0  0  0  0  0
  -26.0310  -29.4176   20.7115 C   0  0  0  0  0  0
  -27.2101  -28.6155   20.6933 C   0  0  0  0  0  0
  -26.0171  -26.8897   19.4832 C   0  0  0  0  0  0
  -24.8562  -27.6840   19.4914 C   0  0  0  0  0  0
  -23.6280  -29.8200   20.1621 C   0  0  0  0  0  0
  -25.4105  -36.3092   24.0338 C   0  0  1  0  0  0
  -20.5890  -28.3690   23.1290 C   0  0  2  0  0  0
  -20.6774  -26.9413   22.5421 C   0  0  0  0  0  0
  -19.5744  -26.6388   21.5227 C   0  0  0  0  0  0
  -18.1926  -26.7924   22.1642 C   0  0  0  0  0  0
  -19.1540  -28.8841   23.2907 C   0  0  0  0  0  0
  -18.9465  -30.1439   23.8928 C   0  0  0  0  0  0
  -17.6466  -30.6591   24.0550 C   0  0  0  0  0  0
  -25.9065  -34.9461   23.5111 C   0  0  0  0  0  0
  -16.5351  -29.9087   23.6318 C   0  0  0  0  0  0
  -16.7274  -28.6487   23.0375 C   0  0  0  0  0  0
  -26.4482  -31.6596   25.0733 C   0  0  0  0  0  0
  -25.3707  -31.3724   26.1448 C   0  0  0  0  0  0
  -27.0327  -30.3023   24.6200 C   0  0  0  0  0  0
  -27.6049  -32.4323   25.7495 C   0  0  0  0  0  0
  -27.5600  -37.1765   24.8443 C   0  0  0  0  0  0
  -21.4176  -29.3054   22.3685 N   0  0  0  0  0  0
  -26.4271  -37.3806   23.9455 N   0  0  0  0  0  0
  -24.6877  -31.0627   22.0962 N   0  0  0  0  0  0
  -23.4187  -28.8210   23.3034 O   0  0  0  0  0  0
  -28.3638  -26.5053   20.1565 O   0  0  0  0  0  0
  -26.5652  -34.8927   22.4695 O   0  0  0  0  0  0
  -23.5431  -32.1423   23.7347 O   0  0  0  0  0  0
  -28.6308  -18.9077   19.9416 C   0  0  0  0  0  0
  -28.3058  -20.2876   19.7590 C   0  0  0  0  0  0
  -29.8246  -18.5139   20.5961 C   0  0  0  0  0  0
  -30.2576  -20.9465   21.0187 C   0  0  0  0  0  0
  -29.1166  -21.3477   20.2559 C   0  0  0  0  0  0
  -30.5855  -19.5630   21.1748 C   0  0  0  0  0  0
  -30.3809  -17.1008   20.6284 C   0  0  0  0  0  0
  -29.8090  -15.8544   20.6344 C   0  0  0  0  0  0
  -28.6558  -23.9242   20.3791 C   0  0  0  0  0  0
  -32.4361  -22.2208   20.7220 C   0  0  0  0  0  0
  -29.7173  -25.3735   18.5430 C   0  0  0  0  0  0
  -31.2303  -21.9469   21.6294 C   0  0  0  0  0  0
  -28.4898  -25.2045   19.4543 C   0  0  2  0  0  0
  -28.8500  -22.7079   19.7718 N   0  0  0  0  0  0
  -28.5642  -24.0416   21.6035 O   0  0  0  0  0  0
  -31.7090  -19.2321   21.8599 F   0  0  0  0  0  0
  -31.4650  -12.4637   19.1700 H   0  0  0  0  0  0
  -30.3185  -11.3805   19.9044 H   0  0  0  0  0  0
  -29.7724  -11.7500   17.4756 H   0  0  0  0  0  0
  -29.6683  -13.4715   17.7438 H   0  0  0  0  0  0
  -27.8416  -11.3017   18.8286 H   0  0  0  0  0  0
  -27.3797  -12.6084   17.7722 H   0  0  0  0  0  0
  -27.6507  -14.2520   19.5041 H   0  0  0  0  0  0
  -28.6897  -12.0732   21.3805 H   0  0  0  0  0  0
  -28.4396  -13.7403   21.8217 H   0  0  0  0  0  0
  -25.2739   -9.5706   22.4752 H   0  0  0  0  0  0
  -24.0024   -7.4625   22.7461 H   0  0  0  0  0  0
  -21.0821   -8.8729   19.8960 H   0  0  0  0  0  0
  -22.3646  -10.9649   19.6172 H   0  0  0  0  0  0
  -21.2026   -7.6151   23.9718 H   0  0  0  0  0  0
  -21.1467   -6.0522   25.9080 H   0  0  0  0  0  0
  -22.0615   -2.7608   23.2838 H   0  0  0  0  0  0
  -22.4115  -11.9893   22.4823 H   0  0  0  0  0  0
  -21.1115  -13.1230   22.2604 H   0  0  0  0  0  0
  -24.6617  -15.8440   20.5327 H   0  0  0  0  0  0
  -26.2786  -15.6252   20.0837 H   0  0  0  0  0  0
  -26.7186  -32.5431   23.1103 H   0  0  0  0  0  0
  -24.9988  -33.9731   25.0359 H   0  0  0  0  0  0
  -22.7148  -31.3100   21.4056 H   0  0  0  0  0  0
  -23.3782  -35.9568   23.3213 H   0  0  0  0  0  0
  -24.3595  -36.8994   22.2071 H   0  0  0  0  0  0
  -23.7159  -37.6431   23.6702 H   0  0  0  0  0  0
  -26.1029  -31.5566   20.6122 H   0  0  0  0  0  0
  -26.8394  -30.8295   22.0076 H   0  0  0  0  0  0
  -28.1129  -28.9814   21.1627 H   0  0  0  0  0  0
  -25.9106  -25.9268   19.0138 H   0  0  0  0  0  0
  -23.9527  -27.3108   19.0286 H   0  0  0  0  0  0
  -23.7423  -30.5957   19.4049 H   0  0  0  0  0  0
  -22.7456  -29.2507   19.8626 H   0  0  0  0  0  0
  -25.1264  -36.1930   25.0826 H   0  0  0  0  0  0
  -21.0001  -28.3261   24.1399 H   0  0  0  0  0  0
  -20.5674  -26.2303   23.3623 H   0  0  0  0  0  0
  -21.6638  -26.7443   22.1198 H   0  0  0  0  0  0
  -19.6894  -25.6302   21.1243 H   0  0  0  0  0  0
  -19.6653  -27.3209   20.6759 H   0  0  0  0  0  0
  -17.4192  -26.6690   21.4040 H   0  0  0  0  0  0
  -18.0310  -26.0050   22.9018 H   0  0  0  0  0  0
  -19.7940  -30.7247   24.2317 H   0  0  0  0  0  0
  -17.5018  -31.6282   24.5144 H   0  0  0  0  0  0
  -15.5348  -30.2996   23.7633 H   0  0  0  0  0  0
  -15.8671  -28.0797   22.7108 H   0  0  0  0  0  0
  -24.5860  -30.7119   25.7738 H   0  0  0  0  0  0
  -24.8920  -32.2888   26.4910 H   0  0  0  0  0  0
  -25.8010  -30.8840   27.0200 H   0  0  0  0  0  0
  -26.2915  -29.6776   24.1206 H   0  0  0  0  0  0
  -27.3999  -29.7273   25.4707 H   0  0  0  0  0  0
  -27.8787  -30.4301   23.9448 H   0  0  0  0  0  0
  -27.2672  -33.3606   26.2104 H   0  0  0  0  0  0
  -28.3834  -32.6917   25.0310 H   0  0  0  0  0  0
  -28.0749  -31.8435   26.5380 H   0  0  0  0  0  0
  -28.2514  -38.0165   24.7679 H   0  0  0  0  0  0
  -28.1203  -36.2720   24.6015 H   0  0  0  0  0  0
  -27.2363  -37.1102   25.8847 H   0  0  0  0  0  0
  -20.9356  -29.8746   21.6868 H   0  0  0  0  0  0
  -26.0138  -38.2861   24.1553 H   0  0  0  0  0  0
  -27.9965  -18.1591   19.4877 H   0  0  0  0  0  0
  -27.4302  -20.5319   19.1736 H   0  0  0  0  0  0
  -31.4614  -17.1122   20.5771 H   0  0  0  0  0  0
  -28.7355  -15.7821   20.7134 H   0  0  0  0  0  0
  -33.1299  -22.9156   21.1974 H   0  0  0  0  0  0
  -32.1231  -22.6516   19.7715 H   0  0  0  0  0  0
  -32.9835  -21.3009   20.5114 H   0  0  0  0  0  0
  -29.5416  -26.1601   17.8092 H   0  0  0  0  0  0
  -29.9480  -24.4637   17.9879 H   0  0  0  0  0  0
  -30.6047  -25.6447   19.1147 H   0  0  0  0  0  0
  -31.5808  -21.5464   22.5818 H   0  0  0  0  0  0
  -30.7327  -22.8742   21.8908 H   0  0  0  0  0  0
  -27.6640  -24.9912   18.7833 H   0  0  0  0  0  0
  -28.7466  -22.7653   18.7674 H   0  0  0  0  0  0
  1 25  1  0  0  0
  1 30  2  0  0  0
  1 78  1  0  0  0
  2  3  1  0  0  0
  2 25  1  0  0  0
  2 87  1  0  0  0
  2 88  1  0  0  0
  3  4  1  0  0  0
  3 89  1  0  0  0
  3 90  1  0  0  0
  4  5  1  0  0  0
  4 91  1  0  0  0
  4 92  1  0  0  0
  5  6  1  0  0  0
  5 26  1  0  0  0
  5 93  1  0  0  0
  6 25  1  0  0  0
  6 94  1  0  0  0
  6 95  1  0  0  0
  7  8  2  0  0  0
  7 26  1  0  0  0
  7 29  1  0  0  0
  8  9  1  0  0  0
  8 22  1  0  0  0
  9 10  1  0  0  0
  9 27  2  0  0  0
 10 11  2  0  0  0
 10 15  1  0  0  0
 11 12  1  0  0  0
 11 96  1  0  0  0
 12 13  2  0  0  0
 12 97  1  0  0  0
 13 14  1  0  0  0
 13 31  1  0  0  0
 14 15  2  0  0  0
 14 98  1  0  0  0
 15 99  1  0  0  0
 16 17  2  0  0  0
 16 21  1  0  0  0
 16 31  1  0  0  0
 17 18  1  0  0  0
 17100  1  0  0  0
 18 19  2  0  0  0
 18101  1  0  0  0
 19 20  1  0  0  0
 19 24  1  0  0  0
 20 21  2  0  0  0
 20102  1  0  0  0
 21 23  1  0  0  0
 22 28  1  0  0  0
 22 32  2  0  0  0
 26 27  1  0  0  0
 28103  1  0  0  0
 28104  1  0  0  0
 29105  1  0  0  0
 29106  1  0  0  0
 33 34  1  0  0  0
 33 66  1  0  0  0
 33 70  2  0  0  0
 34 36  1  0  0  0
 34 59  1  0  0  0
 34107  1  0  0  0
 35 44  2  0  0  0
 35 45  1  0  0  0
 35 68  1  0  0  0
 36 56  1  0  0  0
 36108  1  0  0  0
 37 39  1  0  0  0
 37 47  1  0  0  0
 37 66  1  0  0  0
 37109  1  0  0  0
 38 43  2  0  0  0
 38 46  1  0  0  0
 38 47  1  0  0  0
 39 64  1  0  0  0
 39 67  2  0  0  0
 40 52  1  0  0  0
 40 53  2  0  0  0
 40 58  1  0  0  0
 41110  1  0  0  0
 41111  1  0  0  0
 41112  1  0  0  0
 41 48  1  0  0  0
 42 43  1  0  0  0
 42 66  1  0  0  0
 42113  1  0  0  0
 42114  1  0  0  0
 43 44  1  0  0  0
 44115  1  0  0  0
 45 46  2  0  0  0
 45116  1  0  0  0
 46117  1  0  0  0
 47118  1  0  0  0
 47119  1  0  0  0
 48 56  1  0  0  0
 48 65  1  0  0  0
 48120  1  0  0  0
 49 50  1  0  0  0
 49 53  1  0  0  0
 49 64  1  0  0  0
 49121  1  0  0  0
 50 51  1  0  0  0
 50122  1  0  0  0
 50123  1  0  0  0
 51 52  1  0  0  0
 51124  1  0  0  0
 51125  1  0  0  0
 52126  1  0  0  0
 52127  1  0  0  0
 53 54  1  0  0  0
 54 55  2  0  0  0
 54128  1  0  0  0
 55 57  1  0  0  0
 55129  1  0  0  0
 56 69  2  0  0  0
 57 58  2  0  0  0
 57130  1  0  0  0
 58131  1  0  0  0
 59 60  1  0  0  0
 59 61  1  0  0  0
 59 62  1  0  0  0
 60132  1  0  0  0
 60133  1  0  0  0
 60134  1  0  0  0
 61135  1  0  0  0
 61136  1  0  0  0
 61137  1  0  0  0
 62138  1  0  0  0
 62139  1  0  0  0
 62140  1  0  0  0
 63 65  1  0  0  0
 63141  1  0  0  0
 63142  1  0  0  0
 63143  1  0  0  0
 64144  1  0  0  0
 65145  1  0  0  0
 68 83  1  0  0  0
 71 72  2  0  0  0
 71 73  1  0  0  0
 71146  1  0  0  0
 72 75  1  0  0  0
 72147  1  0  0  0
 73 76  2  0  0  0
 73 77  1  0  0  0
 74 75  2  0  0  0
 74 76  1  0  0  0
 74 82  1  0  0  0
 75 84  1  0  0  0
 76 86  1  0  0  0
 77 78  2  0  0  0
 77148  1  0  0  0
 78149  1  0  0  0
 79 83  1  0  0  0
 79 84  1  0  0  0
 79 85  2  0  0  0
 80 82  1  0  0  0
 80150  1  0  0  0
 80151  1  0  0  0
 80152  1  0  0  0
 81153  1  0  0  0
 81154  1  0  0  0
 81155  1  0  0  0
 81 83  1  0  0  0
 82156  1  0  0  0
 82157  1  0  0  0
 83158  1  0  0  0
 84159  1  0  0  0
M  ISO  4   1 100  68 101  78 100  83 101
M  END
> <chiral flag>
0

> <version>
0

> <s_m_source_file>
/data/baiqing/PycharmProjects/Reinvent-master-3.2/result/LINK_invent/BTK/process_docking_weight1_custom_product_contain_oxygen_bond_distance_aromatic_linkinvent_7_9_3/rearranged_h_0170.sdf

> <i_m_source_file_index>
36

> <r_mmod_Potential_Energy-OPLS-2005>
123.537979125977

> <r_mmod_Stretch_Energy-OPLS-2005>
78.9960784912109

> <r_mmod_Bend_Energy-OPLS-2005>
156.442016601562

> <r_mmod_Torsional_Energy-OPLS-2005>
234.45231628418

> <r_mmod_Improper_Torsional_Energy-OPLS-2005>
8.67217826843262

> <r_mmod_Van_der_Waal_Energy-OPLS-2005>
147.460494995117

> <r_mmod_Electrostatic_Energy-OPLS-2005>
-322.627593994141

> <r_mmod_Solvation_Energy-OPLS-2005>
-225.845397949219

> <b_mmod_Minimization_Converged-OPLS-2005>
0

> <r_mmod_RMS_Derivative-OPLS-2005>
2.61718535423279

$$$$
36
                    3D
 Structure written by MMmdl.
151159  0  0  1  0            999 V2000
  -30.6284  -14.6290   20.5027 C   0  0  0  0  0  0
  -30.4383  -12.3855   19.4524 C   0  0  0  0  0  0
  -29.5079  -12.5086   18.2251 C   0  0  0  0  0  0
  -28.0306  -12.3480   18.6367 C   0  0  0  0  0  0
  -27.6550  -13.2163   19.8672 C   0  0  2  0  0  0
  -28.7000  -13.0650   20.9961 C   0  0  0  0  0  0
  -25.2558  -13.8165   20.5689 C   0  0  0  0  0  0
  -24.1818  -13.0429   20.9163 C   0  0  0  0  0  0
  -24.6392  -11.6903   20.8723 C   0  0  0  0  0  0
  -23.9062  -10.4289   21.0394 C   0  0  0  0  0  0
  -24.3614   -9.4207   21.9176 C   0  0  0  0  0  0
  -23.6288   -8.2244   22.0751 C   0  0  0  0  0  0
  -22.4269   -8.0281   21.3543 C   0  0  0  0  0  0
  -21.9901   -9.0253   20.4647 C   0  0  0  0  0  0
  -22.7231  -10.2131   20.3050 C   0  0  0  0  0  0
  -21.6854   -6.0732   22.5277 C   0  0  0  0  0  0
  -21.4016   -6.5636   23.8211 C   0  0  0  0  0  0
  -21.3660   -5.6790   24.9174 C   0  0  0  0  0  0
  -21.6044   -4.3052   24.7226 C   0  0  0  0  0  0
  -21.8819   -3.8143   23.4347 C   0  0  0  0  0  0
  -21.9194   -4.6960   22.3402 C   0  0  0  0  0  0
  -22.7844  -13.5228   21.1840 C   0  0  0  0  0  0
  -22.1662   -4.2145   21.0979 F   0  0  0  0  0  0
  -21.5628   -3.4537   25.7741 F   0  0  0  0  0  0
  -30.0179  -13.4042   20.4345 N   0  0  0  0  0  0
  -26.2999  -12.9352   20.3346 N   0  0  0  0  0  0
  -25.9325  -11.6504   20.5756 N   0  0  0  0  0  0
  -22.0493  -12.8226   22.0409 N   0  0  0  0  0  0
  -25.4259  -15.1890   20.4164 N   0  0  0  0  0  0
  -31.7865  -14.7920   20.1084 O   0  0  0  0  0  0
  -21.6637   -6.8875   21.4240 O   0  0  0  0  0  0
  -22.3526  -14.5538   20.6700 O   0  0  0  0  0  0
  -24.6249  -31.8610   23.2037 C   0  0  0  0  0  0
  -25.9101  -32.4786   23.8365 C   0  0  1  0  0  0
  -27.2250  -27.3302   20.1191 C   0  0  0  0  0  0
  -25.5920  -33.8586   24.2292 N   0  0  0  0  0  0
  -23.4186  -30.4844   21.5459 C   0  0  2  0  0  0
  -24.8669  -28.9422   20.1120 C   0  0  0  0  0  0
  -22.7471  -29.4625   22.4940 C   0  0  0  0  0  0
  -18.0287  -28.1381   22.8488 C   0  0  0  0  0  0
  -24.1489  -36.7299   23.2638 C   0  0  0  0  0  0
  -25.9593  -30.7951   21.3746 C   0  0  0  0  0  0
  -26.0350  -29.4231   20.7179 C   0  0  0  0  0  0
  -27.2193  -28.6287   20.7122 C   0  0  0  0  0  0
  -26.0394  -26.9066   19.4774 C   0  0  0  0  0  0
  -24.8704  -27.6888   19.4823 C   0  0  0  0  0  0
  -23.6338  -29.8202   20.1611 C   0  0  0  0  0  0
  -25.4111  -36.3088   24.0331 C   0  0  1  0  0  0
  -20.5886  -28.3685   23.1286 C   0  0  2  0  0  0
  -20.6776  -26.9410   22.5407 C   0  0  0  0  0  0
  -19.5749  -26.6383   21.5211 C   0  0  0  0  0  0
  -18.1932  -26.7923   22.1630 C   0  0  0  0  0  0
  -19.1539  -28.8851   23.2882 C   0  0  0  0  0  0
  -18.9461  -30.1453   23.8898 C   0  0  0  0  0  0
  -17.6462  -30.6584   24.0561 C   0  0  0  0  0  0
  -25.9045  -34.9455   23.5110 C   0  0  0  0  0  0
  -16.5354  -29.9083   23.6326 C   0  0  0  0  0  0
  -16.7274  -28.6499   23.0350 C   0  0  0  0  0  0
  -26.4491  -31.6589   25.0728 C   0  0  0  0  0  0
  -25.3732  -31.3732   26.1464 C   0  0  0  0  0  0
  -27.0325  -30.3011   24.6175 C   0  0  0  0  0  0
  -27.6060  -32.4317   25.7490 C   0  0  0  0  0  0
  -27.5578  -37.1805   24.8466 C   0  0  0  0  0  0
  -21.4185  -29.3041   22.3682 N   0  0  0  0  0  0
  -26.4294  -37.3777   23.9405 N   0  0  0  0  0  0
  -24.6861  -31.0631   22.0984 N   0  0  0  0  0  0
  -23.4199  -28.8162   23.3014 O   0  0  0  0  0  0
  -28.3313  -26.4724   20.1530 O   0  0  0  0  0  0
  -26.5612  -34.8919   22.4676 O   0  0  0  0  0  0
  -23.5414  -32.1405   23.7368 O   0  0  0  0  0  0
  -31.0150  -17.8413   20.1798 C   0  0  0  0  0  0
  -28.7358  -19.3152   20.9102 C   0  0  0  0  0  0
  -29.9075  -17.1196   20.6982 C   0  0  0  0  0  0
  -29.8389  -20.0381   20.3890 C   0  0  0  0  0  0
  -28.7732  -17.8961   21.0571 C   0  0  0  0  0  0
  -30.9769  -19.2598   20.0303 C   0  0  0  0  0  0
  -29.1136  -23.9765   20.2084 C   0  0  0  0  0  0
  -28.8118  -22.4601   20.5522 C   0  0  0  0  0  0
  -28.0421  -25.0761   20.5621 C   0  0  0  0  0  0
  -29.8269  -15.6698   20.8815 N   0  0  0  0  0  0
  -29.8712  -21.4624   20.2034 N   0  0  0  0  0  0
  -30.1836  -24.2808   19.6680 O   0  0  0  0  0  0
  -27.6850  -17.2553   21.5490 F   0  0  0  0  0  0
  -32.0648  -19.8931   19.5257 F   0  0  0  0  0  0
  -31.4801  -12.5073   19.1507 H   0  0  0  0  0  0
  -30.3694  -11.3884   19.8902 H   0  0  0  0  0  0
  -29.7701  -11.7599   17.4765 H   0  0  0  0  0  0
  -29.6525  -13.4800   17.7497 H   0  0  0  0  0  0
  -27.8661  -11.2942   18.8654 H   0  0  0  0  0  0
  -27.3767  -12.5823   17.7962 H   0  0  0  0  0  0
  -27.6746  -14.2527   19.5295 H   0  0  0  0  0  0
  -28.7083  -12.0423   21.3757 H   0  0  0  0  0  0
  -28.4461  -13.6945   21.8504 H   0  0  0  0  0  0
  -25.2758   -9.5687   22.4750 H   0  0  0  0  0  0
  -23.9999   -7.4637   22.7471 H   0  0  0  0  0  0
  -21.0829   -8.8771   19.8956 H   0  0  0  0  0  0
  -22.3684  -10.9669   19.6161 H   0  0  0  0  0  0
  -21.2008   -7.6145   23.9713 H   0  0  0  0  0  0
  -21.1481   -6.0521   25.9077 H   0  0  0  0  0  0
  -22.0598   -2.7604   23.2850 H   0  0  0  0  0  0
  -22.4109  -11.9888   22.4798 H   0  0  0  0  0  0
  -21.1118  -13.1260   22.2626 H   0  0  0  0  0  0
  -24.6671  -15.8440   20.5671 H   0  0  0  0  0  0
  -26.3001  -15.6476   20.1942 H   0  0  0  0  0  0
  -26.7171  -32.5464   23.1119 H   0  0  0  0  0  0
  -25.0066  -33.9733   25.0434 H   0  0  0  0  0  0
  -22.7114  -31.3042   21.4034 H   0  0  0  0  0  0
  -23.3741  -35.9644   23.3319 H   0  0  0  0  0  0
  -24.3581  -36.8897   22.2049 H   0  0  0  0  0  0
  -23.7258  -37.6515   23.6644 H   0  0  0  0  0  0
  -26.0892  -31.5587   20.6064 H   0  0  0  0  0  0
  -26.8403  -30.8448   22.0030 H   0  0  0  0  0  0
  -28.1153  -28.9918   21.1963 H   0  0  0  0  0  0
  -25.9984  -25.9588   18.9614 H   0  0  0  0  0  0
  -23.9786  -27.3193   18.9949 H   0  0  0  0  0  0
  -23.7517  -30.5969   19.4046 H   0  0  0  0  0  0
  -22.7549  -29.2479   19.8588 H   0  0  0  0  0  0
  -25.1291  -36.1946   25.0825 H   0  0  0  0  0  0
  -20.9980  -28.3259   24.1406 H   0  0  0  0  0  0
  -20.5681  -26.2292   23.3603 H   0  0  0  0  0  0
  -21.6645  -26.7444   22.1196 H   0  0  0  0  0  0
  -19.6909  -25.6294   21.1238 H   0  0  0  0  0  0
  -19.6678  -27.3193   20.6740 H   0  0  0  0  0  0
  -17.4194  -26.6660   21.4041 H   0  0  0  0  0  0
  -18.0345  -26.0069   22.9035 H   0  0  0  0  0  0
  -19.7938  -30.7270   24.2267 H   0  0  0  0  0  0
  -17.5015  -31.6265   24.5164 H   0  0  0  0  0  0
  -15.5353  -30.2985   23.7647 H   0  0  0  0  0  0
  -15.8675  -28.0817   22.7065 H   0  0  0  0  0  0
  -24.5876  -30.7118   25.7792 H   0  0  0  0  0  0
  -24.8962  -32.2905   26.4927 H   0  0  0  0  0  0
  -25.8054  -30.8870   27.0218 H   0  0  0  0  0  0
  -26.2891  -29.6766   24.1205 H   0  0  0  0  0  0
  -27.4031  -29.7264   25.4675 H   0  0  0  0  0  0
  -27.8762  -30.4297   23.9390 H   0  0  0  0  0  0
  -27.2684  -33.3620   26.2070 H   0  0  0  0  0  0
  -28.3866  -32.6870   25.0310 H   0  0  0  0  0  0
  -28.0733  -31.8439   26.5402 H   0  0  0  0  0  0
  -28.2606  -38.0091   24.7499 H   0  0  0  0  0  0
  -28.1063  -36.2623   24.6310 H   0  0  0  0  0  0
  -27.2295  -37.1481   25.8870 H   0  0  0  0  0  0
  -20.9358  -29.8769   21.6899 H   0  0  0  0  0  0
  -26.0178  -38.2856   24.1392 H   0  0  0  0  0  0
  -31.9131  -17.3217   19.8844 H   0  0  0  0  0  0
  -27.8380  -19.8384   21.2013 H   0  0  0  0  0  0
  -27.8863  -22.1835   20.0460 H   0  0  0  0  0  0
  -28.6089  -22.3973   21.6220 H   0  0  0  0  0  0
  -27.9132  -25.0700   21.6446 H   0  0  0  0  0  0
  -27.1015  -24.7175   20.1512 H   0  0  0  0  0  0
  -28.9313  -15.3675   21.2354 H   0  0  0  0  0  0
  -30.7270  -21.8580   19.8180 H   0  0  0  0  0  0
  1 25  1  0  0  0
  1 30  2  0  0  0
  1 80  1  0  0  0
  2  3  1  0  0  0
  2 25  1  0  0  0
  2 85  1  0  0  0
  2 86  1  0  0  0
  3  4  1  0  0  0
  3 87  1  0  0  0
  3 88  1  0  0  0
  4  5  1  0  0  0
  4 89  1  0  0  0
  4 90  1  0  0  0
  5  6  1  0  0  0
  5 26  1  0  0  0
  5 91  1  0  0  0
  6 25  1  0  0  0
  6 92  1  0  0  0
  6 93  1  0  0  0
  7  8  2  0  0  0
  7 26  1  0  0  0
  7 29  1  0  0  0
  8  9  1  0  0  0
  8 22  1  0  0  0
  9 10  1  0  0  0
  9 27  2  0  0  0
 10 11  2  0  0  0
 10 15  1  0  0  0
 11 12  1  0  0  0
 11 94  1  0  0  0
 12 13  2  0  0  0
 12 95  1  0  0  0
 13 14  1  0  0  0
 13 31  1  0  0  0
 14 15  2  0  0  0
 14 96  1  0  0  0
 15 97  1  0  0  0
 16 17  2  0  0  0
 16 21  1  0  0  0
 16 31  1  0  0  0
 17 18  1  0  0  0
 17 98  1  0  0  0
 18 19  2  0  0  0
 18 99  1  0  0  0
 19 20  1  0  0  0
 19 24  1  0  0  0
 20 21  2  0  0  0
 20100  1  0  0  0
 21 23  1  0  0  0
 22 28  1  0  0  0
 22 32  2  0  0  0
 26 27  1  0  0  0
 28101  1  0  0  0
 28102  1  0  0  0
 29103  1  0  0  0
 29104  1  0  0  0
 33 34  1  0  0  0
 33 66  1  0  0  0
 33 70  2  0  0  0
 34 36  1  0  0  0
 34 59  1  0  0  0
 34105  1  0  0  0
 35 44  2  0  0  0
 35 45  1  0  0  0
 35 68  1  0  0  0
 36 56  1  0  0  0
 36106  1  0  0  0
 37 39  1  0  0  0
 37 47  1  0  0  0
 37 66  1  0  0  0
 37107  1  0  0  0
 38 43  2  0  0  0
 38 46  1  0  0  0
 38 47  1  0  0  0
 39 64  1  0  0  0
 39 67  2  0  0  0
 40 52  1  0  0  0
 40 53  2  0  0  0
 40 58  1  0  0  0
 41108  1  0  0  0
 41109  1  0  0  0
 41110  1  0  0  0
 41 48  1  0  0  0
 42 43  1  0  0  0
 42 66  1  0  0  0
 42111  1  0  0  0
 42112  1  0  0  0
 43 44  1  0  0  0
 44113  1  0  0  0
 45 46  2  0  0  0
 45114  1  0  0  0
 46115  1  0  0  0
 47116  1  0  0  0
 47117  1  0  0  0
 48 56  1  0  0  0
 48 65  1  0  0  0
 48118  1  0  0  0
 49 50  1  0  0  0
 49 53  1  0  0  0
 49 64  1  0  0  0
 49119  1  0  0  0
 50 51  1  0  0  0
 50120  1  0  0  0
 50121  1  0  0  0
 51 52  1  0  0  0
 51122  1  0  0  0
 51123  1  0  0  0
 52124  1  0  0  0
 52125  1  0  0  0
 53 54  1  0  0  0
 54 55  2  0  0  0
 54126  1  0  0  0
 55 57  1  0  0  0
 55127  1  0  0  0
 56 69  2  0  0  0
 57 58  2  0  0  0
 57128  1  0  0  0
 58129  1  0  0  0
 59 60  1  0  0  0
 59 61  1  0  0  0
 59 62  1  0  0  0
 60130  1  0  0  0
 60131  1  0  0  0
 60132  1  0  0  0
 61133  1  0  0  0
 61134  1  0  0  0
 61135  1  0  0  0
 62136  1  0  0  0
 62137  1  0  0  0
 62138  1  0  0  0
 63 65  1  0  0  0
 63139  1  0  0  0
 63140  1  0  0  0
 63141  1  0  0  0
 64142  1  0  0  0
 65143  1  0  0  0
 68 79  1  0  0  0
 71 73  2  0  0  0
 71 76  1  0  0  0
 71144  1  0  0  0
 72 74  1  0  0  0
 72 75  2  0  0  0
 72145  1  0  0  0
 73 75  1  0  0  0
 73 80  1  0  0  0
 74 76  2  0  0  0
 74 81  1  0  0  0
 75 83  1  0  0  0
 76 84  1  0  0  0
 77 78  1  0  0  0
 77 79  1  0  0  0
 77 82  2  0  0  0
 78 81  1  0  0  0
 78146  1  0  0  0
 78147  1  0  0  0
 79148  1  0  0  0
 79149  1  0  0  0
 80150  1  0  0  0
 81151  1  0  0  0
M  ISO  4   1 100  68 101  79 101  80 100
M  END
> <chiral flag>
0

> <version>
0

> <s_m_source_file>
/data/baiqing/PycharmProjects/Reinvent-master-3.2/result/LINK_invent/BTK/process_docking_weight1_custom_product_contain_oxygen_bond_distance_aromatic_linkinvent_7_9_3/rearranged_h_0170.sdf

> <i_m_source_file_index>
37

> <r_mmod_Potential_Energy-OPLS-2005>
49.2670364379883

> <r_mmod_Stretch_Energy-OPLS-2005>
74.0695953369141

> <r_mmod_Bend_Energy-OPLS-2005>
143.584777832031

> <r_mmod_Torsional_Energy-OPLS-2005>
211.59635925293

> <r_mmod_Improper_Torsional_Energy-OPLS-2005>
3.71379375457764

> <r_mmod_Van_der_Waal_Energy-OPLS-2005>
142.642135620117

> <r_mmod_Electrostatic_Energy-OPLS-2005>
-341.380157470703

> <r_mmod_Solvation_Energy-OPLS-2005>
-230.066741943359

> <b_mmod_Minimization_Converged-OPLS-2005>
0

> <r_mmod_RMS_Derivative-OPLS-2005>
0.375129133462906

$$$$
37
                    3D
 Structure written by MMmdl.
159167  0  0  1  0            999 V2000
  -30.7469  -14.3669   20.7018 C   0  0  0  0  0  0
  -30.4257  -12.2989   19.3838 C   0  0  0  0  0  0
  -29.4813  -12.5281   18.1880 C   0  0  0  0  0  0
  -28.0065  -12.3813   18.6072 C   0  0  0  0  0  0
  -27.6686  -13.1951   19.8842 C   0  0  2  0  0  0
  -28.7077  -12.9076   20.9896 C   0  0  0  0  0  0
  -25.2623  -13.8147   20.5662 C   0  0  0  0  0  0
  -24.1846  -13.0441   20.9147 C   0  0  0  0  0  0
  -24.6379  -11.6902   20.8728 C   0  0  0  0  0  0
  -23.9038  -10.4291   21.0408 C   0  0  0  0  0  0
  -24.3598   -9.4218   21.9192 C   0  0  0  0  0  0
  -23.6271   -8.2258   22.0766 C   0  0  0  0  0  0
  -22.4267   -8.0288   21.3540 C   0  0  0  0  0  0
  -21.9902   -9.0255   20.4639 C   0  0  0  0  0  0
  -22.7221  -10.2129   20.3044 C   0  0  0  0  0  0
  -21.6843   -6.0718   22.5268 C   0  0  0  0  0  0
  -21.4013   -6.5629   23.8204 C   0  0  0  0  0  0
  -21.3657   -5.6794   24.9170 C   0  0  0  0  0  0
  -21.6049   -4.3054   24.7222 C   0  0  0  0  0  0
  -21.8825   -3.8136   23.4350 C   0  0  0  0  0  0
  -21.9191   -4.6947   22.3397 C   0  0  0  0  0  0
  -22.7872  -13.5255   21.1808 C   0  0  0  0  0  0
  -22.1660   -4.2136   21.0967 F   0  0  0  0  0  0
  -21.5637   -3.4543   25.7735 F   0  0  0  0  0  0
  -30.0457  -13.2290   20.4570 N   0  0  0  0  0  0
  -26.3051  -12.9293   20.3400 N   0  0  0  0  0  0
  -25.9305  -11.6459   20.5770 N   0  0  0  0  0  0
  -22.0496  -12.8236   22.0353 N   0  0  0  0  0  0
  -25.4387  -15.1854   20.4056 N   0  0  0  0  0  0
  -31.7775  -14.6737   20.0930 O   0  0  0  0  0  0
  -21.6637   -6.8877   21.4236 O   0  0  0  0  0  0
  -22.3569  -14.5567   20.6664 O   0  0  0  0  0  0
  -24.6114  -31.8687   23.2130 C   0  0  0  0  0  0
  -25.9016  -32.4833   23.8423 C   0  0  1  0  0  0
  -27.2537  -27.4617   20.1025 C   0  0  0  0  0  0
  -25.5861  -33.8622   24.2354 N   0  0  0  0  0  0
  -23.4004  -30.4868   21.5526 C   0  0  2  0  0  0
  -24.8510  -28.9463   20.1280 C   0  0  0  0  0  0
  -22.7398  -29.4645   22.5033 C   0  0  0  0  0  0
  -18.0257  -28.1370   22.8515 C   0  0  0  0  0  0
  -24.1457  -36.7331   23.2645 C   0  0  0  0  0  0
  -25.9227  -30.8453   21.3562 C   0  0  0  0  0  0
  -26.0088  -29.4745   20.7153 C   0  0  0  0  0  0
  -27.2131  -28.7410   20.6961 C   0  0  0  0  0  0
  -26.0813  -26.9319   19.5217 C   0  0  0  0  0  0
  -24.8797  -27.6717   19.5304 C   0  0  0  0  0  0
  -23.6091  -29.8074   20.1721 C   0  0  0  0  0  0
  -25.4092  -36.3117   24.0335 C   0  0  1  0  0  0
  -20.5848  -28.3657   23.1342 C   0  0  2  0  0  0
  -20.6738  -26.9407   22.5417 C   0  0  0  0  0  0
  -19.5718  -26.6408   21.5205 C   0  0  0  0  0  0
  -18.1894  -26.7930   22.1615 C   0  0  0  0  0  0
  -19.1509  -28.8836   23.2917 C   0  0  0  0  0  0
  -18.9441  -30.1426   23.8942 C   0  0  0  0  0  0
  -17.6443  -30.6586   24.0567 C   0  0  0  0  0  0
  -25.9022  -34.9475   23.5155 C   0  0  0  0  0  0
  -16.5334  -29.9102   23.6323 C   0  0  0  0  0  0
  -16.7250  -28.6486   23.0384 C   0  0  0  0  0  0
  -26.4462  -31.6590   25.0732 C   0  0  0  0  0  0
  -25.3717  -31.3567   26.1443 C   0  0  0  0  0  0
  -27.0367  -30.3082   24.6067 C   0  0  0  0  0  0
  -27.6048  -32.4291   25.7505 C   0  0  0  0  0  0
  -27.5570  -37.1820   24.8472 C   0  0  0  0  0  0
  -21.4131  -29.3020   22.3763 N   0  0  0  0  0  0
  -26.4286  -37.3808   23.9405 N   0  0  0  0  0  0
  -24.6636  -31.0808   22.1003 N   0  0  0  0  0  0
  -23.4174  -28.8196   23.3078 O   0  0  0  0  0  0
  -28.4463  -26.7816   20.0327 O   0  0  0  0  0  0
  -26.5617  -34.8924   22.4742 O   0  0  0  0  0  0
  -23.5303  -32.1440   23.7524 O   0  0  0  0  0  0
  -28.0416  -19.6998   22.5739 C   0  0  0  0  0  0
  -28.5539  -17.3503   23.0186 C   0  0  0  0  0  0
  -29.8170  -17.5033   22.3773 C   0  0  0  0  0  0
  -29.3032  -19.8809   21.9636 C   0  0  0  0  0  0
  -27.6725  -18.4501   23.0957 C   0  0  0  0  0  0
  -30.1816  -18.7794   21.8750 C   0  0  0  0  0  0
  -30.0035  -23.4269   20.7582 C   0  0  0  0  0  0
  -29.0836  -22.2740   21.2354 C   0  0  0  0  0  0
  -28.1130  -16.0411   23.6571 C   0  0  0  0  0  0
  -30.8156  -16.3466   22.2531 C   0  0  0  0  0  0
  -29.3591  -24.5398   19.9206 C   0  0  0  0  0  0
  -28.5316  -25.5473   20.7468 C   0  0  0  0  0  0
  -29.7643  -21.1329   21.4572 N   0  0  0  0  0  0
  -30.2481  -15.1198   21.6903 N   0  0  0  0  0  0
  -31.2155  -23.4485   21.0128 O   0  0  0  0  0  0
  -27.8649  -22.4234   21.3664 O   0  0  0  0  0  0
  -26.4626  -18.3198   23.6906 F   0  0  0  0  0  0
  -31.3945  -18.9630   21.2979 F   0  0  0  0  0  0
  -31.4649  -12.4209   19.0735 H   0  0  0  0  0  0
  -30.3441  -11.2698   19.7411 H   0  0  0  0  0  0
  -29.7090  -11.8241   17.3855 H   0  0  0  0  0  0
  -29.6463  -13.5258   17.7766 H   0  0  0  0  0  0
  -27.8119  -11.3226   18.7802 H   0  0  0  0  0  0
  -27.3517  -12.6798   17.7887 H   0  0  0  0  0  0
  -27.7363  -14.2524   19.6269 H   0  0  0  0  0  0
  -28.6784  -11.8500   21.2591 H   0  0  0  0  0  0
  -28.4536  -13.4336   21.9065 H   0  0  0  0  0  0
  -25.2734   -9.5698   22.4782 H   0  0  0  0  0  0
  -23.9966   -7.4660   22.7507 H   0  0  0  0  0  0
  -21.0844   -8.8772   19.8945 H   0  0  0  0  0  0
  -22.3689  -10.9674   19.6156 H   0  0  0  0  0  0
  -21.2006   -7.6143   23.9698 H   0  0  0  0  0  0
  -21.1478   -6.0524   25.9072 H   0  0  0  0  0  0
  -22.0609   -2.7604   23.2849 H   0  0  0  0  0  0
  -22.4098  -11.9859   22.4685 H   0  0  0  0  0  0
  -21.1124  -13.1284   22.2570 H   0  0  0  0  0  0
  -24.6798  -15.8478   20.5188 H   0  0  0  0  0  0
  -26.2984  -15.6194   20.0938 H   0  0  0  0  0  0
  -26.7080  -32.5579   23.1194 H   0  0  0  0  0  0
  -24.9884  -33.9756   25.0415 H   0  0  0  0  0  0
  -22.6863  -31.3012   21.4099 H   0  0  0  0  0  0
  -23.3710  -35.9668   23.3299 H   0  0  0  0  0  0
  -24.3546  -36.8993   22.2068 H   0  0  0  0  0  0
  -23.7205  -37.6523   23.6690 H   0  0  0  0  0  0
  -26.0136  -31.6023   20.5770 H   0  0  0  0  0  0
  -26.8180  -30.9211   21.9623 H   0  0  0  0  0  0
  -28.1150  -29.1531   21.1310 H   0  0  0  0  0  0
  -26.1086  -25.9600   19.0499 H   0  0  0  0  0  0
  -23.9867  -27.2603   19.0811 H   0  0  0  0  0  0
  -23.7098  -30.5777   19.4075 H   0  0  0  0  0  0
  -22.7373  -29.2164   19.8864 H   0  0  0  0  0  0
  -25.1250  -36.1996   25.0837 H   0  0  0  0  0  0
  -20.9911  -28.3218   24.1479 H   0  0  0  0  0  0
  -20.5649  -26.2263   23.3586 H   0  0  0  0  0  0
  -21.6601  -26.7456   22.1210 H   0  0  0  0  0  0
  -19.6886  -25.6338   21.1211 H   0  0  0  0  0  0
  -19.6663  -27.3221   20.6744 H   0  0  0  0  0  0
  -17.4172  -26.6703   21.4010 H   0  0  0  0  0  0
  -18.0269  -26.0037   22.8974 H   0  0  0  0  0  0
  -19.7905  -30.7210   24.2371 H   0  0  0  0  0  0
  -17.5001  -31.6281   24.5155 H   0  0  0  0  0  0
  -15.5327  -30.3027   23.7627 H   0  0  0  0  0  0
  -15.8628  -28.0812   22.7152 H   0  0  0  0  0  0
  -24.5997  -30.6841   25.7698 H   0  0  0  0  0  0
  -24.8752  -32.2617   26.4923 H   0  0  0  0  0  0
  -25.8075  -30.8712   27.0182 H   0  0  0  0  0  0
  -26.2939  -29.6751   24.1208 H   0  0  0  0  0  0
  -27.4301  -29.7405   25.4512 H   0  0  0  0  0  0
  -27.8663  -30.4501   23.9145 H   0  0  0  0  0  0
  -27.2750  -33.3627   26.2068 H   0  0  0  0  0  0
  -28.3874  -32.6766   25.0322 H   0  0  0  0  0  0
  -28.0673  -31.8382   26.5415 H   0  0  0  0  0  0
  -28.2568  -38.0138   24.7542 H   0  0  0  0  0  0
  -28.1087  -36.2666   24.6277 H   0  0  0  0  0  0
  -27.2278  -37.1455   25.8873 H   0  0  0  0  0  0
  -20.9300  -29.8729   21.6970 H   0  0  0  0  0  0
  -26.0171  -38.2888   24.1407 H   0  0  0  0  0  0
  -27.3357  -20.5065   22.6795 H   0  0  0  0  0  0
  -28.9423  -15.5291   24.1426 H   0  0  0  0  0  0
  -27.6717  -15.3868   22.9079 H   0  0  0  0  0  0
  -27.3575  -16.2074   24.4257 H   0  0  0  0  0  0
  -31.1988  -16.1167   23.2494 H   0  0  0  0  0  0
  -31.6842  -16.6622   21.6725 H   0  0  0  0  0  0
  -28.7412  -24.0923   19.1418 H   0  0  0  0  0  0
  -30.1670  -25.0669   19.4128 H   0  0  0  0  0  0
  -29.0240  -25.7537   21.6989 H   0  0  0  0  0  0
  -27.5498  -25.1340   20.9849 H   0  0  0  0  0  0
  -30.7479  -21.1783   21.2225 H   0  0  0  0  0  0
  -29.4063  -14.7721   22.1204 H   0  0  0  0  0  0
  1 25  1  0  0  0
  1 30  2  0  0  0
  1 84  1  0  0  0
  2  3  1  0  0  0
  2 25  1  0  0  0
  2 89  1  0  0  0
  2 90  1  0  0  0
  3  4  1  0  0  0
  3 91  1  0  0  0
  3 92  1  0  0  0
  4  5  1  0  0  0
  4 93  1  0  0  0
  4 94  1  0  0  0
  5  6  1  0  0  0
  5 26  1  0  0  0
  5 95  1  0  0  0
  6 25  1  0  0  0
  6 96  1  0  0  0
  6 97  1  0  0  0
  7  8  2  0  0  0
  7 26  1  0  0  0
  7 29  1  0  0  0
  8  9  1  0  0  0
  8 22  1  0  0  0
  9 10  1  0  0  0
  9 27  2  0  0  0
 10 11  2  0  0  0
 10 15  1  0  0  0
 11 12  1  0  0  0
 11 98  1  0  0  0
 12 13  2  0  0  0
 12 99  1  0  0  0
 13 14  1  0  0  0
 13 31  1  0  0  0
 14 15  2  0  0  0
 14100  1  0  0  0
 15101  1  0  0  0
 16 17  2  0  0  0
 16 21  1  0  0  0
 16 31  1  0  0  0
 17 18  1  0  0  0
 17102  1  0  0  0
 18 19  2  0  0  0
 18103  1  0  0  0
 19 20  1  0  0  0
 19 24  1  0  0  0
 20 21  2  0  0  0
 20104  1  0  0  0
 21 23  1  0  0  0
 22 28  1  0  0  0
 22 32  2  0  0  0
 26 27  1  0  0  0
 28105  1  0  0  0
 28106  1  0  0  0
 29107  1  0  0  0
 29108  1  0  0  0
 33 34  1  0  0  0
 33 66  1  0  0  0
 33 70  2  0  0  0
 34 36  1  0  0  0
 34 59  1  0  0  0
 34109  1  0  0  0
 35 44  2  0  0  0
 35 45  1  0  0  0
 35 68  1  0  0  0
 36 56  1  0  0  0
 36110  1  0  0  0
 37 39  1  0  0  0
 37 47  1  0  0  0
 37 66  1  0  0  0
 37111  1  0  0  0
 38 43  2  0  0  0
 38 46  1  0  0  0
 38 47  1  0  0  0
 39 64  1  0  0  0
 39 67  2  0  0  0
 40 52  1  0  0  0
 40 53  2  0  0  0
 40 58  1  0  0  0
 41112  1  0  0  0
 41113  1  0  0  0
 41114  1  0  0  0
 41 48  1  0  0  0
 42 43  1  0  0  0
 42 66  1  0  0  0
 42115  1  0  0  0
 42116  1  0  0  0
 43 44  1  0  0  0
 44117  1  0  0  0
 45 46  2  0  0  0
 45118  1  0  0  0
 46119  1  0  0  0
 47120  1  0  0  0
 47121  1  0  0  0
 48 56  1  0  0  0
 48 65  1  0  0  0
 48122  1  0  0  0
 49 50  1  0  0  0
 49 53  1  0  0  0
 49 64  1  0  0  0
 49123  1  0  0  0
 50 51  1  0  0  0
 50124  1  0  0  0
 50125  1  0  0  0
 51 52  1  0  0  0
 51126  1  0  0  0
 51127  1  0  0  0
 52128  1  0  0  0
 52129  1  0  0  0
 53 54  1  0  0  0
 54 55  2  0  0  0
 54130  1  0  0  0
 55 57  1  0  0  0
 55131  1  0  0  0
 56 69  2  0  0  0
 57 58  2  0  0  0
 57132  1  0  0  0
 58133  1  0  0  0
 59 60  1  0  0  0
 59 61  1  0  0  0
 59 62  1  0  0  0
 60134  1  0  0  0
 60135  1  0  0  0
 60136  1  0  0  0
 61137  1  0  0  0
 61138  1  0  0  0
 61139  1  0  0  0
 62140  1  0  0  0
 62141  1  0  0  0
 62142  1  0  0  0
 63 65  1  0  0  0
 63143  1  0  0  0
 63144  1  0  0  0
 63145  1  0  0  0
 64146  1  0  0  0
 65147  1  0  0  0
 68 82  1  0  0  0
 71 74  2  0  0  0
 71 75  1  0  0  0
 71148  1  0  0  0
 72 73  1  0  0  0
 72 75  2  0  0  0
 72 79  1  0  0  0
 73 76  2  0  0  0
 73 80  1  0  0  0
 74 76  1  0  0  0
 74 83  1  0  0  0
 75 87  1  0  0  0
 76 88  1  0  0  0
 77 78  1  0  0  0
 77 81  1  0  0  0
 77 85  2  0  0  0
 78 83  1  0  0  0
 78 86  2  0  0  0
 79149  1  0  0  0
 79150  1  0  0  0
 79151  1  0  0  0
 80 84  1  0  0  0
 80152  1  0  0  0
 80153  1  0  0  0
 81 82  1  0  0  0
 81154  1  0  0  0
 81155  1  0  0  0
 82156  1  0  0  0
 82157  1  0  0  0
 83158  1  0  0  0
 84159  1  0  0  0
M  ISO  4   1 100  68 101  82 101  84 100
M  END
> <chiral flag>
0

> <version>
0

> <s_m_source_file>
/data/baiqing/PycharmProjects/Reinvent-master-3.2/result/LINK_invent/BTK/process_docking_weight1_custom_product_contain_oxygen_bond_distance_aromatic_linkinvent_7_9_3/rearranged_h_0170.sdf

> <i_m_source_file_index>
38

> <r_mmod_Potential_Energy-OPLS-2005>
-136.079925537109

> <r_mmod_Stretch_Energy-OPLS-2005>
36.3135528564453

> <r_mmod_Bend_Energy-OPLS-2005>
99.1252212524414

> <r_mmod_Torsional_Energy-OPLS-2005>
231.727600097656

> <r_mmod_Improper_Torsional_Energy-OPLS-2005>
2.04090476036072

> <r_mmod_Van_der_Waal_Energy-OPLS-2005>
158.110336303711

> <r_mmod_Electrostatic_Energy-OPLS-2005>
-449.729949951172

> <r_mmod_Solvation_Energy-OPLS-2005>
-220.715682983398

> <b_mmod_Minimization_Converged-OPLS-2005>
0

> <r_mmod_RMS_Derivative-OPLS-2005>
3.06916427612305

$$$$
38
                    3D
 Structure written by MMmdl.
158166  0  0  1  0            999 V2000
  -30.6688  -14.5145   20.5314 C   0  0  0  0  0  0
  -30.4227  -12.3142   19.4379 C   0  0  0  0  0  0
  -29.5017  -12.5105   18.2146 C   0  0  0  0  0  0
  -28.0163  -12.3783   18.6096 C   0  0  0  0  0  0
  -27.6553  -13.2128   19.8673 C   0  0  2  0  0  0
  -28.6960  -13.0048   20.9886 C   0  0  0  0  0  0
  -25.2526  -13.8151   20.5611 C   0  0  0  0  0  0
  -24.1790  -13.0430   20.9175 C   0  0  0  0  0  0
  -24.6367  -11.6908   20.8739 C   0  0  0  0  0  0
  -23.9040  -10.4285   21.0421 C   0  0  0  0  0  0
  -24.3600   -9.4210   21.9201 C   0  0  0  0  0  0
  -23.6289   -8.2241   22.0754 C   0  0  0  0  0  0
  -22.4274   -8.0277   21.3539 C   0  0  0  0  0  0
  -21.9895   -9.0246   20.4640 C   0  0  0  0  0  0
  -22.7216  -10.2133   20.3061 C   0  0  0  0  0  0
  -21.6842   -6.0760   22.5281 C   0  0  0  0  0  0
  -21.4006   -6.5661   23.8214 C   0  0  0  0  0  0
  -21.3654   -5.6800   24.9170 C   0  0  0  0  0  0
  -21.6044   -4.3061   24.7222 C   0  0  0  0  0  0
  -21.8811   -3.8169   23.4337 C   0  0  0  0  0  0
  -21.9181   -4.6991   22.3396 C   0  0  0  0  0  0
  -22.7818  -13.5241   21.1860 C   0  0  0  0  0  0
  -22.1643   -4.2181   21.0970 F   0  0  0  0  0  0
  -21.5633   -3.4529   25.7734 F   0  0  0  0  0  0
  -30.0293  -13.3118   20.4451 N   0  0  0  0  0  0
  -26.2974  -12.9339   20.3312 N   0  0  0  0  0  0
  -25.9289  -11.6498   20.5736 N   0  0  0  0  0  0
  -22.0460  -12.8227   22.0437 N   0  0  0  0  0  0
  -25.4199  -15.1831   20.3883 N   0  0  0  0  0  0
  -31.8357  -14.6300   20.1430 O   0  0  0  0  0  0
  -21.6633   -6.8887   21.4243 O   0  0  0  0  0  0
  -22.3505  -14.5556   20.6732 O   0  0  0  0  0  0
  -24.6174  -31.8663   23.2103 C   0  0  0  0  0  0
  -25.9069  -32.4799   23.8382 C   0  0  1  0  0  0
  -27.2164  -27.3998   20.0774 C   0  0  0  0  0  0
  -25.5915  -33.8598   24.2301 N   0  0  0  0  0  0
  -23.4019  -30.4980   21.5513 C   0  0  2  0  0  0
  -24.8403  -28.9638   20.1106 C   0  0  0  0  0  0
  -22.7382  -29.4708   22.4971 C   0  0  0  0  0  0
  -18.0264  -28.1377   22.8516 C   0  0  0  0  0  0
  -24.1481  -36.7323   23.2644 C   0  0  0  0  0  0
  -25.9365  -30.8211   21.3663 C   0  0  0  0  0  0
  -26.0067  -29.4543   20.7105 C   0  0  0  0  0  0
  -27.1946  -28.6792   20.6950 C   0  0  0  0  0  0
  -26.0272  -26.9500   19.4521 C   0  0  0  0  0  0
  -24.8472  -27.7108   19.4838 C   0  0  0  0  0  0
  -23.6061  -29.8352   20.1644 C   0  0  0  0  0  0
  -25.4097  -36.3095   24.0339 C   0  0  1  0  0  0
  -20.5862  -28.3687   23.1297 C   0  0  2  0  0  0
  -20.6749  -26.9405   22.5426 C   0  0  0  0  0  0
  -19.5721  -26.6384   21.5225 C   0  0  0  0  0  0
  -18.1902  -26.7932   22.1636 C   0  0  0  0  0  0
  -19.1515  -28.8839   23.2914 C   0  0  0  0  0  0
  -18.9454  -30.1450   23.8922 C   0  0  0  0  0  0
  -17.6453  -30.6586   24.0577 C   0  0  0  0  0  0
  -25.9038  -34.9468   23.5114 C   0  0  0  0  0  0
  -16.5341  -29.9092   23.6336 C   0  0  0  0  0  0
  -16.7258  -28.6503   23.0375 C   0  0  0  0  0  0
  -26.4471  -31.6579   25.0719 C   0  0  0  0  0  0
  -25.3744  -31.3690   26.1473 C   0  0  0  0  0  0
  -27.0307  -30.3021   24.6135 C   0  0  0  0  0  0
  -27.6033  -32.4302   25.7482 C   0  0  0  0  0  0
  -27.5577  -37.1802   24.8453 C   0  0  0  0  0  0
  -21.4107  -29.3078   22.3706 N   0  0  0  0  0  0
  -26.4270  -37.3797   23.9418 N   0  0  0  0  0  0
  -24.6710  -31.0764   22.1002 N   0  0  0  0  0  0
  -23.4136  -28.8223   23.3011 O   0  0  0  0  0  0
  -28.3698  -26.6231   20.1044 O   0  0  0  0  0  0
  -26.5611  -34.8933   22.4684 O   0  0  0  0  0  0
  -23.5367  -32.1401   23.7515 O   0  0  0  0  0  0
  -28.0563  -17.9088   20.4871 C   0  0  0  0  0  0
  -27.7569  -20.3197   20.5526 C   0  0  0  0  0  0
  -29.4338  -18.0364   20.7656 C   0  0  0  0  0  0
  -29.9645  -19.3519   20.9910 C   0  0  0  0  0  0
  -29.1367  -20.5045   20.8040 C   0  0  0  0  0  0
  -27.2176  -19.0317   20.4148 C   0  0  0  0  0  0
  -30.2673  -16.7860   20.7439 C   0  0  0  0  0  0
  -29.2999  -24.2892   20.2748 C   0  0  0  0  0  0
  -32.4385  -19.7656   20.4007 C   0  0  0  0  0  0
  -31.3986  -19.5244   21.5017 C   0  0  0  0  0  0
  -29.2360  -22.7983   19.8545 C   0  0  0  0  0  0
  -28.2484  -25.2440   19.6614 C   0  0  0  0  0  0
  -29.8263  -15.5822   20.8780 N   0  0  0  0  0  0
  -29.6529  -21.8204   20.8849 N   0  0  0  0  0  0
  -30.1559  -24.6865   21.0754 O   0  0  0  0  0  0
  -25.8906  -18.8728   20.1933 F   0  0  0  0  0  0
  -31.4692  -12.4049   19.1425 H   0  0  0  0  0  0
  -30.3154  -11.3065   19.8414 H   0  0  0  0  0  0
  -29.7470  -11.7840   17.4395 H   0  0  0  0  0  0
  -29.6695  -13.4961   17.7783 H   0  0  0  0  0  0
  -27.8084  -11.3219   18.7877 H   0  0  0  0  0  0
  -27.3804  -12.6735   17.7739 H   0  0  0  0  0  0
  -27.6970  -14.2608   19.5709 H   0  0  0  0  0  0
  -28.6743  -11.9724   21.3433 H   0  0  0  0  0  0
  -28.4584  -13.6185   21.8581 H   0  0  0  0  0  0
  -25.2738   -9.5702   22.4776 H   0  0  0  0  0  0
  -24.0013   -7.4630   22.7453 H   0  0  0  0  0  0
  -21.0836   -8.8733   19.8937 H   0  0  0  0  0  0
  -22.3659  -10.9664   19.6166 H   0  0  0  0  0  0
  -21.1994   -7.6171   23.9736 H   0  0  0  0  0  0
  -21.1480   -6.0535   25.9087 H   0  0  0  0  0  0
  -22.0600   -2.7635   23.2817 H   0  0  0  0  0  0
  -22.4059  -11.9864   22.4786 H   0  0  0  0  0  0
  -21.1076  -13.1226   22.2672 H   0  0  0  0  0  0
  -24.6535  -15.8433   20.4664 H   0  0  0  0  0  0
  -26.2657  -15.5900   20.0141 H   0  0  0  0  0  0
  -26.7144  -32.5477   23.1140 H   0  0  0  0  0  0
  -25.0026  -33.9739   25.0426 H   0  0  0  0  0  0
  -22.6930  -31.3188   21.4158 H   0  0  0  0  0  0
  -23.3744  -35.9651   23.3255 H   0  0  0  0  0  0
  -24.3600  -36.9000   22.2071 H   0  0  0  0  0  0
  -23.7226  -37.6514   23.6693 H   0  0  0  0  0  0
  -26.0577  -31.5866   20.5984 H   0  0  0  0  0  0
  -26.8229  -30.8661   21.9857 H   0  0  0  0  0  0
  -28.0924  -29.0545   21.1668 H   0  0  0  0  0  0
  -25.9678  -26.0115   18.9214 H   0  0  0  0  0  0
  -23.9509  -27.3312   19.0109 H   0  0  0  0  0  0
  -23.7109  -30.6127   19.4069 H   0  0  0  0  0  0
  -22.7260  -29.2601   19.8697 H   0  0  0  0  0  0
  -25.1269  -36.1947   25.0832 H   0  0  0  0  0  0
  -20.9992  -28.3270   24.1396 H   0  0  0  0  0  0
  -20.5638  -26.2293   23.3641 H   0  0  0  0  0  0
  -21.6614  -26.7418   22.1204 H   0  0  0  0  0  0
  -19.6861  -25.6293   21.1257 H   0  0  0  0  0  0
  -19.6663  -27.3199   20.6769 H   0  0  0  0  0  0
  -17.4175  -26.6723   21.4035 H   0  0  0  0  0  0
  -18.0280  -26.0036   22.8997 H   0  0  0  0  0  0
  -19.7931  -30.7274   24.2268 H   0  0  0  0  0  0
  -17.5014  -31.6280   24.5169 H   0  0  0  0  0  0
  -15.5352  -30.3022   23.7635 H   0  0  0  0  0  0
  -15.8656  -28.0843   22.7088 H   0  0  0  0  0  0
  -24.5933  -30.7006   25.7837 H   0  0  0  0  0  0
  -24.8925  -32.2836   26.4930 H   0  0  0  0  0  0
  -25.8119  -30.8873   27.0230 H   0  0  0  0  0  0
  -26.2852  -29.6781   24.1188 H   0  0  0  0  0  0
  -27.4051  -29.7279   25.4621 H   0  0  0  0  0  0
  -27.8698  -30.4335   23.9300 H   0  0  0  0  0  0
  -27.2644  -33.3626   26.2018 H   0  0  0  0  0  0
  -28.3855  -32.6820   25.0303 H   0  0  0  0  0  0
  -28.0661  -31.8435   26.5429 H   0  0  0  0  0  0
  -28.2544  -38.0153   24.7560 H   0  0  0  0  0  0
  -28.1121  -36.2685   24.6169 H   0  0  0  0  0  0
  -27.2313  -37.1319   25.8864 H   0  0  0  0  0  0
  -20.9216  -29.8853   21.7012 H   0  0  0  0  0  0
  -26.0146  -38.2862   24.1481 H   0  0  0  0  0  0
  -27.6286  -16.9338   20.3184 H   0  0  0  0  0  0
  -27.0796  -21.1570   20.4843 H   0  0  0  0  0  0
  -31.3283  -16.9693   20.5541 H   0  0  0  0  0  0
  -33.4370  -19.8083   20.8376 H   0  0  0  0  0  0
  -32.2623  -20.7101   19.8861 H   0  0  0  0  0  0
  -32.4375  -18.9698   19.6554 H   0  0  0  0  0  0
  -31.6859  -18.6585   22.0988 H   0  0  0  0  0  0
  -31.4316  -20.3454   22.2194 H   0  0  0  0  0  0
  -29.9023  -22.6757   18.9990 H   0  0  0  0  0  0
  -28.2372  -22.5949   19.4735 H   0  0  0  0  0  0
  -27.2873  -24.8163   19.9476 H   0  0  0  0  0  0
  -28.3076  -25.1994   18.5729 H   0  0  0  0  0  0
  -30.6339  -21.9023   21.1340 H   0  0  0  0  0  0
  1 25  1  0  0  0
  1 30  2  0  0  0
  1 83  1  0  0  0
  2  3  1  0  0  0
  2 25  1  0  0  0
  2 87  1  0  0  0
  2 88  1  0  0  0
  3  4  1  0  0  0
  3 89  1  0  0  0
  3 90  1  0  0  0
  4  5  1  0  0  0
  4 91  1  0  0  0
  4 92  1  0  0  0
  5  6  1  0  0  0
  5 26  1  0  0  0
  5 93  1  0  0  0
  6 25  1  0  0  0
  6 94  1  0  0  0
  6 95  1  0  0  0
  7  8  2  0  0  0
  7 26  1  0  0  0
  7 29  1  0  0  0
  8  9  1  0  0  0
  8 22  1  0  0  0
  9 10  1  0  0  0
  9 27  2  0  0  0
 10 11  2  0  0  0
 10 15  1  0  0  0
 11 12  1  0  0  0
 11 96  1  0  0  0
 12 13  2  0  0  0
 12 97  1  0  0  0
 13 14  1  0  0  0
 13 31  1  0  0  0
 14 15  2  0  0  0
 14 98  1  0  0  0
 15 99  1  0  0  0
 16 17  2  0  0  0
 16 21  1  0  0  0
 16 31  1  0  0  0
 17 18  1  0  0  0
 17100  1  0  0  0
 18 19  2  0  0  0
 18101  1  0  0  0
 19 20  1  0  0  0
 19 24  1  0  0  0
 20 21  2  0  0  0
 20102  1  0  0  0
 21 23  1  0  0  0
 22 28  1  0  0  0
 22 32  2  0  0  0
 26 27  1  0  0  0
 28103  1  0  0  0
 28104  1  0  0  0
 29105  1  0  0  0
 29106  1  0  0  0
 33 34  1  0  0  0
 33 66  1  0  0  0
 33 70  2  0  0  0
 34 36  1  0  0  0
 34 59  1  0  0  0
 34107  1  0  0  0
 35 44  2  0  0  0
 35 45  1  0  0  0
 35 68  1  0  0  0
 36 56  1  0  0  0
 36108  1  0  0  0
 37 39  1  0  0  0
 37 47  1  0  0  0
 37 66  1  0  0  0
 37109  1  0  0  0
 38 43  2  0  0  0
 38 46  1  0  0  0
 38 47  1  0  0  0
 39 64  1  0  0  0
 39 67  2  0  0  0
 40 52  1  0  0  0
 40 53  2  0  0  0
 40 58  1  0  0  0
 41110  1  0  0  0
 41111  1  0  0  0
 41112  1  0  0  0
 41 48  1  0  0  0
 42 43  1  0  0  0
 42 66  1  0  0  0
 42113  1  0  0  0
 42114  1  0  0  0
 43 44  1  0  0  0
 44115  1  0  0  0
 45 46  2  0  0  0
 45116  1  0  0  0
 46117  1  0  0  0
 47118  1  0  0  0
 47119  1  0  0  0
 48 56  1  0  0  0
 48 65  1  0  0  0
 48120  1  0  0  0
 49 50  1  0  0  0
 49 53  1  0  0  0
 49 64  1  0  0  0
 49121  1  0  0  0
 50 51  1  0  0  0
 50122  1  0  0  0
 50123  1  0  0  0
 51 52  1  0  0  0
 51124  1  0  0  0
 51125  1  0  0  0
 52126  1  0  0  0
 52127  1  0  0  0
 53 54  1  0  0  0
 54 55  2  0  0  0
 54128  1  0  0  0
 55 57  1  0  0  0
 55129  1  0  0  0
 56 69  2  0  0  0
 57 58  2  0  0  0
 57130  1  0  0  0
 58131  1  0  0  0
 59 60  1  0  0  0
 59 61  1  0  0  0
 59 62  1  0  0  0
 60132  1  0  0  0
 60133  1  0  0  0
 60134  1  0  0  0
 61135  1  0  0  0
 61136  1  0  0  0
 61137  1  0  0  0
 62138  1  0  0  0
 62139  1  0  0  0
 62140  1  0  0  0
 63 65  1  0  0  0
 63141  1  0  0  0
 63142  1  0  0  0
 63143  1  0  0  0
 64144  1  0  0  0
 65145  1  0  0  0
 68 82  1  0  0  0
 71 73  2  0  0  0
 71 76  1  0  0  0
 71146  1  0  0  0
 72 75  1  0  0  0
 72 76  2  0  0  0
 72147  1  0  0  0
 73 74  1  0  0  0
 73 77  1  0  0  0
 74 75  2  0  0  0
 74 80  1  0  0  0
 75 84  1  0  0  0
 76 86  1  0  0  0
 77 83  2  0  0  0
 77148  1  0  0  0
 78 81  1  0  0  0
 78 82  1  0  0  0
 78 85  2  0  0  0
 79 80  1  0  0  0
 79149  1  0  0  0
 79150  1  0  0  0
 79151  1  0  0  0
 80152  1  0  0  0
 80153  1  0  0  0
 81 84  1  0  0  0
 81154  1  0  0  0
 81155  1  0  0  0
 82156  1  0  0  0
 82157  1  0  0  0
 84158  1  0  0  0
M  ISO  4   1 100  68 101  82 101  83 100
M  END
> <chiral flag>
0

> <version>
0

> <s_m_source_file>
/data/baiqing/PycharmProjects/Reinvent-master-3.2/result/LINK_invent/BTK/process_docking_weight1_custom_product_contain_oxygen_bond_distance_aromatic_linkinvent_7_9_3/rearranged_h_0170.sdf

> <i_m_source_file_index>
39

> <r_mmod_Potential_Energy-OPLS-2005>
8.59066486358643

> <r_mmod_Stretch_Energy-OPLS-2005>
50.6976737976074

> <r_mmod_Bend_Energy-OPLS-2005>
104.392768859863

> <r_mmod_Torsional_Energy-OPLS-2005>
176.833572387695

> <r_mmod_Improper_Torsional_Energy-OPLS-2005>
9.12275218963623

> <r_mmod_Van_der_Waal_Energy-OPLS-2005>
170.878845214844

> <r_mmod_Electrostatic_Energy-OPLS-2005>
-311.33984375

> <r_mmod_Solvation_Energy-OPLS-2005>
-212.55859375

> <b_mmod_Minimization_Converged-OPLS-2005>
0

> <r_mmod_RMS_Derivative-OPLS-2005>
3.5926775932312

$$$$
39
                    3D
 Structure written by MMmdl.
155163  0  0  1  0            999 V2000
  -30.6124  -14.7363   20.4930 C   0  0  0  0  0  0
  -30.4422  -12.4529   19.4851 C   0  0  0  0  0  0
  -29.5171  -12.5175   18.2471 C   0  0  0  0  0  0
  -28.0417  -12.3465   18.6541 C   0  0  0  0  0  0
  -27.6527  -13.2282   19.8697 C   0  0  2  0  0  0
  -28.6958  -13.1334   21.0059 C   0  0  0  0  0  0
  -25.2537  -13.8192   20.5693 C   0  0  0  0  0  0
  -24.1815  -13.0436   20.9206 C   0  0  0  0  0  0
  -24.6413  -11.6921   20.8753 C   0  0  0  0  0  0
  -23.9085  -10.4299   21.0421 C   0  0  0  0  0  0
  -24.3636   -9.4208   21.9194 C   0  0  0  0  0  0
  -23.6304   -8.2241   22.0763 C   0  0  0  0  0  0
  -22.4277   -8.0292   21.3559 C   0  0  0  0  0  0
  -21.9921   -9.0268   20.4653 C   0  0  0  0  0  0
  -22.7261  -10.2143   20.3067 C   0  0  0  0  0  0
  -21.6850   -6.0744   22.5283 C   0  0  0  0  0  0
  -21.4007   -6.5642   23.8217 C   0  0  0  0  0  0
  -21.3658   -5.6797   24.9179 C   0  0  0  0  0  0
  -21.6042   -4.3060   24.7228 C   0  0  0  0  0  0
  -21.8820   -3.8156   23.4348 C   0  0  0  0  0  0
  -21.9191   -4.6973   22.3406 C   0  0  0  0  0  0
  -22.7837  -13.5225   21.1854 C   0  0  0  0  0  0
  -22.1657   -4.2156   21.0981 F   0  0  0  0  0  0
  -21.5634   -3.4540   25.7739 F   0  0  0  0  0  0
  -30.0056  -13.4969   20.4457 N   0  0  0  0  0  0
  -26.2991  -12.9397   20.3360 N   0  0  0  0  0  0
  -25.9352  -11.6545   20.5792 N   0  0  0  0  0  0
  -22.0467  -12.8227   22.0408 N   0  0  0  0  0  0
  -25.4218  -15.1908   20.4062 N   0  0  0  0  0  0
  -31.7536  -14.8783   20.0451 O   0  0  0  0  0  0
  -21.6640   -6.8888   21.4248 O   0  0  0  0  0  0
  -22.3527  -14.5525   20.6691 O   0  0  0  0  0  0
  -24.6341  -31.8543   23.2017 C   0  0  0  0  0  0
  -25.9148  -32.4754   23.8367 C   0  0  1  0  0  0
  -27.2032  -27.2256   20.1426 C   0  0  0  0  0  0
  -25.5938  -33.8558   24.2281 N   0  0  0  0  0  0
  -23.4343  -30.4801   21.5435 C   0  0  2  0  0  0
  -24.8827  -28.9349   20.1080 C   0  0  0  0  0  0
  -22.7528  -29.4590   22.4885 C   0  0  0  0  0  0
  -18.0299  -28.1383   22.8474 C   0  0  0  0  0  0
  -24.1492  -36.7296   23.2644 C   0  0  0  0  0  0
  -25.9849  -30.7508   21.3990 C   0  0  0  0  0  0
  -26.0524  -29.3723   20.7421 C   0  0  0  0  0  0
  -27.2149  -28.5264   20.7605 C   0  0  0  0  0  0
  -26.0446  -26.9245   19.3959 C   0  0  0  0  0  0
  -24.8868  -27.7185   19.4183 C   0  0  0  0  0  0
  -23.6562  -29.8229   20.1572 C   0  0  0  0  0  0
  -25.4118  -36.3076   24.0333 C   0  0  1  0  0  0
  -20.5904  -28.3699   23.1246 C   0  0  2  0  0  0
  -20.6776  -26.9409   22.5398 C   0  0  0  0  0  0
  -19.5750  -26.6376   21.5202 C   0  0  0  0  0  0
  -18.1939  -26.7921   22.1625 C   0  0  0  0  0  0
  -19.1552  -28.8860   23.2855 C   0  0  0  0  0  0
  -18.9469  -30.1460   23.8878 C   0  0  0  0  0  0
  -17.6464  -30.6578   24.0559 C   0  0  0  0  0  0
  -25.9054  -34.9440   23.5109 C   0  0  0  0  0  0
  -16.5358  -29.9071   23.6331 C   0  0  0  0  0  0
  -16.7285  -28.6492   23.0347 C   0  0  0  0  0  0
  -26.4500  -31.6587   25.0772 C   0  0  0  0  0  0
  -25.3705  -31.3738   26.1484 C   0  0  0  0  0  0
  -27.0375  -30.3002   24.6306 C   0  0  0  0  0  0
  -27.6051  -32.4334   25.7531 C   0  0  0  0  0  0
  -27.5585  -37.1812   24.8463 C   0  0  0  0  0  0
  -21.4230  -29.3045   22.3638 N   0  0  0  0  0  0
  -26.4298  -37.3772   23.9402 N   0  0  0  0  0  0
  -24.7030  -31.0476   22.1030 N   0  0  0  0  0  0
  -23.4219  -28.8110   23.2974 O   0  0  0  0  0  0
  -28.2487  -26.2592   20.2015 O   0  0  0  0  0  0
  -26.5620  -34.8908   22.4676 O   0  0  0  0  0  0
  -23.5481  -32.1383   23.7280 O   0  0  0  0  0  0
  -28.9269  -19.5982   19.0026 C   0  0  0  0  0  0
  -28.7850  -18.3414   18.3777 C   0  0  0  0  0  0
  -29.4613  -19.7218   20.3035 C   0  0  0  0  0  0
  -29.6874  -17.1515   20.3311 C   0  0  0  0  0  0
  -29.1627  -17.1452   19.0187 C   0  0  0  0  0  0
  -29.8229  -18.4629   20.9642 C   0  0  0  0  0  0
  -29.6998  -21.1629   20.8139 C   0  0  0  0  0  0
  -29.1713  -23.7638   20.7165 C   0  0  0  0  0  0
  -26.7036  -24.1081   20.1094 C   0  0  0  0  0  0
  -27.9556  -24.8265   20.6698 C   0  0  2  0  0  0
  -29.9068  -15.8267   20.9730 N   0  0  0  0  0  0
  -28.9154  -22.2856   20.5188 N   0  0  0  0  0  0
  -30.7926  -21.3523   21.5600 N   0  3  0  0  0  0
  -30.3143  -24.1510   20.9852 O   0  0  0  0  0  0
  -28.9668  -15.9720   18.3690 F   0  0  0  0  0  0
  -30.3327  -18.5114   22.2202 F   0  0  0  0  0  0
  -31.4817  -12.5839   19.1792 H   0  0  0  0  0  0
  -30.3982  -11.4684   19.9529 H   0  0  0  0  0  0
  -29.7976  -11.7465   17.5281 H   0  0  0  0  0  0
  -29.6476  -13.4729   17.7365 H   0  0  0  0  0  0
  -27.8887  -11.2946   18.8982 H   0  0  0  0  0  0
  -27.3889  -12.5596   17.8064 H   0  0  0  0  0  0
  -27.6536  -14.2556   19.5131 H   0  0  0  0  0  0
  -28.7256  -12.1219   21.4138 H   0  0  0  0  0  0
  -28.4240  -13.7840   21.8375 H   0  0  0  0  0  0
  -25.2792   -9.5656   22.4762 H   0  0  0  0  0  0
  -24.0005   -7.4621   22.7487 H   0  0  0  0  0  0
  -21.0851   -8.8810   19.8953 H   0  0  0  0  0  0
  -22.3755  -10.9684   19.6164 H   0  0  0  0  0  0
  -21.1998   -7.6146   23.9721 H   0  0  0  0  0  0
  -21.1472   -6.0521   25.9077 H   0  0  0  0  0  0
  -22.0600   -2.7612   23.2848 H   0  0  0  0  0  0
  -22.4088  -11.9892   22.4799 H   0  0  0  0  0  0
  -21.1077  -13.1251   22.2599 H   0  0  0  0  0  0
  -24.6509  -15.8417   20.5120 H   0  0  0  0  0  0
  -26.2624  -15.6233   20.0458 H   0  0  0  0  0  0
  -26.7209  -32.5389   23.1104 H   0  0  0  0  0  0
  -25.0080  -33.9689   25.0422 H   0  0  0  0  0  0
  -22.7336  -31.3050   21.3987 H   0  0  0  0  0  0
  -23.3751  -35.9630   23.3297 H   0  0  0  0  0  0
  -24.3588  -36.8927   22.2060 H   0  0  0  0  0  0
  -23.7239  -37.6499   23.6663 H   0  0  0  0  0  0
  -26.1379  -31.5069   20.6282 H   0  0  0  0  0  0
  -26.8581  -30.7959   22.0372 H   0  0  0  0  0  0
  -28.1003  -28.8470   21.2915 H   0  0  0  0  0  0
  -26.0065  -26.0494   18.7691 H   0  0  0  0  0  0
  -24.0111  -27.4010   18.8679 H   0  0  0  0  0  0
  -23.7863  -30.6029   19.4061 H   0  0  0  0  0  0
  -22.7752  -29.2585   19.8470 H   0  0  0  0  0  0
  -25.1294  -36.1951   25.0826 H   0  0  0  0  0  0
  -20.9999  -28.3275   24.1362 H   0  0  0  0  0  0
  -20.5659  -26.2310   23.3608 H   0  0  0  0  0  0
  -21.6645  -26.7405   22.1206 H   0  0  0  0  0  0
  -19.6906  -25.6279   21.1249 H   0  0  0  0  0  0
  -19.6694  -27.3167   20.6717 H   0  0  0  0  0  0
  -17.4205  -26.6655   21.4040 H   0  0  0  0  0  0
  -18.0349  -26.0069   22.9029 H   0  0  0  0  0  0
  -19.7945  -30.7278   24.2244 H   0  0  0  0  0  0
  -17.5016  -31.6256   24.5158 H   0  0  0  0  0  0
  -15.5355  -30.2961   23.7659 H   0  0  0  0  0  0
  -15.8691  -28.0806   22.7058 H   0  0  0  0  0  0
  -24.5870  -30.7106   25.7796 H   0  0  0  0  0  0
  -24.8915  -32.2908   26.4924 H   0  0  0  0  0  0
  -25.8014  -30.8895   27.0257 H   0  0  0  0  0  0
  -26.3000  -29.6735   24.1285 H   0  0  0  0  0  0
  -27.3983  -29.7289   25.4865 H   0  0  0  0  0  0
  -27.8900  -30.4274   23.9632 H   0  0  0  0  0  0
  -27.2656  -33.3617   26.2135 H   0  0  0  0  0  0
  -28.3840  -32.6928   25.0346 H   0  0  0  0  0  0
  -28.0748  -31.8456   26.5430 H   0  0  0  0  0  0
  -28.2602  -38.0111   24.7507 H   0  0  0  0  0  0
  -28.1087  -36.2644   24.6293 H   0  0  0  0  0  0
  -27.2304  -37.1460   25.8866 H   0  0  0  0  0  0
  -20.9410  -29.8827   21.6891 H   0  0  0  0  0  0
  -26.0191  -38.2859   24.1375 H   0  0  0  0  0  0
  -28.6415  -20.4792   18.4454 H   0  0  0  0  0  0
  -28.3732  -18.2894   17.3803 H   0  0  0  0  0  0
  -25.7851  -24.6164   20.3932 H   0  0  0  0  0  0
  -26.5620  -23.1115   20.5259 H   0  0  0  0  0  0
  -26.7497  -24.0061   19.0250 H   0  0  0  0  0  0
  -27.7385  -24.9712   21.7281 H   0  0  0  0  0  0
  -29.1494  -15.5574   21.5807 H   0  0  0  0  0  0
  -28.0033  -21.9961   20.2005 H   0  0  0  0  0  0
  -31.0646  -22.2896   21.8226 H   0  0  0  0  0  0
  -31.3454  -20.5632   21.8602 H   0  0  0  0  0  0
  1 25  1  0  0  0
  1 30  2  0  0  0
  1 81  1  0  0  0
  2  3  1  0  0  0
  2 25  1  0  0  0
  2 87  1  0  0  0
  2 88  1  0  0  0
  3  4  1  0  0  0
  3 89  1  0  0  0
  3 90  1  0  0  0
  4  5  1  0  0  0
  4 91  1  0  0  0
  4 92  1  0  0  0
  5  6  1  0  0  0
  5 26  1  0  0  0
  5 93  1  0  0  0
  6 25  1  0  0  0
  6 94  1  0  0  0
  6 95  1  0  0  0
  7  8  2  0  0  0
  7 26  1  0  0  0
  7 29  1  0  0  0
  8  9  1  0  0  0
  8 22  1  0  0  0
  9 10  1  0  0  0
  9 27  2  0  0  0
 10 11  2  0  0  0
 10 15  1  0  0  0
 11 12  1  0  0  0
 11 96  1  0  0  0
 12 13  2  0  0  0
 12 97  1  0  0  0
 13 14  1  0  0  0
 13 31  1  0  0  0
 14 15  2  0  0  0
 14 98  1  0  0  0
 15 99  1  0  0  0
 16 17  2  0  0  0
 16 21  1  0  0  0
 16 31  1  0  0  0
 17 18  1  0  0  0
 17100  1  0  0  0
 18 19  2  0  0  0
 18101  1  0  0  0
 19 20  1  0  0  0
 19 24  1  0  0  0
 20 21  2  0  0  0
 20102  1  0  0  0
 21 23  1  0  0  0
 22 28  1  0  0  0
 22 32  2  0  0  0
 26 27  1  0  0  0
 28103  1  0  0  0
 28104  1  0  0  0
 29105  1  0  0  0
 29106  1  0  0  0
 33 34  1  0  0  0
 33 66  1  0  0  0
 33 70  2  0  0  0
 34 36  1  0  0  0
 34 59  1  0  0  0
 34107  1  0  0  0
 35 44  2  0  0  0
 35 45  1  0  0  0
 35 68  1  0  0  0
 36 56  1  0  0  0
 36108  1  0  0  0
 37 39  1  0  0  0
 37 47  1  0  0  0
 37 66  1  0  0  0
 37109  1  0  0  0
 38 43  2  0  0  0
 38 46  1  0  0  0
 38 47  1  0  0  0
 39 64  1  0  0  0
 39 67  2  0  0  0
 40 52  1  0  0  0
 40 53  2  0  0  0
 40 58  1  0  0  0
 41110  1  0  0  0
 41111  1  0  0  0
 41112  1  0  0  0
 41 48  1  0  0  0
 42 43  1  0  0  0
 42 66  1  0  0  0
 42113  1  0  0  0
 42114  1  0  0  0
 43 44  1  0  0  0
 44115  1  0  0  0
 45 46  2  0  0  0
 45116  1  0  0  0
 46117  1  0  0  0
 47118  1  0  0  0
 47119  1  0  0  0
 48 56  1  0  0  0
 48 65  1  0  0  0
 48120  1  0  0  0
 49 50  1  0  0  0
 49 53  1  0  0  0
 49 64  1  0  0  0
 49121  1  0  0  0
 50 51  1  0  0  0
 50122  1  0  0  0
 50123  1  0  0  0
 51 52  1  0  0  0
 51124  1  0  0  0
 51125  1  0  0  0
 52126  1  0  0  0
 52127  1  0  0  0
 53 54  1  0  0  0
 54 55  2  0  0  0
 54128  1  0  0  0
 55 57  1  0  0  0
 55129  1  0  0  0
 56 69  2  0  0  0
 57 58  2  0  0  0
 57130  1  0  0  0
 58131  1  0  0  0
 59 60  1  0  0  0
 59 61  1  0  0  0
 59 62  1  0  0  0
 60132  1  0  0  0
 60133  1  0  0  0
 60134  1  0  0  0
 61135  1  0  0  0
 61136  1  0  0  0
 61137  1  0  0  0
 62138  1  0  0  0
 62139  1  0  0  0
 62140  1  0  0  0
 63 65  1  0  0  0
 63141  1  0  0  0
 63142  1  0  0  0
 63143  1  0  0  0
 64144  1  0  0  0
 65145  1  0  0  0
 68 80  1  0  0  0
 71 72  2  0  0  0
 71 73  1  0  0  0
 71146  1  0  0  0
 72 75  1  0  0  0
 72147  1  0  0  0
 73 76  2  0  0  0
 73 77  1  0  0  0
 74 75  2  0  0  0
 74 76  1  0  0  0
 74 81  1  0  0  0
 75 85  1  0  0  0
 76 86  1  0  0  0
 77 82  1  0  0  0
 77 83  2  0  0  0
 78 80  1  0  0  0
 78 82  1  0  0  0
 78 84  2  0  0  0
 79148  1  0  0  0
 79149  1  0  0  0
 79150  1  0  0  0
 79 80  1  0  0  0
 80151  1  0  0  0
 81152  1  0  0  0
 82153  1  0  0  0
 83154  1  0  0  0
 83155  1  0  0  0
M  CHG  1  83   1
M  ISO  4   1 100  68 101  80 101  81 100
M  END
> <chiral flag>
0

> <version>
0

> <s_m_source_file>
/data/baiqing/PycharmProjects/Reinvent-master-3.2/result/LINK_invent/BTK/process_docking_weight1_custom_product_contain_oxygen_bond_distance_aromatic_linkinvent_7_9_3/rearranged_h_0170.sdf

> <i_m_source_file_index>
40

> <r_mmod_Potential_Energy-OPLS-2005>
-94.9091186523438

> <r_mmod_Stretch_Energy-OPLS-2005>
145.704849243164

> <r_mmod_Bend_Energy-OPLS-2005>
183.340423583984

> <r_mmod_Torsional_Energy-OPLS-2005>
279.45556640625

> <r_mmod_Improper_Torsional_Energy-OPLS-2005>
6.13783931732178

> <r_mmod_Van_der_Waal_Energy-OPLS-2005>
155.668212890625

> <r_mmod_Electrostatic_Energy-OPLS-2005>
-485.116668701172

> <r_mmod_Solvation_Energy-OPLS-2005>
-479.168151855469

> <b_mmod_Minimization_Converged-OPLS-2005>
0

> <r_mmod_RMS_Derivative-OPLS-2005>
2.14761209487915

$$$$
40
                    3D
 Structure written by MMmdl.
156164  0  0  1  0            999 V2000
  -30.5985  -14.7304   20.4304 C   0  0  0  0  0  0
  -30.4429  -12.4370   19.4584 C   0  0  0  0  0  0
  -29.5103  -12.4902   18.2253 C   0  0  0  0  0  0
  -28.0372  -12.3085   18.6462 C   0  0  0  0  0  0
  -27.6449  -13.2146   19.8430 C   0  0  2  0  0  0
  -28.6959  -13.1440   20.9742 C   0  0  0  0  0  0
  -25.2556  -13.8148   20.5699 C   0  0  0  0  0  0
  -24.1826  -13.0426   20.9206 C   0  0  0  0  0  0
  -24.6388  -11.6898   20.8729 C   0  0  0  0  0  0
  -23.9047  -10.4295   21.0391 C   0  0  0  0  0  0
  -24.3596   -9.4222   21.9180 C   0  0  0  0  0  0
  -23.6284   -8.2250   22.0755 C   0  0  0  0  0  0
  -22.4270   -8.0276   21.3538 C   0  0  0  0  0  0
  -21.9896   -9.0242   20.4636 C   0  0  0  0  0  0
  -22.7215  -10.2127   20.3042 C   0  0  0  0  0  0
  -21.6843   -6.0731   22.5278 C   0  0  0  0  0  0
  -21.4018   -6.5636   23.8213 C   0  0  0  0  0  0
  -21.3667   -5.6787   24.9167 C   0  0  0  0  0  0
  -21.6030   -4.3047   24.7218 C   0  0  0  0  0  0
  -21.8826   -3.8145   23.4339 C   0  0  0  0  0  0
  -21.9203   -4.6960   22.3393 C   0  0  0  0  0  0
  -22.7862  -13.5244   21.1858 C   0  0  0  0  0  0
  -22.1667   -4.2142   21.0974 F   0  0  0  0  0  0
  -21.5628   -3.4531   25.7735 F   0  0  0  0  0  0
  -30.0006  -13.4915   20.3920 N   0  0  0  0  0  0
  -26.2964  -12.9323   20.3268 N   0  0  0  0  0  0
  -25.9303  -11.6487   20.5721 N   0  0  0  0  0  0
  -22.0487  -12.8235   22.0389 N   0  0  0  0  0  0
  -25.4224  -15.1883   20.4143 N   0  0  0  0  0  0
  -31.7950  -14.8546   20.1557 O   0  0  0  0  0  0
  -21.6642   -6.8868   21.4236 O   0  0  0  0  0  0
  -22.3564  -14.5555   20.6704 O   0  0  0  0  0  0
  -24.6320  -31.8561   23.2022 C   0  0  0  0  0  0
  -25.9178  -32.4738   23.8348 C   0  0  1  0  0  0
  -27.2094  -27.2632   20.1295 C   0  0  0  0  0  0
  -25.6013  -33.8555   24.2289 N   0  0  0  0  0  0
  -23.4278  -30.4778   21.5447 C   0  0  2  0  0  0
  -24.8697  -28.9202   20.1158 C   0  0  0  0  0  0
  -22.7513  -29.4575   22.4909 C   0  0  0  0  0  0
  -18.0289  -28.1368   22.8463 C   0  0  0  0  0  0
  -24.1502  -36.7265   23.2643 C   0  0  0  0  0  0
  -25.9706  -30.7652   21.3842 C   0  0  0  0  0  0
  -26.0413  -29.3859   20.7265 C   0  0  0  0  0  0
  -27.2169  -28.5707   20.7212 C   0  0  0  0  0  0
  -26.0128  -26.8504   19.5114 C   0  0  0  0  0  0
  -24.8575  -27.6580   19.4988 C   0  0  0  0  0  0
  -23.6478  -29.8161   20.1585 C   0  0  0  0  0  0
  -25.4117  -36.3034   24.0320 C   0  0  1  0  0  0
  -20.5889  -28.3679   23.1259 C   0  0  2  0  0  0
  -20.6776  -26.9409   22.5389 C   0  0  0  0  0  0
  -19.5769  -26.6373   21.5190 C   0  0  0  0  0  0
  -18.1931  -26.7909   22.1578 C   0  0  0  0  0  0
  -19.1540  -28.8837   23.2851 C   0  0  0  0  0  0
  -18.9468  -30.1442   23.8864 C   0  0  0  0  0  0
  -17.6462  -30.6577   24.0547 C   0  0  0  0  0  0
  -25.9075  -34.9420   23.5084 C   0  0  0  0  0  0
  -16.5365  -29.9071   23.6307 C   0  0  0  0  0  0
  -16.7269  -28.6488   23.0331 C   0  0  0  0  0  0
  -26.4553  -31.6569   25.0737 C   0  0  0  0  0  0
  -25.3783  -31.3714   26.1466 C   0  0  0  0  0  0
  -27.0393  -30.2984   24.6198 C   0  0  0  0  0  0
  -27.6107  -32.4316   25.7505 C   0  0  0  0  0  0
  -27.5580  -37.1775   24.8466 C   0  0  0  0  0  0
  -21.4228  -29.3040   22.3684 N   0  0  0  0  0  0
  -26.4276  -37.3743   23.9407 N   0  0  0  0  0  0
  -24.6954  -31.0509   22.1000 N   0  0  0  0  0  0
  -23.4211  -28.8075   23.2978 O   0  0  0  0  0  0
  -28.3166  -26.3945   20.1070 O   0  0  0  0  0  0
  -26.5596  -34.8914   22.4615 O   0  0  0  0  0  0
  -23.5483  -32.1410   23.7302 O   0  0  0  0  0  0
  -30.7464  -19.4187   20.4963 C   0  0  0  0  0  0
  -29.4563  -19.8336   20.1733 C   0  0  0  0  0  0
  -29.8496  -17.2653   20.4115 C   0  0  0  0  0  0
  -29.0368  -22.3456   20.4747 C   0  0  0  0  0  0
  -32.3995  -20.3371   22.1377 C   0  0  0  0  0  0
  -27.0479  -23.2603   19.1152 C   0  0  0  0  0  0
  -31.9396  -20.3059   20.6772 C   0  0  0  0  0  0
  -28.1993  -25.0090   20.6702 C   0  0  0  0  0  0
  -28.3817  -23.6486   19.7966 C   0  0  1  0  0  0
  -30.9475  -18.0084   20.6229 N   0  0  0  0  0  0
  -28.9411  -21.1035   19.8686 N   0  0  0  0  0  0
  -29.7346  -15.8017   20.5416 N   0  0  0  0  0  0
  -29.6296  -22.4719   21.5482 O   0  0  0  0  0  0
  -28.4736  -18.3514   20.0260 S   0  0  0  0  0  0
  -31.4826  -12.5679   19.1551 H   0  0  0  0  0  0
  -30.3870  -11.4602   19.9428 H   0  0  0  0  0  0
  -29.7903  -11.7156   17.5083 H   0  0  0  0  0  0
  -29.6251  -13.4422   17.7041 H   0  0  0  0  0  0
  -27.9016  -11.2606   18.9184 H   0  0  0  0  0  0
  -27.3729  -12.4859   17.7992 H   0  0  0  0  0  0
  -27.6365  -14.2303   19.4506 H   0  0  0  0  0  0
  -28.7313  -12.1453   21.4095 H   0  0  0  0  0  0
  -28.4352  -13.8190   21.7906 H   0  0  0  0  0  0
  -25.2723   -9.5722   22.4764 H   0  0  0  0  0  0
  -23.9989   -7.4653   22.7483 H   0  0  0  0  0  0
  -21.0825   -8.8745   19.8941 H   0  0  0  0  0  0
  -22.3647  -10.9669   19.6152 H   0  0  0  0  0  0
  -21.2003   -7.6140   23.9707 H   0  0  0  0  0  0
  -21.1482   -6.0517   25.9072 H   0  0  0  0  0  0
  -22.0598   -2.7607   23.2839 H   0  0  0  0  0  0
  -22.4090  -11.9885   22.4777 H   0  0  0  0  0  0
  -21.1093  -13.1276   22.2567 H   0  0  0  0  0  0
  -24.6393  -15.8249   20.5149 H   0  0  0  0  0  0
  -26.2500  -15.6410   20.0520 H   0  0  0  0  0  0
  -26.7230  -32.5369   23.1086 H   0  0  0  0  0  0
  -25.0290  -33.9697   25.0512 H   0  0  0  0  0  0
  -22.7231  -31.2995   21.4025 H   0  0  0  0  0  0
  -23.3777  -35.9583   23.3263 H   0  0  0  0  0  0
  -24.3632  -36.8924   22.2073 H   0  0  0  0  0  0
  -23.7232  -37.6439   23.6684 H   0  0  0  0  0  0
  -26.1128  -31.5265   20.6176 H   0  0  0  0  0  0
  -26.8478  -30.8083   22.0183 H   0  0  0  0  0  0
  -28.1192  -28.9232   21.2031 H   0  0  0  0  0  0
  -25.9601  -25.8860   19.0334 H   0  0  0  0  0  0
  -23.9580  -27.2977   19.0192 H   0  0  0  0  0  0
  -23.7868  -30.5987   19.4099 H   0  0  0  0  0  0
  -22.7606  -29.2628   19.8435 H   0  0  0  0  0  0
  -25.1287  -36.1890   25.0799 H   0  0  0  0  0  0
  -20.9933  -28.3253   24.1405 H   0  0  0  0  0  0
  -20.5702  -26.2300   23.3583 H   0  0  0  0  0  0
  -21.6651  -26.7467   22.1179 H   0  0  0  0  0  0
  -19.6964  -25.6278   21.1256 H   0  0  0  0  0  0
  -19.6726  -27.3154   20.6686 H   0  0  0  0  0  0
  -17.4216  -26.6664   21.3984 H   0  0  0  0  0  0
  -18.0324  -26.0054   22.8971 H   0  0  0  0  0  0
  -19.7971  -30.7236   24.2258 H   0  0  0  0  0  0
  -17.5046  -31.6269   24.5148 H   0  0  0  0  0  0
  -15.5364  -30.2954   23.7686 H   0  0  0  0  0  0
  -15.8672  -28.0827   22.7017 H   0  0  0  0  0  0
  -24.6009  -30.6961   25.7848 H   0  0  0  0  0  0
  -24.8902  -32.2872   26.4835 H   0  0  0  0  0  0
  -25.8150  -30.9007   27.0292 H   0  0  0  0  0  0
  -26.2945  -29.6716   24.1263 H   0  0  0  0  0  0
  -27.4142  -29.7265   25.4698 H   0  0  0  0  0  0
  -27.8812  -30.4282   23.9383 H   0  0  0  0  0  0
  -27.2715  -33.3675   26.1979 H   0  0  0  0  0  0
  -28.3952  -32.6785   25.0335 H   0  0  0  0  0  0
  -28.0695  -31.8494   26.5506 H   0  0  0  0  0  0
  -28.2546  -38.0129   24.7518 H   0  0  0  0  0  0
  -28.1121  -36.2638   24.6250 H   0  0  0  0  0  0
  -27.2304  -37.1352   25.8879 H   0  0  0  0  0  0
  -20.9413  -29.8831   21.6968 H   0  0  0  0  0  0
  -26.0167  -38.2805   24.1467 H   0  0  0  0  0  0
  -33.2596  -20.9920   22.2674 H   0  0  0  0  0  0
  -32.6817  -19.3423   22.4797 H   0  0  0  0  0  0
  -31.5973  -20.6958   22.7825 H   0  0  0  0  0  0
  -27.0890  -22.2987   18.6048 H   0  0  0  0  0  0
  -26.7697  -23.9887   18.3586 H   0  0  0  0  0  0
  -26.2345  -23.1975   19.8389 H   0  0  0  0  0  0
  -31.7082  -21.3198   20.3530 H   0  0  0  0  0  0
  -32.7573  -19.9783   20.0348 H   0  0  0  0  0  0
  -28.9635  -24.9918   21.4452 H   0  0  0  0  0  0
  -27.2647  -24.9360   21.2288 H   0  0  0  0  0  0
  -29.0898  -23.9005   19.0056 H   0  0  0  0  0  0
  -28.3296  -21.1177   19.0640 H   0  0  0  0  0  0
  -28.7812  -15.4934   20.6308 H   0  0  0  0  0  0
  1 25  1  0  0  0
  1 30  2  0  0  0
  1 82  1  0  0  0
  2  3  1  0  0  0
  2 25  1  0  0  0
  2 85  1  0  0  0
  2 86  1  0  0  0
  3  4  1  0  0  0
  3 87  1  0  0  0
  3 88  1  0  0  0
  4  5  1  0  0  0
  4 89  1  0  0  0
  4 90  1  0  0  0
  5  6  1  0  0  0
  5 26  1  0  0  0
  5 91  1  0  0  0
  6 25  1  0  0  0
  6 92  1  0  0  0
  6 93  1  0  0  0
  7  8  2  0  0  0
  7 26  1  0  0  0
  7 29  1  0  0  0
  8  9  1  0  0  0
  8 22  1  0  0  0
  9 10  1  0  0  0
  9 27  2  0  0  0
 10 11  2  0  0  0
 10 15  1  0  0  0
 11 12  1  0  0  0
 11 94  1  0  0  0
 12 13  2  0  0  0
 12 95  1  0  0  0
 13 14  1  0  0  0
 13 31  1  0  0  0
 14 15  2  0  0  0
 14 96  1  0  0  0
 15 97  1  0  0  0
 16 17  2  0  0  0
 16 21  1  0  0  0
 16 31  1  0  0  0
 17 18  1  0  0  0
 17 98  1  0  0  0
 18 19  2  0  0  0
 18 99  1  0  0  0
 19 20  1  0  0  0
 19 24  1  0  0  0
 20 21  2  0  0  0
 20100  1  0  0  0
 21 23  1  0  0  0
 22 28  1  0  0  0
 22 32  2  0  0  0
 26 27  1  0  0  0
 28101  1  0  0  0
 28102  1  0  0  0
 29103  1  0  0  0
 29104  1  0  0  0
 33 34  1  0  0  0
 33 66  1  0  0  0
 33 70  2  0  0  0
 34 36  1  0  0  0
 34 59  1  0  0  0
 34105  1  0  0  0
 35 44  2  0  0  0
 35 45  1  0  0  0
 35 68  1  0  0  0
 36 56  1  0  0  0
 36106  1  0  0  0
 37 39  1  0  0  0
 37 47  1  0  0  0
 37 66  1  0  0  0
 37107  1  0  0  0
 38 43  2  0  0  0
 38 46  1  0  0  0
 38 47  1  0  0  0
 39 64  1  0  0  0
 39 67  2  0  0  0
 40 52  1  0  0  0
 40 53  2  0  0  0
 40 58  1  0  0  0
 41108  1  0  0  0
 41109  1  0  0  0
 41110  1  0  0  0
 41 48  1  0  0  0
 42 43  1  0  0  0
 42 66  1  0  0  0
 42111  1  0  0  0
 42112  1  0  0  0
 43 44  1  0  0  0
 44113  1  0  0  0
 45 46  2  0  0  0
 45114  1  0  0  0
 46115  1  0  0  0
 47116  1  0  0  0
 47117  1  0  0  0
 48 56  1  0  0  0
 48 65  1  0  0  0
 48118  1  0  0  0
 49 50  1  0  0  0
 49 53  1  0  0  0
 49 64  1  0  0  0
 49119  1  0  0  0
 50 51  1  0  0  0
 50120  1  0  0  0
 50121  1  0  0  0
 51 52  1  0  0  0
 51122  1  0  0  0
 51123  1  0  0  0
 52124  1  0  0  0
 52125  1  0  0  0
 53 54  1  0  0  0
 54 55  2  0  0  0
 54126  1  0  0  0
 55 57  1  0  0  0
 55127  1  0  0  0
 56 69  2  0  0  0
 57 58  2  0  0  0
 57128  1  0  0  0
 58129  1  0  0  0
 59 60  1  0  0  0
 59 61  1  0  0  0
 59 62  1  0  0  0
 60130  1  0  0  0
 60131  1  0  0  0
 60132  1  0  0  0
 61133  1  0  0  0
 61134  1  0  0  0
 61135  1  0  0  0
 62136  1  0  0  0
 62137  1  0  0  0
 62138  1  0  0  0
 63 65  1  0  0  0
 63139  1  0  0  0
 63140  1  0  0  0
 63141  1  0  0  0
 64142  1  0  0  0
 65143  1  0  0  0
 68 78  1  0  0  0
 71 72  2  0  0  0
 71 77  1  0  0  0
 71 80  1  0  0  0
 72 81  1  0  0  0
 72 84  1  0  0  0
 73 80  2  0  0  0
 73 82  1  0  0  0
 73 84  1  0  0  0
 74 79  1  0  0  0
 74 81  1  0  0  0
 74 83  2  0  0  0
 75 77  1  0  0  0
 75144  1  0  0  0
 75145  1  0  0  0
 75146  1  0  0  0
 76147  1  0  0  0
 76148  1  0  0  0
 76149  1  0  0  0
 76 79  1  0  0  0
 77150  1  0  0  0
 77151  1  0  0  0
 78 79  1  0  0  0
 78152  1  0  0  0
 78153  1  0  0  0
 79154  1  0  0  0
 81155  1  0  0  0
 82156  1  0  0  0
M  ISO  4   1 100  68 101  78 101  82 100
M  END
> <chiral flag>
0

> <version>
0

> <s_m_source_file>
/data/baiqing/PycharmProjects/Reinvent-master-3.2/result/LINK_invent/BTK/process_docking_weight1_custom_product_contain_oxygen_bond_distance_aromatic_linkinvent_7_9_3/rearranged_h_0170.sdf

> <i_m_source_file_index>
41

> <r_mmod_Potential_Energy-OPLS-2005>
56.8039016723633

> <r_mmod_Stretch_Energy-OPLS-2005>
102.355857849121

> <r_mmod_Bend_Energy-OPLS-2005>
175.105270385742

> <r_mmod_Torsional_Energy-OPLS-2005>
252.437103271484

> <r_mmod_Improper_Torsional_Energy-OPLS-2005>
6.4157338142395

> <r_mmod_Van_der_Waal_Energy-OPLS-2005>
111.76749420166

> <r_mmod_Electrostatic_Energy-OPLS-2005>
-427.662750244141

> <r_mmod_Solvation_Energy-OPLS-2005>
-243.976928710938

> <b_mmod_Minimization_Converged-OPLS-2005>
0

> <r_mmod_RMS_Derivative-OPLS-2005>
4.16309452056885

$$$$
41
                    3D
 Structure written by MMmdl.
164173  0  0  1  0            999 V2000
  -30.6649  -14.5504   20.5371 C   0  0  0  0  0  0
  -30.4309  -12.3425   19.4378 C   0  0  0  0  0  0
  -29.5003  -12.5004   18.2153 C   0  0  0  0  0  0
  -28.0220  -12.3540   18.6275 C   0  0  0  0  0  0
  -27.6583  -13.2092   19.8705 C   0  0  2  0  0  0
  -28.7021  -13.0226   20.9956 C   0  0  0  0  0  0
  -25.2584  -13.8161   20.5691 C   0  0  0  0  0  0
  -24.1841  -13.0439   20.9190 C   0  0  0  0  0  0
  -24.6393  -11.6908   20.8744 C   0  0  0  0  0  0
  -23.9060  -10.4292   21.0410 C   0  0  0  0  0  0
  -24.3610   -9.4204   21.9185 C   0  0  0  0  0  0
  -23.6286   -8.2242   22.0750 C   0  0  0  0  0  0
  -22.4267   -8.0282   21.3539 C   0  0  0  0  0  0
  -21.9901   -9.0258   20.4644 C   0  0  0  0  0  0
  -22.7230  -10.2140   20.3057 C   0  0  0  0  0  0
  -21.6852   -6.0736   22.5279 C   0  0  0  0  0  0
  -21.4016   -6.5644   23.8213 C   0  0  0  0  0  0
  -21.3657   -5.6794   24.9174 C   0  0  0  0  0  0
  -21.6041   -4.3057   24.7222 C   0  0  0  0  0  0
  -21.8822   -3.8147   23.4346 C   0  0  0  0  0  0
  -21.9192   -4.6963   22.3402 C   0  0  0  0  0  0
  -22.7861  -13.5244   21.1846 C   0  0  0  0  0  0
  -22.1662   -4.2148   21.0980 F   0  0  0  0  0  0
  -21.5620   -3.4542   25.7736 F   0  0  0  0  0  0
  -30.0270  -13.3458   20.4390 N   0  0  0  0  0  0
  -26.3013  -12.9331   20.3352 N   0  0  0  0  0  0
  -25.9323  -11.6491   20.5773 N   0  0  0  0  0  0
  -22.0495  -12.8243   22.0402 N   0  0  0  0  0  0
  -25.4312  -15.1879   20.4102 N   0  0  0  0  0  0
  -31.8120  -14.7094   20.1046 O   0  0  0  0  0  0
  -21.6636   -6.8877   21.4238 O   0  0  0  0  0  0
  -22.3559  -14.5550   20.6689 O   0  0  0  0  0  0
  -24.6200  -31.8648   23.2069 C   0  0  0  0  0  0
  -25.9073  -32.4806   23.8380 C   0  0  1  0  0  0
  -27.2299  -27.3863   20.1067 C   0  0  0  0  0  0
  -25.5912  -33.8604   24.2308 N   0  0  0  0  0  0
  -23.4112  -30.4880   21.5484 C   0  0  2  0  0  0
  -24.8582  -28.9501   20.1139 C   0  0  0  0  0  0
  -22.7444  -29.4644   22.4968 C   0  0  0  0  0  0
  -18.0281  -28.1387   22.8488 C   0  0  0  0  0  0
  -24.1485  -36.7303   23.2637 C   0  0  0  0  0  0
  -25.9460  -30.8159   21.3680 C   0  0  0  0  0  0
  -26.0229  -29.4477   20.7125 C   0  0  0  0  0  0
  -27.2149  -28.6765   20.6999 C   0  0  0  0  0  0
  -26.0485  -26.9243   19.4857 C   0  0  0  0  0  0
  -24.8687  -27.6904   19.4939 C   0  0  0  0  0  0
  -23.6223  -29.8216   20.1637 C   0  0  0  0  0  0
  -25.4110  -36.3099   24.0334 C   0  0  1  0  0  0
  -20.5875  -28.3678   23.1303 C   0  0  2  0  0  0
  -20.6769  -26.9408   22.5416 C   0  0  0  0  0  0
  -19.5748  -26.6388   21.5213 C   0  0  0  0  0  0
  -18.1927  -26.7931   22.1624 C   0  0  0  0  0  0
  -19.1532  -28.8850   23.2891 C   0  0  0  0  0  0
  -18.9456  -30.1453   23.8906 C   0  0  0  0  0  0
  -17.6457  -30.6586   24.0572 C   0  0  0  0  0  0
  -25.9042  -34.9468   23.5120 C   0  0  0  0  0  0
  -16.5348  -29.9090   23.6331 C   0  0  0  0  0  0
  -16.7269  -28.6511   23.0345 C   0  0  0  0  0  0
  -26.4484  -31.6600   25.0726 C   0  0  0  0  0  0
  -25.3738  -31.3725   26.1466 C   0  0  0  0  0  0
  -27.0321  -30.3035   24.6138 C   0  0  0  0  0  0
  -27.6059  -32.4326   25.7482 C   0  0  0  0  0  0
  -27.5582  -37.1803   24.8464 C   0  0  0  0  0  0
  -21.4167  -29.3037   22.3702 N   0  0  0  0  0  0
  -26.4292  -37.3788   23.9412 N   0  0  0  0  0  0
  -24.6775  -31.0711   22.0990 N   0  0  0  0  0  0
  -23.4195  -28.8186   23.3029 O   0  0  0  0  0  0
  -28.3645  -26.5865   20.1173 O   0  0  0  0  0  0
  -26.5607  -34.8924   22.4683 O   0  0  0  0  0  0
  -23.5377  -32.1416   23.7434 O   0  0  0  0  0  0
  -29.4853  -19.1301   22.0870 C   0  0  0  0  0  0
  -29.2845  -17.7400   21.9074 C   0  0  0  0  0  0
  -31.1950  -18.9991   20.4221 C   0  0  0  0  0  0
  -30.5083  -19.7926   21.3735 C   0  0  0  0  0  0
  -30.1078  -16.9949   21.0321 C   0  0  0  0  0  0
  -29.2423  -24.2105   20.1449 C   0  0  0  0  0  0
  -33.2445  -22.0869   22.9106 C   0  0  0  0  0  0
  -33.1318  -23.2718   21.9661 C   0  0  0  0  0  0
  -32.5579  -20.9057   22.2407 C   0  0  0  0  0  0
  -31.6557  -23.5861   21.6946 C   0  0  0  0  0  0
  -31.0655  -21.1605   21.8803 C   0  0  1  0  0  0
  -29.4172  -22.8808   20.9521 C   0  0  0  0  0  0
  -28.1591  -25.2260   20.6071 C   0  0  0  0  0  0
  -31.0097  -17.6598   20.2652 N   0  0  0  0  0  0
  -29.9064  -15.5681   21.0238 N   0  0  0  0  0  0
  -30.8588  -22.4542   21.0955 N   0  3  1  0  0  0
  -29.9428  -24.4371   19.1514 O   0  0  0  0  0  0
  -31.4732  -12.4521   19.1334 H   0  0  0  0  0  0
  -30.3481  -11.3388   19.8574 H   0  0  0  0  0  0
  -29.7487  -11.7585   17.4553 H   0  0  0  0  0  0
  -29.6581  -13.4762   17.7537 H   0  0  0  0  0  0
  -27.8422  -11.2990   18.8391 H   0  0  0  0  0  0
  -27.3698  -12.6091   17.7912 H   0  0  0  0  0  0
  -27.6904  -14.2511   19.5525 H   0  0  0  0  0  0
  -28.6952  -11.9916   21.3526 H   0  0  0  0  0  0
  -28.4549  -13.6333   21.8651 H   0  0  0  0  0  0
  -25.2756   -9.5679   22.4762 H   0  0  0  0  0  0
  -23.9987   -7.4636   22.7477 H   0  0  0  0  0  0
  -21.0822   -8.8782   19.8962 H   0  0  0  0  0  0
  -22.3681  -10.9681   19.6170 H   0  0  0  0  0  0
  -21.2019   -7.6154   23.9715 H   0  0  0  0  0  0
  -21.1473   -6.0527   25.9075 H   0  0  0  0  0  0
  -22.0602   -2.7607   23.2850 H   0  0  0  0  0  0
  -22.4100  -11.9905   22.4800 H   0  0  0  0  0  0
  -21.1117  -13.1281   22.2601 H   0  0  0  0  0  0
  -24.6630  -15.8413   20.5201 H   0  0  0  0  0  0
  -26.2768  -15.6271   20.0690 H   0  0  0  0  0  0
  -26.7146  -32.5503   23.1141 H   0  0  0  0  0  0
  -25.0073  -33.9759   25.0462 H   0  0  0  0  0  0
  -22.7022  -31.3063   21.4070 H   0  0  0  0  0  0
  -23.3744  -35.9639   23.3305 H   0  0  0  0  0  0
  -24.3574  -36.8912   22.2051 H   0  0  0  0  0  0
  -23.7238  -37.6509   23.6648 H   0  0  0  0  0  0
  -26.0667  -31.5820   20.6007 H   0  0  0  0  0  0
  -26.8309  -30.8668   21.9912 H   0  0  0  0  0  0
  -28.1132  -29.0560   21.1668 H   0  0  0  0  0  0
  -26.0276  -25.9683   18.9832 H   0  0  0  0  0  0
  -23.9774  -27.3058   19.0177 H   0  0  0  0  0  0
  -23.7340  -30.5967   19.4046 H   0  0  0  0  0  0
  -22.7454  -29.2442   19.8653 H   0  0  0  0  0  0
  -25.1283  -36.1964   25.0825 H   0  0  0  0  0  0
  -20.9968  -28.3249   24.1423 H   0  0  0  0  0  0
  -20.5671  -26.2287   23.3608 H   0  0  0  0  0  0
  -21.6639  -26.7444   22.1208 H   0  0  0  0  0  0
  -19.6910  -25.6303   21.1232 H   0  0  0  0  0  0
  -19.6692  -27.3207   20.6751 H   0  0  0  0  0  0
  -17.4196  -26.6679   21.4026 H   0  0  0  0  0  0
  -18.0329  -26.0074   22.9024 H   0  0  0  0  0  0
  -19.7931  -30.7269   24.2280 H   0  0  0  0  0  0
  -17.5009  -31.6263   24.5181 H   0  0  0  0  0  0
  -15.5349  -30.2995   23.7651 H   0  0  0  0  0  0
  -15.8667  -28.0838   22.7048 H   0  0  0  0  0  0
  -24.5900  -30.7088   25.7797 H   0  0  0  0  0  0
  -24.8946  -32.2889   26.4918 H   0  0  0  0  0  0
  -25.8075  -30.8881   27.0222 H   0  0  0  0  0  0
  -26.2879  -29.6785   24.1186 H   0  0  0  0  0  0
  -27.4066  -29.7287   25.4619 H   0  0  0  0  0  0
  -27.8725  -30.4339   23.9318 H   0  0  0  0  0  0
  -27.2683  -33.3617   26.2084 H   0  0  0  0  0  0
  -28.3851  -32.6900   25.0296 H   0  0  0  0  0  0
  -28.0749  -31.8438   26.5375 H   0  0  0  0  0  0
  -28.2599  -38.0100   24.7507 H   0  0  0  0  0  0
  -28.1074  -36.2628   24.6285 H   0  0  0  0  0  0
  -27.2297  -37.1450   25.8866 H   0  0  0  0  0  0
  -20.9341  -29.8755   21.6910 H   0  0  0  0  0  0
  -26.0176  -38.2863   24.1419 H   0  0  0  0  0  0
  -28.9209  -19.6507   22.8475 H   0  0  0  0  0  0
  -28.5360  -17.2433   22.5100 H   0  0  0  0  0  0
  -32.0069  -19.4158   19.8442 H   0  0  0  0  0  0
  -32.7842  -22.3087   23.8752 H   0  0  0  0  0  0
  -34.2925  -21.8553   23.1066 H   0  0  0  0  0  0
  -33.6576  -23.0715   21.0308 H   0  0  0  0  0  0
  -33.6183  -24.1421   22.4095 H   0  0  0  0  0  0
  -32.6296  -20.0451   22.9076 H   0  0  0  0  0  0
  -33.1315  -20.6452   21.3510 H   0  0  0  0  0  0
  -31.6614  -24.4656   21.0524 H   0  0  0  0  0  0
  -31.1861  -23.8973   22.6295 H   0  0  0  0  0  0
  -30.5665  -21.3430   22.8342 H   0  0  0  0  0  0
  -28.8572  -22.0949   20.4457 H   0  0  0  0  0  0
  -28.9681  -23.0038   21.9377 H   0  0  0  0  0  0
  -28.1544  -25.2548   21.6967 H   0  0  0  0  0  0
  -27.1947  -24.8200   20.3073 H   0  0  0  0  0  0
  -29.0312  -15.2626   21.4164 H   0  0  0  0  0  0
  -31.2110  -22.3230   20.1587 H   0  0  0  0  0  0
  1 25  1  0  0  0
  1 30  2  0  0  0
  1 85  1  0  0  0
  2  3  1  0  0  0
  2 25  1  0  0  0
  2 88  1  0  0  0
  2 89  1  0  0  0
  3  4  1  0  0  0
  3 90  1  0  0  0
  3 91  1  0  0  0
  4  5  1  0  0  0
  4 92  1  0  0  0
  4 93  1  0  0  0
  5  6  1  0  0  0
  5 26  1  0  0  0
  5 94  1  0  0  0
  6 25  1  0  0  0
  6 95  1  0  0  0
  6 96  1  0  0  0
  7  8  2  0  0  0
  7 26  1  0  0  0
  7 29  1  0  0  0
  8  9  1  0  0  0
  8 22  1  0  0  0
  9 10  1  0  0  0
  9 27  2  0  0  0
 10 11  2  0  0  0
 10 15  1  0  0  0
 11 12  1  0  0  0
 11 97  1  0  0  0
 12 13  2  0  0  0
 12 98  1  0  0  0
 13 14  1  0  0  0
 13 31  1  0  0  0
 14 15  2  0  0  0
 14 99  1  0  0  0
 15100  1  0  0  0
 16 17  2  0  0  0
 16 21  1  0  0  0
 16 31  1  0  0  0
 17 18  1  0  0  0
 17101  1  0  0  0
 18 19  2  0  0  0
 18102  1  0  0  0
 19 20  1  0  0  0
 19 24  1  0  0  0
 20 21  2  0  0  0
 20103  1  0  0  0
 21 23  1  0  0  0
 22 28  1  0  0  0
 22 32  2  0  0  0
 26 27  1  0  0  0
 28104  1  0  0  0
 28105  1  0  0  0
 29106  1  0  0  0
 29107  1  0  0  0
 33 34  1  0  0  0
 33 66  1  0  0  0
 33 70  2  0  0  0
 34 36  1  0  0  0
 34 59  1  0  0  0
 34108  1  0  0  0
 35 44  2  0  0  0
 35 45  1  0  0  0
 35 68  1  0  0  0
 36 56  1  0  0  0
 36109  1  0  0  0
 37 39  1  0  0  0
 37 47  1  0  0  0
 37 66  1  0  0  0
 37110  1  0  0  0
 38 43  2  0  0  0
 38 46  1  0  0  0
 38 47  1  0  0  0
 39 64  1  0  0  0
 39 67  2  0  0  0
 40 52  1  0  0  0
 40 53  2  0  0  0
 40 58  1  0  0  0
 41111  1  0  0  0
 41112  1  0  0  0
 41113  1  0  0  0
 41 48  1  0  0  0
 42 43  1  0  0  0
 42 66  1  0  0  0
 42114  1  0  0  0
 42115  1  0  0  0
 43 44  1  0  0  0
 44116  1  0  0  0
 45 46  2  0  0  0
 45117  1  0  0  0
 46118  1  0  0  0
 47119  1  0  0  0
 47120  1  0  0  0
 48 56  1  0  0  0
 48 65  1  0  0  0
 48121  1  0  0  0
 49 50  1  0  0  0
 49 53  1  0  0  0
 49 64  1  0  0  0
 49122  1  0  0  0
 50 51  1  0  0  0
 50123  1  0  0  0
 50124  1  0  0  0
 51 52  1  0  0  0
 51125  1  0  0  0
 51126  1  0  0  0
 52127  1  0  0  0
 52128  1  0  0  0
 53 54  1  0  0  0
 54 55  2  0  0  0
 54129  1  0  0  0
 55 57  1  0  0  0
 55130  1  0  0  0
 56 69  2  0  0  0
 57 58  2  0  0  0
 57131  1  0  0  0
 58132  1  0  0  0
 59 60  1  0  0  0
 59 61  1  0  0  0
 59 62  1  0  0  0
 60133  1  0  0  0
 60134  1  0  0  0
 60135  1  0  0  0
 61136  1  0  0  0
 61137  1  0  0  0
 61138  1  0  0  0
 62139  1  0  0  0
 62140  1  0  0  0
 62141  1  0  0  0
 63 65  1  0  0  0
 63142  1  0  0  0
 63143  1  0  0  0
 63144  1  0  0  0
 64145  1  0  0  0
 65146  1  0  0  0
 68 83  1  0  0  0
 71 72  2  0  0  0
 71 74  1  0  0  0
 71147  1  0  0  0
 72 75  1  0  0  0
 72148  1  0  0  0
 73 74  2  0  0  0
 73 84  1  0  0  0
 73149  1  0  0  0
 74 81  1  0  0  0
 75 84  2  0  0  0
 75 85  1  0  0  0
 76 82  1  0  0  0
 76 83  1  0  0  0
 76 87  2  0  0  0
 77 78  1  0  0  0
 77 79  1  0  0  0
 77150  1  0  0  0
 77151  1  0  0  0
 78 80  1  0  0  0
 78152  1  0  0  0
 78153  1  0  0  0
 79 81  1  0  0  0
 79154  1  0  0  0
 79155  1  0  0  0
 80 86  1  0  0  0
 80156  1  0  0  0
 80157  1  0  0  0
 81 86  1  0  0  0
 81158  1  0  0  0
 82159  1  0  0  0
 82160  1  0  0  0
 82 86  1  0  0  0
 83161  1  0  0  0
 83162  1  0  0  0
 85163  1  0  0  0
 86164  1  0  0  0
M  CHG  1  86   1
M  ISO  4   1 100  68 101  83 101  85 100
M  END
> <chiral flag>
0

> <version>
0

> <s_m_source_file>
/data/baiqing/PycharmProjects/Reinvent-master-3.2/result/LINK_invent/BTK/process_docking_weight1_custom_product_contain_oxygen_bond_distance_aromatic_linkinvent_7_9_3/rearranged_h_0170.sdf

> <i_m_source_file_index>
42

> <r_mmod_Potential_Energy-OPLS-2005>
-237.647827148438

> <r_mmod_Stretch_Energy-OPLS-2005>
60.5850219726562

> <r_mmod_Bend_Energy-OPLS-2005>
133.616287231445

> <r_mmod_Torsional_Energy-OPLS-2005>
264.036712646484

> <r_mmod_Improper_Torsional_Energy-OPLS-2005>
5.99093055725098

> <r_mmod_Van_der_Waal_Energy-OPLS-2005>
164.31315612793

> <r_mmod_Electrostatic_Energy-OPLS-2005>
-405.273712158203

> <r_mmod_Solvation_Energy-OPLS-2005>
-484.743011474609

> <b_mmod_Minimization_Converged-OPLS-2005>
0

> <r_mmod_RMS_Derivative-OPLS-2005>
0.907627642154694

$$$$
42
                    3D
 Structure written by MMmdl.
154162  0  0  1  0            999 V2000
  -30.6183  -14.7201   20.4328 C   0  0  0  0  0  0
  -30.4313  -12.4317   19.4701 C   0  0  0  0  0  0
  -29.5087  -12.5073   18.2326 C   0  0  0  0  0  0
  -28.0322  -12.3428   18.6421 C   0  0  0  0  0  0
  -27.6463  -13.2315   19.8547 C   0  0  2  0  0  0
  -28.6929  -13.1460   20.9887 C   0  0  0  0  0  0
  -25.2525  -13.8193   20.5694 C   0  0  0  0  0  0
  -24.1811  -13.0437   20.9189 C   0  0  0  0  0  0
  -24.6397  -11.6913   20.8718 C   0  0  0  0  0  0
  -23.9065  -10.4291   21.0382 C   0  0  0  0  0  0
  -24.3613   -9.4209   21.9163 C   0  0  0  0  0  0
  -23.6289   -8.2240   22.0733 C   0  0  0  0  0  0
  -22.4267   -8.0273   21.3525 C   0  0  0  0  0  0
  -21.9906   -9.0248   20.4627 C   0  0  0  0  0  0
  -22.7233  -10.2129   20.3037 C   0  0  0  0  0  0
  -21.6860   -6.0724   22.5270 C   0  0  0  0  0  0
  -21.4025   -6.5630   23.8205 C   0  0  0  0  0  0
  -21.3662   -5.6777   24.9165 C   0  0  0  0  0  0
  -21.6043   -4.3040   24.7214 C   0  0  0  0  0  0
  -21.8826   -3.8135   23.4336 C   0  0  0  0  0  0
  -21.9201   -4.6952   22.3397 C   0  0  0  0  0  0
  -22.7832  -13.5218   21.1858 C   0  0  0  0  0  0
  -22.1667   -4.2138   21.0971 F   0  0  0  0  0  0
  -21.5625   -3.4528   25.7730 F   0  0  0  0  0  0
  -29.9987  -13.4904   20.4115 N   0  0  0  0  0  0
  -26.2960  -12.9407   20.3294 N   0  0  0  0  0  0
  -25.9332  -11.6542   20.5738 N   0  0  0  0  0  0
  -22.0481  -12.8196   22.0412 N   0  0  0  0  0  0
  -25.4219  -15.1924   20.4125 N   0  0  0  0  0  0
  -31.8061  -14.8147   20.1117 O   0  0  0  0  0  0
  -21.6632   -6.8869   21.4229 O   0  0  0  0  0  0
  -22.3512  -14.5530   20.6726 O   0  0  0  0  0  0
  -24.6322  -31.8564   23.2013 C   0  0  0  0  0  0
  -25.9142  -32.4762   23.8358 C   0  0  1  0  0  0
  -27.2134  -27.2625   20.1221 C   0  0  0  0  0  0
  -25.5935  -33.8567   24.2279 N   0  0  0  0  0  0
  -23.4294  -30.4812   21.5459 C   0  0  2  0  0  0
  -24.8765  -28.9382   20.1083 C   0  0  0  0  0  0
  -22.7530  -29.4590   22.4923 C   0  0  0  0  0  0
  -18.0292  -28.1401   22.8483 C   0  0  0  0  0  0
  -24.1491  -36.7277   23.2635 C   0  0  0  0  0  0
  -25.9780  -30.7710   21.3824 C   0  0  0  0  0  0
  -26.0505  -29.3957   20.7207 C   0  0  0  0  0  0
  -27.2226  -28.5704   20.7181 C   0  0  0  0  0  0
  -26.0167  -26.8869   19.4668 C   0  0  0  0  0  0
  -24.8654  -27.6927   19.4690 C   0  0  0  0  0  0
  -23.6485  -29.8240   20.1595 C   0  0  0  0  0  0
  -25.4118  -36.3072   24.0328 C   0  0  1  0  0  0
  -20.5902  -28.3694   23.1287 C   0  0  2  0  0  0
  -20.6786  -26.9413   22.5415 C   0  0  0  0  0  0
  -19.5751  -26.6397   21.5225 C   0  0  0  0  0  0
  -18.1933  -26.7942   22.1635 C   0  0  0  0  0  0
  -19.1548  -28.8869   23.2876 C   0  0  0  0  0  0
  -18.9460  -30.1478   23.8883 C   0  0  0  0  0  0
  -17.6452  -30.6592   24.0569 C   0  0  0  0  0  0
  -25.9057  -34.9441   23.5104 C   0  0  0  0  0  0
  -16.5347  -29.9087   23.6335 C   0  0  0  0  0  0
  -16.7279  -28.6519   23.0335 C   0  0  0  0  0  0
  -26.4507  -31.6576   25.0737 C   0  0  0  0  0  0
  -25.3725  -31.3705   26.1448 C   0  0  0  0  0  0
  -27.0349  -30.2994   24.6209 C   0  0  0  0  0  0
  -27.6072  -32.4305   25.7499 C   0  0  0  0  0  0
  -27.5583  -37.1798   24.8465 C   0  0  0  0  0  0
  -21.4233  -29.3033   22.3678 N   0  0  0  0  0  0
  -26.4293  -37.3774   23.9409 N   0  0  0  0  0  0
  -24.6994  -31.0540   22.0987 N   0  0  0  0  0  0
  -23.4235  -28.8106   23.3004 O   0  0  0  0  0  0
  -28.2861  -26.3383   20.1962 O   0  0  0  0  0  0
  -26.5628  -34.8913   22.4669 O   0  0  0  0  0  0
  -23.5469  -32.1371   23.7303 O   0  0  0  0  0  0
  -30.2915  -18.4373   17.9241 C   0  0  0  0  0  0
  -29.6384  -18.4754   20.6105 C   0  0  0  0  0  0
  -30.0590  -19.6954   18.5275 C   0  0  0  0  0  0
  -29.6667  -19.7585   19.9073 C   0  0  0  0  0  0
  -29.9383  -17.1837   20.0018 C   0  0  0  0  0  0
  -30.2219  -17.2207   18.6195 C   0  0  0  0  0  0
  -28.9244  -23.7127   20.4107 C   0  0  0  0  0  0
  -28.5541  -22.1857   20.0616 C   0  0  0  0  0  0
  -27.9572  -24.8917   19.9259 C   0  0  0  0  0  0
  -30.2726  -20.9117   17.6117 C   0  0  0  0  0  0
  -29.8554  -15.8554   20.6665 N   0  0  0  0  0  0
  -29.3782  -21.0145   20.5876 N   0  0  0  0  0  0
  -29.9380  -23.9624   21.0709 O   0  0  0  0  0  0
  -30.3934  -16.0748   17.9164 F   0  0  0  0  0  0
  -31.1703  -20.6368   16.6612 F   0  0  0  0  0  0
  -29.1294  -21.2143   16.9946 F   0  0  0  0  0  0
  -30.7324  -21.9908   18.2435 F   0  0  0  0  0  0
  -31.4730  -12.5467   19.1638 H   0  0  0  0  0  0
  -30.3650  -11.4491   19.9407 H   0  0  0  0  0  0
  -29.7814  -11.7397   17.5069 H   0  0  0  0  0  0
  -29.6450  -13.4654   17.7293 H   0  0  0  0  0  0
  -27.8727  -11.2917   18.8874 H   0  0  0  0  0  0
  -27.3799  -12.5596   17.7953 H   0  0  0  0  0  0
  -27.6486  -14.2572   19.4857 H   0  0  0  0  0  0
  -28.7189  -12.1421   21.4164 H   0  0  0  0  0  0
  -28.4354  -13.8200   21.8066 H   0  0  0  0  0  0
  -25.2761   -9.5694   22.4727 H   0  0  0  0  0  0
  -24.0005   -7.4639   22.7454 H   0  0  0  0  0  0
  -21.0836   -8.8763   19.8940 H   0  0  0  0  0  0
  -22.3683  -10.9657   19.6138 H   0  0  0  0  0  0
  -21.2026   -7.6138   23.9710 H   0  0  0  0  0  0
  -21.1473   -6.0500   25.9069 H   0  0  0  0  0  0
  -22.0610   -2.7594   23.2833 H   0  0  0  0  0  0
  -22.4115  -11.9866   22.4786 H   0  0  0  0  0  0
  -21.1097  -13.1199   22.2626 H   0  0  0  0  0  0
  -24.6519  -15.8432   20.5254 H   0  0  0  0  0  0
  -26.2669  -15.6334   20.0728 H   0  0  0  0  0  0
  -26.7203  -32.5423   23.1100 H   0  0  0  0  0  0
  -25.0083  -33.9709   25.0422 H   0  0  0  0  0  0
  -22.7234  -31.3024   21.4044 H   0  0  0  0  0  0
  -23.3764  -35.9598   23.3294 H   0  0  0  0  0  0
  -24.3585  -36.8901   22.2051 H   0  0  0  0  0  0
  -23.7235  -37.6473   23.6660 H   0  0  0  0  0  0
  -26.1193  -31.5352   20.6166 H   0  0  0  0  0  0
  -26.8543  -30.8176   22.0173 H   0  0  0  0  0  0
  -28.1196  -28.9138   21.2134 H   0  0  0  0  0  0
  -25.9251  -25.9433   18.9504 H   0  0  0  0  0  0
  -23.9690  -27.3422   18.9760 H   0  0  0  0  0  0
  -23.7767  -30.6045   19.4090 H   0  0  0  0  0  0
  -22.7667  -29.2609   19.8498 H   0  0  0  0  0  0
  -25.1297  -36.1923   25.0823 H   0  0  0  0  0  0
  -20.9983  -28.3266   24.1414 H   0  0  0  0  0  0
  -20.5718  -26.2290   23.3611 H   0  0  0  0  0  0
  -21.6649  -26.7460   22.1186 H   0  0  0  0  0  0
  -19.6907  -25.6314   21.1244 H   0  0  0  0  0  0
  -19.6692  -27.3224   20.6768 H   0  0  0  0  0  0
  -17.4205  -26.6693   21.4034 H   0  0  0  0  0  0
  -18.0319  -26.0100   22.9046 H   0  0  0  0  0  0
  -19.7930  -30.7315   24.2238 H   0  0  0  0  0  0
  -17.4994  -31.6261   24.5184 H   0  0  0  0  0  0
  -15.5342  -30.2969   23.7675 H   0  0  0  0  0  0
  -15.8687  -28.0845   22.7017 H   0  0  0  0  0  0
  -24.5917  -30.7041   25.7759 H   0  0  0  0  0  0
  -24.8893  -32.2861   26.4868 H   0  0  0  0  0  0
  -25.8040  -30.8880   27.0226 H   0  0  0  0  0  0
  -26.2930  -29.6745   24.1226 H   0  0  0  0  0  0
  -27.4025  -29.7253   25.4723 H   0  0  0  0  0  0
  -27.8814  -30.4272   23.9458 H   0  0  0  0  0  0
  -27.2701  -33.3619   26.2060 H   0  0  0  0  0  0
  -28.3884  -32.6836   25.0316 H   0  0  0  0  0  0
  -28.0734  -31.8431   26.5420 H   0  0  0  0  0  0
  -28.2587  -38.0106   24.7526 H   0  0  0  0  0  0
  -28.1090  -36.2639   24.6274 H   0  0  0  0  0  0
  -27.2301  -37.1426   25.8865 H   0  0  0  0  0  0
  -20.9425  -29.8759   21.6885 H   0  0  0  0  0  0
  -26.0170  -38.2844   24.1418 H   0  0  0  0  0  0
  -30.5358  -18.3911   16.8741 H   0  0  0  0  0  0
  -29.3791  -18.4800   21.6578 H   0  0  0  0  0  0
  -28.4205  -22.1176   18.9859 H   0  0  0  0  0  0
  -27.5477  -22.0433   20.4593 H   0  0  0  0  0  0
  -26.9971  -24.6677   20.3918 H   0  0  0  0  0  0
  -27.8177  -24.7710   18.8515 H   0  0  0  0  0  0
  -28.9857  -15.6781   21.1465 H   0  0  0  0  0  0
  -29.3881  -20.9714   21.6027 H   0  0  0  0  0  0
  1 25  1  0  0  0
  1 30  2  0  0  0
  1 81  1  0  0  0
  2  3  1  0  0  0
  2 25  1  0  0  0
  2 88  1  0  0  0
  2 89  1  0  0  0
  3  4  1  0  0  0
  3 90  1  0  0  0
  3 91  1  0  0  0
  4  5  1  0  0  0
  4 92  1  0  0  0
  4 93  1  0  0  0
  5  6  1  0  0  0
  5 26  1  0  0  0
  5 94  1  0  0  0
  6 25  1  0  0  0
  6 95  1  0  0  0
  6 96  1  0  0  0
  7  8  2  0  0  0
  7 26  1  0  0  0
  7 29  1  0  0  0
  8  9  1  0  0  0
  8 22  1  0  0  0
  9 10  1  0  0  0
  9 27  2  0  0  0
 10 11  2  0  0  0
 10 15  1  0  0  0
 11 12  1  0  0  0
 11 97  1  0  0  0
 12 13  2  0  0  0
 12 98  1  0  0  0
 13 14  1  0  0  0
 13 31  1  0  0  0
 14 15  2  0  0  0
 14 99  1  0  0  0
 15100  1  0  0  0
 16 17  2  0  0  0
 16 21  1  0  0  0
 16 31  1  0  0  0
 17 18  1  0  0  0
 17101  1  0  0  0
 18 19  2  0  0  0
 18102  1  0  0  0
 19 20  1  0  0  0
 19 24  1  0  0  0
 20 21  2  0  0  0
 20103  1  0  0  0
 21 23  1  0  0  0
 22 28  1  0  0  0
 22 32  2  0  0  0
 26 27  1  0  0  0
 28104  1  0  0  0
 28105  1  0  0  0
 29106  1  0  0  0
 29107  1  0  0  0
 33 34  1  0  0  0
 33 66  1  0  0  0
 33 70  2  0  0  0
 34 36  1  0  0  0
 34 59  1  0  0  0
 34108  1  0  0  0
 35 44  2  0  0  0
 35 45  1  0  0  0
 35 68  1  0  0  0
 36 56  1  0  0  0
 36109  1  0  0  0
 37 39  1  0  0  0
 37 47  1  0  0  0
 37 66  1  0  0  0
 37110  1  0  0  0
 38 43  2  0  0  0
 38 46  1  0  0  0
 38 47  1  0  0  0
 39 64  1  0  0  0
 39 67  2  0  0  0
 40 52  1  0  0  0
 40 53  2  0  0  0
 40 58  1  0  0  0
 41111  1  0  0  0
 41112  1  0  0  0
 41113  1  0  0  0
 41 48  1  0  0  0
 42 43  1  0  0  0
 42 66  1  0  0  0
 42114  1  0  0  0
 42115  1  0  0  0
 43 44  1  0  0  0
 44116  1  0  0  0
 45 46  2  0  0  0
 45117  1  0  0  0
 46118  1  0  0  0
 47119  1  0  0  0
 47120  1  0  0  0
 48 56  1  0  0  0
 48 65  1  0  0  0
 48121  1  0  0  0
 49 50  1  0  0  0
 49 53  1  0  0  0
 49 64  1  0  0  0
 49122  1  0  0  0
 50 51  1  0  0  0
 50123  1  0  0  0
 50124  1  0  0  0
 51 52  1  0  0  0
 51125  1  0  0  0
 51126  1  0  0  0
 52127  1  0  0  0
 52128  1  0  0  0
 53 54  1  0  0  0
 54 55  2  0  0  0
 54129  1  0  0  0
 55 57  1  0  0  0
 55130  1  0  0  0
 56 69  2  0  0  0
 57 58  2  0  0  0
 57131  1  0  0  0
 58132  1  0  0  0
 59 60  1  0  0  0
 59 61  1  0  0  0
 59 62  1  0  0  0
 60133  1  0  0  0
 60134  1  0  0  0
 60135  1  0  0  0
 61136  1  0  0  0
 61137  1  0  0  0
 61138  1  0  0  0
 62139  1  0  0  0
 62140  1  0  0  0
 62141  1  0  0  0
 63 65  1  0  0  0
 63142  1  0  0  0
 63143  1  0  0  0
 63144  1  0  0  0
 64145  1  0  0  0
 65146  1  0  0  0
 68 79  1  0  0  0
 71 73  2  0  0  0
 71 76  1  0  0  0
 71147  1  0  0  0
 72 74  2  0  0  0
 72 75  1  0  0  0
 72148  1  0  0  0
 73 74  1  0  0  0
 73 80  1  0  0  0
 74 82  1  0  0  0
 75 76  2  0  0  0
 75 81  1  0  0  0
 76 84  1  0  0  0
 77 78  1  0  0  0
 77 79  1  0  0  0
 77 83  2  0  0  0
 78 82  1  0  0  0
 78149  1  0  0  0
 78150  1  0  0  0
 79151  1  0  0  0
 79152  1  0  0  0
 80 85  1  0  0  0
 80 86  1  0  0  0
 80 87  1  0  0  0
 81153  1  0  0  0
 82154  1  0  0  0
M  ISO  4   1 100  68 101  79 101  81 100
M  END
> <chiral flag>
0

> <version>
0

> <s_m_source_file>
/data/baiqing/PycharmProjects/Reinvent-master-3.2/result/LINK_invent/BTK/process_docking_weight1_custom_product_contain_oxygen_bond_distance_aromatic_linkinvent_7_9_3/rearranged_h_0170.sdf

> <i_m_source_file_index>
43

> <r_mmod_Potential_Energy-OPLS-2005>
254.979232788086

> <r_mmod_Stretch_Energy-OPLS-2005>
128.21435546875

> <r_mmod_Bend_Energy-OPLS-2005>
172.504623413086

> <r_mmod_Torsional_Energy-OPLS-2005>
235.622207641602

> <r_mmod_Improper_Torsional_Energy-OPLS-2005>
6.56930875778198

> <r_mmod_Van_der_Waal_Energy-OPLS-2005>
151.465255737305

> <r_mmod_Electrostatic_Energy-OPLS-2005>
-269.288604736328

> <r_mmod_Solvation_Energy-OPLS-2005>
-252.556091308594

> <b_mmod_Minimization_Converged-OPLS-2005>
0

> <r_mmod_RMS_Derivative-OPLS-2005>
1.91422367095947

$$$$
43
                    3D
 Structure written by MMmdl.
158167  0  0  1  0            999 V2000
  -30.6990  -14.4552   20.5848 C   0  0  0  0  0  0
  -30.4246  -12.2967   19.4251 C   0  0  0  0  0  0
  -29.4980  -12.5111   18.2099 C   0  0  0  0  0  0
  -28.0181  -12.3736   18.6175 C   0  0  0  0  0  0
  -27.6661  -13.2044   19.8804 C   0  0  2  0  0  0
  -28.7040  -12.9661   21.0009 C   0  0  0  0  0  0
  -25.2616  -13.8157   20.5685 C   0  0  0  0  0  0
  -24.1854  -13.0439   20.9160 C   0  0  0  0  0  0
  -24.6395  -11.6901   20.8712 C   0  0  0  0  0  0
  -23.9051  -10.4294   21.0389 C   0  0  0  0  0  0
  -24.3607   -9.4217   21.9175 C   0  0  0  0  0  0
  -23.6286   -8.2250   22.0747 C   0  0  0  0  0  0
  -22.4269   -8.0280   21.3537 C   0  0  0  0  0  0
  -21.9894   -9.0253   20.4643 C   0  0  0  0  0  0
  -22.7217  -10.2135   20.3047 C   0  0  0  0  0  0
  -21.6854   -6.0730   22.5278 C   0  0  0  0  0  0
  -21.4017   -6.5640   23.8209 C   0  0  0  0  0  0
  -21.3658   -5.6792   24.9171 C   0  0  0  0  0  0
  -21.6043   -4.3055   24.7226 C   0  0  0  0  0  0
  -21.8819   -3.8141   23.4348 C   0  0  0  0  0  0
  -21.9194   -4.6957   22.3400 C   0  0  0  0  0  0
  -22.7882  -13.5248   21.1834 C   0  0  0  0  0  0
  -22.1667   -4.2139   21.0980 F   0  0  0  0  0  0
  -21.5618   -3.4542   25.7743 F   0  0  0  0  0  0
  -30.0426  -13.2696   20.4605 N   0  0  0  0  0  0
  -26.3047  -12.9320   20.3377 N   0  0  0  0  0  0
  -25.9323  -11.6479   20.5750 N   0  0  0  0  0  0
  -22.0518  -12.8245   22.0391 N   0  0  0  0  0  0
  -25.4377  -15.1874   20.4129 N   0  0  0  0  0  0
  -31.8058  -14.6610   20.0778 O   0  0  0  0  0  0
  -21.6637   -6.8877   21.4241 O   0  0  0  0  0  0
  -22.3577  -14.5562   20.6690 O   0  0  0  0  0  0
  -24.6132  -31.8681   23.2103 C   0  0  0  0  0  0
  -25.9028  -32.4825   23.8396 C   0  0  1  0  0  0
  -27.2388  -27.4458   20.1007 C   0  0  0  0  0  0
  -25.5888  -33.8622   24.2327 N   0  0  0  0  0  0
  -23.4014  -30.4903   21.5495 C   0  0  2  0  0  0
  -24.8503  -28.9549   20.1169 C   0  0  0  0  0  0
  -22.7406  -29.4658   22.4989 C   0  0  0  0  0  0
  -18.0271  -28.1375   22.8490 C   0  0  0  0  0  0
  -24.1483  -36.7317   23.2639 C   0  0  0  0  0  0
  -25.9290  -30.8374   21.3623 C   0  0  0  0  0  0
  -26.0095  -29.4729   20.7090 C   0  0  0  0  0  0
  -27.2096  -28.7272   20.6938 C   0  0  0  0  0  0
  -26.0658  -26.9368   19.5042 C   0  0  0  0  0  0
  -24.8727  -27.6854   19.5118 C   0  0  0  0  0  0
  -23.6108  -29.8204   20.1650 C   0  0  0  0  0  0
  -25.4102  -36.3111   24.0339 C   0  0  1  0  0  0
  -20.5862  -28.3662   23.1319 C   0  0  2  0  0  0
  -20.6765  -26.9397   22.5420 C   0  0  0  0  0  0
  -19.5745  -26.6380   21.5214 C   0  0  0  0  0  0
  -18.1922  -26.7921   22.1623 C   0  0  0  0  0  0
  -19.1522  -28.8834   23.2904 C   0  0  0  0  0  0
  -18.9451  -30.1438   23.8918 C   0  0  0  0  0  0
  -17.6457  -30.6583   24.0567 C   0  0  0  0  0  0
  -25.9029  -34.9477   23.5133 C   0  0  0  0  0  0
  -16.5346  -29.9088   23.6323 C   0  0  0  0  0  0
  -16.7263  -28.6502   23.0350 C   0  0  0  0  0  0
  -26.4467  -31.6608   25.0724 C   0  0  0  0  0  0
  -25.3745  -31.3722   26.1485 C   0  0  0  0  0  0
  -27.0299  -30.3051   24.6100 C   0  0  0  0  0  0
  -27.6042  -32.4336   25.7478 C   0  0  0  0  0  0
  -27.5581  -37.1807   24.8457 C   0  0  0  0  0  0
  -21.4135  -29.3029   22.3728 N   0  0  0  0  0  0
  -26.4288  -37.3794   23.9409 N   0  0  0  0  0  0
  -24.6657  -31.0796   22.0993 N   0  0  0  0  0  0
  -23.4182  -28.8204   23.3033 O   0  0  0  0  0  0
  -28.3950  -26.7009   20.1065 O   0  0  0  0  0  0
  -26.5597  -34.8928   22.4695 O   0  0  0  0  0  0
  -23.5326  -32.1428   23.7503 O   0  0  0  0  0  0
  -29.1339  -17.6016   21.8359 C   0  0  0  0  0  0
  -30.6713  -17.4727   19.9590 C   0  0  0  0  0  0
  -28.9556  -18.9849   21.6001 C   0  0  0  0  0  0
  -29.6257  -19.6188   20.5278 C   0  0  0  0  0  0
  -29.9776  -16.8232   21.0112 C   0  0  0  0  0  0
  -30.4975  -18.8537   19.7221 C   0  0  0  0  0  0
  -28.6687  -24.2490   19.9900 C   0  0  0  0  0  0
  -28.0202  -19.7912   22.4804 C   0  0  0  0  0  0
  -27.4274  -20.9720   21.7039 C   0  0  0  0  0  0
  -28.5205  -21.8227   21.0272 C   0  0  2  0  0  0
  -27.8538  -22.9598   20.2005 C   0  0  0  0  0  0
  -28.2884  -25.4717   20.8448 C   0  0  0  0  0  0
  -29.4128  -20.9793   20.2196 N   0  0  0  0  0  0
  -30.0231  -15.4104   21.2521 N   0  0  0  0  0  0
  -29.5794  -24.3005   19.1563 O   0  0  0  0  0  0
  -31.1539  -19.4460   18.6934 F   0  0  0  0  0  0
  -31.4708  -12.3899   19.1279 H   0  0  0  0  0  0
  -30.3177  -11.2825   19.8129 H   0  0  0  0  0  0
  -29.7355  -11.7924   17.4244 H   0  0  0  0  0  0
  -29.6730  -13.4998   17.7827 H   0  0  0  0  0  0
  -27.8237  -11.3170   18.8049 H   0  0  0  0  0  0
  -27.3706  -12.6595   17.7877 H   0  0  0  0  0  0
  -27.7160  -14.2552   19.5945 H   0  0  0  0  0  0
  -28.6744  -11.9254   21.3282 H   0  0  0  0  0  0
  -28.4572  -13.5503   21.8881 H   0  0  0  0  0  0
  -25.2748   -9.5694   22.4754 H   0  0  0  0  0  0
  -23.9989   -7.4643   22.7469 H   0  0  0  0  0  0
  -21.0814   -8.8768   19.8961 H   0  0  0  0  0  0
  -22.3665  -10.9670   19.6159 H   0  0  0  0  0  0
  -21.2020   -7.6150   23.9713 H   0  0  0  0  0  0
  -21.1477   -6.0523   25.9073 H   0  0  0  0  0  0
  -22.0600   -2.7602   23.2853 H   0  0  0  0  0  0
  -22.4124  -11.9900   22.4769 H   0  0  0  0  0  0
  -21.1144  -13.1287   22.2608 H   0  0  0  0  0  0
  -24.6764  -15.8484   20.5239 H   0  0  0  0  0  0
  -26.3013  -15.6232   20.1128 H   0  0  0  0  0  0
  -26.7100  -32.5544   23.1162 H   0  0  0  0  0  0
  -25.0031  -33.9781   25.0468 H   0  0  0  0  0  0
  -22.6895  -31.3063   21.4093 H   0  0  0  0  0  0
  -23.3739  -35.9656   23.3304 H   0  0  0  0  0  0
  -24.3579  -36.8929   22.2053 H   0  0  0  0  0  0
  -23.7244  -37.6525   23.6653 H   0  0  0  0  0  0
  -26.0424  -31.6051   20.5956 H   0  0  0  0  0  0
  -26.8160  -30.8888   21.9824 H   0  0  0  0  0  0
  -28.1058  -29.1227   21.1517 H   0  0  0  0  0  0
  -26.0735  -25.9632   19.0342 H   0  0  0  0  0  0
  -23.9808  -27.2803   19.0538 H   0  0  0  0  0  0
  -23.7188  -30.5940   19.4040 H   0  0  0  0  0  0
  -22.7355  -29.2395   19.8694 H   0  0  0  0  0  0
  -25.1275  -36.1975   25.0833 H   0  0  0  0  0  0
  -20.9952  -28.3226   24.1442 H   0  0  0  0  0  0
  -20.5659  -26.2270   23.3606 H   0  0  0  0  0  0
  -21.6638  -26.7434   22.1221 H   0  0  0  0  0  0
  -19.6909  -25.6294   21.1234 H   0  0  0  0  0  0
  -19.6688  -27.3196   20.6749 H   0  0  0  0  0  0
  -17.4193  -26.6666   21.4025 H   0  0  0  0  0  0
  -18.0322  -26.0061   22.9015 H   0  0  0  0  0  0
  -19.7930  -30.7244   24.2302 H   0  0  0  0  0  0
  -17.5015  -31.6267   24.5162 H   0  0  0  0  0  0
  -15.5349  -30.3003   23.7637 H   0  0  0  0  0  0
  -15.8660  -28.0828   22.7064 H   0  0  0  0  0  0
  -24.5870  -30.7127   25.7819 H   0  0  0  0  0  0
  -24.9004  -32.2895   26.4989 H   0  0  0  0  0  0
  -25.8101  -30.8830   27.0208 H   0  0  0  0  0  0
  -26.2844  -29.6810   24.1161 H   0  0  0  0  0  0
  -27.4078  -29.7288   25.4557 H   0  0  0  0  0  0
  -27.8673  -30.4370   23.9244 H   0  0  0  0  0  0
  -27.2646  -33.3610   26.2102 H   0  0  0  0  0  0
  -28.3819  -32.6949   25.0289 H   0  0  0  0  0  0
  -28.0751  -31.8446   26.5358 H   0  0  0  0  0  0
  -28.2592  -38.0111   24.7512 H   0  0  0  0  0  0
  -28.1085  -36.2646   24.6261 H   0  0  0  0  0  0
  -27.2307  -37.1431   25.8861 H   0  0  0  0  0  0
  -20.9295  -29.8753   21.6951 H   0  0  0  0  0  0
  -26.0179  -38.2870   24.1418 H   0  0  0  0  0  0
  -28.5940  -17.1335   22.6475 H   0  0  0  0  0  0
  -31.3242  -16.9310   19.2926 H   0  0  0  0  0  0
  -28.5842  -20.1540   23.3399 H   0  0  0  0  0  0
  -27.2215  -19.1572   22.8666 H   0  0  0  0  0  0
  -26.8254  -21.5858   22.3753 H   0  0  0  0  0  0
  -26.7446  -20.5881   20.9435 H   0  0  0  0  0  0
  -29.1284  -22.2747   21.8139 H   0  0  0  0  0  0
  -27.5278  -22.5835   19.2308 H   0  0  0  0  0  0
  -26.9391  -23.2653   20.7092 H   0  0  0  0  0  0
  -28.9717  -25.5211   21.6925 H   0  0  0  0  0  0
  -27.2896  -25.3358   21.2618 H   0  0  0  0  0  0
  -29.9669  -21.3942   19.4743 H   0  0  0  0  0  0
  -29.2615  -15.0486   21.8058 H   0  0  0  0  0  0
  1 25  1  0  0  0
  1 30  2  0  0  0
  1 84  1  0  0  0
  2  3  1  0  0  0
  2 25  1  0  0  0
  2 87  1  0  0  0
  2 88  1  0  0  0
  3  4  1  0  0  0
  3 89  1  0  0  0
  3 90  1  0  0  0
  4  5  1  0  0  0
  4 91  1  0  0  0
  4 92  1  0  0  0
  5  6  1  0  0  0
  5 26  1  0  0  0
  5 93  1  0  0  0
  6 25  1  0  0  0
  6 94  1  0  0  0
  6 95  1  0  0  0
  7  8  2  0  0  0
  7 26  1  0  0  0
  7 29  1  0  0  0
  8  9  1  0  0  0
  8 22  1  0  0  0
  9 10  1  0  0  0
  9 27  2  0  0  0
 10 11  2  0  0  0
 10 15  1  0  0  0
 11 12  1  0  0  0
 11 96  1  0  0  0
 12 13  2  0  0  0
 12 97  1  0  0  0
 13 14  1  0  0  0
 13 31  1  0  0  0
 14 15  2  0  0  0
 14 98  1  0  0  0
 15 99  1  0  0  0
 16 17  2  0  0  0
 16 21  1  0  0  0
 16 31  1  0  0  0
 17 18  1  0  0  0
 17100  1  0  0  0
 18 19  2  0  0  0
 18101  1  0  0  0
 19 20  1  0  0  0
 19 24  1  0  0  0
 20 21  2  0  0  0
 20102  1  0  0  0
 21 23  1  0  0  0
 22 28  1  0  0  0
 22 32  2  0  0  0
 26 27  1  0  0  0
 28103  1  0  0  0
 28104  1  0  0  0
 29105  1  0  0  0
 29106  1  0  0  0
 33 34  1  0  0  0
 33 66  1  0  0  0
 33 70  2  0  0  0
 34 36  1  0  0  0
 34 59  1  0  0  0
 34107  1  0  0  0
 35 44  2  0  0  0
 35 45  1  0  0  0
 35 68  1  0  0  0
 36 56  1  0  0  0
 36108  1  0  0  0
 37 39  1  0  0  0
 37 47  1  0  0  0
 37 66  1  0  0  0
 37109  1  0  0  0
 38 43  2  0  0  0
 38 46  1  0  0  0
 38 47  1  0  0  0
 39 64  1  0  0  0
 39 67  2  0  0  0
 40 52  1  0  0  0
 40 53  2  0  0  0
 40 58  1  0  0  0
 41110  1  0  0  0
 41111  1  0  0  0
 41112  1  0  0  0
 41 48  1  0  0  0
 42 43  1  0  0  0
 42 66  1  0  0  0
 42113  1  0  0  0
 42114  1  0  0  0
 43 44  1  0  0  0
 44115  1  0  0  0
 45 46  2  0  0  0
 45116  1  0  0  0
 46117  1  0  0  0
 47118  1  0  0  0
 47119  1  0  0  0
 48 56  1  0  0  0
 48 65  1  0  0  0
 48120  1  0  0  0
 49 50  1  0  0  0
 49 53  1  0  0  0
 49 64  1  0  0  0
 49121  1  0  0  0
 50 51  1  0  0  0
 50122  1  0  0  0
 50123  1  0  0  0
 51 52  1  0  0  0
 51124  1  0  0  0
 51125  1  0  0  0
 52126  1  0  0  0
 52127  1  0  0  0
 53 54  1  0  0  0
 54 55  2  0  0  0
 54128  1  0  0  0
 55 57  1  0  0  0
 55129  1  0  0  0
 56 69  2  0  0  0
 57 58  2  0  0  0
 57130  1  0  0  0
 58131  1  0  0  0
 59 60  1  0  0  0
 59 61  1  0  0  0
 59 62  1  0  0  0
 60132  1  0  0  0
 60133  1  0  0  0
 60134  1  0  0  0
 61135  1  0  0  0
 61136  1  0  0  0
 61137  1  0  0  0
 62138  1  0  0  0
 62139  1  0  0  0
 62140  1  0  0  0
 63 65  1  0  0  0
 63141  1  0  0  0
 63142  1  0  0  0
 63143  1  0  0  0
 64144  1  0  0  0
 65145  1  0  0  0
 68 82  1  0  0  0
 71 73  2  0  0  0
 71 75  1  0  0  0
 71146  1  0  0  0
 72 75  2  0  0  0
 72 76  1  0  0  0
 72147  1  0  0  0
 73 74  1  0  0  0
 73 78  1  0  0  0
 74 76  2  0  0  0
 74 83  1  0  0  0
 75 84  1  0  0  0
 76 86  1  0  0  0
 77 81  1  0  0  0
 77 82  1  0  0  0
 77 85  2  0  0  0
 78 79  1  0  0  0
 78148  1  0  0  0
 78149  1  0  0  0
 79 80  1  0  0  0
 79150  1  0  0  0
 79151  1  0  0  0
 80 81  1  0  0  0
 80 83  1  0  0  0
 80152  1  0  0  0
 81153  1  0  0  0
 81154  1  0  0  0
 82155  1  0  0  0
 82156  1  0  0  0
 83157  1  0  0  0
 84158  1  0  0  0
M  ISO  4   1 100  68 101  82 101  84 100
M  END
> <chiral flag>
0

> <version>
0

> <s_m_source_file>
/data/baiqing/PycharmProjects/Reinvent-master-3.2/result/LINK_invent/BTK/process_docking_weight1_custom_product_contain_oxygen_bond_distance_aromatic_linkinvent_7_9_3/rearranged_h_0170.sdf

> <i_m_source_file_index>
44

> <r_mmod_Potential_Energy-OPLS-2005>
-4.905846118927

> <r_mmod_Stretch_Energy-OPLS-2005>
38.010684967041

> <r_mmod_Bend_Energy-OPLS-2005>
107.571014404297

> <r_mmod_Torsional_Energy-OPLS-2005>
235.893432617188

> <r_mmod_Improper_Torsional_Energy-OPLS-2005>
3.45672106742859

> <r_mmod_Van_der_Waal_Energy-OPLS-2005>
156.411117553711

> <r_mmod_Electrostatic_Energy-OPLS-2005>
-325.606536865234

> <r_mmod_Solvation_Energy-OPLS-2005>
-231.228851318359

> <b_mmod_Minimization_Converged-OPLS-2005>
0

> <r_mmod_RMS_Derivative-OPLS-2005>
1.02218949794769

$$$$
44
                    3D
 Structure written by MMmdl.
156164  0  0  1  0            999 V2000
  -30.6135  -14.6360   20.4405 C   0  0  0  0  0  0
  -30.4134  -12.3623   19.4679 C   0  0  0  0  0  0
  -29.4818  -12.3606   18.2381 C   0  0  0  0  0  0
  -27.9936  -12.3259   18.6363 C   0  0  0  0  0  0
  -27.6311  -13.2115   19.8611 C   0  0  2  0  0  0
  -28.6778  -13.0973   20.9867 C   0  0  0  0  0  0
  -25.2452  -13.8167   20.5774 C   0  0  0  0  0  0
  -24.1709  -13.0458   20.9274 C   0  0  0  0  0  0
  -24.6261  -11.6917   20.8846 C   0  0  0  0  0  0
  -23.8964  -10.4273   21.0451 C   0  0  0  0  0  0
  -24.3515   -9.4185   21.9223 C   0  0  0  0  0  0
  -23.6209   -8.2211   22.0759 C   0  0  0  0  0  0
  -22.4202   -8.0240   21.3538 C   0  0  0  0  0  0
  -21.9836   -9.0211   20.4650 C   0  0  0  0  0  0
  -22.7140  -10.2113   20.3090 C   0  0  0  0  0  0
  -21.6821   -6.0709   22.5274 C   0  0  0  0  0  0
  -21.4003   -6.5616   23.8217 C   0  0  0  0  0  0
  -21.3664   -5.6765   24.9183 C   0  0  0  0  0  0
  -21.6037   -4.3029   24.7222 C   0  0  0  0  0  0
  -21.8824   -3.8127   23.4352 C   0  0  0  0  0  0
  -21.9181   -4.6945   22.3412 C   0  0  0  0  0  0
  -22.7743  -13.5260   21.1885 C   0  0  0  0  0  0
  -22.1646   -4.2137   21.0994 F   0  0  0  0  0  0
  -21.5636   -3.4513   25.7745 F   0  0  0  0  0  0
  -29.9827  -13.4213   20.4040 N   0  0  0  0  0  0
  -26.2827  -12.9317   20.3392 N   0  0  0  0  0  0
  -25.9176  -11.6498   20.5912 N   0  0  0  0  0  0
  -22.0315  -12.8289   22.0423 N   0  0  0  0  0  0
  -25.4223  -15.1863   20.4131 N   0  0  0  0  0  0
  -31.7905  -14.7574   20.0933 O   0  0  0  0  0  0
  -21.6586   -6.8830   21.4218 O   0  0  0  0  0  0
  -22.3460  -14.5535   20.6677 O   0  0  0  0  0  0
  -24.6165  -31.8637   23.2017 C   0  0  0  0  0  0
  -25.8993  -32.4838   23.8389 C   0  0  1  0  0  0
  -27.2636  -27.3873   20.1497 C   0  0  0  0  0  0
  -25.5807  -33.8643   24.2334 N   0  0  0  0  0  0
  -23.4150  -30.4754   21.5461 C   0  0  2  0  0  0
  -24.8781  -28.9262   20.1251 C   0  0  0  0  0  0
  -22.7462  -29.4582   22.4993 C   0  0  0  0  0  0
  -18.0261  -28.1448   22.8493 C   0  0  0  0  0  0
  -24.1491  -36.7349   23.2648 C   0  0  0  0  0  0
  -25.9430  -30.8228   21.3589 C   0  0  0  0  0  0
  -26.0345  -29.4452   20.7233 C   0  0  0  0  0  0
  -27.2342  -28.6892   20.7192 C   0  0  0  0  0  0
  -26.0924  -26.8905   19.5404 C   0  0  0  0  0  0
  -24.9019  -27.6518   19.5264 C   0  0  0  0  0  0
  -23.6337  -29.7899   20.1683 C   0  0  0  0  0  0
  -25.4104  -36.3163   24.0355 C   0  0  1  0  0  0
  -20.5865  -28.3745   23.1361 C   0  0  2  0  0  0
  -20.6759  -26.9509   22.5407 C   0  0  0  0  0  0
  -19.5759  -26.6476   21.5228 C   0  0  0  0  0  0
  -18.1915  -26.7984   22.1657 C   0  0  0  0  0  0
  -19.1506  -28.8896   23.2908 C   0  0  0  0  0  0
  -18.9422  -30.1529   23.8862 C   0  0  0  0  0  0
  -17.6434  -30.6706   24.0504 C   0  0  0  0  0  0
  -25.8987  -34.9501   23.5163 C   0  0  0  0  0  0
  -16.5332  -29.9221   23.6290 C   0  0  0  0  0  0
  -16.7262  -28.6657   23.0268 C   0  0  0  0  0  0
  -26.4418  -31.6625   25.0724 C   0  0  0  0  0  0
  -25.3684  -31.3688   26.1477 C   0  0  0  0  0  0
  -27.0234  -30.3078   24.6046 C   0  0  0  0  0  0
  -27.5998  -32.4366   25.7451 C   0  0  0  0  0  0
  -27.5593  -37.1837   24.8468 C   0  0  0  0  0  0
  -21.4151  -29.3160   22.3838 N   0  0  0  0  0  0
  -26.4314  -37.3821   23.9406 N   0  0  0  0  0  0
  -24.6787  -31.0681   22.0965 N   0  0  0  0  0  0
  -23.4187  -28.8008   23.2964 O   0  0  0  0  0  0
  -28.4262  -26.6294   20.1385 O   0  0  0  0  0  0
  -26.5593  -34.8934   22.4756 O   0  0  0  0  0  0
  -23.5329  -32.1380   23.7368 O   0  0  0  0  0  0
  -29.2060  -16.1419   18.2881 C   0  0  0  0  0  0
  -28.8980  -16.9225   17.1661 C   0  0  0  0  0  0
  -29.2409  -18.9038   18.5064 C   0  0  0  0  0  0
  -29.5441  -16.6951   19.5506 C   0  0  0  0  0  0
  -29.4970  -18.1384   19.6752 C   0  0  0  0  0  0
  -28.9391  -18.3127   17.2722 C   0  0  0  0  0  0
  -29.5527  -22.9460   20.9908 C   0  0  0  0  0  0
  -29.1036  -21.4449   20.7234 C   0  0  0  0  0  0
  -28.9739  -24.1287   20.1398 C   0  0  0  0  0  0
  -30.1085  -20.2572   20.9924 C   0  0  0  0  0  0
  -28.4583  -25.3961   20.9189 C   0  0  0  0  0  0
  -29.8288  -15.7494   20.6163 N   0  0  0  0  0  0
  -29.6431  -18.8297   20.9054 N   0  0  0  0  0  0
  -30.3760  -23.1836   21.8839 O   0  0  0  0  0  0
  -27.9566  -21.2164   20.3249 O   0  0  0  0  0  0
  -28.6559  -19.0811   16.1948 F   0  0  0  0  0  0
  -31.4418  -12.4953   19.1375 H   0  0  0  0  0  0
  -30.3883  -11.3941   19.9705 H   0  0  0  0  0  0
  -29.6897  -11.4678   17.6496 H   0  0  0  0  0  0
  -29.7001  -13.1887   17.5707 H   0  0  0  0  0  0
  -27.7511  -11.2835   18.8569 H   0  0  0  0  0  0
  -27.3690  -12.6012   17.7841 H   0  0  0  0  0  0
  -27.6263  -14.2400   19.5137 H   0  0  0  0  0  0
  -28.6915  -12.0929   21.4122 H   0  0  0  0  0  0
  -28.4322  -13.7747   21.8043 H   0  0  0  0  0  0
  -25.2658   -9.5674   22.4801 H   0  0  0  0  0  0
  -23.9951   -7.4580   22.7439 H   0  0  0  0  0  0
  -21.0819   -8.8677   19.8899 H   0  0  0  0  0  0
  -22.3588  -10.9634   19.6188 H   0  0  0  0  0  0
  -21.1982   -7.6124   23.9718 H   0  0  0  0  0  0
  -21.1481   -6.0500   25.9089 H   0  0  0  0  0  0
  -22.0603   -2.7579   23.2850 H   0  0  0  0  0  0
  -22.3875  -12.0008   22.4962 H   0  0  0  0  0  0
  -21.0891  -13.1325   22.2475 H   0  0  0  0  0  0
  -24.6691  -15.8577   20.5237 H   0  0  0  0  0  0
  -26.2790  -15.6072   20.0736 H   0  0  0  0  0  0
  -26.7068  -32.5575   23.1173 H   0  0  0  0  0  0
  -25.0004  -33.9867   25.0506 H   0  0  0  0  0  0
  -22.7060  -31.2920   21.3887 H   0  0  0  0  0  0
  -23.3762  -35.9674   23.3328 H   0  0  0  0  0  0
  -24.3597  -36.8944   22.2060 H   0  0  0  0  0  0
  -23.7207  -37.6545   23.6636 H   0  0  0  0  0  0
  -26.0438  -31.5778   20.5773 H   0  0  0  0  0  0
  -26.8387  -30.9034   21.9642 H   0  0  0  0  0  0
  -28.1329  -29.0947   21.1656 H   0  0  0  0  0  0
  -26.1047  -25.9135   19.0757 H   0  0  0  0  0  0
  -24.0148  -27.2467   19.0556 H   0  0  0  0  0  0
  -23.7336  -30.5516   19.3955 H   0  0  0  0  0  0
  -22.7682  -29.1902   19.8814 H   0  0  0  0  0  0
  -25.1280  -36.2083   25.0842 H   0  0  0  0  0  0
  -20.9898  -28.3294   24.1496 H   0  0  0  0  0  0
  -20.5555  -26.2408   23.3602 H   0  0  0  0  0  0
  -21.6653  -26.7425   22.1292 H   0  0  0  0  0  0
  -19.6949  -25.6403   21.1285 H   0  0  0  0  0  0
  -19.6748  -27.3245   20.6735 H   0  0  0  0  0  0
  -17.4146  -26.6609   21.4136 H   0  0  0  0  0  0
  -18.0362  -26.0187   22.9115 H   0  0  0  0  0  0
  -19.7897  -30.7367   24.2143 H   0  0  0  0  0  0
  -17.5020  -31.6397   24.5081 H   0  0  0  0  0  0
  -15.5346  -30.3160   23.7625 H   0  0  0  0  0  0
  -15.8637  -28.1072   22.6909 H   0  0  0  0  0  0
  -24.5838  -30.7072   25.7776 H   0  0  0  0  0  0
  -24.8891  -32.2817   26.5006 H   0  0  0  0  0  0
  -25.8043  -30.8773   27.0186 H   0  0  0  0  0  0
  -26.2749  -29.6874   24.1083 H   0  0  0  0  0  0
  -27.4011  -29.7272   25.4470 H   0  0  0  0  0  0
  -27.8588  -30.4452   23.9181 H   0  0  0  0  0  0
  -27.2616  -33.3658   26.2058 H   0  0  0  0  0  0
  -28.3732  -32.6955   25.0207 H   0  0  0  0  0  0
  -28.0736  -31.8478   26.5315 H   0  0  0  0  0  0
  -28.2618  -38.0131   24.7511 H   0  0  0  0  0  0
  -28.1090  -36.2655   24.6313 H   0  0  0  0  0  0
  -27.2327  -37.1521   25.8881 H   0  0  0  0  0  0
  -20.9311  -29.9137   21.7299 H   0  0  0  0  0  0
  -26.0237  -38.2917   24.1391 H   0  0  0  0  0  0
  -29.1457  -15.0806   18.1565 H   0  0  0  0  0  0
  -28.6332  -16.4584   16.2269 H   0  0  0  0  0  0
  -29.2310  -19.9805   18.5129 H   0  0  0  0  0  0
  -29.8092  -24.4570   19.5219 H   0  0  0  0  0  0
  -28.2137  -23.7674   19.4473 H   0  0  0  0  0  0
  -30.5294  -20.4080   21.9897 H   0  0  0  0  0  0
  -30.9536  -20.3698   20.3149 H   0  0  0  0  0  0
  -29.1305  -25.5889   21.7585 H   0  0  0  0  0  0
  -27.4862  -25.1820   21.3707 H   0  0  0  0  0  0
  -29.0608  -15.6198   21.2577 H   0  0  0  0  0  0
  -29.7418  -18.2654   21.7440 H   0  0  0  0  0  0
  1 25  1  0  0  0
  1 30  2  0  0  0
  1 82  1  0  0  0
  2  3  1  0  0  0
  2 25  1  0  0  0
  2 87  1  0  0  0
  2 88  1  0  0  0
  3  4  1  0  0  0
  3 89  1  0  0  0
  3 90  1  0  0  0
  4  5  1  0  0  0
  4 91  1  0  0  0
  4 92  1  0  0  0
  5  6  1  0  0  0
  5 26  1  0  0  0
  5 93  1  0  0  0
  6 25  1  0  0  0
  6 94  1  0  0  0
  6 95  1  0  0  0
  7  8  2  0  0  0
  7 26  1  0  0  0
  7 29  1  0  0  0
  8  9  1  0  0  0
  8 22  1  0  0  0
  9 10  1  0  0  0
  9 27  2  0  0  0
 10 11  2  0  0  0
 10 15  1  0  0  0
 11 12  1  0  0  0
 11 96  1  0  0  0
 12 13  2  0  0  0
 12 97  1  0  0  0
 13 14  1  0  0  0
 13 31  1  0  0  0
 14 15  2  0  0  0
 14 98  1  0  0  0
 15 99  1  0  0  0
 16 17  2  0  0  0
 16 21  1  0  0  0
 16 31  1  0  0  0
 17 18  1  0  0  0
 17100  1  0  0  0
 18 19  2  0  0  0
 18101  1  0  0  0
 19 20  1  0  0  0
 19 24  1  0  0  0
 20 21  2  0  0  0
 20102  1  0  0  0
 21 23  1  0  0  0
 22 28  1  0  0  0
 22 32  2  0  0  0
 26 27  1  0  0  0
 28103  1  0  0  0
 28104  1  0  0  0
 29105  1  0  0  0
 29106  1  0  0  0
 33 34  1  0  0  0
 33 66  1  0  0  0
 33 70  2  0  0  0
 34 36  1  0  0  0
 34 59  1  0  0  0
 34107  1  0  0  0
 35 44  2  0  0  0
 35 45  1  0  0  0
 35 68  1  0  0  0
 36 56  1  0  0  0
 36108  1  0  0  0
 37 39  1  0  0  0
 37 47  1  0  0  0
 37 66  1  0  0  0
 37109  1  0  0  0
 38 43  2  0  0  0
 38 46  1  0  0  0
 38 47  1  0  0  0
 39 64  1  0  0  0
 39 67  2  0  0  0
 40 52  1  0  0  0
 40 53  2  0  0  0
 40 58  1  0  0  0
 41110  1  0  0  0
 41111  1  0  0  0
 41112  1  0  0  0
 41 48  1  0  0  0
 42 43  1  0  0  0
 42 66  1  0  0  0
 42113  1  0  0  0
 42114  1  0  0  0
 43 44  1  0  0  0
 44115  1  0  0  0
 45 46  2  0  0  0
 45116  1  0  0  0
 46117  1  0  0  0
 47118  1  0  0  0
 47119  1  0  0  0
 48 56  1  0  0  0
 48 65  1  0  0  0
 48120  1  0  0  0
 49 50  1  0  0  0
 49 53  1  0  0  0
 49 64  1  0  0  0
 49121  1  0  0  0
 50 51  1  0  0  0
 50122  1  0  0  0
 50123  1  0  0  0
 51 52  1  0  0  0
 51124  1  0  0  0
 51125  1  0  0  0
 52126  1  0  0  0
 52127  1  0  0  0
 53 54  1  0  0  0
 54 55  2  0  0  0
 54128  1  0  0  0
 55 57  1  0  0  0
 55129  1  0  0  0
 56 69  2  0  0  0
 57 58  2  0  0  0
 57130  1  0  0  0
 58131  1  0  0  0
 59 60  1  0  0  0
 59 61  1  0  0  0
 59 62  1  0  0  0
 60132  1  0  0  0
 60133  1  0  0  0
 60134  1  0  0  0
 61135  1  0  0  0
 61136  1  0  0  0
 61137  1  0  0  0
 62138  1  0  0  0
 62139  1  0  0  0
 62140  1  0  0  0
 63 65  1  0  0  0
 63141  1  0  0  0
 63142  1  0  0  0
 63143  1  0  0  0
 64144  1  0  0  0
 65145  1  0  0  0
 68 81  1  0  0  0
 71 72  2  0  0  0
 71 74  1  0  0  0
 71146  1  0  0  0
 72 76  1  0  0  0
 72147  1  0  0  0
 73 75  1  0  0  0
 73 76  2  0  0  0
 73148  1  0  0  0
 74 75  2  0  0  0
 74 82  1  0  0  0
 75 83  1  0  0  0
 76 86  1  0  0  0
 77 78  1  0  0  0
 77 79  1  0  0  0
 77 84  2  0  0  0
 78 80  1  0  0  0
 78 85  2  0  0  0
 79 81  1  0  0  0
 79149  1  0  0  0
 79150  1  0  0  0
 80 83  1  0  0  0
 80151  1  0  0  0
 80152  1  0  0  0
 81153  1  0  0  0
 81154  1  0  0  0
 82155  1  0  0  0
 83156  1  0  0  0
M  ISO  4   1 100  68 101  81 101  82 100
M  END
> <chiral flag>
0

> <version>
0

> <s_m_source_file>
/data/baiqing/PycharmProjects/Reinvent-master-3.2/result/LINK_invent/BTK/process_docking_weight1_custom_product_contain_oxygen_bond_distance_aromatic_linkinvent_7_9_3/rearranged_h_0170.sdf

> <i_m_source_file_index>
45

> <r_mmod_Potential_Energy-OPLS-2005>
99.7006072998047

> <r_mmod_Stretch_Energy-OPLS-2005>
69.8071899414062

> <r_mmod_Bend_Energy-OPLS-2005>
134.342544555664

> <r_mmod_Torsional_Energy-OPLS-2005>
294.277069091797

> <r_mmod_Improper_Torsional_Energy-OPLS-2005>
10.1364545822144

> <r_mmod_Van_der_Waal_Energy-OPLS-2005>
143.798690795898

> <r_mmod_Electrostatic_Energy-OPLS-2005>
-350.173675537109

> <r_mmod_Solvation_Energy-OPLS-2005>
-244.637191772461

> <b_mmod_Minimization_Converged-OPLS-2005>
0

> <r_mmod_RMS_Derivative-OPLS-2005>
6.37591743469238

$$$$
45
                    3D
 Structure written by MMmdl.
154162  0  0  1  0            999 V2000
  -30.6134  -14.7211   20.4975 C   0  0  0  0  0  0
  -30.4360  -12.4517   19.4563 C   0  0  0  0  0  0
  -29.5068  -12.5039   18.2237 C   0  0  0  0  0  0
  -28.0313  -12.3340   18.6395 C   0  0  0  0  0  0
  -27.6392  -13.2293   19.8456 C   0  0  2  0  0  0
  -28.6840  -13.1487   20.9774 C   0  0  0  0  0  0
  -25.2488  -13.8181   20.5669 C   0  0  0  0  0  0
  -24.1791  -13.0434   20.9198 C   0  0  0  0  0  0
  -24.6381  -11.6913   20.8738 C   0  0  0  0  0  0
  -23.9067  -10.4282   21.0411 C   0  0  0  0  0  0
  -24.3622   -9.4201   21.9194 C   0  0  0  0  0  0
  -23.6284   -8.2246   22.0771 C   0  0  0  0  0  0
  -22.4270   -8.0275   21.3551 C   0  0  0  0  0  0
  -21.9902   -9.0254   20.4659 C   0  0  0  0  0  0
  -22.7241  -10.2127   20.3059 C   0  0  0  0  0  0
  -21.6854   -6.0732   22.5281 C   0  0  0  0  0  0
  -21.4008   -6.5632   23.8214 C   0  0  0  0  0  0
  -21.3657   -5.6786   24.9176 C   0  0  0  0  0  0
  -21.6041   -4.3048   24.7224 C   0  0  0  0  0  0
  -21.8824   -3.8144   23.4341 C   0  0  0  0  0  0
  -21.9186   -4.6961   22.3397 C   0  0  0  0  0  0
  -22.7813  -13.5203   21.1870 C   0  0  0  0  0  0
  -22.1663   -4.2136   21.0981 F   0  0  0  0  0  0
  -21.5626   -3.4537   25.7746 F   0  0  0  0  0  0
  -29.9844  -13.5029   20.3948 N   0  0  0  0  0  0
  -26.2910  -12.9397   20.3233 N   0  0  0  0  0  0
  -25.9309  -11.6542   20.5722 N   0  0  0  0  0  0
  -22.0465  -12.8189   22.0433 N   0  0  0  0  0  0
  -25.4117  -15.1916   20.4095 N   0  0  0  0  0  0
  -31.8094  -14.8217   20.2074 O   0  0  0  0  0  0
  -21.6637   -6.8874   21.4240 O   0  0  0  0  0  0
  -22.3490  -14.5519   20.6734 O   0  0  0  0  0  0
  -24.6288  -31.8562   23.1976 C   0  0  0  0  0  0
  -25.9115  -32.4763   23.8330 C   0  0  1  0  0  0
  -27.2235  -27.2539   20.1708 C   0  0  0  0  0  0
  -25.5905  -33.8560   24.2243 N   0  0  0  0  0  0
  -23.4265  -30.4745   21.5401 C   0  0  2  0  0  0
  -24.8795  -28.9156   20.1169 C   0  0  0  0  0  0
  -22.7489  -29.4574   22.4900 C   0  0  0  0  0  0
  -18.0284  -28.1360   22.8476 C   0  0  0  0  0  0
  -24.1495  -36.7295   23.2644 C   0  0  0  0  0  0
  -25.9712  -30.7699   21.3769 C   0  0  0  0  0  0
  -26.0501  -29.3897   20.7239 C   0  0  0  0  0  0
  -27.2297  -28.5735   20.7356 C   0  0  0  0  0  0
  -26.0325  -26.8409   19.5378 C   0  0  0  0  0  0
  -24.8747  -27.6491   19.5099 C   0  0  0  0  0  0
  -23.6479  -29.8044   20.1574 C   0  0  0  0  0  0
  -25.4119  -36.3068   24.0327 C   0  0  1  0  0  0
  -20.5884  -28.3665   23.1258 C   0  0  2  0  0  0
  -20.6762  -26.9374   22.5410 C   0  0  0  0  0  0
  -19.5753  -26.6341   21.5202 C   0  0  0  0  0  0
  -18.1919  -26.7891   22.1611 C   0  0  0  0  0  0
  -19.1547  -28.8824   23.2857 C   0  0  0  0  0  0
  -18.9479  -30.1417   23.8867 C   0  0  0  0  0  0
  -17.6485  -30.6567   24.0539 C   0  0  0  0  0  0
  -25.9037  -34.9447   23.5097 C   0  0  0  0  0  0
  -16.5367  -29.9049   23.6347 C   0  0  0  0  0  0
  -16.7277  -28.6475   23.0340 C   0  0  0  0  0  0
  -26.4473  -31.6592   25.0739 C   0  0  0  0  0  0
  -25.3678  -31.3771   26.1452 C   0  0  0  0  0  0
  -27.0331  -30.3009   24.6228 C   0  0  0  0  0  0
  -27.6012  -32.4354   25.7502 C   0  0  0  0  0  0
  -27.5586  -37.1793   24.8463 C   0  0  0  0  0  0
  -21.4197  -29.3025   22.3660 N   0  0  0  0  0  0
  -26.4312  -37.3760   23.9412 N   0  0  0  0  0  0
  -24.6949  -31.0519   22.0957 N   0  0  0  0  0  0
  -23.4200  -28.8103   23.2977 O   0  0  0  0  0  0
  -28.3054  -26.3451   20.2107 O   0  0  0  0  0  0
  -26.5648  -34.8939   22.4683 O   0  0  0  0  0  0
  -23.5440  -32.1363   23.7274 O   0  0  0  0  0  0
  -29.4855  -18.4542   20.5945 C   0  0  0  0  0  0
  -31.2391  -17.4475   21.9181 C   0  0  0  0  0  0
  -30.9023  -19.9107   21.9721 C   0  0  0  0  0  0
  -30.1853  -17.2485   21.0129 C   0  0  0  0  0  0
  -29.8041  -19.8106   21.0408 C   0  0  0  0  0  0
  -31.5808  -18.7271   22.3885 C   0  0  0  0  0  0
  -28.7852  -23.6819   20.3258 C   0  0  0  0  0  0
  -28.6648  -22.2881   21.1328 C   0  0  0  0  0  0
  -28.0621  -25.0092   20.8711 C   0  0  0  0  0  0
  -31.3904  -21.2408   22.5763 C   0  0  0  0  0  0
  -29.8233  -15.8517   20.6601 N   0  0  0  0  0  0
  -29.0563  -20.9505   20.5021 N   0  0  0  0  0  0
  -29.4191  -23.7094   19.2654 O   0  0  0  0  0  0
  -32.5912  -18.7746   23.2926 F   0  0  0  0  0  0
  -30.5934  -21.5828   23.5898 F   0  0  0  0  0  0
  -32.6306  -21.1882   23.0645 F   0  0  0  0  0  0
  -31.4155  -22.2263   21.6836 F   0  0  0  0  0  0
  -31.4748  -12.5913   19.1507 H   0  0  0  0  0  0
  -30.3957  -11.4718   19.9334 H   0  0  0  0  0  0
  -29.7849  -11.7295   17.5083 H   0  0  0  0  0  0
  -29.6354  -13.4580   17.7095 H   0  0  0  0  0  0
  -27.8801  -11.2838   18.8928 H   0  0  0  0  0  0
  -27.3779  -12.5379   17.7895 H   0  0  0  0  0  0
  -27.6368  -14.2524   19.4720 H   0  0  0  0  0  0
  -28.7166  -12.1442   21.4037 H   0  0  0  0  0  0
  -28.4239  -13.8214   21.7957 H   0  0  0  0  0  0
  -25.2766   -9.5671   22.4768 H   0  0  0  0  0  0
  -23.9985   -7.4633   22.7495 H   0  0  0  0  0  0
  -21.0830   -8.8774   19.8965 H   0  0  0  0  0  0
  -22.3701  -10.9670   19.6163 H   0  0  0  0  0  0
  -21.2013   -7.6142   23.9706 H   0  0  0  0  0  0
  -21.1471   -6.0525   25.9074 H   0  0  0  0  0  0
  -22.0607   -2.7600   23.2856 H   0  0  0  0  0  0
  -22.4070  -11.9810   22.4775 H   0  0  0  0  0  0
  -21.1091  -13.1234   22.2698 H   0  0  0  0  0  0
  -24.6332  -15.8340   20.5208 H   0  0  0  0  0  0
  -26.2396  -15.6416   20.0412 H   0  0  0  0  0  0
  -26.7189  -32.5440   23.1085 H   0  0  0  0  0  0
  -25.0004  -33.9696   25.0350 H   0  0  0  0  0  0
  -22.7213  -31.2959   21.3930 H   0  0  0  0  0  0
  -23.3760  -35.9627   23.3316 H   0  0  0  0  0  0
  -24.3573  -36.8910   22.2058 H   0  0  0  0  0  0
  -23.7264  -37.6498   23.6670 H   0  0  0  0  0  0
  -26.1065  -31.5314   20.6063 H   0  0  0  0  0  0
  -26.8483  -30.8224   22.0081 H   0  0  0  0  0  0
  -28.1219  -28.9285   21.2311 H   0  0  0  0  0  0
  -25.9890  -25.8601   19.0875 H   0  0  0  0  0  0
  -23.9755  -27.2749   19.0397 H   0  0  0  0  0  0
  -23.7734  -30.5787   19.3997 H   0  0  0  0  0  0
  -22.7659  -29.2365   19.8538 H   0  0  0  0  0  0
  -25.1297  -36.1934   25.0823 H   0  0  0  0  0  0
  -20.9977  -28.3263   24.1371 H   0  0  0  0  0  0
  -20.5600  -26.2274   23.3613 H   0  0  0  0  0  0
  -21.6616  -26.7345   22.1218 H   0  0  0  0  0  0
  -19.6895  -25.6247   21.1236 H   0  0  0  0  0  0
  -19.6694  -27.3159   20.6737 H   0  0  0  0  0  0
  -17.4165  -26.6641   21.4025 H   0  0  0  0  0  0
  -18.0310  -26.0030   22.9016 H   0  0  0  0  0  0
  -19.7973  -30.7219   24.2215 H   0  0  0  0  0  0
  -17.5056  -31.6250   24.5136 H   0  0  0  0  0  0
  -15.5363  -30.2941   23.7673 H   0  0  0  0  0  0
  -15.8677  -28.0785   22.7055 H   0  0  0  0  0  0
  -24.5854  -30.7111   25.7797 H   0  0  0  0  0  0
  -24.8867  -32.2947   26.4843 H   0  0  0  0  0  0
  -25.7979  -30.8984   27.0257 H   0  0  0  0  0  0
  -26.2941  -29.6736   24.1233 H   0  0  0  0  0  0
  -27.3978  -29.7295   25.4770 H   0  0  0  0  0  0
  -27.8819  -30.4273   23.9506 H   0  0  0  0  0  0
  -27.2614  -33.3692   26.1992 H   0  0  0  0  0  0
  -28.3850  -32.6853   25.0340 H   0  0  0  0  0  0
  -28.0626  -31.8538   26.5476 H   0  0  0  0  0  0
  -28.2565  -38.0103   24.7493 H   0  0  0  0  0  0
  -28.1094  -36.2644   24.6301 H   0  0  0  0  0  0
  -27.2292  -37.1442   25.8846 H   0  0  0  0  0  0
  -20.9354  -29.8815   21.6960 H   0  0  0  0  0  0
  -26.0196  -38.2842   24.1397 H   0  0  0  0  0  0
  -28.6658  -18.3340   19.9002 H   0  0  0  0  0  0
  -31.7869  -16.6019   22.3067 H   0  0  0  0  0  0
  -27.6004  -22.2069   21.3581 H   0  0  0  0  0  0
  -29.1157  -22.4182   22.1123 H   0  0  0  0  0  0
  -28.3561  -25.1185   21.9156 H   0  0  0  0  0  0
  -26.9965  -24.7850   20.8924 H   0  0  0  0  0  0
  -28.8314  -15.6665   20.6082 H   0  0  0  0  0  0
  -28.3903  -20.6871   19.7818 H   0  0  0  0  0  0
  1 25  1  0  0  0
  1 30  2  0  0  0
  1 81  1  0  0  0
  2  3  1  0  0  0
  2 25  1  0  0  0
  2 88  1  0  0  0
  2 89  1  0  0  0
  3  4  1  0  0  0
  3 90  1  0  0  0
  3 91  1  0  0  0
  4  5  1  0  0  0
  4 92  1  0  0  0
  4 93  1  0  0  0
  5  6  1  0  0  0
  5 26  1  0  0  0
  5 94  1  0  0  0
  6 25  1  0  0  0
  6 95  1  0  0  0
  6 96  1  0  0  0
  7  8  2  0  0  0
  7 26  1  0  0  0
  7 29  1  0  0  0
  8  9  1  0  0  0
  8 22  1  0  0  0
  9 10  1  0  0  0
  9 27  2  0  0  0
 10 11  2  0  0  0
 10 15  1  0  0  0
 11 12  1  0  0  0
 11 97  1  0  0  0
 12 13  2  0  0  0
 12 98  1  0  0  0
 13 14  1  0  0  0
 13 31  1  0  0  0
 14 15  2  0  0  0
 14 99  1  0  0  0
 15100  1  0  0  0
 16 17  2  0  0  0
 16 21  1  0  0  0
 16 31  1  0  0  0
 17 18  1  0  0  0
 17101  1  0  0  0
 18 19  2  0  0  0
 18102  1  0  0  0
 19 20  1  0  0  0
 19 24  1  0  0  0
 20 21  2  0  0  0
 20103  1  0  0  0
 21 23  1  0  0  0
 22 28  1  0  0  0
 22 32  2  0  0  0
 26 27  1  0  0  0
 28104  1  0  0  0
 28105  1  0  0  0
 29106  1  0  0  0
 29107  1  0  0  0
 33 34  1  0  0  0
 33 66  1  0  0  0
 33 70  2  0  0  0
 34 36  1  0  0  0
 34 59  1  0  0  0
 34108  1  0  0  0
 35 44  2  0  0  0
 35 45  1  0  0  0
 35 68  1  0  0  0
 36 56  1  0  0  0
 36109  1  0  0  0
 37 39  1  0  0  0
 37 47  1  0  0  0
 37 66  1  0  0  0
 37110  1  0  0  0
 38 43  2  0  0  0
 38 46  1  0  0  0
 38 47  1  0  0  0
 39 64  1  0  0  0
 39 67  2  0  0  0
 40 52  1  0  0  0
 40 53  2  0  0  0
 40 58  1  0  0  0
 41111  1  0  0  0
 41112  1  0  0  0
 41113  1  0  0  0
 41 48  1  0  0  0
 42 43  1  0  0  0
 42 66  1  0  0  0
 42114  1  0  0  0
 42115  1  0  0  0
 43 44  1  0  0  0
 44116  1  0  0  0
 45 46  2  0  0  0
 45117  1  0  0  0
 46118  1  0  0  0
 47119  1  0  0  0
 47120  1  0  0  0
 48 56  1  0  0  0
 48 65  1  0  0  0
 48121  1  0  0  0
 49 50  1  0  0  0
 49 53  1  0  0  0
 49 64  1  0  0  0
 49122  1  0  0  0
 50 51  1  0  0  0
 50123  1  0  0  0
 50124  1  0  0  0
 51 52  1  0  0  0
 51125  1  0  0  0
 51126  1  0  0  0
 52127  1  0  0  0
 52128  1  0  0  0
 53 54  1  0  0  0
 54 55  2  0  0  0
 54129  1  0  0  0
 55 57  1  0  0  0
 55130  1  0  0  0
 56 69  2  0  0  0
 57 58  2  0  0  0
 57131  1  0  0  0
 58132  1  0  0  0
 59 60  1  0  0  0
 59 61  1  0  0  0
 59 62  1  0  0  0
 60133  1  0  0  0
 60134  1  0  0  0
 60135  1  0  0  0
 61136  1  0  0  0
 61137  1  0  0  0
 61138  1  0  0  0
 62139  1  0  0  0
 62140  1  0  0  0
 62141  1  0  0  0
 63 65  1  0  0  0
 63142  1  0  0  0
 63143  1  0  0  0
 63144  1  0  0  0
 64145  1  0  0  0
 65146  1  0  0  0
 68 79  1  0  0  0
 71 74  2  0  0  0
 71 75  1  0  0  0
 71147  1  0  0  0
 72 74  1  0  0  0
 72 76  2  0  0  0
 72148  1  0  0  0
 73 75  2  0  0  0
 73 76  1  0  0  0
 73 80  1  0  0  0
 74 81  1  0  0  0
 75 82  1  0  0  0
 76 84  1  0  0  0
 77 78  1  0  0  0
 77 79  1  0  0  0
 77 83  2  0  0  0
 78 82  1  0  0  0
 78149  1  0  0  0
 78150  1  0  0  0
 79151  1  0  0  0
 79152  1  0  0  0
 80 85  1  0  0  0
 80 86  1  0  0  0
 80 87  1  0  0  0
 81153  1  0  0  0
 82154  1  0  0  0
M  ISO  4   1 100  68 101  79 101  81 100
M  END
> <chiral flag>
0

> <version>
0

> <s_m_source_file>
/data/baiqing/PycharmProjects/Reinvent-master-3.2/result/LINK_invent/BTK/process_docking_weight1_custom_product_contain_oxygen_bond_distance_aromatic_linkinvent_7_9_3/rearranged_h_0170.sdf

> <i_m_source_file_index>
46

> <r_mmod_Potential_Energy-OPLS-2005>
415.180114746094

> <r_mmod_Stretch_Energy-OPLS-2005>
134.512435913086

> <r_mmod_Bend_Energy-OPLS-2005>
183.590103149414

> <r_mmod_Torsional_Energy-OPLS-2005>
237.955612182617

> <r_mmod_Improper_Torsional_Energy-OPLS-2005>
8.7099084854126

> <r_mmod_Van_der_Waal_Energy-OPLS-2005>
143.873580932617

> <r_mmod_Electrostatic_Energy-OPLS-2005>
-127.69270324707

> <r_mmod_Solvation_Energy-OPLS-2005>
-250.73583984375

> <b_mmod_Minimization_Converged-OPLS-2005>
0

> <r_mmod_RMS_Derivative-OPLS-2005>
4.54895401000977

$$$$
46
                    3D
 Structure written by MMmdl.
163171  0  0  1  0            999 V2000
  -30.6820  -14.5161   20.4941 C   0  0  0  0  0  0
  -30.4214  -12.3165   19.4327 C   0  0  0  0  0  0
  -29.5000  -12.4908   18.2067 C   0  0  0  0  0  0
  -28.0209  -12.3510   18.6160 C   0  0  0  0  0  0
  -27.6550  -13.2122   19.8537 C   0  0  2  0  0  0
  -28.6963  -13.0342   20.9826 C   0  0  0  0  0  0
  -25.2570  -13.8156   20.5607 C   0  0  0  0  0  0
  -24.1841  -13.0438   20.9152 C   0  0  0  0  0  0
  -24.6394  -11.6902   20.8708 C   0  0  0  0  0  0
  -23.9038  -10.4282   21.0373 C   0  0  0  0  0  0
  -24.3592   -9.4209   21.9148 C   0  0  0  0  0  0
  -23.6280   -8.2240   22.0729 C   0  0  0  0  0  0
  -22.4258   -8.0258   21.3525 C   0  0  0  0  0  0
  -21.9873   -9.0239   20.4644 C   0  0  0  0  0  0
  -22.7201  -10.2121   20.3038 C   0  0  0  0  0  0
  -21.6845   -6.0707   22.5272 C   0  0  0  0  0  0
  -21.4001   -6.5612   23.8209 C   0  0  0  0  0  0
  -21.3672   -5.6768   24.9178 C   0  0  0  0  0  0
  -21.6052   -4.3030   24.7226 C   0  0  0  0  0  0
  -21.8832   -3.8115   23.4351 C   0  0  0  0  0  0
  -21.9190   -4.6931   22.3406 C   0  0  0  0  0  0
  -22.7871  -13.5241   21.1827 C   0  0  0  0  0  0
  -22.1677   -4.2114   21.0987 F   0  0  0  0  0  0
  -21.5624   -3.4528   25.7750 F   0  0  0  0  0  0
  -30.0267  -13.3251   20.4298 N   0  0  0  0  0  0
  -26.2990  -12.9339   20.3219 N   0  0  0  0  0  0
  -25.9303  -11.6490   20.5664 N   0  0  0  0  0  0
  -22.0501  -12.8249   22.0398 N   0  0  0  0  0  0
  -25.4308  -15.1894   20.4032 N   0  0  0  0  0  0
  -31.8479  -14.6499   20.1086 O   0  0  0  0  0  0
  -21.6631   -6.8854   21.4237 O   0  0  0  0  0  0
  -22.3562  -14.5541   20.6675 O   0  0  0  0  0  0
  -24.6168  -31.8680   23.2048 C   0  0  0  0  0  0
  -25.9051  -32.4811   23.8361 C   0  0  1  0  0  0
  -27.2443  -27.4165   20.1108 C   0  0  0  0  0  0
  -25.5906  -33.8597   24.2315 N   0  0  0  0  0  0
  -23.4071  -30.4895   21.5457 C   0  0  2  0  0  0
  -24.8570  -28.9424   20.1206 C   0  0  0  0  0  0
  -22.7438  -29.4673   22.4979 C   0  0  0  0  0  0
  -18.0288  -28.1378   22.8507 C   0  0  0  0  0  0
  -24.1501  -36.7293   23.2640 C   0  0  0  0  0  0
  -25.9364  -30.8263   21.3613 C   0  0  0  0  0  0
  -26.0171  -29.4560   20.7159 C   0  0  0  0  0  0
  -27.2143  -28.7018   20.7061 C   0  0  0  0  0  0
  -26.0687  -26.9175   19.5126 C   0  0  0  0  0  0
  -24.8774  -27.6717   19.5175 C   0  0  0  0  0  0
  -23.6189  -29.8124   20.1634 C   0  0  0  0  0  0
  -25.4114  -36.3089   24.0348 C   0  0  1  0  0  0
  -20.5885  -28.3657   23.1326 C   0  0  2  0  0  0
  -20.6769  -26.9382   22.5462 C   0  0  0  0  0  0
  -19.5753  -26.6386   21.5247 C   0  0  0  0  0  0
  -18.1921  -26.7931   22.1629 C   0  0  0  0  0  0
  -19.1543  -28.8835   23.2912 C   0  0  0  0  0  0
  -18.9465  -30.1453   23.8901 C   0  0  0  0  0  0
  -17.6463  -30.6569   24.0580 C   0  0  0  0  0  0
  -25.9044  -34.9465   23.5129 C   0  0  0  0  0  0
  -16.5357  -29.9080   23.6334 C   0  0  0  0  0  0
  -16.7283  -28.6510   23.0343 C   0  0  0  0  0  0
  -26.4498  -31.6590   25.0687 C   0  0  0  0  0  0
  -25.3791  -31.3782   26.1482 C   0  0  0  0  0  0
  -27.0261  -30.2996   24.6076 C   0  0  0  0  0  0
  -27.6131  -32.4283   25.7379 C   0  0  0  0  0  0
  -27.5599  -37.1793   24.8458 C   0  0  0  0  0  0
  -21.4161  -29.3030   22.3731 N   0  0  0  0  0  0
  -26.4302  -37.3776   23.9417 N   0  0  0  0  0  0
  -24.6713  -31.0769   22.0947 N   0  0  0  0  0  0
  -23.4215  -28.8217   23.3021 O   0  0  0  0  0  0
  -28.4035  -26.6693   20.0680 O   0  0  0  0  0  0
  -26.5594  -34.8933   22.4682 O   0  0  0  0  0  0
  -23.5352  -32.1441   23.7434 O   0  0  0  0  0  0
  -30.4705  -18.1717   18.0924 C   0  0  0  0  0  0
  -30.3865  -19.3762   18.8129 C   0  0  0  0  0  0
  -30.3085  -16.9376   18.7435 C   0  0  0  0  0  0
  -30.1192  -19.3710   20.2008 C   0  0  0  0  0  0
  -30.0752  -16.8833   20.1393 C   0  0  0  0  0  0
  -29.9608  -18.1102   20.8585 C   0  0  0  0  0  0
  -30.1147  -20.6808   20.9096 C   0  0  0  0  0  0
  -31.9707  -24.6565   21.4567 C   0  0  0  0  0  0
  -28.8122  -24.2017   20.1611 C   0  0  0  0  0  0
  -33.3780  -25.1531   21.1588 C   0  0  0  0  0  0
  -31.3063  -23.7555   20.4084 C   0  0  0  0  0  0
  -28.4282  -25.5024   20.9191 C   0  0  0  0  0  0
  -29.8793  -23.2481   20.7814 C   0  0  2  0  0  0
  -29.9329  -15.6032   20.7878 N   0  0  0  0  0  0
  -29.6971  -21.8312   20.3186 N   0  0  0  0  0  0
  -30.6129  -20.7714   22.1451 N   0  3  0  0  0  0
  -31.4052  -24.9630   22.5072 O   0  0  0  0  0  0
  -28.2592  -23.9226   19.0922 O   0  0  0  0  0  0
  -29.7415  -18.0650   22.1950 F   0  0  0  0  0  0
  -31.4677  -12.4032   19.1347 H   0  0  0  0  0  0
  -30.3111  -11.3124   19.8474 H   0  0  0  0  0  0
  -29.7484  -11.7517   17.4443 H   0  0  0  0  0  0
  -29.6685  -13.4659   17.7451 H   0  0  0  0  0  0
  -27.8391  -11.2993   18.8352 H   0  0  0  0  0  0
  -27.3692  -12.5965   17.7764 H   0  0  0  0  0  0
  -27.6870  -14.2515   19.5249 H   0  0  0  0  0  0
  -28.6711  -12.0102   21.3595 H   0  0  0  0  0  0
  -28.4591  -13.6738   21.8336 H   0  0  0  0  0  0
  -25.2749   -9.5700   22.4696 H   0  0  0  0  0  0
  -24.0005   -7.4629   22.7437 H   0  0  0  0  0  0
  -21.0780   -8.8749   19.8983 H   0  0  0  0  0  0
  -22.3629  -10.9636   19.6141 H   0  0  0  0  0  0
  -21.1995   -7.6117   23.9698 H   0  0  0  0  0  0
  -21.1482   -6.0498   25.9077 H   0  0  0  0  0  0
  -22.0600   -2.7564   23.2858 H   0  0  0  0  0  0
  -22.4112  -11.9953   22.4855 H   0  0  0  0  0  0
  -21.1122  -13.1305   22.2565 H   0  0  0  0  0  0
  -24.6580  -15.8394   20.4854 H   0  0  0  0  0  0
  -26.2709  -15.6158   20.0349 H   0  0  0  0  0  0
  -26.7110  -32.5544   23.1117 H   0  0  0  0  0  0
  -25.0123  -33.9727   25.0507 H   0  0  0  0  0  0
  -22.6994  -31.3089   21.4020 H   0  0  0  0  0  0
  -23.3764  -35.9624   23.3309 H   0  0  0  0  0  0
  -24.3619  -36.8899   22.2055 H   0  0  0  0  0  0
  -23.7256  -37.6506   23.6642 H   0  0  0  0  0  0
  -26.0564  -31.5881   20.5894 H   0  0  0  0  0  0
  -26.8198  -30.8792   21.9857 H   0  0  0  0  0  0
  -28.1125  -29.0985   21.1610 H   0  0  0  0  0  0
  -26.0796  -25.9470   19.0364 H   0  0  0  0  0  0
  -23.9829  -27.2730   19.0588 H   0  0  0  0  0  0
  -23.7338  -30.5815   19.3988 H   0  0  0  0  0  0
  -22.7419  -29.2345   19.8668 H   0  0  0  0  0  0
  -25.1302  -36.1942   25.0843 H   0  0  0  0  0  0
  -21.0003  -28.3217   24.1435 H   0  0  0  0  0  0
  -20.5669  -26.2269   23.3662 H   0  0  0  0  0  0
  -21.6649  -26.7420   22.1268 H   0  0  0  0  0  0
  -19.6910  -25.6313   21.1250 H   0  0  0  0  0  0
  -19.6679  -27.3229   20.6805 H   0  0  0  0  0  0
  -17.4234  -26.6756   21.3974 H   0  0  0  0  0  0
  -18.0242  -26.0049   22.8988 H   0  0  0  0  0  0
  -19.7946  -30.7291   24.2235 H   0  0  0  0  0  0
  -17.5021  -31.6236   24.5213 H   0  0  0  0  0  0
  -15.5355  -30.2979   23.7643 H   0  0  0  0  0  0
  -15.8705  -28.0842   22.6998 H   0  0  0  0  0  0
  -24.5854  -30.7240   25.7873 H   0  0  0  0  0  0
  -24.9118  -32.2989   26.4986 H   0  0  0  0  0  0
  -25.8150  -30.8900   27.0205 H   0  0  0  0  0  0
  -26.2738  -29.6745   24.1253 H   0  0  0  0  0  0
  -27.4128  -29.7264   25.4514 H   0  0  0  0  0  0
  -27.8571  -30.4269   23.9130 H   0  0  0  0  0  0
  -27.2820  -33.3606   26.1967 H   0  0  0  0  0  0
  -28.3893  -32.6807   25.0140 H   0  0  0  0  0  0
  -28.0852  -31.8401   26.5258 H   0  0  0  0  0  0
  -28.2659  -38.0057   24.7478 H   0  0  0  0  0  0
  -28.1061  -36.2598   24.6292 H   0  0  0  0  0  0
  -27.2345  -37.1463   25.8875 H   0  0  0  0  0  0
  -20.9330  -29.8744   21.6940 H   0  0  0  0  0  0
  -26.0197  -38.2871   24.1385 H   0  0  0  0  0  0
  -30.6860  -18.1901   17.0323 H   0  0  0  0  0  0
  -30.5619  -20.3038   18.2861 H   0  0  0  0  0  0
  -30.3802  -16.0350   18.1539 H   0  0  0  0  0  0
  -33.3561  -25.9348   20.4006 H   0  0  0  0  0  0
  -34.0019  -24.3369   20.7943 H   0  0  0  0  0  0
  -33.8322  -25.5606   22.0613 H   0  0  0  0  0  0
  -31.9766  -22.9164   20.2196 H   0  0  0  0  0  0
  -31.2768  -24.3218   19.4743 H   0  0  0  0  0  0
  -29.1412  -25.6813   21.7227 H   0  0  0  0  0  0
  -27.4570  -25.3486   21.3905 H   0  0  0  0  0  0
  -29.7502  -23.2585   21.8646 H   0  0  0  0  0  0
  -29.0736  -15.4504   21.2943 H   0  0  0  0  0  0
  -29.1794  -21.7388   19.4500 H   0  0  0  0  0  0
  -30.8555  -19.9192   22.6321 H   0  0  0  0  0  0
  -30.6444  -21.6418   22.6461 H   0  0  0  0  0  0
  1 25  1  0  0  0
  1 30  2  0  0  0
  1 84  1  0  0  0
  2  3  1  0  0  0
  2 25  1  0  0  0
  2 90  1  0  0  0
  2 91  1  0  0  0
  3  4  1  0  0  0
  3 92  1  0  0  0
  3 93  1  0  0  0
  4  5  1  0  0  0
  4 94  1  0  0  0
  4 95  1  0  0  0
  5  6  1  0  0  0
  5 26  1  0  0  0
  5 96  1  0  0  0
  6 25  1  0  0  0
  6 97  1  0  0  0
  6 98  1  0  0  0
  7  8  2  0  0  0
  7 26  1  0  0  0
  7 29  1  0  0  0
  8  9  1  0  0  0
  8 22  1  0  0  0
  9 10  1  0  0  0
  9 27  2  0  0  0
 10 11  2  0  0  0
 10 15  1  0  0  0
 11 12  1  0  0  0
 11 99  1  0  0  0
 12 13  2  0  0  0
 12100  1  0  0  0
 13 14  1  0  0  0
 13 31  1  0  0  0
 14 15  2  0  0  0
 14101  1  0  0  0
 15102  1  0  0  0
 16 17  2  0  0  0
 16 21  1  0  0  0
 16 31  1  0  0  0
 17 18  1  0  0  0
 17103  1  0  0  0
 18 19  2  0  0  0
 18104  1  0  0  0
 19 20  1  0  0  0
 19 24  1  0  0  0
 20 21  2  0  0  0
 20105  1  0  0  0
 21 23  1  0  0  0
 22 28  1  0  0  0
 22 32  2  0  0  0
 26 27  1  0  0  0
 28106  1  0  0  0
 28107  1  0  0  0
 29108  1  0  0  0
 29109  1  0  0  0
 33 34  1  0  0  0
 33 66  1  0  0  0
 33 70  2  0  0  0
 34 36  1  0  0  0
 34 59  1  0  0  0
 34110  1  0  0  0
 35 44  2  0  0  0
 35 45  1  0  0  0
 35 68  1  0  0  0
 36 56  1  0  0  0
 36111  1  0  0  0
 37 39  1  0  0  0
 37 47  1  0  0  0
 37 66  1  0  0  0
 37112  1  0  0  0
 38 43  2  0  0  0
 38 46  1  0  0  0
 38 47  1  0  0  0
 39 64  1  0  0  0
 39 67  2  0  0  0
 40 52  1  0  0  0
 40 53  2  0  0  0
 40 58  1  0  0  0
 41113  1  0  0  0
 41114  1  0  0  0
 41115  1  0  0  0
 41 48  1  0  0  0
 42 43  1  0  0  0
 42 66  1  0  0  0
 42116  1  0  0  0
 42117  1  0  0  0
 43 44  1  0  0  0
 44118  1  0  0  0
 45 46  2  0  0  0
 45119  1  0  0  0
 46120  1  0  0  0
 47121  1  0  0  0
 47122  1  0  0  0
 48 56  1  0  0  0
 48 65  1  0  0  0
 48123  1  0  0  0
 49 50  1  0  0  0
 49 53  1  0  0  0
 49 64  1  0  0  0
 49124  1  0  0  0
 50 51  1  0  0  0
 50125  1  0  0  0
 50126  1  0  0  0
 51 52  1  0  0  0
 51127  1  0  0  0
 51128  1  0  0  0
 52129  1  0  0  0
 52130  1  0  0  0
 53 54  1  0  0  0
 54 55  2  0  0  0
 54131  1  0  0  0
 55 57  1  0  0  0
 55132  1  0  0  0
 56 69  2  0  0  0
 57 58  2  0  0  0
 57133  1  0  0  0
 58134  1  0  0  0
 59 60  1  0  0  0
 59 61  1  0  0  0
 59 62  1  0  0  0
 60135  1  0  0  0
 60136  1  0  0  0
 60137  1  0  0  0
 61138  1  0  0  0
 61139  1  0  0  0
 61140  1  0  0  0
 62141  1  0  0  0
 62142  1  0  0  0
 62143  1  0  0  0
 63 65  1  0  0  0
 63144  1  0  0  0
 63145  1  0  0  0
 63146  1  0  0  0
 64147  1  0  0  0
 65148  1  0  0  0
 68 82  1  0  0  0
 71 72  2  0  0  0
 71 73  1  0  0  0
 71149  1  0  0  0
 72 74  1  0  0  0
 72150  1  0  0  0
 73 75  2  0  0  0
 73151  1  0  0  0
 74 76  2  0  0  0
 74 77  1  0  0  0
 75 76  1  0  0  0
 75 84  1  0  0  0
 76 89  1  0  0  0
 77 85  1  0  0  0
 77 86  2  0  0  0
 78 80  1  0  0  0
 78 81  1  0  0  0
 78 87  2  0  0  0
 79 82  1  0  0  0
 79 83  1  0  0  0
 79 88  2  0  0  0
 80152  1  0  0  0
 80153  1  0  0  0
 80154  1  0  0  0
 81155  1  0  0  0
 81156  1  0  0  0
 81 83  1  0  0  0
 82157  1  0  0  0
 82158  1  0  0  0
 83 85  1  0  0  0
 83159  1  0  0  0
 84160  1  0  0  0
 85161  1  0  0  0
 86162  1  0  0  0
 86163  1  0  0  0
M  CHG  1  86   1
M  ISO  4   1 100  68 101  82 101  84 100
M  END
> <chiral flag>
0

> <version>
0

> <s_m_source_file>
/data/baiqing/PycharmProjects/Reinvent-master-3.2/result/LINK_invent/BTK/process_docking_weight1_custom_product_contain_oxygen_bond_distance_aromatic_linkinvent_7_9_3/rearranged_h_0170.sdf

> <i_m_source_file_index>
47

> <r_mmod_Potential_Energy-OPLS-2005>
-314.513214111328

> <r_mmod_Stretch_Energy-OPLS-2005>
47.9210624694824

> <r_mmod_Bend_Energy-OPLS-2005>
96.0456848144531

> <r_mmod_Torsional_Energy-OPLS-2005>
269.163146972656

> <r_mmod_Improper_Torsional_Energy-OPLS-2005>
7.12886714935303

> <r_mmod_Van_der_Waal_Energy-OPLS-2005>
147.752960205078

> <r_mmod_Electrostatic_Energy-OPLS-2005>
-455.826263427734

> <r_mmod_Solvation_Energy-OPLS-2005>
-445.700347900391

> <b_mmod_Minimization_Converged-OPLS-2005>
0

> <r_mmod_RMS_Derivative-OPLS-2005>
3.58876395225525

$$$$
47
                    3D
 Structure written by MMmdl.
153161  0  0  1  0            999 V2000
  -30.7943  -14.4596   20.5308 C   0  0  0  0  0  0
  -30.4037  -12.2921   19.4314 C   0  0  0  0  0  0
  -29.4934  -12.4861   18.2041 C   0  0  0  0  0  0
  -28.0198  -12.3426   18.6207 C   0  0  0  0  0  0
  -27.6601  -13.2170   19.8526 C   0  0  2  0  0  0
  -28.7105  -13.0725   20.9809 C   0  0  0  0  0  0
  -25.2626  -13.8189   20.5709 C   0  0  0  0  0  0
  -24.1886  -13.0455   20.9179 C   0  0  0  0  0  0
  -24.6418  -11.6910   20.8675 C   0  0  0  0  0  0
  -23.9061  -10.4301   21.0362 C   0  0  0  0  0  0
  -24.3624   -9.4225   21.9126 C   0  0  0  0  0  0
  -23.6303   -8.2260   22.0747 C   0  0  0  0  0  0
  -22.4273   -8.0291   21.3567 C   0  0  0  0  0  0
  -21.9920   -9.0245   20.4644 C   0  0  0  0  0  0
  -22.7243  -10.2120   20.3014 C   0  0  0  0  0  0
  -21.6853   -6.0740   22.5280 C   0  0  0  0  0  0
  -21.3999   -6.5635   23.8211 C   0  0  0  0  0  0
  -21.3658   -5.6788   24.9173 C   0  0  0  0  0  0
  -21.6060   -4.3056   24.7215 C   0  0  0  0  0  0
  -21.8825   -3.8158   23.4325 C   0  0  0  0  0  0
  -21.9195   -4.6975   22.3388 C   0  0  0  0  0  0
  -22.7911  -13.5244   21.1813 C   0  0  0  0  0  0
  -22.1672   -4.2177   21.0960 F   0  0  0  0  0  0
  -21.5635   -3.4532   25.7714 F   0  0  0  0  0  0
  -30.0447  -13.3265   20.4165 N   0  0  0  0  0  0
  -26.3059  -12.9368   20.3305 N   0  0  0  0  0  0
  -25.9345  -11.6529   20.5687 N   0  0  0  0  0  0
  -22.0513  -12.8264   22.0353 N   0  0  0  0  0  0
  -25.4338  -15.1914   20.4134 N   0  0  0  0  0  0
  -31.9263  -14.5458   20.0545 O   0  0  0  0  0  0
  -21.6646   -6.8891   21.4245 O   0  0  0  0  0  0
  -22.3605  -14.5538   20.6632 O   0  0  0  0  0  0
  -24.6150  -31.8685   23.2072 C   0  0  0  0  0  0
  -25.9034  -32.4812   23.8363 C   0  0  1  0  0  0
  -27.2446  -27.4321   20.1104 C   0  0  0  0  0  0
  -25.5905  -33.8619   24.2294 N   0  0  0  0  0  0
  -23.4033  -30.4914   21.5469 C   0  0  2  0  0  0
  -24.8537  -28.9605   20.1123 C   0  0  0  0  0  0
  -22.7401  -29.4660   22.4945 C   0  0  0  0  0  0
  -18.0236  -28.1395   22.8445 C   0  0  0  0  0  0
  -24.1489  -36.7336   23.2635 C   0  0  0  0  0  0
  -25.9320  -30.8365   21.3589 C   0  0  0  0  0  0
  -26.0155  -29.4726   20.7073 C   0  0  0  0  0  0
  -27.2144  -28.7193   20.6979 C   0  0  0  0  0  0
  -26.0672  -26.9482   19.4926 C   0  0  0  0  0  0
  -24.8782  -27.6999   19.4972 C   0  0  0  0  0  0
  -23.6153  -29.8274   20.1598 C   0  0  0  0  0  0
  -25.4105  -36.3101   24.0320 C   0  0  1  0  0  0
  -20.5833  -28.3696   23.1298 C   0  0  2  0  0  0
  -20.6703  -26.9378   22.5477 C   0  0  0  0  0  0
  -19.5765  -26.6412   21.5169 C   0  0  0  0  0  0
  -18.1933  -26.7935   22.1544 C   0  0  0  0  0  0
  -19.1492  -28.8893   23.2881 C   0  0  0  0  0  0
  -18.9371  -30.1496   23.8864 C   0  0  0  0  0  0
  -17.6358  -30.6579   24.0571 C   0  0  0  0  0  0
  -25.9040  -34.9469   23.5107 C   0  0  0  0  0  0
  -16.5283  -29.9067   23.6280 C   0  0  0  0  0  0
  -16.7234  -28.6505   23.0251 C   0  0  0  0  0  0
  -26.4460  -31.6597   25.0710 C   0  0  0  0  0  0
  -25.3738  -31.3702   26.1458 C   0  0  0  0  0  0
  -27.0284  -30.3026   24.6107 C   0  0  0  0  0  0
  -27.6007  -32.4335   25.7504 C   0  0  0  0  0  0
  -27.5572  -37.1832   24.8470 C   0  0  0  0  0  0
  -21.4139  -29.3027   22.3680 N   0  0  0  0  0  0
  -26.4295  -37.3787   23.9404 N   0  0  0  0  0  0
  -24.6681  -31.0783   22.0968 N   0  0  0  0  0  0
  -23.4159  -28.8207   23.3011 O   0  0  0  0  0  0
  -28.3976  -26.6655   20.1612 O   0  0  0  0  0  0
  -26.5605  -34.8935   22.4679 O   0  0  0  0  0  0
  -23.5325  -32.1443   23.7462 O   0  0  0  0  0  0
  -28.6329  -17.9663   21.3481 C   0  0  0  0  0  0
  -30.5359  -19.4286   21.0092 C   0  0  0  0  0  0
  -27.8283  -19.1097   21.3366 C   0  0  0  0  0  0
  -30.0149  -18.1107   21.1480 C   0  0  0  0  0  0
  -29.6546  -20.5374   21.0272 C   0  0  0  0  0  0
  -29.3855  -24.3978   20.7055 C   0  0  0  0  0  0
  -30.9093  -16.8753   21.0442 C   0  0  0  0  0  0
  -29.0554  -22.8942   20.6028 C   0  0  0  0  0  0
  -28.1418  -25.3090   20.5772 C   0  0  0  0  0  0
  -28.3225  -20.3528   21.1583 N   0  0  0  0  0  0
  -30.0920  -21.8793   20.9157 N   0  0  0  0  0  0
  -30.2252  -15.5574   21.0506 N   0  0  0  0  0  0
  -30.5315  -24.8180   20.8936 O   0  0  0  0  0  0
  -31.4552  -12.3323   19.1428 H   0  0  0  0  0  0
  -30.2546  -11.2982   19.8616 H   0  0  0  0  0  0
  -29.7358  -11.7532   17.4333 H   0  0  0  0  0  0
  -29.6675  -13.4680   17.7625 H   0  0  0  0  0  0
  -27.8466  -11.2912   18.8558 H   0  0  0  0  0  0
  -27.3662  -12.5814   17.7802 H   0  0  0  0  0  0
  -27.6780  -14.2493   19.5004 H   0  0  0  0  0  0
  -28.6852  -12.0670   21.4019 H   0  0  0  0  0  0
  -28.4853  -13.7483   21.8039 H   0  0  0  0  0  0
  -25.2769   -9.5724   22.4700 H   0  0  0  0  0  0
  -24.0018   -7.4671   22.7491 H   0  0  0  0  0  0
  -21.0854   -8.8763   19.8958 H   0  0  0  0  0  0
  -22.3692  -10.9653   19.6134 H   0  0  0  0  0  0
  -21.1973   -7.6136   23.9735 H   0  0  0  0  0  0
  -21.1479   -6.0496   25.9083 H   0  0  0  0  0  0
  -22.0603   -2.7626   23.2803 H   0  0  0  0  0  0
  -22.4115  -11.9950   22.4793 H   0  0  0  0  0  0
  -21.1110  -13.1342   22.2409 H   0  0  0  0  0  0
  -24.6693  -15.8488   20.5307 H   0  0  0  0  0  0
  -26.2928  -15.6372   20.1197 H   0  0  0  0  0  0
  -26.7136  -32.5525   23.1149 H   0  0  0  0  0  0
  -25.0045  -33.9753   25.0420 H   0  0  0  0  0  0
  -22.6946  -31.3093   21.4107 H   0  0  0  0  0  0
  -23.3723  -35.9711   23.3331 H   0  0  0  0  0  0
  -24.3547  -36.8923   22.2042 H   0  0  0  0  0  0
  -23.7286  -37.6568   23.6639 H   0  0  0  0  0  0
  -26.0416  -31.6027   20.5891 H   0  0  0  0  0  0
  -26.8174  -30.8889   21.9808 H   0  0  0  0  0  0
  -28.1070  -29.1124   21.1606 H   0  0  0  0  0  0
  -26.0444  -25.9895   18.9959 H   0  0  0  0  0  0
  -23.9888  -27.3029   19.0224 H   0  0  0  0  0  0
  -23.7264  -30.6021   19.4020 H   0  0  0  0  0  0
  -22.7362  -29.2514   19.8608 H   0  0  0  0  0  0
  -25.1285  -36.1959   25.0814 H   0  0  0  0  0  0
  -20.9894  -28.3301   24.1435 H   0  0  0  0  0  0
  -20.5401  -26.2308   23.3695 H   0  0  0  0  0  0
  -21.6622  -26.7217   22.1480 H   0  0  0  0  0  0
  -19.6989  -25.6315   21.1190 H   0  0  0  0  0  0
  -19.6740  -27.3228   20.6700 H   0  0  0  0  0  0
  -17.4263  -26.6647   21.3878 H   0  0  0  0  0  0
  -18.0313  -26.0043   22.8918 H   0  0  0  0  0  0
  -19.7826  -30.7356   24.2238 H   0  0  0  0  0  0
  -17.4798  -31.6253   24.5179 H   0  0  0  0  0  0
  -15.5263  -30.2925   23.7481 H   0  0  0  0  0  0
  -15.8662  -28.0844   22.6871 H   0  0  0  0  0  0
  -24.5907  -30.7057   25.7793 H   0  0  0  0  0  0
  -24.8953  -32.2870   26.4927 H   0  0  0  0  0  0
  -25.8094  -30.8848   27.0208 H   0  0  0  0  0  0
  -26.2827  -29.6800   24.1164 H   0  0  0  0  0  0
  -27.4026  -29.7243   25.4571 H   0  0  0  0  0  0
  -27.8676  -30.4293   23.9262 H   0  0  0  0  0  0
  -27.2569  -33.3612   26.2099 H   0  0  0  0  0  0
  -28.3820  -32.6952   25.0355 H   0  0  0  0  0  0
  -28.0693  -31.8475   26.5420 H   0  0  0  0  0  0
  -28.2609  -38.0106   24.7454 H   0  0  0  0  0  0
  -28.1035  -36.2630   24.6365 H   0  0  0  0  0  0
  -27.2280  -37.1568   25.8871 H   0  0  0  0  0  0
  -20.9340  -29.8692   21.6831 H   0  0  0  0  0  0
  -26.0174  -38.2870   24.1409 H   0  0  0  0  0  0
  -28.1689  -17.0002   21.4894 H   0  0  0  0  0  0
  -31.6001  -19.5635   20.8678 H   0  0  0  0  0  0
  -26.7593  -19.0255   21.4716 H   0  0  0  0  0  0
  -31.6622  -16.8960   21.8328 H   0  0  0  0  0  0
  -31.4520  -16.9946   20.1049 H   0  0  0  0  0  0
  -28.2226  -22.7504   21.2863 H   0  0  0  0  0  0
  -28.6670  -22.7264   19.6003 H   0  0  0  0  0  0
  -27.4854  -24.8098   19.8693 H   0  0  0  0  0  0
  -27.6283  -25.3307   21.5403 H   0  0  0  0  0  0
  -31.0807  -22.1406   20.9040 H   0  0  0  0  0  0
  -29.2725  -15.5178   21.3723 H   0  0  0  0  0  0
  1 25  1  0  0  0
  1 30  2  0  0  0
  1 82  1  0  0  0
  2  3  1  0  0  0
  2 25  1  0  0  0
  2 84  1  0  0  0
  2 85  1  0  0  0
  3  4  1  0  0  0
  3 86  1  0  0  0
  3 87  1  0  0  0
  4  5  1  0  0  0
  4 88  1  0  0  0
  4 89  1  0  0  0
  5  6  1  0  0  0
  5 26  1  0  0  0
  5 90  1  0  0  0
  6 25  1  0  0  0
  6 91  1  0  0  0
  6 92  1  0  0  0
  7  8  2  0  0  0
  7 26  1  0  0  0
  7 29  1  0  0  0
  8  9  1  0  0  0
  8 22  1  0  0  0
  9 10  1  0  0  0
  9 27  2  0  0  0
 10 11  2  0  0  0
 10 15  1  0  0  0
 11 12  1  0  0  0
 11 93  1  0  0  0
 12 13  2  0  0  0
 12 94  1  0  0  0
 13 14  1  0  0  0
 13 31  1  0  0  0
 14 15  2  0  0  0
 14 95  1  0  0  0
 15 96  1  0  0  0
 16 17  2  0  0  0
 16 21  1  0  0  0
 16 31  1  0  0  0
 17 18  1  0  0  0
 17 97  1  0  0  0
 18 19  2  0  0  0
 18 98  1  0  0  0
 19 20  1  0  0  0
 19 24  1  0  0  0
 20 21  2  0  0  0
 20 99  1  0  0  0
 21 23  1  0  0  0
 22 28  1  0  0  0
 22 32  2  0  0  0
 26 27  1  0  0  0
 28100  1  0  0  0
 28101  1  0  0  0
 29102  1  0  0  0
 29103  1  0  0  0
 33 34  1  0  0  0
 33 66  1  0  0  0
 33 70  2  0  0  0
 34 36  1  0  0  0
 34 59  1  0  0  0
 34104  1  0  0  0
 35 44  2  0  0  0
 35 45  1  0  0  0
 35 68  1  0  0  0
 36 56  1  0  0  0
 36105  1  0  0  0
 37 39  1  0  0  0
 37 47  1  0  0  0
 37 66  1  0  0  0
 37106  1  0  0  0
 38 43  2  0  0  0
 38 46  1  0  0  0
 38 47  1  0  0  0
 39 64  1  0  0  0
 39 67  2  0  0  0
 40 52  1  0  0  0
 40 53  2  0  0  0
 40 58  1  0  0  0
 41107  1  0  0  0
 41108  1  0  0  0
 41109  1  0  0  0
 41 48  1  0  0  0
 42 43  1  0  0  0
 42 66  1  0  0  0
 42110  1  0  0  0
 42111  1  0  0  0
 43 44  1  0  0  0
 44112  1  0  0  0
 45 46  2  0  0  0
 45113  1  0  0  0
 46114  1  0  0  0
 47115  1  0  0  0
 47116  1  0  0  0
 48 56  1  0  0  0
 48 65  1  0  0  0
 48117  1  0  0  0
 49 50  1  0  0  0
 49 53  1  0  0  0
 49 64  1  0  0  0
 49118  1  0  0  0
 50 51  1  0  0  0
 50119  1  0  0  0
 50120  1  0  0  0
 51 52  1  0  0  0
 51121  1  0  0  0
 51122  1  0  0  0
 52123  1  0  0  0
 52124  1  0  0  0
 53 54  1  0  0  0
 54 55  2  0  0  0
 54125  1  0  0  0
 55 57  1  0  0  0
 55126  1  0  0  0
 56 69  2  0  0  0
 57 58  2  0  0  0
 57127  1  0  0  0
 58128  1  0  0  0
 59 60  1  0  0  0
 59 61  1  0  0  0
 59 62  1  0  0  0
 60129  1  0  0  0
 60130  1  0  0  0
 60131  1  0  0  0
 61132  1  0  0  0
 61133  1  0  0  0
 61134  1  0  0  0
 62135  1  0  0  0
 62136  1  0  0  0
 62137  1  0  0  0
 63 65  1  0  0  0
 63138  1  0  0  0
 63139  1  0  0  0
 63140  1  0  0  0
 64141  1  0  0  0
 65142  1  0  0  0
 68 79  1  0  0  0
 71 73  2  0  0  0
 71 74  1  0  0  0
 71143  1  0  0  0
 72 74  2  0  0  0
 72 75  1  0  0  0
 72144  1  0  0  0
 73 80  1  0  0  0
 73145  1  0  0  0
 74 77  1  0  0  0
 75 80  2  0  0  0
 75 81  1  0  0  0
 76 78  1  0  0  0
 76 79  1  0  0  0
 76 83  2  0  0  0
 77 82  1  0  0  0
 77146  1  0  0  0
 77147  1  0  0  0
 78 81  1  0  0  0
 78148  1  0  0  0
 78149  1  0  0  0
 79150  1  0  0  0
 79151  1  0  0  0
 81152  1  0  0  0
 82153  1  0  0  0
M  ISO  4   1 100  68 101  79 101  82 100
M  END
> <chiral flag>
0

> <version>
0

> <s_m_source_file>
/data/baiqing/PycharmProjects/Reinvent-master-3.2/result/LINK_invent/BTK/process_docking_weight1_custom_product_contain_oxygen_bond_distance_aromatic_linkinvent_7_9_3/rearranged_h_0170.sdf

> <i_m_source_file_index>
48

> <r_mmod_Potential_Energy-OPLS-2005>
-406.098571777344

> <r_mmod_Stretch_Energy-OPLS-2005>
41.9586067199707

> <r_mmod_Bend_Energy-OPLS-2005>
118.759841918945

> <r_mmod_Torsional_Energy-OPLS-2005>
196.764251708984

> <r_mmod_Improper_Torsional_Energy-OPLS-2005>
3.38019227981567

> <r_mmod_Van_der_Waal_Energy-OPLS-2005>
168.180465698242

> <r_mmod_Electrostatic_Energy-OPLS-2005>
-700.110595703125

> <r_mmod_Solvation_Energy-OPLS-2005>
-255.336791992188

> <b_mmod_Minimization_Converged-OPLS-2005>
0

> <r_mmod_RMS_Derivative-OPLS-2005>
7.48538160324097

$$$$
48
                    3D
 Structure written by MMmdl.
154163  0  0  1  0            999 V2000
  -30.6121  -14.5786   20.5384 C   0  0  0  0  0  0
  -30.4527  -12.3591   19.4442 C   0  0  0  0  0  0
  -29.5167  -12.4968   18.2226 C   0  0  0  0  0  0
  -28.0344  -12.3450   18.6282 C   0  0  0  0  0  0
  -27.6610  -13.1999   19.8675 C   0  0  2  0  0  0
  -28.7007  -12.9975   20.9935 C   0  0  0  0  0  0
  -25.2610  -13.8125   20.5664 C   0  0  0  0  0  0
  -24.1856  -13.0423   20.9170 C   0  0  0  0  0  0
  -24.6388  -11.6875   20.8725 C   0  0  0  0  0  0
  -23.9047  -10.4279   21.0412 C   0  0  0  0  0  0
  -24.3588   -9.4195   21.9197 C   0  0  0  0  0  0
  -23.6269   -8.2231   22.0752 C   0  0  0  0  0  0
  -22.4265   -8.0265   21.3537 C   0  0  0  0  0  0
  -21.9900   -9.0242   20.4640 C   0  0  0  0  0  0
  -22.7215  -10.2125   20.3061 C   0  0  0  0  0  0
  -21.6846   -6.0729   22.5272 C   0  0  0  0  0  0
  -21.4019   -6.5638   23.8209 C   0  0  0  0  0  0
  -21.3666   -5.6788   24.9176 C   0  0  0  0  0  0
  -21.6046   -4.3056   24.7234 C   0  0  0  0  0  0
  -21.8818   -3.8142   23.4355 C   0  0  0  0  0  0
  -21.9193   -4.6953   22.3401 C   0  0  0  0  0  0
  -22.7881  -13.5221   21.1832 C   0  0  0  0  0  0
  -22.1656   -4.2149   21.0984 F   0  0  0  0  0  0
  -21.5635   -3.4525   25.7740 F   0  0  0  0  0  0
  -30.0266  -13.3469   20.4498 N   0  0  0  0  0  0
  -26.3022  -12.9275   20.3289 N   0  0  0  0  0  0
  -25.9313  -11.6449   20.5726 N   0  0  0  0  0  0
  -22.0504  -12.8240   22.0383 N   0  0  0  0  0  0
  -25.4346  -15.1850   20.4067 N   0  0  0  0  0  0
  -31.7476  -14.8032   20.1058 O   0  0  0  0  0  0
  -21.6627   -6.8863   21.4235 O   0  0  0  0  0  0
  -22.3576  -14.5536   20.6672 O   0  0  0  0  0  0
  -24.6214  -31.8638   23.2063 C   0  0  0  0  0  0
  -25.9098  -32.4794   23.8379 C   0  0  1  0  0  0
  -27.2568  -27.3966   20.0885 C   0  0  0  0  0  0
  -25.5949  -33.8594   24.2334 N   0  0  0  0  0  0
  -23.4117  -30.4862   21.5439 C   0  0  2  0  0  0
  -24.8614  -28.9394   20.1166 C   0  0  0  0  0  0
  -22.7448  -29.4641   22.4937 C   0  0  0  0  0  0
  -18.0289  -28.1378   22.8505 C   0  0  0  0  0  0
  -24.1494  -36.7306   23.2633 C   0  0  0  0  0  0
  -25.9430  -30.8163   21.3621 C   0  0  0  0  0  0
  -26.0217  -29.4450   20.7129 C   0  0  0  0  0  0
  -27.2148  -28.6793   20.6964 C   0  0  0  0  0  0
  -26.0665  -26.9092   19.4987 C   0  0  0  0  0  0
  -24.8799  -27.6715   19.5098 C   0  0  0  0  0  0
  -23.6283  -29.8174   20.1590 C   0  0  0  0  0  0
  -25.4109  -36.3102   24.0349 C   0  0  1  0  0  0
  -20.5883  -28.3682   23.1303 C   0  0  2  0  0  0
  -20.6777  -26.9406   22.5414 C   0  0  0  0  0  0
  -19.5747  -26.6394   21.5218 C   0  0  0  0  0  0
  -18.1928  -26.7928   22.1632 C   0  0  0  0  0  0
  -19.1534  -28.8847   23.2904 C   0  0  0  0  0  0
  -18.9461  -30.1450   23.8918 C   0  0  0  0  0  0
  -17.6457  -30.6581   24.0575 C   0  0  0  0  0  0
  -25.9049  -34.9465   23.5127 C   0  0  0  0  0  0
  -16.5352  -29.9087   23.6312 C   0  0  0  0  0  0
  -16.7274  -28.6506   23.0338 C   0  0  0  0  0  0
  -26.4505  -31.6557   25.0704 C   0  0  0  0  0  0
  -25.3784  -31.3628   26.1453 C   0  0  0  0  0  0
  -27.0317  -30.3003   24.6065 C   0  0  0  0  0  0
  -27.6094  -32.4234   25.7482 C   0  0  0  0  0  0
  -27.5573  -37.1806   24.8469 C   0  0  0  0  0  0
  -21.4165  -29.3048   22.3704 N   0  0  0  0  0  0
  -26.4281  -37.3798   23.9423 N   0  0  0  0  0  0
  -24.6769  -31.0716   22.0961 N   0  0  0  0  0  0
  -23.4194  -28.8191   23.3009 O   0  0  0  0  0  0
  -28.4534  -26.6843   20.1052 O   0  0  0  0  0  0
  -26.5573  -34.8925   22.4666 O   0  0  0  0  0  0
  -23.5397  -32.1392   23.7438 O   0  0  0  0  0  0
  -28.4838  -19.0375   21.4529 C   0  0  0  0  0  0
  -28.6723  -17.6404   21.5530 C   0  0  0  0  0  0
  -30.6023  -17.7966   20.1090 C   0  0  0  0  0  0
  -29.3432  -19.8604   20.6886 C   0  0  0  0  0  0
  -29.7314  -16.9831   20.8858 C   0  0  0  0  0  0
  -30.4139  -19.2097   20.0092 C   0  0  0  0  0  0
  -27.6196  -22.9978   19.8397 C   0  0  0  0  0  0
  -29.0610  -21.3944   20.7098 C   0  0  2  0  0  0
  -28.5210  -24.1268   20.3777 C   0  0  2  0  0  0
  -28.6187  -25.3952   19.4488 C   0  0  0  0  0  0
  -27.8469  -21.7438   19.9856 N   0  0  0  0  0  0
  -29.8616  -23.6387   20.7920 N   0  0  0  0  0  0
  -29.7955  -15.5446   21.0369 N   0  0  0  0  0  0
  -30.1162  -22.2686   20.2748 O   0  0  0  0  0  0
  -31.2831  -19.9252   19.2547 F   0  0  0  0  0  0
  -31.4909  -12.5086   19.1435 H   0  0  0  0  0  0
  -30.4028  -11.3514   19.8593 H   0  0  0  0  0  0
  -29.7752  -11.7499   17.4719 H   0  0  0  0  0  0
  -29.6682  -13.4679   17.7518 H   0  0  0  0  0  0
  -27.8593  -11.2910   18.8441 H   0  0  0  0  0  0
  -27.3874  -12.5936   17.7861 H   0  0  0  0  0  0
  -27.6955  -14.2415   19.5480 H   0  0  0  0  0  0
  -28.7000  -11.9598   21.3312 H   0  0  0  0  0  0
  -28.4388  -13.5847   21.8749 H   0  0  0  0  0  0
  -25.2730   -9.5675   22.4784 H   0  0  0  0  0  0
  -23.9972   -7.4636   22.7476 H   0  0  0  0  0  0
  -21.0828   -8.8757   19.8953 H   0  0  0  0  0  0
  -22.3662  -10.9669   19.6181 H   0  0  0  0  0  0
  -21.2016   -7.6143   23.9716 H   0  0  0  0  0  0
  -21.1491   -6.0518   25.9079 H   0  0  0  0  0  0
  -22.0594   -2.7601   23.2851 H   0  0  0  0  0  0
  -22.4067  -11.9906   22.4814 H   0  0  0  0  0  0
  -21.1135  -13.1316   22.2564 H   0  0  0  0  0  0
  -24.6647  -15.8377   20.5101 H   0  0  0  0  0  0
  -26.2737  -15.6204   20.0452 H   0  0  0  0  0  0
  -26.7171  -32.5509   23.1142 H   0  0  0  0  0  0
  -25.0222  -33.9762   25.0565 H   0  0  0  0  0  0
  -22.7033  -31.3054   21.4007 H   0  0  0  0  0  0
  -23.3759  -35.9631   23.3294 H   0  0  0  0  0  0
  -24.3592  -36.8910   22.2042 H   0  0  0  0  0  0
  -23.7236  -37.6516   23.6631 H   0  0  0  0  0  0
  -26.0560  -31.5765   20.5886 H   0  0  0  0  0  0
  -26.8315  -30.8785   21.9781 H   0  0  0  0  0  0
  -28.1105  -29.0734   21.1547 H   0  0  0  0  0  0
  -26.0256  -25.9388   19.0296 H   0  0  0  0  0  0
  -23.9869  -27.2722   19.0484 H   0  0  0  0  0  0
  -23.7593  -30.5959   19.4058 H   0  0  0  0  0  0
  -22.7491  -29.2516   19.8469 H   0  0  0  0  0  0
  -25.1277  -36.1953   25.0839 H   0  0  0  0  0  0
  -20.9997  -28.3233   24.1414 H   0  0  0  0  0  0
  -20.5688  -26.2275   23.3602 H   0  0  0  0  0  0
  -21.6643  -26.7438   22.1191 H   0  0  0  0  0  0
  -19.6895  -25.6314   21.1221 H   0  0  0  0  0  0
  -19.6676  -27.3235   20.6769 H   0  0  0  0  0  0
  -17.4198  -26.6710   21.4023 H   0  0  0  0  0  0
  -18.0304  -26.0051   22.9010 H   0  0  0  0  0  0
  -19.7932  -30.7270   24.2293 H   0  0  0  0  0  0
  -17.5006  -31.6265   24.5178 H   0  0  0  0  0  0
  -15.5349  -30.2995   23.7628 H   0  0  0  0  0  0
  -15.8679  -28.0845   22.7010 H   0  0  0  0  0  0
  -24.6040  -30.6871   25.7796 H   0  0  0  0  0  0
  -24.8890  -32.2756   26.4861 H   0  0  0  0  0  0
  -25.8192  -30.8859   27.0226 H   0  0  0  0  0  0
  -26.2830  -29.6748   24.1193 H   0  0  0  0  0  0
  -27.4170  -29.7247   25.4492 H   0  0  0  0  0  0
  -27.8640  -30.4316   23.9148 H   0  0  0  0  0  0
  -27.2766  -33.3562   26.2053 H   0  0  0  0  0  0
  -28.3947  -32.6719   25.0327 H   0  0  0  0  0  0
  -28.0717  -31.8333   26.5412 H   0  0  0  0  0  0
  -28.2601  -38.0092   24.7519 H   0  0  0  0  0  0
  -28.1068  -36.2634   24.6300 H   0  0  0  0  0  0
  -27.2301  -37.1457   25.8873 H   0  0  0  0  0  0
  -20.9318  -29.8784   21.6947 H   0  0  0  0  0  0
  -26.0174  -38.2877   24.1422 H   0  0  0  0  0  0
  -27.6668  -19.4987   21.9902 H   0  0  0  0  0  0
  -27.9826  -17.0761   22.1658 H   0  0  0  0  0  0
  -31.4252  -17.3461   19.5732 H   0  0  0  0  0  0
  -26.7337  -23.3488   19.3026 H   0  0  0  0  0  0
  -28.9045  -21.5898   21.7741 H   0  0  0  0  0  0
  -28.0427  -24.4674   21.2972 H   0  0  0  0  0  0
  -29.6271  -25.4152   19.0333 H   0  0  0  0  0  0
  -27.9946  -25.3083   18.5605 H   0  0  0  0  0  0
  -29.8294  -23.5359   21.8015 H   0  0  0  0  0  0
  -28.9716  -15.1467   21.4620 H   0  0  0  0  0  0
  1 25  1  0  0  0
  1 30  2  0  0  0
  1 83  1  0  0  0
  2  3  1  0  0  0
  2 25  1  0  0  0
  2 86  1  0  0  0
  2 87  1  0  0  0
  3  4  1  0  0  0
  3 88  1  0  0  0
  3 89  1  0  0  0
  4  5  1  0  0  0
  4 90  1  0  0  0
  4 91  1  0  0  0
  5  6  1  0  0  0
  5 26  1  0  0  0
  5 92  1  0  0  0
  6 25  1  0  0  0
  6 93  1  0  0  0
  6 94  1  0  0  0
  7  8  2  0  0  0
  7 26  1  0  0  0
  7 29  1  0  0  0
  8  9  1  0  0  0
  8 22  1  0  0  0
  9 10  1  0  0  0
  9 27  2  0  0  0
 10 11  2  0  0  0
 10 15  1  0  0  0
 11 12  1  0  0  0
 11 95  1  0  0  0
 12 13  2  0  0  0
 12 96  1  0  0  0
 13 14  1  0  0  0
 13 31  1  0  0  0
 14 15  2  0  0  0
 14 97  1  0  0  0
 15 98  1  0  0  0
 16 17  2  0  0  0
 16 21  1  0  0  0
 16 31  1  0  0  0
 17 18  1  0  0  0
 17 99  1  0  0  0
 18 19  2  0  0  0
 18100  1  0  0  0
 19 20  1  0  0  0
 19 24  1  0  0  0
 20 21  2  0  0  0
 20101  1  0  0  0
 21 23  1  0  0  0
 22 28  1  0  0  0
 22 32  2  0  0  0
 26 27  1  0  0  0
 28102  1  0  0  0
 28103  1  0  0  0
 29104  1  0  0  0
 29105  1  0  0  0
 33 34  1  0  0  0
 33 66  1  0  0  0
 33 70  2  0  0  0
 34 36  1  0  0  0
 34 59  1  0  0  0
 34106  1  0  0  0
 35 44  2  0  0  0
 35 45  1  0  0  0
 35 68  1  0  0  0
 36 56  1  0  0  0
 36107  1  0  0  0
 37 39  1  0  0  0
 37 47  1  0  0  0
 37 66  1  0  0  0
 37108  1  0  0  0
 38 43  2  0  0  0
 38 46  1  0  0  0
 38 47  1  0  0  0
 39 64  1  0  0  0
 39 67  2  0  0  0
 40 52  1  0  0  0
 40 53  2  0  0  0
 40 58  1  0  0  0
 41109  1  0  0  0
 41110  1  0  0  0
 41111  1  0  0  0
 41 48  1  0  0  0
 42 43  1  0  0  0
 42 66  1  0  0  0
 42112  1  0  0  0
 42113  1  0  0  0
 43 44  1  0  0  0
 44114  1  0  0  0
 45 46  2  0  0  0
 45115  1  0  0  0
 46116  1  0  0  0
 47117  1  0  0  0
 47118  1  0  0  0
 48 56  1  0  0  0
 48 65  1  0  0  0
 48119  1  0  0  0
 49 50  1  0  0  0
 49 53  1  0  0  0
 49 64  1  0  0  0
 49120  1  0  0  0
 50 51  1  0  0  0
 50121  1  0  0  0
 50122  1  0  0  0
 51 52  1  0  0  0
 51123  1  0  0  0
 51124  1  0  0  0
 52125  1  0  0  0
 52126  1  0  0  0
 53 54  1  0  0  0
 54 55  2  0  0  0
 54127  1  0  0  0
 55 57  1  0  0  0
 55128  1  0  0  0
 56 69  2  0  0  0
 57 58  2  0  0  0
 57129  1  0  0  0
 58130  1  0  0  0
 59 60  1  0  0  0
 59 61  1  0  0  0
 59 62  1  0  0  0
 60131  1  0  0  0
 60132  1  0  0  0
 60133  1  0  0  0
 61134  1  0  0  0
 61135  1  0  0  0
 61136  1  0  0  0
 62137  1  0  0  0
 62138  1  0  0  0
 62139  1  0  0  0
 63 65  1  0  0  0
 63140  1  0  0  0
 63141  1  0  0  0
 63142  1  0  0  0
 64143  1  0  0  0
 65144  1  0  0  0
 68 80  1  0  0  0
 71 72  2  0  0  0
 71 74  1  0  0  0
 71145  1  0  0  0
 72 75  1  0  0  0
 72146  1  0  0  0
 73 75  2  0  0  0
 73 76  1  0  0  0
 73147  1  0  0  0
 74 76  2  0  0  0
 74 78  1  0  0  0
 75 83  1  0  0  0
 76 85  1  0  0  0
 77 79  1  0  0  0
 77 81  2  0  0  0
 77148  1  0  0  0
 78 81  1  0  0  0
 78 84  1  0  0  0
 78149  1  0  0  0
 79 80  1  0  0  0
 79 82  1  0  0  0
 79150  1  0  0  0
 80151  1  0  0  0
 80152  1  0  0  0
 82 84  1  0  0  0
 82153  1  0  0  0
 83154  1  0  0  0
M  ISO  4   1 100  68 101  80 101  83 100
M  END
> <chiral flag>
0

> <version>
0

> <s_m_source_file>
/data/baiqing/PycharmProjects/Reinvent-master-3.2/result/LINK_invent/BTK/process_docking_weight1_custom_product_contain_oxygen_bond_distance_aromatic_linkinvent_7_9_3/rearranged_h_0170.sdf

> <i_m_source_file_index>
49

> <r_mmod_Potential_Energy-OPLS-2005>
134.384918212891

> <r_mmod_Stretch_Energy-OPLS-2005>
61.1775588989258

> <r_mmod_Bend_Energy-OPLS-2005>
148.314071655273

> <r_mmod_Torsional_Energy-OPLS-2005>
233.819290161133

> <r_mmod_Improper_Torsional_Energy-OPLS-2005>
3.52115273475647

> <r_mmod_Van_der_Waal_Energy-OPLS-2005>
163.573089599609

> <r_mmod_Electrostatic_Energy-OPLS-2005>
-255.999694824219

> <r_mmod_Solvation_Energy-OPLS-2005>
-246.211669921875

> <b_mmod_Minimization_Converged-OPLS-2005>
0

> <r_mmod_RMS_Derivative-OPLS-2005>
2.82983446121216

$$$$
49
                    3D
 Structure written by MMmdl.
162170  0  0  1  0            999 V2000
  -30.7082  -14.4537   20.5656 C   0  0  0  0  0  0
  -30.4248  -12.2954   19.4161 C   0  0  0  0  0  0
  -29.4956  -12.5139   18.2027 C   0  0  0  0  0  0
  -28.0159  -12.3745   18.6151 C   0  0  0  0  0  0
  -27.6647  -13.2056   19.8787 C   0  0  2  0  0  0
  -28.7083  -12.9732   20.9966 C   0  0  0  0  0  0
  -25.2606  -13.8161   20.5709 C   0  0  0  0  0  0
  -24.1842  -13.0439   20.9199 C   0  0  0  0  0  0
  -24.6395  -11.6907   20.8741 C   0  0  0  0  0  0
  -23.9066  -10.4291   21.0392 C   0  0  0  0  0  0
  -24.3619   -9.4205   21.9169 C   0  0  0  0  0  0
  -23.6292   -8.2253   22.0748 C   0  0  0  0  0  0
  -22.4273   -8.0283   21.3544 C   0  0  0  0  0  0
  -21.9916   -9.0258   20.4655 C   0  0  0  0  0  0
  -22.7243  -10.2133   20.3046 C   0  0  0  0  0  0
  -21.6865   -6.0742   22.5283 C   0  0  0  0  0  0
  -21.4016   -6.5643   23.8224 C   0  0  0  0  0  0
  -21.3654   -5.6792   24.9180 C   0  0  0  0  0  0
  -21.6043   -4.3058   24.7239 C   0  0  0  0  0  0
  -21.8812   -3.8157   23.4358 C   0  0  0  0  0  0
  -21.9194   -4.6971   22.3419 C   0  0  0  0  0  0
  -22.7860  -13.5245   21.1844 C   0  0  0  0  0  0
  -22.1651   -4.2161   21.0996 F   0  0  0  0  0  0
  -21.5636   -3.4538   25.7744 F   0  0  0  0  0  0
  -30.0465  -13.2690   20.4527 N   0  0  0  0  0  0
  -26.3045  -12.9335   20.3400 N   0  0  0  0  0  0
  -25.9329  -11.6495   20.5781 N   0  0  0  0  0  0
  -22.0487  -12.8251   22.0397 N   0  0  0  0  0  0
  -25.4337  -15.1876   20.4109 N   0  0  0  0  0  0
  -31.8299  -14.6436   20.0827 O   0  0  0  0  0  0
  -21.6647   -6.8876   21.4240 O   0  0  0  0  0  0
  -22.3557  -14.5554   20.6666 O   0  0  0  0  0  0
  -24.6137  -31.8679   23.2111 C   0  0  0  0  0  0
  -25.9039  -32.4812   23.8396 C   0  0  1  0  0  0
  -27.2529  -27.4576   20.0700 C   0  0  0  0  0  0
  -25.5898  -33.8607   24.2336 N   0  0  0  0  0  0
  -23.4019  -30.4922   21.5494 C   0  0  2  0  0  0
  -24.8506  -28.9573   20.1143 C   0  0  0  0  0  0
  -22.7403  -29.4672   22.4983 C   0  0  0  0  0  0
  -18.0277  -28.1379   22.8484 C   0  0  0  0  0  0
  -24.1488  -36.7311   23.2637 C   0  0  0  0  0  0
  -25.9308  -30.8330   21.3673 C   0  0  0  0  0  0
  -26.0079  -29.4708   20.7110 C   0  0  0  0  0  0
  -27.2049  -28.7230   20.6954 C   0  0  0  0  0  0
  -26.0693  -26.9429   19.4919 C   0  0  0  0  0  0
  -24.8736  -27.6890   19.5103 C   0  0  0  0  0  0
  -23.6122  -29.8225   20.1640 C   0  0  0  0  0  0
  -25.4111  -36.3105   24.0340 C   0  0  1  0  0  0
  -20.5864  -28.3675   23.1305 C   0  0  2  0  0  0
  -20.6767  -26.9406   22.5419 C   0  0  0  0  0  0
  -19.5756  -26.6390   21.5204 C   0  0  0  0  0  0
  -18.1929  -26.7935   22.1604 C   0  0  0  0  0  0
  -19.1524  -28.8841   23.2896 C   0  0  0  0  0  0
  -18.9449  -30.1448   23.8906 C   0  0  0  0  0  0
  -17.6449  -30.6582   24.0562 C   0  0  0  0  0  0
  -25.9036  -34.9464   23.5140 C   0  0  0  0  0  0
  -16.5341  -29.9081   23.6319 C   0  0  0  0  0  0
  -16.7266  -28.6501   23.0334 C   0  0  0  0  0  0
  -26.4478  -31.6574   25.0711 C   0  0  0  0  0  0
  -25.3779  -31.3636   26.1476 C   0  0  0  0  0  0
  -27.0294  -30.3011   24.6077 C   0  0  0  0  0  0
  -27.6069  -32.4277   25.7450 C   0  0  0  0  0  0
  -27.5591  -37.1820   24.8470 C   0  0  0  0  0  0
  -21.4135  -29.3036   22.3699 N   0  0  0  0  0  0
  -26.4307  -37.3794   23.9401 N   0  0  0  0  0  0
  -24.6663  -31.0790   22.1002 N   0  0  0  0  0  0
  -23.4170  -28.8214   23.3032 O   0  0  0  0  0  0
  -28.4434  -26.7579   20.0996 O   0  0  0  0  0  0
  -26.5608  -34.8919   22.4708 O   0  0  0  0  0  0
  -23.5338  -32.1429   23.7518 O   0  0  0  0  0  0
  -29.1379  -18.1274   18.7219 C   0  0  0  0  0  0
  -29.4036  -19.2617   19.4986 C   0  0  0  0  0  0
  -29.3686  -16.8623   19.2839 C   0  0  0  0  0  0
  -29.8913  -19.0980   20.8109 C   0  0  0  0  0  0
  -29.8835  -16.7539   20.5948 C   0  0  0  0  0  0
  -30.1426  -22.6583   20.7487 C   0  0  0  0  0  0
  -29.7476  -20.1322   23.1489 C   0  0  0  0  0  0
  -29.4453  -26.8645   17.9162 C   0  0  0  0  0  0
  -29.1936  -23.7918   20.3348 C   0  0  0  0  0  0
  -29.8431  -24.8910   19.4684 C   0  0  0  0  0  0
  -30.2058  -20.3220   21.6921 C   0  0  2  0  0  0
  -28.8285  -25.9479   18.9826 C   0  0  1  0  0  0
  -30.1356  -17.8656   21.3334 N   0  0  0  0  0  0
  -30.0157  -15.4509   21.1438 N   0  0  0  0  0  0
  -29.5572  -21.5418   21.1991 N   0  0  0  0  0  0
  -31.3649  -22.7933   20.6723 O   0  0  0  0  0  0
  -31.4688  -12.3916   19.1113 H   0  0  0  0  0  0
  -30.3215  -11.2777   19.7978 H   0  0  0  0  0  0
  -29.7325  -11.7966   17.4154 H   0  0  0  0  0  0
  -29.6697  -13.5027   17.7744 H   0  0  0  0  0  0
  -27.8237  -11.3172   18.8026 H   0  0  0  0  0  0
  -27.3645  -12.6560   17.7872 H   0  0  0  0  0  0
  -27.7084  -14.2552   19.5909 H   0  0  0  0  0  0
  -28.6785  -11.9351   21.3311 H   0  0  0  0  0  0
  -28.4719  -13.5672   21.8807 H   0  0  0  0  0  0
  -25.2759   -9.5690   22.4744 H   0  0  0  0  0  0
  -24.0012   -7.4650   22.7457 H   0  0  0  0  0  0
  -21.0856   -8.8768   19.8962 H   0  0  0  0  0  0
  -22.3694  -10.9668   19.6159 H   0  0  0  0  0  0
  -21.1995   -7.6142   23.9741 H   0  0  0  0  0  0
  -21.1481   -6.0516   25.9090 H   0  0  0  0  0  0
  -22.0596   -2.7622   23.2867 H   0  0  0  0  0  0
  -22.4079  -11.9907   22.4795 H   0  0  0  0  0  0
  -21.1091  -13.1269   22.2568 H   0  0  0  0  0  0
  -24.6675  -15.8435   20.5190 H   0  0  0  0  0  0
  -26.2919  -15.6306   20.1074 H   0  0  0  0  0  0
  -26.7101  -32.5518   23.1148 H   0  0  0  0  0  0
  -25.0018  -33.9755   25.0458 H   0  0  0  0  0  0
  -22.6923  -31.3098   21.4076 H   0  0  0  0  0  0
  -23.3740  -35.9659   23.3330 H   0  0  0  0  0  0
  -24.3585  -36.8892   22.2046 H   0  0  0  0  0  0
  -23.7256  -37.6533   23.6631 H   0  0  0  0  0  0
  -26.0559  -31.6039   20.6061 H   0  0  0  0  0  0
  -26.8133  -30.8761   21.9936 H   0  0  0  0  0  0
  -28.0996  -29.1201   21.1550 H   0  0  0  0  0  0
  -26.0408  -25.9618   19.0436 H   0  0  0  0  0  0
  -23.9790  -27.2781   19.0623 H   0  0  0  0  0  0
  -23.7215  -30.5954   19.4025 H   0  0  0  0  0  0
  -22.7368  -29.2427   19.8676 H   0  0  0  0  0  0
  -25.1296  -36.1981   25.0842 H   0  0  0  0  0  0
  -20.9967  -28.3247   24.1421 H   0  0  0  0  0  0
  -20.5657  -26.2289   23.3613 H   0  0  0  0  0  0
  -21.6642  -26.7448   22.1215 H   0  0  0  0  0  0
  -19.6913  -25.6303   21.1228 H   0  0  0  0  0  0
  -19.6695  -27.3204   20.6738 H   0  0  0  0  0  0
  -17.4211  -26.6707   21.3983 H   0  0  0  0  0  0
  -18.0300  -26.0056   22.8976 H   0  0  0  0  0  0
  -19.7923  -30.7271   24.2269 H   0  0  0  0  0  0
  -17.4997  -31.6267   24.5158 H   0  0  0  0  0  0
  -15.5338  -30.2983   23.7636 H   0  0  0  0  0  0
  -15.8673  -28.0832   22.7024 H   0  0  0  0  0  0
  -24.5934  -30.7013   25.7796 H   0  0  0  0  0  0
  -24.9001  -32.2768   26.5019 H   0  0  0  0  0  0
  -25.8162  -30.8718   27.0167 H   0  0  0  0  0  0
  -26.2813  -29.6754   24.1190 H   0  0  0  0  0  0
  -27.4116  -29.7250   25.4514 H   0  0  0  0  0  0
  -27.8636  -30.4302   23.9177 H   0  0  0  0  0  0
  -27.2706  -33.3544   26.2097 H   0  0  0  0  0  0
  -28.3831  -32.6886   25.0247 H   0  0  0  0  0  0
  -28.0801  -31.8367   26.5301 H   0  0  0  0  0  0
  -28.2631  -38.0093   24.7495 H   0  0  0  0  0  0
  -28.1066  -36.2634   24.6324 H   0  0  0  0  0  0
  -27.2312  -37.1499   25.8872 H   0  0  0  0  0  0
  -20.9298  -29.8750   21.6910 H   0  0  0  0  0  0
  -26.0196  -38.2878   24.1383 H   0  0  0  0  0  0
  -28.7627  -18.2275   17.7141 H   0  0  0  0  0  0
  -29.2372  -20.2399   19.0698 H   0  0  0  0  0  0
  -29.1462  -15.9833   18.6959 H   0  0  0  0  0  0
  -30.2579  -19.2930   23.6217 H   0  0  0  0  0  0
  -28.6742  -19.9455   23.2055 H   0  0  0  0  0  0
  -29.9653  -21.0184   23.7469 H   0  0  0  0  0  0
  -29.8330  -26.2857   17.0763 H   0  0  0  0  0  0
  -30.2725  -27.4459   18.3239 H   0  0  0  0  0  0
  -28.7082  -27.5632   17.5201 H   0  0  0  0  0  0
  -28.7741  -24.2315   21.2407 H   0  0  0  0  0  0
  -28.3588  -23.3562   19.7835 H   0  0  0  0  0  0
  -30.3080  -24.4180   18.6017 H   0  0  0  0  0  0
  -30.6513  -25.3765   20.0154 H   0  0  0  0  0  0
  -31.2899  -20.4485   21.6840 H   0  0  0  0  0  0
  -27.9931  -25.4149   18.5346 H   0  0  0  0  0  0
  -29.2226  -15.1444   21.6838 H   0  0  0  0  0  0
  -28.5474  -21.5173   21.1809 H   0  0  0  0  0  0
  1 25  1  0  0  0
  1 30  2  0  0  0
  1 84  1  0  0  0
  2  3  1  0  0  0
  2 25  1  0  0  0
  2 87  1  0  0  0
  2 88  1  0  0  0
  3  4  1  0  0  0
  3 89  1  0  0  0
  3 90  1  0  0  0
  4  5  1  0  0  0
  4 91  1  0  0  0
  4 92  1  0  0  0
  5  6  1  0  0  0
  5 26  1  0  0  0
  5 93  1  0  0  0
  6 25  1  0  0  0
  6 94  1  0  0  0
  6 95  1  0  0  0
  7  8  2  0  0  0
  7 26  1  0  0  0
  7 29  1  0  0  0
  8  9  1  0  0  0
  8 22  1  0  0  0
  9 10  1  0  0  0
  9 27  2  0  0  0
 10 11  2  0  0  0
 10 15  1  0  0  0
 11 12  1  0  0  0
 11 96  1  0  0  0
 12 13  2  0  0  0
 12 97  1  0  0  0
 13 14  1  0  0  0
 13 31  1  0  0  0
 14 15  2  0  0  0
 14 98  1  0  0  0
 15 99  1  0  0  0
 16 17  2  0  0  0
 16 21  1  0  0  0
 16 31  1  0  0  0
 17 18  1  0  0  0
 17100  1  0  0  0
 18 19  2  0  0  0
 18101  1  0  0  0
 19 20  1  0  0  0
 19 24  1  0  0  0
 20 21  2  0  0  0
 20102  1  0  0  0
 21 23  1  0  0  0
 22 28  1  0  0  0
 22 32  2  0  0  0
 26 27  1  0  0  0
 28103  1  0  0  0
 28104  1  0  0  0
 29105  1  0  0  0
 29106  1  0  0  0
 33 34  1  0  0  0
 33 66  1  0  0  0
 33 70  2  0  0  0
 34 36  1  0  0  0
 34 59  1  0  0  0
 34107  1  0  0  0
 35 44  2  0  0  0
 35 45  1  0  0  0
 35 68  1  0  0  0
 36 56  1  0  0  0
 36108  1  0  0  0
 37 39  1  0  0  0
 37 47  1  0  0  0
 37 66  1  0  0  0
 37109  1  0  0  0
 38 43  2  0  0  0
 38 46  1  0  0  0
 38 47  1  0  0  0
 39 64  1  0  0  0
 39 67  2  0  0  0
 40 52  1  0  0  0
 40 53  2  0  0  0
 40 58  1  0  0  0
 41110  1  0  0  0
 41111  1  0  0  0
 41112  1  0  0  0
 41 48  1  0  0  0
 42 43  1  0  0  0
 42 66  1  0  0  0
 42113  1  0  0  0
 42114  1  0  0  0
 43 44  1  0  0  0
 44115  1  0  0  0
 45 46  2  0  0  0
 45116  1  0  0  0
 46117  1  0  0  0
 47118  1  0  0  0
 47119  1  0  0  0
 48 56  1  0  0  0
 48 65  1  0  0  0
 48120  1  0  0  0
 49 50  1  0  0  0
 49 53  1  0  0  0
 49 64  1  0  0  0
 49121  1  0  0  0
 50 51  1  0  0  0
 50122  1  0  0  0
 50123  1  0  0  0
 51 52  1  0  0  0
 51124  1  0  0  0
 51125  1  0  0  0
 52126  1  0  0  0
 52127  1  0  0  0
 53 54  1  0  0  0
 54 55  2  0  0  0
 54128  1  0  0  0
 55 57  1  0  0  0
 55129  1  0  0  0
 56 69  2  0  0  0
 57 58  2  0  0  0
 57130  1  0  0  0
 58131  1  0  0  0
 59 60  1  0  0  0
 59 61  1  0  0  0
 59 62  1  0  0  0
 60132  1  0  0  0
 60133  1  0  0  0
 60134  1  0  0  0
 61135  1  0  0  0
 61136  1  0  0  0
 61137  1  0  0  0
 62138  1  0  0  0
 62139  1  0  0  0
 62140  1  0  0  0
 63 65  1  0  0  0
 63141  1  0  0  0
 63142  1  0  0  0
 63143  1  0  0  0
 64144  1  0  0  0
 65145  1  0  0  0
 68 82  1  0  0  0
 71 72  2  0  0  0
 71 73  1  0  0  0
 71146  1  0  0  0
 72 74  1  0  0  0
 72147  1  0  0  0
 73 75  2  0  0  0
 73148  1  0  0  0
 74 81  1  0  0  0
 74 83  2  0  0  0
 75 83  1  0  0  0
 75 84  1  0  0  0
 76 79  1  0  0  0
 76 85  1  0  0  0
 76 86  2  0  0  0
 77149  1  0  0  0
 77150  1  0  0  0
 77151  1  0  0  0
 77 81  1  0  0  0
 78152  1  0  0  0
 78153  1  0  0  0
 78154  1  0  0  0
 78 82  1  0  0  0
 79 80  1  0  0  0
 79155  1  0  0  0
 79156  1  0  0  0
 80 82  1  0  0  0
 80157  1  0  0  0
 80158  1  0  0  0
 81 85  1  0  0  0
 81159  1  0  0  0
 82160  1  0  0  0
 84161  1  0  0  0
 85162  1  0  0  0
M  ISO  4   1 100  68 101  82 101  84 100
M  END
> <chiral flag>
0

> <version>
0

> <s_m_source_file>
/data/baiqing/PycharmProjects/Reinvent-master-3.2/result/LINK_invent/BTK/process_docking_weight1_custom_product_contain_oxygen_bond_distance_aromatic_linkinvent_7_9_3/rearranged_h_0170.sdf

> <i_m_source_file_index>
50

> <r_mmod_Potential_Energy-OPLS-2005>
-390.883178710938

> <r_mmod_Stretch_Energy-OPLS-2005>
36.0921897888184

> <r_mmod_Bend_Energy-OPLS-2005>
100.384613037109

> <r_mmod_Torsional_Energy-OPLS-2005>
235.601974487305

> <r_mmod_Improper_Torsional_Energy-OPLS-2005>
5.53344631195068

> <r_mmod_Van_der_Waal_Energy-OPLS-2005>
156.545516967773

> <r_mmod_Electrostatic_Energy-OPLS-2005>
-693.326721191406

> <r_mmod_Solvation_Energy-OPLS-2005>
-242.623291015625

> <b_mmod_Minimization_Converged-OPLS-2005>
0

> <r_mmod_RMS_Derivative-OPLS-2005>
2.60265707969666

$$$$
50
                    3D
 Structure written by MMmdl.
149157  0  0  1  0            999 V2000
  -30.7115  -14.5067   20.5574 C   0  0  0  0  0  0
  -30.4171  -12.3252   19.4316 C   0  0  0  0  0  0
  -29.5020  -12.5197   18.2063 C   0  0  0  0  0  0
  -28.0194  -12.3847   18.6099 C   0  0  0  0  0  0
  -27.6581  -13.2223   19.8666 C   0  0  2  0  0  0
  -28.7005  -13.0343   20.9913 C   0  0  0  0  0  0
  -25.2558  -13.8177   20.5637 C   0  0  0  0  0  0
  -24.1844  -13.0451   20.9187 C   0  0  0  0  0  0
  -24.6411  -11.6917   20.8750 C   0  0  0  0  0  0
  -23.9078  -10.4299   21.0405 C   0  0  0  0  0  0
  -24.3631   -9.4215   21.9188 C   0  0  0  0  0  0
  -23.6299   -8.2249   22.0753 C   0  0  0  0  0  0
  -22.4278   -8.0281   21.3539 C   0  0  0  0  0  0
  -21.9918   -9.0263   20.4648 C   0  0  0  0  0  0
  -22.7248  -10.2139   20.3051 C   0  0  0  0  0  0
  -21.6848   -6.0736   22.5280 C   0  0  0  0  0  0
  -21.4013   -6.5638   23.8218 C   0  0  0  0  0  0
  -21.3664   -5.6786   24.9175 C   0  0  0  0  0  0
  -21.6051   -4.3051   24.7218 C   0  0  0  0  0  0
  -21.8818   -3.8140   23.4335 C   0  0  0  0  0  0
  -21.9192   -4.6964   22.3399 C   0  0  0  0  0  0
  -22.7855  -13.5235   21.1828 C   0  0  0  0  0  0
  -22.1659   -4.2149   21.0978 F   0  0  0  0  0  0
  -21.5634   -3.4539   25.7732 F   0  0  0  0  0  0
  -30.0290  -13.3327   20.4343 N   0  0  0  0  0  0
  -26.3010  -12.9378   20.3296 N   0  0  0  0  0  0
  -25.9344  -11.6524   20.5732 N   0  0  0  0  0  0
  -22.0473  -12.8259   22.0386 N   0  0  0  0  0  0
  -25.4227  -15.1878   20.3895 N   0  0  0  0  0  0
  -31.8478  -14.6544   20.1024 O   0  0  0  0  0  0
  -21.6637   -6.8878   21.4236 O   0  0  0  0  0  0
  -22.3564  -14.5550   20.6660 O   0  0  0  0  0  0
  -24.6200  -31.8694   23.2140 C   0  0  0  0  0  0
  -25.9091  -32.4816   23.8425 C   0  0  1  0  0  0
  -27.2074  -27.3935   20.0985 C   0  0  0  0  0  0
  -25.5953  -33.8615   24.2348 N   0  0  0  0  0  0
  -23.4060  -30.5017   21.5554 C   0  0  2  0  0  0
  -24.8462  -28.9773   20.1080 C   0  0  0  0  0  0
  -22.7428  -29.4690   22.4965 C   0  0  0  0  0  0
  -18.0269  -28.1389   22.8492 C   0  0  0  0  0  0
  -24.1489  -36.7309   23.2619 C   0  0  0  0  0  0
  -25.9446  -30.8194   21.3809 C   0  0  0  0  0  0
  -26.0136  -29.4576   20.7159 C   0  0  0  0  0  0
  -27.1980  -28.6747   20.7098 C   0  0  0  0  0  0
  -26.0193  -26.9619   19.4543 C   0  0  0  0  0  0
  -24.8474  -27.7298   19.4724 C   0  0  0  0  0  0
  -23.6137  -29.8520   20.1651 C   0  0  0  0  0  0
  -25.4103  -36.3107   24.0336 C   0  0  1  0  0  0
  -20.5868  -28.3696   23.1300 C   0  0  2  0  0  0
  -20.6766  -26.9430   22.5411 C   0  0  0  0  0  0
  -19.5744  -26.6389   21.5216 C   0  0  0  0  0  0
  -18.1917  -26.7938   22.1611 C   0  0  0  0  0  0
  -19.1520  -28.8850   23.2892 C   0  0  0  0  0  0
  -18.9445  -30.1454   23.8901 C   0  0  0  0  0  0
  -17.6448  -30.6595   24.0556 C   0  0  0  0  0  0
  -25.9053  -34.9473   23.5132 C   0  0  0  0  0  0
  -16.5342  -29.9093   23.6331 C   0  0  0  0  0  0
  -16.7259  -28.6512   23.0357 C   0  0  0  0  0  0
  -26.4496  -31.6592   25.0765 C   0  0  0  0  0  0
  -25.3744  -31.3711   26.1504 C   0  0  0  0  0  0
  -27.0319  -30.3012   24.6196 C   0  0  0  0  0  0
  -27.6092  -32.4298   25.7510 C   0  0  0  0  0  0
  -27.5621  -37.1754   24.8410 C   0  0  0  0  0  0
  -21.4148  -29.3073   22.3713 N   0  0  0  0  0  0
  -26.4258  -37.3832   23.9471 N   0  0  0  0  0  0
  -24.6747  -31.0779   22.1061 N   0  0  0  0  0  0
  -23.4193  -28.8206   23.2990 O   0  0  0  0  0  0
  -28.3241  -26.5654   20.1598 O   0  0  0  0  0  0
  -26.5611  -34.8930   22.4687 O   0  0  0  0  0  0
  -23.5383  -32.1466   23.7519 O   0  0  0  0  0  0
  -28.2415  -17.9685   20.8954 C   0  0  0  0  0  0
  -29.6044  -18.0595   21.0358 C   0  0  0  0  0  0
  -29.0662  -20.2965   20.8375 C   0  0  0  0  0  0
  -29.0306  -24.1443   20.5870 C   0  0  0  0  0  0
  -28.4503  -22.7140   20.8901 C   0  0  0  0  0  0
  -30.5826  -16.9161   21.2569 C   0  0  0  0  0  0
  -28.0110  -25.1506   20.0042 C   0  0  0  0  0  0
  -30.0573  -19.3983   20.9829 N   0  0  0  0  0  0
  -29.3360  -21.6993   20.7644 N   0  0  0  0  0  0
  -30.0394  -15.5496   21.0851 N   0  0  0  0  0  0
  -30.2171  -24.4414   20.7779 O   0  0  0  0  0  0
  -27.2734  -22.5668   21.2409 O   0  0  0  0  0  0
  -27.4792  -19.5297   20.7078 S   0  0  0  0  0  0
  -31.4664  -12.4022   19.1397 H   0  0  0  0  0  0
  -30.2945  -11.3196   19.8379 H   0  0  0  0  0  0
  -29.7480  -11.7952   17.4286 H   0  0  0  0  0  0
  -29.6789  -13.5046   17.7697 H   0  0  0  0  0  0
  -27.8206  -11.3289   18.7966 H   0  0  0  0  0  0
  -27.3794  -12.6697   17.7741 H   0  0  0  0  0  0
  -27.6897  -14.2688   19.5630 H   0  0  0  0  0  0
  -28.6777  -12.0090   21.3630 H   0  0  0  0  0  0
  -28.4640  -13.6637   21.8501 H   0  0  0  0  0  0
  -25.2768   -9.5694   22.4766 H   0  0  0  0  0  0
  -24.0009   -7.4639   22.7485 H   0  0  0  0  0  0
  -21.0835   -8.8779   19.8966 H   0  0  0  0  0  0
  -22.3698  -10.9678   19.6165 H   0  0  0  0  0  0
  -21.2002   -7.6150   23.9720 H   0  0  0  0  0  0
  -21.1493   -6.0515   25.9082 H   0  0  0  0  0  0
  -22.0591   -2.7601   23.2825 H   0  0  0  0  0  0
  -22.4033  -11.9932   22.4836 H   0  0  0  0  0  0
  -21.1086  -13.1312   22.2538 H   0  0  0  0  0  0
  -24.6275  -15.8159   20.4294 H   0  0  0  0  0  0
  -26.2102  -15.5801   19.8907 H   0  0  0  0  0  0
  -26.7161  -32.5508   23.1182 H   0  0  0  0  0  0
  -25.0126  -33.9771   25.0508 H   0  0  0  0  0  0
  -22.6958  -31.3210   21.4260 H   0  0  0  0  0  0
  -23.3796  -35.9585   23.3146 H   0  0  0  0  0  0
  -24.3642  -36.9058   22.2065 H   0  0  0  0  0  0
  -23.7150  -37.6434   23.6718 H   0  0  0  0  0  0
  -26.0804  -31.5902   20.6214 H   0  0  0  0  0  0
  -26.8245  -30.8524   22.0120 H   0  0  0  0  0  0
  -28.0896  -29.0350   21.2043 H   0  0  0  0  0  0
  -25.9564  -26.0194   18.9306 H   0  0  0  0  0  0
  -23.9570  -27.3569   18.9849 H   0  0  0  0  0  0
  -23.7300  -30.6376   19.4178 H   0  0  0  0  0  0
  -22.7330  -29.2845   19.8594 H   0  0  0  0  0  0
  -25.1245  -36.1945   25.0818 H   0  0  0  0  0  0
  -20.9949  -28.3262   24.1425 H   0  0  0  0  0  0
  -20.5677  -26.2313   23.3610 H   0  0  0  0  0  0
  -21.6639  -26.7481   22.1200 H   0  0  0  0  0  0
  -19.6909  -25.6296   21.1260 H   0  0  0  0  0  0
  -19.6684  -27.3185   20.6738 H   0  0  0  0  0  0
  -17.4203  -26.6710   21.3994 H   0  0  0  0  0  0
  -18.0286  -26.0070   22.8988 H   0  0  0  0  0  0
  -19.7919  -30.7268   24.2275 H   0  0  0  0  0  0
  -17.5008  -31.6282   24.5146 H   0  0  0  0  0  0
  -15.5347  -30.3001   23.7651 H   0  0  0  0  0  0
  -15.8652  -28.0833   22.7073 H   0  0  0  0  0  0
  -24.5934  -30.7041   25.7836 H   0  0  0  0  0  0
  -24.8920  -32.2863   26.4944 H   0  0  0  0  0  0
  -25.8085  -30.8887   27.0269 H   0  0  0  0  0  0
  -26.2881  -29.6776   24.1230 H   0  0  0  0  0  0
  -27.4010  -29.7262   25.4696 H   0  0  0  0  0  0
  -27.8760  -30.4287   23.9420 H   0  0  0  0  0  0
  -27.2740  -33.3584   26.2139 H   0  0  0  0  0  0
  -28.3871  -32.6870   25.0308 H   0  0  0  0  0  0
  -28.0802  -31.8387   26.5372 H   0  0  0  0  0  0
  -28.2452  -38.0235   24.7771 H   0  0  0  0  0  0
  -28.1302  -36.2807   24.5815 H   0  0  0  0  0  0
  -27.2415  -37.0872   25.8805 H   0  0  0  0  0  0
  -20.9297  -29.8852   21.6988 H   0  0  0  0  0  0
  -26.0127  -38.2862   24.1646 H   0  0  0  0  0  0
  -27.6305  -17.0773   20.9046 H   0  0  0  0  0  0
  -30.9724  -16.9795   22.2734 H   0  0  0  0  0  0
  -31.4473  -17.0689   20.6083 H   0  0  0  0  0  0
  -27.0645  -24.9417   20.5047 H   0  0  0  0  0  0
  -27.8698  -24.9213   18.9471 H   0  0  0  0  0  0
  -30.2921  -21.9753   20.5926 H   0  0  0  0  0  0
  -29.0960  -15.3821   21.3982 H   0  0  0  0  0  0
  1 25  1  0  0  0
  1 30  2  0  0  0
  1 80  1  0  0  0
  2  3  1  0  0  0
  2 25  1  0  0  0
  2 84  1  0  0  0
  2 85  1  0  0  0
  3  4  1  0  0  0
  3 86  1  0  0  0
  3 87  1  0  0  0
  4  5  1  0  0  0
  4 88  1  0  0  0
  4 89  1  0  0  0
  5  6  1  0  0  0
  5 26  1  0  0  0
  5 90  1  0  0  0
  6 25  1  0  0  0
  6 91  1  0  0  0
  6 92  1  0  0  0
  7  8  2  0  0  0
  7 26  1  0  0  0
  7 29  1  0  0  0
  8  9  1  0  0  0
  8 22  1  0  0  0
  9 10  1  0  0  0
  9 27  2  0  0  0
 10 11  2  0  0  0
 10 15  1  0  0  0
 11 12  1  0  0  0
 11 93  1  0  0  0
 12 13  2  0  0  0
 12 94  1  0  0  0
 13 14  1  0  0  0
 13 31  1  0  0  0
 14 15  2  0  0  0
 14 95  1  0  0  0
 15 96  1  0  0  0
 16 17  2  0  0  0
 16 21  1  0  0  0
 16 31  1  0  0  0
 17 18  1  0  0  0
 17 97  1  0  0  0
 18 19  2  0  0  0
 18 98  1  0  0  0
 19 20  1  0  0  0
 19 24  1  0  0  0
 20 21  2  0  0  0
 20 99  1  0  0  0
 21 23  1  0  0  0
 22 28  1  0  0  0
 22 32  2  0  0  0
 26 27  1  0  0  0
 28100  1  0  0  0
 28101  1  0  0  0
 29102  1  0  0  0
 29103  1  0  0  0
 33 34  1  0  0  0
 33 66  1  0  0  0
 33 70  2  0  0  0
 34 36  1  0  0  0
 34 59  1  0  0  0
 34104  1  0  0  0
 35 44  2  0  0  0
 35 45  1  0  0  0
 35 68  1  0  0  0
 36 56  1  0  0  0
 36105  1  0  0  0
 37 39  1  0  0  0
 37 47  1  0  0  0
 37 66  1  0  0  0
 37106  1  0  0  0
 38 43  2  0  0  0
 38 46  1  0  0  0
 38 47  1  0  0  0
 39 64  1  0  0  0
 39 67  2  0  0  0
 40 52  1  0  0  0
 40 53  2  0  0  0
 40 58  1  0  0  0
 41107  1  0  0  0
 41108  1  0  0  0
 41109  1  0  0  0
 41 48  1  0  0  0
 42 43  1  0  0  0
 42 66  1  0  0  0
 42110  1  0  0  0
 42111  1  0  0  0
 43 44  1  0  0  0
 44112  1  0  0  0
 45 46  2  0  0  0
 45113  1  0  0  0
 46114  1  0  0  0
 47115  1  0  0  0
 47116  1  0  0  0
 48 56  1  0  0  0
 48 65  1  0  0  0
 48117  1  0  0  0
 49 50  1  0  0  0
 49 53  1  0  0  0
 49 64  1  0  0  0
 49118  1  0  0  0
 50 51  1  0  0  0
 50119  1  0  0  0
 50120  1  0  0  0
 51 52  1  0  0  0
 51121  1  0  0  0
 51122  1  0  0  0
 52123  1  0  0  0
 52124  1  0  0  0
 53 54  1  0  0  0
 54 55  2  0  0  0
 54125  1  0  0  0
 55 57  1  0  0  0
 55126  1  0  0  0
 56 69  2  0  0  0
 57 58  2  0  0  0
 57127  1  0  0  0
 58128  1  0  0  0
 59 60  1  0  0  0
 59 61  1  0  0  0
 59 62  1  0  0  0
 60129  1  0  0  0
 60130  1  0  0  0
 60131  1  0  0  0
 61132  1  0  0  0
 61133  1  0  0  0
 61134  1  0  0  0
 62135  1  0  0  0
 62136  1  0  0  0
 62137  1  0  0  0
 63 65  1  0  0  0
 63138  1  0  0  0
 63139  1  0  0  0
 63140  1  0  0  0
 64141  1  0  0  0
 65142  1  0  0  0
 68 77  1  0  0  0
 71 72  2  0  0  0
 71 83  1  0  0  0
 71143  1  0  0  0
 72 76  1  0  0  0
 72 78  1  0  0  0
 73 78  2  0  0  0
 73 79  1  0  0  0
 73 83  1  0  0  0
 74 75  1  0  0  0
 74 77  1  0  0  0
 74 81  2  0  0  0
 75 79  1  0  0  0
 75 82  2  0  0  0
 76 80  1  0  0  0
 76144  1  0  0  0
 76145  1  0  0  0
 77146  1  0  0  0
 77147  1  0  0  0
 79148  1  0  0  0
 80149  1  0  0  0
M  ISO  4   1 100  68 101  77 101  80 100
M  END
> <chiral flag>
0

> <version>
0

> <s_m_source_file>
/data/baiqing/PycharmProjects/Reinvent-master-3.2/result/LINK_invent/BTK/process_docking_weight1_custom_product_contain_oxygen_bond_distance_aromatic_linkinvent_7_9_3/rearranged_h_0170.sdf

> <i_m_source_file_index>
51

> <r_mmod_Potential_Energy-OPLS-2005>
-229.803741455078

> <r_mmod_Stretch_Energy-OPLS-2005>
44.0183029174805

> <r_mmod_Bend_Energy-OPLS-2005>
101.276580810547

> <r_mmod_Torsional_Energy-OPLS-2005>
199.096374511719

> <r_mmod_Improper_Torsional_Energy-OPLS-2005>
4.34353160858154

> <r_mmod_Van_der_Waal_Energy-OPLS-2005>
140.026840209961

> <r_mmod_Electrostatic_Energy-OPLS-2005>
-493.276611328125

> <r_mmod_Solvation_Energy-OPLS-2005>
-249.07373046875

> <b_mmod_Minimization_Converged-OPLS-2005>
0

> <r_mmod_RMS_Derivative-OPLS-2005>
2.48744654655457

$$$$
51
                    3D
 Structure written by MMmdl.
152160  0  0  1  0            999 V2000
  -30.5497  -14.7652   20.5032 C   0  0  0  0  0  0
  -30.4525  -12.4728   19.4745 C   0  0  0  0  0  0
  -29.5196  -12.5197   18.2411 C   0  0  0  0  0  0
  -28.0449  -12.3336   18.6523 C   0  0  0  0  0  0
  -27.6495  -13.2201   19.8627 C   0  0  2  0  0  0
  -28.6914  -13.1073   20.9981 C   0  0  0  0  0  0
  -25.2545  -13.8166   20.5691 C   0  0  0  0  0  0
  -24.1821  -13.0431   20.9208 C   0  0  0  0  0  0
  -24.6394  -11.6902   20.8745 C   0  0  0  0  0  0
  -23.9063  -10.4289   21.0418 C   0  0  0  0  0  0
  -24.3611   -9.4204   21.9198 C   0  0  0  0  0  0
  -23.6295   -8.2235   22.0760 C   0  0  0  0  0  0
  -22.4274   -8.0277   21.3548 C   0  0  0  0  0  0
  -21.9908   -9.0253   20.4651 C   0  0  0  0  0  0
  -22.7234  -10.2135   20.3065 C   0  0  0  0  0  0
  -21.6854   -6.0733   22.5282 C   0  0  0  0  0  0
  -21.4014   -6.5639   23.8211 C   0  0  0  0  0  0
  -21.3661   -5.6789   24.9176 C   0  0  0  0  0  0
  -21.6041   -4.3052   24.7223 C   0  0  0  0  0  0
  -21.8821   -3.8145   23.4348 C   0  0  0  0  0  0
  -21.9195   -4.6964   22.3404 C   0  0  0  0  0  0
  -22.7844  -13.5235   21.1875 C   0  0  0  0  0  0
  -22.1663   -4.2147   21.0982 F   0  0  0  0  0  0
  -21.5632   -3.4538   25.7742 F   0  0  0  0  0  0
  -29.9942  -13.5023   20.4383 N   0  0  0  0  0  0
  -26.2966  -12.9348   20.3302 N   0  0  0  0  0  0
  -25.9320  -11.6501   20.5752 N   0  0  0  0  0  0
  -22.0487  -12.8214   22.0423 N   0  0  0  0  0  0
  -25.4252  -15.1889   20.4115 N   0  0  0  0  0  0
  -31.7066  -14.9434   20.1000 O   0  0  0  0  0  0
  -21.6640   -6.8876   21.4240 O   0  0  0  0  0  0
  -22.3534  -14.5547   20.6739 O   0  0  0  0  0  0
  -24.6311  -31.8554   23.1976 C   0  0  0  0  0  0
  -25.9124  -32.4767   23.8332 C   0  0  1  0  0  0
  -27.2270  -27.2655   20.1335 C   0  0  0  0  0  0
  -25.5926  -33.8568   24.2267 N   0  0  0  0  0  0
  -23.4311  -30.4769   21.5394 C   0  0  2  0  0  0
  -24.8838  -28.9212   20.1119 C   0  0  0  0  0  0
  -22.7518  -29.4589   22.4892 C   0  0  0  0  0  0
  -18.0306  -28.1395   22.8496 C   0  0  0  0  0  0
  -24.1483  -36.7278   23.2636 C   0  0  0  0  0  0
  -25.9781  -30.7680   21.3785 C   0  0  0  0  0  0
  -26.0554  -29.3892   20.7239 C   0  0  0  0  0  0
  -27.2330  -28.5716   20.7295 C   0  0  0  0  0  0
  -26.0395  -26.8625   19.4939 C   0  0  0  0  0  0
  -24.8802  -27.6644   19.4864 C   0  0  0  0  0  0
  -23.6556  -29.8105   20.1560 C   0  0  0  0  0  0
  -25.4115  -36.3078   24.0326 C   0  0  1  0  0  0
  -20.5905  -28.3693   23.1282 C   0  0  2  0  0  0
  -20.6772  -26.9403   22.5422 C   0  0  0  0  0  0
  -19.5741  -26.6390   21.5227 C   0  0  0  0  0  0
  -18.1930  -26.7936   22.1643 C   0  0  0  0  0  0
  -19.1557  -28.8863   23.2883 C   0  0  0  0  0  0
  -18.9480  -30.1469   23.8896 C   0  0  0  0  0  0
  -17.6478  -30.6589   24.0573 C   0  0  0  0  0  0
  -25.9053  -34.9449   23.5105 C   0  0  0  0  0  0
  -16.5372  -29.9091   23.6337 C   0  0  0  0  0  0
  -16.7292  -28.6509   23.0357 C   0  0  0  0  0  0
  -26.4487  -31.6600   25.0725 C   0  0  0  0  0  0
  -25.3702  -31.3765   26.1447 C   0  0  0  0  0  0
  -27.0314  -30.3013   24.6192 C   0  0  0  0  0  0
  -27.6042  -32.4326   25.7500 C   0  0  0  0  0  0
  -27.5582  -37.1800   24.8462 C   0  0  0  0  0  0
  -21.4213  -29.3040   22.3659 N   0  0  0  0  0  0
  -26.4284  -37.3786   23.9415 N   0  0  0  0  0  0
  -24.6991  -31.0511   22.0954 N   0  0  0  0  0  0
  -23.4210  -28.8111   23.2978 O   0  0  0  0  0  0
  -28.2685  -26.3110   20.1632 O   0  0  0  0  0  0
  -26.5624  -34.8917   22.4670 O   0  0  0  0  0  0
  -23.5462  -32.1385   23.7271 O   0  0  0  0  0  0
  -28.7013  -17.8254   21.8456 C   0  0  0  0  0  0
  -29.9166  -19.5308   20.1069 C   0  0  0  0  0  0
  -28.4129  -19.2219   21.9202 C   0  0  0  0  0  0
  -29.0144  -20.1548   21.0254 C   0  0  0  0  0  0
  -29.6129  -17.2671   20.9115 C   0  0  0  0  0  0
  -28.2115  -25.3619   21.2107 C   0  0  0  0  0  0
  -28.4514  -23.9980   21.4256 C   0  0  0  0  0  0
  -28.9028  -22.8242   20.5708 C   0  0  0  0  0  0
  -27.4371  -19.7006   22.9877 C   0  0  0  0  0  0
  -30.2056  -18.1689   20.0603 N   0  0  0  0  0  0
  -28.6771  -21.6008   21.1945 N   0  0  0  0  0  0
  -29.7071  -15.7798   20.9436 N   0  0  0  0  0  0
  -29.4204  -22.9019   19.4572 O   0  0  0  0  0  0
  -28.2701  -23.6676   22.7171 O   0  0  0  0  0  0
  -31.4872  -12.6334   19.1680 H   0  0  0  0  0  0
  -30.4288  -11.4858   19.9384 H   0  0  0  0  0  0
  -29.8075  -11.7504   17.5234 H   0  0  0  0  0  0
  -29.6368  -13.4753   17.7277 H   0  0  0  0  0  0
  -27.9067  -11.2824   18.9085 H   0  0  0  0  0  0
  -27.3861  -12.5297   17.8060 H   0  0  0  0  0  0
  -27.6566  -14.2498   19.5041 H   0  0  0  0  0  0
  -28.7341  -12.0862   21.3795 H   0  0  0  0  0  0
  -28.4076  -13.7285   21.8485 H   0  0  0  0  0  0
  -25.2756   -9.5682   22.4767 H   0  0  0  0  0  0
  -24.0008   -7.4624   22.7470 H   0  0  0  0  0  0
  -21.0841   -8.8780   19.8950 H   0  0  0  0  0  0
  -22.3705  -10.9679   19.6172 H   0  0  0  0  0  0
  -21.2002   -7.6145   23.9713 H   0  0  0  0  0  0
  -21.1481   -6.0522   25.9077 H   0  0  0  0  0  0
  -22.0598   -2.7609   23.2851 H   0  0  0  0  0  0
  -22.4094  -11.9859   22.4788 H   0  0  0  0  0  0
  -21.1114  -13.1247   22.2649 H   0  0  0  0  0  0
  -24.6548  -15.8390   20.5205 H   0  0  0  0  0  0
  -26.2675  -15.6301   20.0675 H   0  0  0  0  0  0
  -26.7185  -32.5428   23.1066 H   0  0  0  0  0  0
  -25.0060  -33.9696   25.0408 H   0  0  0  0  0  0
  -22.7306  -31.3012   21.3904 H   0  0  0  0  0  0
  -23.3743  -35.9614   23.3319 H   0  0  0  0  0  0
  -24.3584  -36.8889   22.2049 H   0  0  0  0  0  0
  -23.7217  -37.6474   23.6646 H   0  0  0  0  0  0
  -26.1172  -31.5264   20.6066 H   0  0  0  0  0  0
  -26.8545  -30.8229   22.0113 H   0  0  0  0  0  0
  -28.1268  -28.9215   21.2264 H   0  0  0  0  0  0
  -26.0064  -25.8890   19.0243 H   0  0  0  0  0  0
  -23.9821  -27.2999   19.0075 H   0  0  0  0  0  0
  -23.7878  -30.5877   19.4020 H   0  0  0  0  0  0
  -22.7747  -29.2463   19.8467 H   0  0  0  0  0  0
  -25.1295  -36.1921   25.0816 H   0  0  0  0  0  0
  -21.0033  -28.3256   24.1388 H   0  0  0  0  0  0
  -20.5655  -26.2299   23.3630 H   0  0  0  0  0  0
  -21.6646  -26.7403   22.1226 H   0  0  0  0  0  0
  -19.6879  -25.6298   21.1265 H   0  0  0  0  0  0
  -19.6669  -27.3193   20.6748 H   0  0  0  0  0  0
  -17.4203  -26.6702   21.4041 H   0  0  0  0  0  0
  -18.0306  -26.0080   22.9041 H   0  0  0  0  0  0
  -19.7951  -30.7298   24.2258 H   0  0  0  0  0  0
  -17.5024  -31.6274   24.5175 H   0  0  0  0  0  0
  -15.5365  -30.2999   23.7647 H   0  0  0  0  0  0
  -15.8695  -28.0838   22.7066 H   0  0  0  0  0  0
  -24.5898  -30.7075   25.7798 H   0  0  0  0  0  0
  -24.8865  -32.2946   26.4802 H   0  0  0  0  0  0
  -25.8044  -30.9016   27.0259 H   0  0  0  0  0  0
  -26.2894  -29.6779   24.1182 H   0  0  0  0  0  0
  -27.3957  -29.7243   25.4700 H   0  0  0  0  0  0
  -27.8796  -30.4271   23.9448 H   0  0  0  0  0  0
  -27.2653  -33.3637   26.2044 H   0  0  0  0  0  0
  -28.3878  -32.6879   25.0355 H   0  0  0  0  0  0
  -28.0660  -31.8458   26.5445 H   0  0  0  0  0  0
  -28.2607  -38.0094   24.7553 H   0  0  0  0  0  0
  -28.1081  -36.2643   24.6254 H   0  0  0  0  0  0
  -27.2320  -37.1414   25.8868 H   0  0  0  0  0  0
  -20.9388  -29.8811   21.6915 H   0  0  0  0  0  0
  -26.0164  -38.2858   24.1439 H   0  0  0  0  0  0
  -28.2001  -17.1631   22.5401 H   0  0  0  0  0  0
  -30.4373  -20.1388   19.3827 H   0  0  0  0  0  0
  -27.8950  -25.9093   22.0892 H   0  0  0  0  0  0
  -27.1323  -18.8870   23.6460 H   0  0  0  0  0  0
  -26.5333  -20.1059   22.5314 H   0  0  0  0  0  0
  -27.8870  -20.4720   23.6146 H   0  0  0  0  0  0
  -28.0814  -21.7566   21.9951 H   0  0  0  0  0  0
  -28.8871  -15.3676   21.3576 H   0  0  0  0  0  0
  -28.8427  -22.9313   22.8992 H   0  0  0  0  0  0
  1 25  1  0  0  0
  1 30  2  0  0  0
  1 82  1  0  0  0
  2  3  1  0  0  0
  2 25  1  0  0  0
  2 85  1  0  0  0
  2 86  1  0  0  0
  3  4  1  0  0  0
  3 87  1  0  0  0
  3 88  1  0  0  0
  4  5  1  0  0  0
  4 89  1  0  0  0
  4 90  1  0  0  0
  5  6  1  0  0  0
  5 26  1  0  0  0
  5 91  1  0  0  0
  6 25  1  0  0  0
  6 92  1  0  0  0
  6 93  1  0  0  0
  7  8  2  0  0  0
  7 26  1  0  0  0
  7 29  1  0  0  0
  8  9  1  0  0  0
  8 22  1  0  0  0
  9 10  1  0  0  0
  9 27  2  0  0  0
 10 11  2  0  0  0
 10 15  1  0  0  0
 11 12  1  0  0  0
 11 94  1  0  0  0
 12 13  2  0  0  0
 12 95  1  0  0  0
 13 14  1  0  0  0
 13 31  1  0  0  0
 14 15  2  0  0  0
 14 96  1  0  0  0
 15 97  1  0  0  0
 16 17  2  0  0  0
 16 21  1  0  0  0
 16 31  1  0  0  0
 17 18  1  0  0  0
 17 98  1  0  0  0
 18 19  2  0  0  0
 18 99  1  0  0  0
 19 20  1  0  0  0
 19 24  1  0  0  0
 20 21  2  0  0  0
 20100  1  0  0  0
 21 23  1  0  0  0
 22 28  1  0  0  0
 22 32  2  0  0  0
 26 27  1  0  0  0
 28101  1  0  0  0
 28102  1  0  0  0
 29103  1  0  0  0
 29104  1  0  0  0
 33 34  1  0  0  0
 33 66  1  0  0  0
 33 70  2  0  0  0
 34 36  1  0  0  0
 34 59  1  0  0  0
 34105  1  0  0  0
 35 44  2  0  0  0
 35 45  1  0  0  0
 35 68  1  0  0  0
 36 56  1  0  0  0
 36106  1  0  0  0
 37 39  1  0  0  0
 37 47  1  0  0  0
 37 66  1  0  0  0
 37107  1  0  0  0
 38 43  2  0  0  0
 38 46  1  0  0  0
 38 47  1  0  0  0
 39 64  1  0  0  0
 39 67  2  0  0  0
 40 52  1  0  0  0
 40 53  2  0  0  0
 40 58  1  0  0  0
 41108  1  0  0  0
 41109  1  0  0  0
 41110  1  0  0  0
 41 48  1  0  0  0
 42 43  1  0  0  0
 42 66  1  0  0  0
 42111  1  0  0  0
 42112  1  0  0  0
 43 44  1  0  0  0
 44113  1  0  0  0
 45 46  2  0  0  0
 45114  1  0  0  0
 46115  1  0  0  0
 47116  1  0  0  0
 47117  1  0  0  0
 48 56  1  0  0  0
 48 65  1  0  0  0
 48118  1  0  0  0
 49 50  1  0  0  0
 49 53  1  0  0  0
 49 64  1  0  0  0
 49119  1  0  0  0
 50 51  1  0  0  0
 50120  1  0  0  0
 50121  1  0  0  0
 51 52  1  0  0  0
 51122  1  0  0  0
 51123  1  0  0  0
 52124  1  0  0  0
 52125  1  0  0  0
 53 54  1  0  0  0
 54 55  2  0  0  0
 54126  1  0  0  0
 55 57  1  0  0  0
 55127  1  0  0  0
 56 69  2  0  0  0
 57 58  2  0  0  0
 57128  1  0  0  0
 58129  1  0  0  0
 59 60  1  0  0  0
 59 61  1  0  0  0
 59 62  1  0  0  0
 60130  1  0  0  0
 60131  1  0  0  0
 60132  1  0  0  0
 61133  1  0  0  0
 61134  1  0  0  0
 61135  1  0  0  0
 62136  1  0  0  0
 62137  1  0  0  0
 62138  1  0  0  0
 63 65  1  0  0  0
 63139  1  0  0  0
 63140  1  0  0  0
 63141  1  0  0  0
 64142  1  0  0  0
 65143  1  0  0  0
 68 76  1  0  0  0
 71 73  2  0  0  0
 71 75  1  0  0  0
 71144  1  0  0  0
 72 74  2  0  0  0
 72 80  1  0  0  0
 72145  1  0  0  0
 73 74  1  0  0  0
 73 79  1  0  0  0
 74 81  1  0  0  0
 75 80  2  0  0  0
 75 82  1  0  0  0
 76 77  2  0  0  0
 76146  1  0  0  0
 77 78  1  0  0  0
 77 84  1  0  0  0
 78 81  1  0  0  0
 78 83  2  0  0  0
 79147  1  0  0  0
 79148  1  0  0  0
 79149  1  0  0  0
 81150  1  0  0  0
 82151  1  0  0  0
 84152  1  0  0  0
M  ISO  4   1 100  68 101  76 101  82 100
M  END
> <chiral flag>
0

> <version>
0

> <s_m_source_file>
/data/baiqing/PycharmProjects/Reinvent-master-3.2/result/LINK_invent/BTK/process_docking_weight1_custom_product_contain_oxygen_bond_distance_aromatic_linkinvent_7_9_3/rearranged_h_0170.sdf

> <i_m_source_file_index>
52

> <r_mmod_Potential_Energy-OPLS-2005>
58.1046752929688

> <r_mmod_Stretch_Energy-OPLS-2005>
118.97989654541

> <r_mmod_Bend_Energy-OPLS-2005>
266.950866699219

> <r_mmod_Torsional_Energy-OPLS-2005>
234.835586547852

> <r_mmod_Improper_Torsional_Energy-OPLS-2005>
3.23838877677917

> <r_mmod_Van_der_Waal_Energy-OPLS-2005>
142.473052978516

> <r_mmod_Electrostatic_Energy-OPLS-2005>
-531.302551269531

> <r_mmod_Solvation_Energy-OPLS-2005>
-271.533020019531

> <b_mmod_Minimization_Converged-OPLS-2005>
0

> <r_mmod_RMS_Derivative-OPLS-2005>
2.24072122573853

$$$$
52
                    3D
 Structure written by MMmdl.
153161  0  0  1  0            999 V2000
  -30.6957  -14.5152   20.5699 C   0  0  0  0  0  0
  -30.4244  -12.3378   19.4248 C   0  0  0  0  0  0
  -29.4944  -12.5036   18.2051 C   0  0  0  0  0  0
  -28.0170  -12.3557   18.6202 C   0  0  0  0  0  0
  -27.6550  -13.2115   19.8639 C   0  0  2  0  0  0
  -28.6989  -13.0278   20.9879 C   0  0  0  0  0  0
  -25.2567  -13.8172   20.5679 C   0  0  0  0  0  0
  -24.1827  -13.0439   20.9182 C   0  0  0  0  0  0
  -24.6390  -11.6908   20.8726 C   0  0  0  0  0  0
  -23.9058  -10.4290   21.0395 C   0  0  0  0  0  0
  -24.3616   -9.4207   21.9169 C   0  0  0  0  0  0
  -23.6293   -8.2239   22.0743 C   0  0  0  0  0  0
  -22.4271   -8.0275   21.3539 C   0  0  0  0  0  0
  -21.9900   -9.0250   20.4645 C   0  0  0  0  0  0
  -22.7228  -10.2128   20.3048 C   0  0  0  0  0  0
  -21.6850   -6.0728   22.5279 C   0  0  0  0  0  0
  -21.4013   -6.5636   23.8211 C   0  0  0  0  0  0
  -21.3658   -5.6789   24.9175 C   0  0  0  0  0  0
  -21.6045   -4.3051   24.7226 C   0  0  0  0  0  0
  -21.8821   -3.8141   23.4349 C   0  0  0  0  0  0
  -21.9198   -4.6957   22.3406 C   0  0  0  0  0  0
  -22.7852  -13.5235   21.1855 C   0  0  0  0  0  0
  -22.1664   -4.2142   21.0984 F   0  0  0  0  0  0
  -21.5627   -3.4533   25.7736 F   0  0  0  0  0  0
  -30.0214  -13.3399   20.4254 N   0  0  0  0  0  0
  -26.2992  -12.9345   20.3315 N   0  0  0  0  0  0
  -25.9314  -11.6505   20.5746 N   0  0  0  0  0  0
  -22.0501  -12.8225   22.0414 N   0  0  0  0  0  0
  -25.4303  -15.1891   20.4101 N   0  0  0  0  0  0
  -31.8468  -14.6654   20.1490 O   0  0  0  0  0  0
  -21.6640   -6.8868   21.4238 O   0  0  0  0  0  0
  -22.3542  -14.5543   20.6707 O   0  0  0  0  0  0
  -24.6197  -31.8675   23.2105 C   0  0  0  0  0  0
  -25.9080  -32.4817   23.8404 C   0  0  1  0  0  0
  -27.2174  -27.3872   20.0924 C   0  0  0  0  0  0
  -25.5929  -33.8618   24.2327 N   0  0  0  0  0  0
  -23.4084  -30.4967   21.5518 C   0  0  2  0  0  0
  -24.8507  -28.9673   20.1109 C   0  0  0  0  0  0
  -22.7438  -29.4675   22.4963 C   0  0  0  0  0  0
  -18.0275  -28.1389   22.8489 C   0  0  0  0  0  0
  -24.1490  -36.7308   23.2627 C   0  0  0  0  0  0
  -25.9459  -30.8172   21.3744 C   0  0  0  0  0  0
  -26.0179  -29.4524   20.7135 C   0  0  0  0  0  0
  -27.2042  -28.6710   20.7013 C   0  0  0  0  0  0
  -26.0271  -26.9490   19.4592 C   0  0  0  0  0  0
  -24.8532  -27.7168   19.4793 C   0  0  0  0  0  0
  -23.6180  -29.8407   20.1637 C   0  0  0  0  0  0
  -25.4108  -36.3108   24.0335 C   0  0  1  0  0  0
  -20.5873  -28.3689   23.1299 C   0  0  2  0  0  0
  -20.6769  -26.9418   22.5418 C   0  0  0  0  0  0
  -19.5751  -26.6392   21.5218 C   0  0  0  0  0  0
  -18.1927  -26.7936   22.1620 C   0  0  0  0  0  0
  -19.1527  -28.8852   23.2895 C   0  0  0  0  0  0
  -18.9455  -30.1452   23.8914 C   0  0  0  0  0  0
  -17.6457  -30.6591   24.0565 C   0  0  0  0  0  0
  -25.9051  -34.9475   23.5127 C   0  0  0  0  0  0
  -16.5347  -29.9094   23.6325 C   0  0  0  0  0  0
  -16.7267  -28.6512   23.0347 C   0  0  0  0  0  0
  -26.4480  -31.6597   25.0741 C   0  0  0  0  0  0
  -25.3736  -31.3780   26.1501 C   0  0  0  0  0  0
  -27.0245  -30.2991   24.6172 C   0  0  0  0  0  0
  -27.6107  -32.4278   25.7459 C   0  0  0  0  0  0
  -27.5607  -37.1778   24.8438 C   0  0  0  0  0  0
  -21.4162  -29.3051   22.3695 N   0  0  0  0  0  0
  -26.4281  -37.3809   23.9442 N   0  0  0  0  0  0
  -24.6765  -31.0749   22.1025 N   0  0  0  0  0  0
  -23.4198  -28.8202   23.3004 O   0  0  0  0  0  0
  -28.3526  -26.5798   20.1405 O   0  0  0  0  0  0
  -26.5610  -34.8927   22.4686 O   0  0  0  0  0  0
  -23.5377  -32.1449   23.7471 O   0  0  0  0  0  0
  -32.0651  -18.2457   22.6108 C   0  0  0  0  0  0
  -31.4284  -19.4204   22.1736 C   0  0  0  0  0  0
  -31.5928  -16.9848   22.2099 C   0  0  0  0  0  0
  -29.8056  -18.0756   20.9551 C   0  0  0  0  0  0
  -30.2956  -19.3679   21.3231 C   0  0  0  0  0  0
  -30.4629  -16.8768   21.3699 C   0  0  0  0  0  0
  -29.0453  -22.8209   20.3836 C   0  0  0  0  0  0
  -29.2159  -24.1761   20.3453 C   0  0  0  0  0  0
  -30.0508  -21.8589   20.8593 C   0  0  0  0  0  0
  -28.1551  -25.1679   19.8383 C   0  0  0  0  0  0
  -29.6217  -20.5666   20.8668 N   0  0  0  0  0  0
  -29.9703  -15.5727   21.0134 N   0  0  0  0  0  0
  -31.1885  -22.1996   21.1961 O   0  0  0  0  0  0
  -30.3235  -24.8207   20.7494 O   0  0  0  0  0  0
  -31.4667  -12.4461   19.1196 H   0  0  0  0  0  0
  -30.3393  -11.3333   19.8423 H   0  0  0  0  0  0
  -29.7422  -11.7672   17.4393 H   0  0  0  0  0  0
  -29.6520  -13.4835   17.7499 H   0  0  0  0  0  0
  -27.8380  -11.3009   18.8324 H   0  0  0  0  0  0
  -27.3642  -12.6103   17.7845 H   0  0  0  0  0  0
  -27.6867  -14.2532   19.5442 H   0  0  0  0  0  0
  -28.6871  -12.0000   21.3541 H   0  0  0  0  0  0
  -28.4593  -13.6519   21.8504 H   0  0  0  0  0  0
  -25.2766   -9.5679   22.4735 H   0  0  0  0  0  0
  -24.0004   -7.4627   22.7454 H   0  0  0  0  0  0
  -21.0825   -8.8769   19.8957 H   0  0  0  0  0  0
  -22.3685  -10.9663   19.6155 H   0  0  0  0  0  0
  -21.1999   -7.6144   23.9713 H   0  0  0  0  0  0
  -21.1477   -6.0518   25.9076 H   0  0  0  0  0  0
  -22.0602   -2.7602   23.2852 H   0  0  0  0  0  0
  -22.4124  -11.9893   22.4811 H   0  0  0  0  0  0
  -21.1120  -13.1245   22.2626 H   0  0  0  0  0  0
  -24.6656  -15.8458   20.5204 H   0  0  0  0  0  0
  -26.2811  -15.6259   20.0793 H   0  0  0  0  0  0
  -26.7149  -32.5502   23.1161 H   0  0  0  0  0  0
  -25.0078  -33.9778   25.0470 H   0  0  0  0  0  0
  -22.6995  -31.3162   21.4167 H   0  0  0  0  0  0
  -23.3787  -35.9600   23.3207 H   0  0  0  0  0  0
  -24.3620  -36.9007   22.2063 H   0  0  0  0  0  0
  -23.7183  -37.6461   23.6693 H   0  0  0  0  0  0
  -26.0734  -31.5864   20.6114 H   0  0  0  0  0  0
  -26.8285  -30.8598   22.0011 H   0  0  0  0  0  0
  -28.1011  -29.0395   21.1805 H   0  0  0  0  0  0
  -25.9664  -26.0060   18.9376 H   0  0  0  0  0  0
  -23.9592  -27.3430   18.9987 H   0  0  0  0  0  0
  -23.7337  -30.6213   19.4107 H   0  0  0  0  0  0
  -22.7386  -29.2697   19.8612 H   0  0  0  0  0  0
  -25.1269  -36.1959   25.0823 H   0  0  0  0  0  0
  -20.9971  -28.3261   24.1416 H   0  0  0  0  0  0
  -20.5669  -26.2306   23.3617 H   0  0  0  0  0  0
  -21.6639  -26.7456   22.1211 H   0  0  0  0  0  0
  -19.6913  -25.6303   21.1250 H   0  0  0  0  0  0
  -19.6692  -27.3200   20.6745 H   0  0  0  0  0  0
  -17.4202  -26.6691   21.4018 H   0  0  0  0  0  0
  -18.0316  -26.0073   22.9010 H   0  0  0  0  0  0
  -19.7930  -30.7258   24.2302 H   0  0  0  0  0  0
  -17.5013  -31.6274   24.5163 H   0  0  0  0  0  0
  -15.5350  -30.3006   23.7641 H   0  0  0  0  0  0
  -15.8664  -28.0839   22.7052 H   0  0  0  0  0  0
  -24.5850  -30.7193   25.7845 H   0  0  0  0  0  0
  -24.9001  -32.2975   26.4958 H   0  0  0  0  0  0
  -25.8053  -30.8917   27.0256 H   0  0  0  0  0  0
  -26.2766  -29.6788   24.1219 H   0  0  0  0  0  0
  -27.3924  -29.7222   25.4666 H   0  0  0  0  0  0
  -27.8674  -30.4220   23.9369 H   0  0  0  0  0  0
  -27.2810  -33.3630   26.1994 H   0  0  0  0  0  0
  -28.3928  -32.6733   25.0261 H   0  0  0  0  0  0
  -28.0748  -31.8400   26.5388 H   0  0  0  0  0  0
  -28.2550  -38.0149   24.7609 H   0  0  0  0  0  0
  -28.1178  -36.2697   24.6085 H   0  0  0  0  0  0
  -27.2365  -37.1199   25.8842 H   0  0  0  0  0  0
  -20.9323  -29.8788   21.6926 H   0  0  0  0  0  0
  -26.0165  -38.2867   24.1528 H   0  0  0  0  0  0
  -32.9226  -18.3144   23.2652 H   0  0  0  0  0  0
  -31.8330  -20.3557   22.5274 H   0  0  0  0  0  0
  -32.0984  -16.0996   22.5715 H   0  0  0  0  0  0
  -28.9265  -18.0030   20.3301 H   0  0  0  0  0  0
  -28.0988  -22.4328   20.0331 H   0  0  0  0  0  0
  -27.2209  -24.8147   20.2780 H   0  0  0  0  0  0
  -28.0752  -25.0460   18.7568 H   0  0  0  0  0  0
  -28.6973  -20.4260   20.4841 H   0  0  0  0  0  0
  -28.9790  -15.4157   21.1135 H   0  0  0  0  0  0
  -30.9412  -24.1577   21.0457 H   0  0  0  0  0  0
  1 25  1  0  0  0
  1 30  2  0  0  0
  1 82  1  0  0  0
  2  3  1  0  0  0
  2 25  1  0  0  0
  2 85  1  0  0  0
  2 86  1  0  0  0
  3  4  1  0  0  0
  3 87  1  0  0  0
  3 88  1  0  0  0
  4  5  1  0  0  0
  4 89  1  0  0  0
  4 90  1  0  0  0
  5  6  1  0  0  0
  5 26  1  0  0  0
  5 91  1  0  0  0
  6 25  1  0  0  0
  6 92  1  0  0  0
  6 93  1  0  0  0
  7  8  2  0  0  0
  7 26  1  0  0  0
  7 29  1  0  0  0
  8  9  1  0  0  0
  8 22  1  0  0  0
  9 10  1  0  0  0
  9 27  2  0  0  0
 10 11  2  0  0  0
 10 15  1  0  0  0
 11 12  1  0  0  0
 11 94  1  0  0  0
 12 13  2  0  0  0
 12 95  1  0  0  0
 13 14  1  0  0  0
 13 31  1  0  0  0
 14 15  2  0  0  0
 14 96  1  0  0  0
 15 97  1  0  0  0
 16 17  2  0  0  0
 16 21  1  0  0  0
 16 31  1  0  0  0
 17 18  1  0  0  0
 17 98  1  0  0  0
 18 19  2  0  0  0
 18 99  1  0  0  0
 19 20  1  0  0  0
 19 24  1  0  0  0
 20 21  2  0  0  0
 20100  1  0  0  0
 21 23  1  0  0  0
 22 28  1  0  0  0
 22 32  2  0  0  0
 26 27  1  0  0  0
 28101  1  0  0  0
 28102  1  0  0  0
 29103  1  0  0  0
 29104  1  0  0  0
 33 34  1  0  0  0
 33 66  1  0  0  0
 33 70  2  0  0  0
 34 36  1  0  0  0
 34 59  1  0  0  0
 34105  1  0  0  0
 35 44  2  0  0  0
 35 45  1  0  0  0
 35 68  1  0  0  0
 36 56  1  0  0  0
 36106  1  0  0  0
 37 39  1  0  0  0
 37 47  1  0  0  0
 37 66  1  0  0  0
 37107  1  0  0  0
 38 43  2  0  0  0
 38 46  1  0  0  0
 38 47  1  0  0  0
 39 64  1  0  0  0
 39 67  2  0  0  0
 40 52  1  0  0  0
 40 53  2  0  0  0
 40 58  1  0  0  0
 41108  1  0  0  0
 41109  1  0  0  0
 41110  1  0  0  0
 41 48  1  0  0  0
 42 43  1  0  0  0
 42 66  1  0  0  0
 42111  1  0  0  0
 42112  1  0  0  0
 43 44  1  0  0  0
 44113  1  0  0  0
 45 46  2  0  0  0
 45114  1  0  0  0
 46115  1  0  0  0
 47116  1  0  0  0
 47117  1  0  0  0
 48 56  1  0  0  0
 48 65  1  0  0  0
 48118  1  0  0  0
 49 50  1  0  0  0
 49 53  1  0  0  0
 49 64  1  0  0  0
 49119  1  0  0  0
 50 51  1  0  0  0
 50120  1  0  0  0
 50121  1  0  0  0
 51 52  1  0  0  0
 51122  1  0  0  0
 51123  1  0  0  0
 52124  1  0  0  0
 52125  1  0  0  0
 53 54  1  0  0  0
 54 55  2  0  0  0
 54126  1  0  0  0
 55 57  1  0  0  0
 55127  1  0  0  0
 56 69  2  0  0  0
 57 58  2  0  0  0
 57128  1  0  0  0
 58129  1  0  0  0
 59 60  1  0  0  0
 59 61  1  0  0  0
 59 62  1  0  0  0
 60130  1  0  0  0
 60131  1  0  0  0
 60132  1  0  0  0
 61133  1  0  0  0
 61134  1  0  0  0
 61135  1  0  0  0
 62136  1  0  0  0
 62137  1  0  0  0
 62138  1  0  0  0
 63 65  1  0  0  0
 63139  1  0  0  0
 63140  1  0  0  0
 63141  1  0  0  0
 64142  1  0  0  0
 65143  1  0  0  0
 68 80  1  0  0  0
 71 72  2  0  0  0
 71 73  1  0  0  0
 71144  1  0  0  0
 72 75  1  0  0  0
 72145  1  0  0  0
 73 76  2  0  0  0
 73146  1  0  0  0
 74 75  2  0  0  0
 74 76  1  0  0  0
 74147  1  0  0  0
 75 81  1  0  0  0
 76 82  1  0  0  0
 77 78  2  0  0  0
 77 79  1  0  0  0
 77148  1  0  0  0
 78 80  1  0  0  0
 78 84  1  0  0  0
 79 81  1  0  0  0
 79 83  2  0  0  0
 80149  1  0  0  0
 80150  1  0  0  0
 81151  1  0  0  0
 82152  1  0  0  0
 84153  1  0  0  0
M  ISO  4   1 100  68 101  80 101  82 100
M  END
> <chiral flag>
0

> <version>
0

> <s_m_source_file>
/data/baiqing/PycharmProjects/Reinvent-master-3.2/result/LINK_invent/BTK/process_docking_weight1_custom_product_contain_oxygen_bond_distance_aromatic_linkinvent_7_9_3/rearranged_h_0170.sdf

> <i_m_source_file_index>
53

> <r_mmod_Potential_Energy-OPLS-2005>
-31.7063388824463

> <r_mmod_Stretch_Energy-OPLS-2005>
51.1959075927734

> <r_mmod_Bend_Energy-OPLS-2005>
107.525802612305

> <r_mmod_Torsional_Energy-OPLS-2005>
214.582122802734

> <r_mmod_Improper_Torsional_Energy-OPLS-2005>
4.39582538604736

> <r_mmod_Van_der_Waal_Energy-OPLS-2005>
171.004135131836

> <r_mmod_Electrostatic_Energy-OPLS-2005>
-358.092132568359

> <r_mmod_Solvation_Energy-OPLS-2005>
-245.975006103516

> <b_mmod_Minimization_Converged-OPLS-2005>
0

> <r_mmod_RMS_Derivative-OPLS-2005>
1.09996569156647

$$$$
53
                    3D
 Structure written by MMmdl.
160168  0  0  1  0            999 V2000
  -30.5095  -14.7486   20.4879 C   0  0  0  0  0  0
  -30.4364  -12.4627   19.4720 C   0  0  0  0  0  0
  -29.5119  -12.5217   18.2319 C   0  0  0  0  0  0
  -28.0303  -12.3458   18.6323 C   0  0  0  0  0  0
  -27.6368  -13.2164   19.8585 C   0  0  2  0  0  0
  -28.6701  -13.0810   20.9946 C   0  0  0  0  0  0
  -25.2474  -13.8141   20.5692 C   0  0  0  0  0  0
  -24.1765  -13.0426   20.9213 C   0  0  0  0  0  0
  -24.6330  -11.6884   20.8707 C   0  0  0  0  0  0
  -23.8986  -10.4284   21.0388 C   0  0  0  0  0  0
  -24.3561   -9.4200   21.9159 C   0  0  0  0  0  0
  -23.6287   -8.2208   22.0728 C   0  0  0  0  0  0
  -22.4270   -8.0237   21.3507 C   0  0  0  0  0  0
  -21.9886   -9.0202   20.4609 C   0  0  0  0  0  0
  -22.7162  -10.2111   20.3029 C   0  0  0  0  0  0
  -21.6850   -6.0709   22.5275 C   0  0  0  0  0  0
  -21.4008   -6.5611   23.8210 C   0  0  0  0  0  0
  -21.3667   -5.6768   24.9177 C   0  0  0  0  0  0
  -21.6060   -4.3031   24.7224 C   0  0  0  0  0  0
  -21.8823   -3.8117   23.4343 C   0  0  0  0  0  0
  -21.9180   -4.6933   22.3399 C   0  0  0  0  0  0
  -22.7793  -13.5210   21.1902 C   0  0  0  0  0  0
  -22.1660   -4.2129   21.0973 F   0  0  0  0  0  0
  -21.5642   -3.4515   25.7742 F   0  0  0  0  0  0
  -29.9657  -13.4835   20.4358 N   0  0  0  0  0  0
  -26.2864  -12.9309   20.3255 N   0  0  0  0  0  0
  -25.9245  -11.6447   20.5687 N   0  0  0  0  0  0
  -22.0411  -12.8230   22.0472 N   0  0  0  0  0  0
  -25.4180  -15.1876   20.4089 N   0  0  0  0  0  0
  -31.6858  -14.9265   20.1534 O   0  0  0  0  0  0
  -21.6622   -6.8849   21.4233 O   0  0  0  0  0  0
  -22.3494  -14.5516   20.6735 O   0  0  0  0  0  0
  -24.6334  -31.8575   23.2019 C   0  0  0  0  0  0
  -25.9181  -32.4779   23.8352 C   0  0  1  0  0  0
  -27.1766  -27.2653   20.1024 C   0  0  0  0  0  0
  -25.5992  -33.8592   24.2273 N   0  0  0  0  0  0
  -23.4215  -30.4853   21.5541 C   0  0  2  0  0  0
  -24.8501  -28.9253   20.1171 C   0  0  0  0  0  0
  -22.7459  -29.4660   22.5016 C   0  0  0  0  0  0
  -18.0273  -28.1385   22.8501 C   0  0  0  0  0  0
  -24.1493  -36.7233   23.2627 C   0  0  0  0  0  0
  -25.9690  -30.7681   21.3741 C   0  0  0  0  0  0
  -26.0273  -29.3884   20.7201 C   0  0  0  0  0  0
  -27.1992  -28.5668   20.7072 C   0  0  0  0  0  0
  -25.9953  -26.8861   19.4409 C   0  0  0  0  0  0
  -24.8314  -27.6779   19.4766 C   0  0  0  0  0  0
  -23.6254  -29.8169   20.1717 C   0  0  0  0  0  0
  -25.4129  -36.3056   24.0306 C   0  0  1  0  0  0
  -20.5895  -28.3682   23.1297 C   0  0  2  0  0  0
  -20.6802  -26.9407   22.5411 C   0  0  0  0  0  0
  -19.5765  -26.6369   21.5243 C   0  0  0  0  0  0
  -18.1932  -26.7917   22.1638 C   0  0  0  0  0  0
  -19.1538  -28.8845   23.2887 C   0  0  0  0  0  0
  -18.9460  -30.1471   23.8850 C   0  0  0  0  0  0
  -17.6468  -30.6591   24.0561 C   0  0  0  0  0  0
  -25.9070  -34.9438   23.5074 C   0  0  0  0  0  0
  -16.5356  -29.9085   23.6364 C   0  0  0  0  0  0
  -16.7262  -28.6509   23.0370 C   0  0  0  0  0  0
  -26.4540  -31.6604   25.0733 C   0  0  0  0  0  0
  -25.3766  -31.3788   26.1462 C   0  0  0  0  0  0
  -27.0374  -30.3013   24.6211 C   0  0  0  0  0  0
  -27.6065  -32.4359   25.7525 C   0  0  0  0  0  0
  -27.5581  -37.1787   24.8467 C   0  0  0  0  0  0
  -21.4180  -29.3051   22.3713 N   0  0  0  0  0  0
  -26.4286  -37.3762   23.9398 N   0  0  0  0  0  0
  -24.6962  -31.0526   22.1016 N   0  0  0  0  0  0
  -23.4159  -28.8209   23.3135 O   0  0  0  0  0  0
  -28.2503  -26.3626   20.0901 O   0  0  0  0  0  0
  -26.5609  -34.8916   22.4623 O   0  0  0  0  0  0
  -23.5495  -32.1453   23.7319 O   0  0  0  0  0  0
  -30.8521  -18.0631   20.4003 C   0  0  0  0  0  0
  -28.6304  -18.1766   20.5595 C   0  0  0  0  0  0
  -29.6880  -17.2650   20.5735 C   0  0  0  0  0  0
  -30.4893  -19.3923   20.2503 C   0  0  0  0  0  0
  -28.3096  -23.7134   18.5242 C   0  0  0  0  0  0
  -26.3235  -23.2477   19.9880 C   0  0  0  0  0  0
  -28.5271  -22.2479   20.6728 C   0  0  0  0  0  0
  -28.2239  -20.7539   20.0892 C   0  0  0  0  0  0
  -28.1153  -25.0127   20.7434 C   0  0  0  0  0  0
  -31.4068  -20.5601   19.9915 C   0  0  0  0  0  0
  -27.8390  -23.5733   19.9953 C   0  0  0  0  0  0
  -29.0932  -19.5100   20.3511 N   0  0  0  0  0  0
  -29.6190  -15.7886   20.7425 N   0  0  0  0  0  0
  -32.6201  -20.1483   19.6296 F   0  0  0  0  0  0
  -30.9606  -21.3442   19.0068 F   0  0  0  0  0  0
  -31.5769  -21.3019   21.0860 F   0  0  0  0  0  0
  -31.4719  -12.6368   19.1750 H   0  0  0  0  0  0
  -30.4127  -11.4733   19.9330 H   0  0  0  0  0  0
  -29.8076  -11.7514   17.5156 H   0  0  0  0  0  0
  -29.6419  -13.4786   17.7245 H   0  0  0  0  0  0
  -27.8799  -11.2913   18.8614 H   0  0  0  0  0  0
  -27.3717  -12.5618   17.7889 H   0  0  0  0  0  0
  -27.6432  -14.2522   19.5197 H   0  0  0  0  0  0
  -28.7138  -12.0530   21.3575 H   0  0  0  0  0  0
  -28.3931  -13.6869   21.8598 H   0  0  0  0  0  0
  -25.2692   -9.5729   22.4731 H   0  0  0  0  0  0
  -24.0007   -7.4619   22.7465 H   0  0  0  0  0  0
  -21.0809   -8.8649   19.8957 H   0  0  0  0  0  0
  -22.3543  -10.9610   19.6141 H   0  0  0  0  0  0
  -21.1984   -7.6124   23.9717 H   0  0  0  0  0  0
  -21.1517   -6.0492   25.9091 H   0  0  0  0  0  0
  -22.0605   -2.7587   23.2822 H   0  0  0  0  0  0
  -22.3997  -11.9897   22.4872 H   0  0  0  0  0  0
  -21.1018  -13.1259   22.2602 H   0  0  0  0  0  0
  -24.6464  -15.8345   20.5351 H   0  0  0  0  0  0
  -26.2511  -15.6271   20.0370 H   0  0  0  0  0  0
  -26.7246  -32.5413   23.1096 H   0  0  0  0  0  0
  -25.0331  -33.9778   25.0554 H   0  0  0  0  0  0
  -22.7200  -31.3100   21.4157 H   0  0  0  0  0  0
  -23.3784  -35.9537   23.3288 H   0  0  0  0  0  0
  -24.3573  -36.8839   22.2035 H   0  0  0  0  0  0
  -23.7222  -37.6415   23.6669 H   0  0  0  0  0  0
  -26.1039  -31.5229   20.5978 H   0  0  0  0  0  0
  -26.8536  -30.8215   21.9975 H   0  0  0  0  0  0
  -28.0984  -28.9132   21.1934 H   0  0  0  0  0  0
  -25.9705  -25.9730   18.8683 H   0  0  0  0  0  0
  -23.9293  -27.3317   18.9888 H   0  0  0  0  0  0
  -23.7389  -30.5929   19.4136 H   0  0  0  0  0  0
  -22.7404  -29.2451   19.8909 H   0  0  0  0  0  0
  -25.1340  -36.1859   25.0794 H   0  0  0  0  0  0
  -21.0018  -28.3227   24.1417 H   0  0  0  0  0  0
  -20.5772  -26.2277   23.3606 H   0  0  0  0  0  0
  -21.6660  -26.7484   22.1178 H   0  0  0  0  0  0
  -19.6914  -25.6282   21.1271 H   0  0  0  0  0  0
  -19.6717  -27.3171   20.6769 H   0  0  0  0  0  0
  -17.4255  -26.6713   21.3985 H   0  0  0  0  0  0
  -18.0274  -26.0068   22.9034 H   0  0  0  0  0  0
  -19.7954  -30.7324   24.2155 H   0  0  0  0  0  0
  -17.5023  -31.6259   24.5175 H   0  0  0  0  0  0
  -15.5353  -30.2971   23.7711 H   0  0  0  0  0  0
  -15.8663  -28.0812   22.7099 H   0  0  0  0  0  0
  -24.5913  -30.7161   25.7830 H   0  0  0  0  0  0
  -24.9037  -32.3000   26.4864 H   0  0  0  0  0  0
  -25.8090  -30.8994   27.0255 H   0  0  0  0  0  0
  -26.2975  -29.6772   24.1206 H   0  0  0  0  0  0
  -27.4021  -29.7248   25.4722 H   0  0  0  0  0  0
  -27.8859  -30.4278   23.9489 H   0  0  0  0  0  0
  -27.2634  -33.3664   26.2064 H   0  0  0  0  0  0
  -28.3917  -32.6908   25.0399 H   0  0  0  0  0  0
  -28.0710  -31.8528   26.5493 H   0  0  0  0  0  0
  -28.2605  -38.0082   24.7534 H   0  0  0  0  0  0
  -28.1081  -36.2623   24.6301 H   0  0  0  0  0  0
  -27.2293  -37.1395   25.8865 H   0  0  0  0  0  0
  -20.9324  -29.8700   21.6884 H   0  0  0  0  0  0
  -26.0138  -38.2801   24.1468 H   0  0  0  0  0  0
  -31.8712  -17.7088   20.3681 H   0  0  0  0  0  0
  -27.5651  -17.9909   20.6463 H   0  0  0  0  0  0
  -28.2628  -22.7699   17.9773 H   0  0  0  0  0  0
  -29.3355  -24.0802   18.4614 H   0  0  0  0  0  0
  -27.6860  -24.4205   17.9699 H   0  0  0  0  0  0
  -26.1107  -22.3337   19.4287 H   0  0  0  0  0  0
  -25.7198  -24.0292   19.5353 H   0  0  0  0  0  0
  -25.9374  -23.0670   20.9925 H   0  0  0  0  0  0
  -29.5905  -22.4429   20.7219 H   0  0  0  0  0  0
  -28.2226  -22.2111   21.7226 H   0  0  0  0  0  0
  -28.1191  -20.8154   19.0074 H   0  0  0  0  0  0
  -27.2202  -20.4929   20.4298 H   0  0  0  0  0  0
  -29.0899  -24.9086   21.2211 H   0  0  0  0  0  0
  -27.4372  -25.1209   21.5940 H   0  0  0  0  0  0
  -28.7062  -15.4422   20.9975 H   0  0  0  0  0  0
  1 25  1  0  0  0
  1 30  2  0  0  0
  1 83  1  0  0  0
  2  3  1  0  0  0
  2 25  1  0  0  0
  2 87  1  0  0  0
  2 88  1  0  0  0
  3  4  1  0  0  0
  3 89  1  0  0  0
  3 90  1  0  0  0
  4  5  1  0  0  0
  4 91  1  0  0  0
  4 92  1  0  0  0
  5  6  1  0  0  0
  5 26  1  0  0  0
  5 93  1  0  0  0
  6 25  1  0  0  0
  6 94  1  0  0  0
  6 95  1  0  0  0
  7  8  2  0  0  0
  7 26  1  0  0  0
  7 29  1  0  0  0
  8  9  1  0  0  0
  8 22  1  0  0  0
  9 10  1  0  0  0
  9 27  2  0  0  0
 10 11  2  0  0  0
 10 15  1  0  0  0
 11 12  1  0  0  0
 11 96  1  0  0  0
 12 13  2  0  0  0
 12 97  1  0  0  0
 13 14  1  0  0  0
 13 31  1  0  0  0
 14 15  2  0  0  0
 14 98  1  0  0  0
 15 99  1  0  0  0
 16 17  2  0  0  0
 16 21  1  0  0  0
 16 31  1  0  0  0
 17 18  1  0  0  0
 17100  1  0  0  0
 18 19  2  0  0  0
 18101  1  0  0  0
 19 20  1  0  0  0
 19 24  1  0  0  0
 20 21  2  0  0  0
 20102  1  0  0  0
 21 23  1  0  0  0
 22 28  1  0  0  0
 22 32  2  0  0  0
 26 27  1  0  0  0
 28103  1  0  0  0
 28104  1  0  0  0
 29105  1  0  0  0
 29106  1  0  0  0
 33 34  1  0  0  0
 33 66  1  0  0  0
 33 70  2  0  0  0
 34 36  1  0  0  0
 34 59  1  0  0  0
 34107  1  0  0  0
 35 44  2  0  0  0
 35 45  1  0  0  0
 35 68  1  0  0  0
 36 56  1  0  0  0
 36108  1  0  0  0
 37 39  1  0  0  0
 37 47  1  0  0  0
 37 66  1  0  0  0
 37109  1  0  0  0
 38 43  2  0  0  0
 38 46  1  0  0  0
 38 47  1  0  0  0
 39 64  1  0  0  0
 39 67  2  0  0  0
 40 52  1  0  0  0
 40 53  2  0  0  0
 40 58  1  0  0  0
 41110  1  0  0  0
 41111  1  0  0  0
 41112  1  0  0  0
 41 48  1  0  0  0
 42 43  1  0  0  0
 42 66  1  0  0  0
 42113  1  0  0  0
 42114  1  0  0  0
 43 44  1  0  0  0
 44115  1  0  0  0
 45 46  2  0  0  0
 45116  1  0  0  0
 46117  1  0  0  0
 47118  1  0  0  0
 47119  1  0  0  0
 48 56  1  0  0  0
 48 65  1  0  0  0
 48120  1  0  0  0
 49 50  1  0  0  0
 49 53  1  0  0  0
 49 64  1  0  0  0
 49121  1  0  0  0
 50 51  1  0  0  0
 50122  1  0  0  0
 50123  1  0  0  0
 51 52  1  0  0  0
 51124  1  0  0  0
 51125  1  0  0  0
 52126  1  0  0  0
 52127  1  0  0  0
 53 54  1  0  0  0
 54 55  2  0  0  0
 54128  1  0  0  0
 55 57  1  0  0  0
 55129  1  0  0  0
 56 69  2  0  0  0
 57 58  2  0  0  0
 57130  1  0  0  0
 58131  1  0  0  0
 59 60  1  0  0  0
 59 61  1  0  0  0
 59 62  1  0  0  0
 60132  1  0  0  0
 60133  1  0  0  0
 60134  1  0  0  0
 61135  1  0  0  0
 61136  1  0  0  0
 61137  1  0  0  0
 62138  1  0  0  0
 62139  1  0  0  0
 62140  1  0  0  0
 63 65  1  0  0  0
 63141  1  0  0  0
 63142  1  0  0  0
 63143  1  0  0  0
 64144  1  0  0  0
 65145  1  0  0  0
 68 79  1  0  0  0
 71 73  1  0  0  0
 71 74  2  0  0  0
 71146  1  0  0  0
 72 73  2  0  0  0
 72 82  1  0  0  0
 72147  1  0  0  0
 73 83  1  0  0  0
 74 80  1  0  0  0
 74 82  1  0  0  0
 75148  1  0  0  0
 75149  1  0  0  0
 75150  1  0  0  0
 75 81  1  0  0  0
 76 81  1  0  0  0
 76151  1  0  0  0
 76152  1  0  0  0
 76153  1  0  0  0
 77 78  1  0  0  0
 77 81  1  0  0  0
 77154  1  0  0  0
 77155  1  0  0  0
 78 82  1  0  0  0
 78156  1  0  0  0
 78157  1  0  0  0
 79 81  1  0  0  0
 79158  1  0  0  0
 79159  1  0  0  0
 80 84  1  0  0  0
 80 85  1  0  0  0
 80 86  1  0  0  0
 83160  1  0  0  0
M  ISO  4   1 100  68 101  79 101  83 100
M  END
> <chiral flag>
0

> <version>
0

> <s_m_source_file>
/data/baiqing/PycharmProjects/Reinvent-master-3.2/result/LINK_invent/BTK/process_docking_weight1_custom_product_contain_oxygen_bond_distance_aromatic_linkinvent_7_9_3/rearranged_h_0170.sdf

> <i_m_source_file_index>
54

> <r_mmod_Potential_Energy-OPLS-2005>
280.341064453125

> <r_mmod_Stretch_Energy-OPLS-2005>
132.742034912109

> <r_mmod_Bend_Energy-OPLS-2005>
197.384078979492

> <r_mmod_Torsional_Energy-OPLS-2005>
265.745849609375

> <r_mmod_Improper_Torsional_Energy-OPLS-2005>
5.59832906723022

> <r_mmod_Van_der_Waal_Energy-OPLS-2005>
114.081268310547

> <r_mmod_Electrostatic_Energy-OPLS-2005>
-324.680419921875

> <r_mmod_Solvation_Energy-OPLS-2005>
-199.650329589844

> <b_mmod_Minimization_Converged-OPLS-2005>
0

> <r_mmod_RMS_Derivative-OPLS-2005>
6.8692741394043

$$$$
54
                    3D
 Structure written by MMmdl.
152160  0  0  1  0            999 V2000
  -30.6336  -14.7746   20.5369 C   0  0  0  0  0  0
  -30.4372  -12.4960   19.4815 C   0  0  0  0  0  0
  -29.5233  -12.5429   18.2343 C   0  0  0  0  0  0
  -28.0508  -12.3451   18.6448 C   0  0  0  0  0  0
  -27.6441  -13.2402   19.8460 C   0  0  2  0  0  0
  -28.6841  -13.1869   20.9892 C   0  0  0  0  0  0
  -25.2528  -13.8217   20.5748 C   0  0  0  0  0  0
  -24.1811  -13.0442   20.9178 C   0  0  0  0  0  0
  -24.6398  -11.6915   20.8639 C   0  0  0  0  0  0
  -23.9054  -10.4308   21.0385 C   0  0  0  0  0  0
  -24.3597   -9.4232   21.9191 C   0  0  0  0  0  0
  -23.6276   -8.2256   22.0776 C   0  0  0  0  0  0
  -22.4246   -8.0299   21.3574 C   0  0  0  0  0  0
  -21.9891   -9.0274   20.4665 C   0  0  0  0  0  0
  -22.7216  -10.2143   20.3066 C   0  0  0  0  0  0
  -21.6882   -6.0748   22.5265 C   0  0  0  0  0  0
  -21.4028   -6.5619   23.8210 C   0  0  0  0  0  0
  -21.3684   -5.6748   24.9153 C   0  0  0  0  0  0
  -21.6016   -4.3012   24.7201 C   0  0  0  0  0  0
  -21.8818   -3.8139   23.4313 C   0  0  0  0  0  0
  -21.9200   -4.6976   22.3378 C   0  0  0  0  0  0
  -22.7832  -13.5239   21.1817 C   0  0  0  0  0  0
  -22.1665   -4.2174   21.0969 F   0  0  0  0  0  0
  -21.5652   -3.4485   25.7711 F   0  0  0  0  0  0
  -29.9837  -13.5604   20.4113 N   0  0  0  0  0  0
  -26.2928  -12.9446   20.3174 N   0  0  0  0  0  0
  -25.9309  -11.6559   20.5548 N   0  0  0  0  0  0
  -22.0408  -12.8282   22.0368 N   0  0  0  0  0  0
  -25.4176  -15.1971   20.4338 N   0  0  0  0  0  0
  -31.8307  -14.8536   20.2330 O   0  0  0  0  0  0
  -21.6613   -6.8890   21.4245 O   0  0  0  0  0  0
  -22.3503  -14.5545   20.6666 O   0  0  0  0  0  0
  -24.6303  -31.8546   23.1957 C   0  0  0  0  0  0
  -25.9115  -32.4743   23.8304 C   0  0  1  0  0  0
  -27.2333  -27.2603   20.1651 C   0  0  0  0  0  0
  -25.5919  -33.8549   24.2240 N   0  0  0  0  0  0
  -23.4273  -30.4747   21.5382 C   0  0  2  0  0  0
  -24.8840  -28.9176   20.1130 C   0  0  0  0  0  0
  -22.7471  -29.4613   22.4913 C   0  0  0  0  0  0
  -18.0272  -28.1412   22.8465 C   0  0  0  0  0  0
  -24.1510  -36.7310   23.2634 C   0  0  0  0  0  0
  -25.9705  -30.7766   21.3676 C   0  0  0  0  0  0
  -26.0542  -29.3931   20.7224 C   0  0  0  0  0  0
  -27.2316  -28.5788   20.7350 C   0  0  0  0  0  0
  -26.0467  -26.8497   19.5217 C   0  0  0  0  0  0
  -24.8868  -27.6540   19.4989 C   0  0  0  0  0  0
  -23.6477  -29.7981   20.1587 C   0  0  0  0  0  0
  -25.4127  -36.3069   24.0314 C   0  0  1  0  0  0
  -20.5877  -28.3714   23.1269 C   0  0  2  0  0  0
  -20.6789  -26.9434   22.5418 C   0  0  0  0  0  0
  -19.5768  -26.6400   21.5216 C   0  0  0  0  0  0
  -18.1926  -26.7945   22.1618 C   0  0  0  0  0  0
  -19.1521  -28.8874   23.2872 C   0  0  0  0  0  0
  -18.9451  -30.1478   23.8888 C   0  0  0  0  0  0
  -17.6453  -30.6606   24.0558 C   0  0  0  0  0  0
  -25.9051  -34.9438   23.5074 C   0  0  0  0  0  0
  -16.5340  -29.9107   23.6347 C   0  0  0  0  0  0
  -16.7261  -28.6546   23.0322 C   0  0  0  0  0  0
  -26.4509  -31.6556   25.0681 C   0  0  0  0  0  0
  -25.3719  -31.3698   26.1400 C   0  0  0  0  0  0
  -27.0324  -30.2960   24.6137 C   0  0  0  0  0  0
  -27.6080  -32.4250   25.7462 C   0  0  0  0  0  0
  -27.5580  -37.1808   24.8449 C   0  0  0  0  0  0
  -21.4178  -29.3063   22.3652 N   0  0  0  0  0  0
  -26.4303  -37.3761   23.9388 N   0  0  0  0  0  0
  -24.6962  -31.0503   22.0931 N   0  0  0  0  0  0
  -23.4168  -28.8133   23.2986 O   0  0  0  0  0  0
  -28.3265  -26.3658   20.1946 O   0  0  0  0  0  0
  -26.5627  -34.8923   22.4643 O   0  0  0  0  0  0
  -23.5447  -32.1366   23.7251 O   0  0  0  0  0  0
  -29.6321  -18.5591   20.6828 C   0  0  0  0  0  0
  -31.3706  -17.5122   22.0172 C   0  0  0  0  0  0
  -30.2939  -17.3287   21.1173 C   0  0  0  0  0  0
  -30.0195  -19.9062   21.1001 C   0  0  0  0  0  0
  -31.1171  -19.9706   22.0103 C   0  0  0  0  0  0
  -31.7625  -18.7942   22.4568 C   0  0  0  0  0  0
  -28.9210  -23.7267   20.2502 C   0  0  0  0  0  0
  -29.0556  -22.3531   21.1491 C   0  0  0  0  0  0
  -28.1063  -25.0006   20.8065 C   0  0  0  0  0  0
  -31.6196  -21.1876   22.4836 N   0  0  0  0  0  0
  -29.4745  -21.1798   20.5308 N   0  0  0  0  0  0
  -29.8837  -15.9325   20.7612 N   0  0  0  0  0  0
  -29.4534  -23.7881   19.1320 O   0  0  0  0  0  0
  -28.7708  -22.3705   22.3531 O   0  0  0  0  0  0
  -32.8042  -18.9053   23.3222 F   0  0  0  0  0  0
  -31.4819  -12.6245   19.1895 H   0  0  0  0  0  0
  -30.3776  -11.5204   19.9643 H   0  0  0  0  0  0
  -29.8235  -11.7869   17.5077 H   0  0  0  0  0  0
  -29.6426  -13.5059   17.7300 H   0  0  0  0  0  0
  -27.9055  -11.3003   18.9077 H   0  0  0  0  0  0
  -27.3960  -12.5388   17.7953 H   0  0  0  0  0  0
  -27.6370  -14.2614   19.4626 H   0  0  0  0  0  0
  -28.7248  -12.1863   21.4236 H   0  0  0  0  0  0
  -28.4024  -13.8656   21.7952 H   0  0  0  0  0  0
  -25.2773   -9.5703   22.4714 H   0  0  0  0  0  0
  -24.0020   -7.4625   22.7456 H   0  0  0  0  0  0
  -21.0853   -8.8782   19.8928 H   0  0  0  0  0  0
  -22.3725  -10.9665   19.6133 H   0  0  0  0  0  0
  -21.2028   -7.6121   23.9733 H   0  0  0  0  0  0
  -21.1507   -6.0453   25.9044 H   0  0  0  0  0  0
  -22.0592   -2.7608   23.2771 H   0  0  0  0  0  0
  -22.3977  -11.9996   22.4875 H   0  0  0  0  0  0
  -21.1040  -13.1387   22.2498 H   0  0  0  0  0  0
  -24.6486  -15.8405   20.5827 H   0  0  0  0  0  0
  -26.2661  -15.6498   20.1226 H   0  0  0  0  0  0
  -26.7176  -32.5444   23.1051 H   0  0  0  0  0  0
  -25.0012  -33.9691   25.0355 H   0  0  0  0  0  0
  -22.7228  -31.2962   21.3861 H   0  0  0  0  0  0
  -23.3737  -35.9675   23.3297 H   0  0  0  0  0  0
  -24.3599  -36.8933   22.2047 H   0  0  0  0  0  0
  -23.7327  -37.6533   23.6674 H   0  0  0  0  0  0
  -26.0782  -31.5251   20.5822 H   0  0  0  0  0  0
  -26.8574  -30.8522   21.9840 H   0  0  0  0  0  0
  -28.1285  -28.9397   21.2227 H   0  0  0  0  0  0
  -26.0087  -25.8775   19.0496 H   0  0  0  0  0  0
  -23.9925  -27.2800   19.0212 H   0  0  0  0  0  0
  -23.7654  -30.5677   19.3965 H   0  0  0  0  0  0
  -22.7694  -29.2209   19.8617 H   0  0  0  0  0  0
  -25.1312  -36.1895   25.0800 H   0  0  0  0  0  0
  -20.9978  -28.3335   24.1389 H   0  0  0  0  0  0
  -20.5723  -26.2306   23.3620 H   0  0  0  0  0  0
  -21.6660  -26.7510   22.1193 H   0  0  0  0  0  0
  -19.6935  -25.6303   21.1262 H   0  0  0  0  0  0
  -19.6713  -27.3214   20.6741 H   0  0  0  0  0  0
  -17.4202  -26.6654   21.4026 H   0  0  0  0  0  0
  -18.0339  -26.0129   22.9057 H   0  0  0  0  0  0
  -19.7922  -30.7290   24.2267 H   0  0  0  0  0  0
  -17.5007  -31.6293   24.5143 H   0  0  0  0  0  0
  -15.5332  -30.2988   23.7719 H   0  0  0  0  0  0
  -15.8661  -28.0893   22.6992 H   0  0  0  0  0  0
  -24.5861  -30.7109   25.7704 H   0  0  0  0  0  0
  -24.8965  -32.2868   26.4878 H   0  0  0  0  0  0
  -25.8021  -30.8801   27.0146 H   0  0  0  0  0  0
  -26.2883  -29.6689   24.1216 H   0  0  0  0  0  0
  -27.4047  -29.7245   25.4653 H   0  0  0  0  0  0
  -27.8754  -30.4198   23.9331 H   0  0  0  0  0  0
  -27.2718  -33.3543   26.2076 H   0  0  0  0  0  0
  -28.3906  -32.6790   25.0295 H   0  0  0  0  0  0
  -28.0743  -31.8322   26.5348 H   0  0  0  0  0  0
  -28.2590  -38.0113   24.7471 H   0  0  0  0  0  0
  -28.1077  -36.2623   24.6297 H   0  0  0  0  0  0
  -27.2275  -37.1504   25.8849 H   0  0  0  0  0  0
  -20.9335  -29.8743   21.6844 H   0  0  0  0  0  0
  -26.0160  -38.2830   24.1367 H   0  0  0  0  0  0
  -28.7981  -18.4718   19.9986 H   0  0  0  0  0  0
  -31.9092  -16.6676   22.4183 H   0  0  0  0  0  0
  -28.3344  -25.0973   21.8686 H   0  0  0  0  0  0
  -27.0490  -24.7446   20.7588 H   0  0  0  0  0  0
  -30.8975  -21.8345   22.7828 H   0  0  0  0  0  0
  -32.3252  -21.0745   23.2104 H   0  0  0  0  0  0
  -29.5638  -21.2712   19.5240 H   0  0  0  0  0  0
  -28.8863  -15.7851   20.7260 H   0  0  0  0  0  0
  1 25  1  0  0  0
  1 30  2  0  0  0
  1 82  1  0  0  0
  2  3  1  0  0  0
  2 25  1  0  0  0
  2 86  1  0  0  0
  2 87  1  0  0  0
  3  4  1  0  0  0
  3 88  1  0  0  0
  3 89  1  0  0  0
  4  5  1  0  0  0
  4 90  1  0  0  0
  4 91  1  0  0  0
  5  6  1  0  0  0
  5 26  1  0  0  0
  5 92  1  0  0  0
  6 25  1  0  0  0
  6 93  1  0  0  0
  6 94  1  0  0  0
  7  8  2  0  0  0
  7 26  1  0  0  0
  7 29  1  0  0  0
  8  9  1  0  0  0
  8 22  1  0  0  0
  9 10  1  0  0  0
  9 27  2  0  0  0
 10 11  2  0  0  0
 10 15  1  0  0  0
 11 12  1  0  0  0
 11 95  1  0  0  0
 12 13  2  0  0  0
 12 96  1  0  0  0
 13 14  1  0  0  0
 13 31  1  0  0  0
 14 15  2  0  0  0
 14 97  1  0  0  0
 15 98  1  0  0  0
 16 17  2  0  0  0
 16 21  1  0  0  0
 16 31  1  0  0  0
 17 18  1  0  0  0
 17 99  1  0  0  0
 18 19  2  0  0  0
 18100  1  0  0  0
 19 20  1  0  0  0
 19 24  1  0  0  0
 20 21  2  0  0  0
 20101  1  0  0  0
 21 23  1  0  0  0
 22 28  1  0  0  0
 22 32  2  0  0  0
 26 27  1  0  0  0
 28102  1  0  0  0
 28103  1  0  0  0
 29104  1  0  0  0
 29105  1  0  0  0
 33 34  1  0  0  0
 33 66  1  0  0  0
 33 70  2  0  0  0
 34 36  1  0  0  0
 34 59  1  0  0  0
 34106  1  0  0  0
 35 44  2  0  0  0
 35 45  1  0  0  0
 35 68  1  0  0  0
 36 56  1  0  0  0
 36107  1  0  0  0
 37 39  1  0  0  0
 37 47  1  0  0  0
 37 66  1  0  0  0
 37108  1  0  0  0
 38 43  2  0  0  0
 38 46  1  0  0  0
 38 47  1  0  0  0
 39 64  1  0  0  0
 39 67  2  0  0  0
 40 52  1  0  0  0
 40 53  2  0  0  0
 40 58  1  0  0  0
 41109  1  0  0  0
 41110  1  0  0  0
 41111  1  0  0  0
 41 48  1  0  0  0
 42 43  1  0  0  0
 42 66  1  0  0  0
 42112  1  0  0  0
 42113  1  0  0  0
 43 44  1  0  0  0
 44114  1  0  0  0
 45 46  2  0  0  0
 45115  1  0  0  0
 46116  1  0  0  0
 47117  1  0  0  0
 47118  1  0  0  0
 48 56  1  0  0  0
 48 65  1  0  0  0
 48119  1  0  0  0
 49 50  1  0  0  0
 49 53  1  0  0  0
 49 64  1  0  0  0
 49120  1  0  0  0
 50 51  1  0  0  0
 50121  1  0  0  0
 50122  1  0  0  0
 51 52  1  0  0  0
 51123  1  0  0  0
 51124  1  0  0  0
 52125  1  0  0  0
 52126  1  0  0  0
 53 54  1  0  0  0
 54 55  2  0  0  0
 54127  1  0  0  0
 55 57  1  0  0  0
 55128  1  0  0  0
 56 69  2  0  0  0
 57 58  2  0  0  0
 57129  1  0  0  0
 58130  1  0  0  0
 59 60  1  0  0  0
 59 61  1  0  0  0
 59 62  1  0  0  0
 60131  1  0  0  0
 60132  1  0  0  0
 60133  1  0  0  0
 61134  1  0  0  0
 61135  1  0  0  0
 61136  1  0  0  0
 62137  1  0  0  0
 62138  1  0  0  0
 62139  1  0  0  0
 63 65  1  0  0  0
 63140  1  0  0  0
 63141  1  0  0  0
 63142  1  0  0  0
 64143  1  0  0  0
 65144  1  0  0  0
 68 79  1  0  0  0
 71 73  2  0  0  0
 71 74  1  0  0  0
 71145  1  0  0  0
 72 73  1  0  0  0
 72 76  2  0  0  0
 72146  1  0  0  0
 73 82  1  0  0  0
 74 75  2  0  0  0
 74 81  1  0  0  0
 75 76  1  0  0  0
 75 80  1  0  0  0
 76 85  1  0  0  0
 77 78  1  0  0  0
 77 79  1  0  0  0
 77 83  2  0  0  0
 78 81  1  0  0  0
 78 84  2  0  0  0
 79147  1  0  0  0
 79148  1  0  0  0
 80149  1  0  0  0
 80150  1  0  0  0
 81151  1  0  0  0
 82152  1  0  0  0
M  ISO  4   1 100  68 101  79 101  82 100
M  END
> <chiral flag>
0

> <version>
0

> <s_m_source_file>
/data/baiqing/PycharmProjects/Reinvent-master-3.2/result/LINK_invent/BTK/process_docking_weight1_custom_product_contain_oxygen_bond_distance_aromatic_linkinvent_7_9_3/rearranged_h_0170.sdf

> <i_m_source_file_index>
55

> <r_mmod_Potential_Energy-OPLS-2005>
207.378814697266

> <r_mmod_Stretch_Energy-OPLS-2005>
144.844268798828

> <r_mmod_Bend_Energy-OPLS-2005>
158.527725219727

> <r_mmod_Torsional_Energy-OPLS-2005>
282.335266113281

> <r_mmod_Improper_Torsional_Energy-OPLS-2005>
11.7717847824097

> <r_mmod_Van_der_Waal_Energy-OPLS-2005>
137.861785888672

> <r_mmod_Electrostatic_Energy-OPLS-2005>
-375.614379882812

> <r_mmod_Solvation_Energy-OPLS-2005>
-245.864181518555

> <b_mmod_Minimization_Converged-OPLS-2005>
0

> <r_mmod_RMS_Derivative-OPLS-2005>
6.24396181106567

$$$$
55
                    3D
 Structure written by MMmdl.
158166  0  0  1  0            999 V2000
  -29.3749  -15.6909   20.7437 C   0  0  0  0  0  0
  -30.2732  -13.2712   19.6963 C   0  0  0  0  0  0
  -29.5256  -12.7683   18.4089 C   0  0  0  0  0  0
  -28.0990  -12.2953   18.7431 C   0  0  0  0  0  0
  -27.5012  -13.2200   19.8206 C   0  0  2  0  0  0
  -28.3799  -13.3684   21.0530 C   0  0  0  0  0  0
  -25.1922  -13.8070   20.5588 C   0  0  0  0  0  0
  -24.1365  -13.0331   20.9296 C   0  0  0  0  0  0
  -24.5956  -11.6795   20.8764 C   0  0  0  0  0  0
  -23.8777  -10.4198   21.0461 C   0  0  0  0  0  0
  -24.3475   -9.4135   21.9183 C   0  0  0  0  0  0
  -23.6228   -8.2131   22.0728 C   0  0  0  0  0  0
  -22.4215   -8.0156   21.3510 C   0  0  0  0  0  0
  -21.9775   -9.0096   20.4621 C   0  0  0  0  0  0
  -22.7005  -10.2017   20.3060 C   0  0  0  0  0  0
  -21.6810   -6.0660   22.5267 C   0  0  0  0  0  0
  -21.3965   -6.5582   23.8191 C   0  0  0  0  0  0
  -21.3674   -5.6755   24.9170 C   0  0  0  0  0  0
  -21.6066   -4.3019   24.7231 C   0  0  0  0  0  0
  -21.8824   -3.8091   23.4354 C   0  0  0  0  0  0
  -21.9180   -4.6896   22.3403 C   0  0  0  0  0  0
  -22.7502  -13.5205   21.1996 C   0  0  0  0  0  0
  -22.1656   -4.2084   21.0983 F   0  0  0  0  0  0
  -21.5677   -3.4519   25.7758 F   0  0  0  0  0  0
  -29.3881  -14.2364   20.5416 N   0  0  0  0  0  0
  -26.1915  -12.9061   20.2634 N   0  0  0  0  0  0
  -25.8719  -11.6280   20.5380 N   0  0  0  0  0  0
  -22.0214  -12.8182   22.0565 N   0  0  0  0  0  0
  -25.3850  -15.1833   20.4092 N   0  0  0  0  0  0
  -30.6021  -15.9546   20.5133 O   0  0  0  0  0  0
  -21.6588   -6.8768   21.4214 O   0  0  0  0  0  0
  -22.3295  -14.5557   20.6835 O   0  0  0  0  0  0
  -24.6533  -31.9462   23.2318 C   0  0  0  0  0  0
  -25.9484  -32.5102   23.8653 C   0  0  1  0  0  0
  -26.1018  -27.2333   20.3679 C   0  0  0  0  0  0
  -25.6347  -33.8852   24.2590 N   0  0  0  0  0  0
  -23.4444  -30.5996   21.6011 C   0  0  2  0  0  0
  -24.8283  -29.3660   19.7920 C   0  0  0  0  0  0
  -23.1123  -29.4776   22.6283 C   0  0  0  0  0  0
  -18.6818  -27.5659   22.4485 C   0  0  0  0  0  0
  -24.1518  -36.7361   23.2594 C   0  0  0  0  0  0
  -25.9771  -30.8448   21.4281 C   0  0  0  0  0  0
  -25.9040  -29.5449   20.6625 C   0  0  0  0  0  0
  -26.7315  -28.4260   20.8514 C   0  0  0  0  0  0
  -25.8376  -27.2731   19.0307 C   0  0  0  0  0  0
  -24.9125  -28.3117   18.8283 C   0  0  0  0  0  0
  -23.6022  -30.2023   20.0862 C   0  0  0  0  0  0
  -25.4131  -36.3223   24.0335 C   0  0  1  0  0  0
  -21.5688  -27.9457   23.6951 C   0  0  2  0  0  0
  -22.7550  -26.2389   22.7605 C   0  0  0  0  0  0
  -21.0575  -25.1436   20.8447 C   0  0  0  0  0  0
  -19.0460  -26.1380   21.1795 C   0  0  0  0  0  0
  -19.7353  -28.2948   23.4108 C   0  0  0  0  0  0
  -19.2575  -29.5563   23.9942 C   0  0  0  0  0  0
  -17.9437  -30.0996   23.9453 C   0  0  0  0  0  0
  -25.9143  -34.9618   23.5158 C   0  0  0  0  0  0
  -16.9569  -29.3557   23.2907 C   0  0  0  0  0  0
  -17.3305  -28.1611   22.5763 C   0  0  0  0  0  0
  -26.4619  -31.6702   25.0953 C   0  0  0  0  0  0
  -25.3737  -31.3829   26.1552 C   0  0  0  0  0  0
  -27.0417  -30.3100   24.6422 C   0  0  0  0  0  0
  -27.6194  -32.4325   25.7796 C   0  0  0  0  0  0
  -27.5610  -37.1875   24.8452 C   0  0  0  0  0  0
  -21.9036  -29.2626   23.0657 N   0  0  0  0  0  0
  -26.4297  -37.3909   23.9433 N   0  0  0  0  0  0
  -24.7054  -31.1997   22.1009 N   0  0  0  0  0  0
  -23.9869  -28.8326   23.1813 O   0  0  0  0  0  0
  -24.7830  -26.9506   20.9355 O   0  0  0  0  0  0
  -26.5546  -34.9014   22.4617 O   0  0  0  0  0  0
  -23.5741  -32.2130   23.7817 O   0  0  0  0  0  0
  -25.7833  -19.0369   21.5661 C   0  0  0  0  0  0
  -27.7138  -20.4768   22.4158 C   0  0  0  0  0  0
  -25.1965  -20.5390   22.0604 C   0  0  0  0  0  0
  -26.4223  -21.1347   22.4739 C   0  0  0  0  0  0
  -27.2764  -18.2636   21.4731 C   0  0  0  0  0  0
  -20.5977  -25.8544   22.9109 C   0  0  0  0  0  0
  -21.1958  -27.2289   21.5301 C   0  0  0  0  0  0
  -21.3441  -24.0966   23.1846 C   0  0  0  0  0  0
  -22.9277  -21.4502   20.8230 C   0  0  0  0  0  0
  -22.9738  -27.1802   20.5526 C   0  0  0  0  0  0
  -23.5138  -21.6146   22.2328 C   0  0  2  0  0  0
  -28.1107  -19.2208   21.9678 N   0  0  0  0  0  0
  -28.0642  -16.6675   21.0176 N   0  0  0  0  0  0
  -22.6812  -23.2826   22.6550 N   0  0  0  0  0  0
  -20.6280  -23.3506   23.8495 O   0  0  0  0  0  0
  -20.6335  -28.3148   20.9135 O   0  0  0  0  0  0
  -26.3760  -22.3960   22.9683 F   0  0  0  0  0  0
  -31.2005  -13.7670   19.4059 H   0  0  0  0  0  0
  -30.5999  -12.4143   20.2906 H   0  0  0  0  0  0
  -30.0905  -11.9786   17.9130 H   0  0  0  0  0  0
  -29.4585  -13.5925   17.6972 H   0  0  0  0  0  0
  -28.1474  -11.2728   19.1184 H   0  0  0  0  0  0
  -27.4726  -12.2735   17.8518 H   0  0  0  0  0  0
  -27.4039  -14.1781   19.3067 H   0  0  0  0  0  0
  -28.7387  -12.4143   21.4413 H   0  0  0  0  0  0
  -27.8641  -13.8701   21.8760 H   0  0  0  0  0  0
  -25.2635   -9.5656   22.4723 H   0  0  0  0  0  0
  -23.9961   -7.4519   22.7430 H   0  0  0  0  0  0
  -21.0701   -8.8550   19.8953 H   0  0  0  0  0  0
  -22.3402  -10.9543   19.6184 H   0  0  0  0  0  0
  -21.1896   -7.6082   23.9671 H   0  0  0  0  0  0
  -21.1532   -6.0493   25.9078 H   0  0  0  0  0  0
  -22.0608   -2.7550   23.2859 H   0  0  0  0  0  0
  -22.3870  -11.9822   22.4887 H   0  0  0  0  0  0
  -21.0852  -13.1175   22.2852 H   0  0  0  0  0  0
  -24.5256  -15.7190   20.4823 H   0  0  0  0  0  0
  -25.8852  -15.4468   19.5693 H   0  0  0  0  0  0
  -26.7570  -32.5624   23.1413 H   0  0  0  0  0  0
  -25.0593  -34.0024   25.0805 H   0  0  0  0  0  0
  -22.6359  -31.3319   21.6400 H   0  0  0  0  0  0
  -23.3820  -35.9648   23.3222 H   0  0  0  0  0  0
  -24.3635  -36.9007   22.2014 H   0  0  0  0  0  0
  -23.7219  -37.6537   23.6608 H   0  0  0  0  0  0
  -26.2263  -31.6457   20.7311 H   0  0  0  0  0  0
  -26.8275  -30.7491   22.0929 H   0  0  0  0  0  0
  -27.4726  -28.4158   21.6378 H   0  0  0  0  0  0
  -25.6913  -26.3757   18.4454 H   0  0  0  0  0  0
  -24.1886  -28.2306   18.0305 H   0  0  0  0  0  0
  -23.7447  -31.1227   19.5175 H   0  0  0  0  0  0
  -22.6721  -29.8134   19.6832 H   0  0  0  0  0  0
  -25.1277  -36.2094   25.0824 H   0  0  0  0  0  0
  -21.7998  -28.0123   24.7612 H   0  0  0  0  0  0
  -22.9781  -25.6923   23.6835 H   0  0  0  0  0  0
  -23.8135  -26.3541   22.6690 H   0  0  0  0  0  0
  -20.9555  -24.0612   20.7716 H   0  0  0  0  0  0
  -21.2947  -25.3434   19.8025 H   0  0  0  0  0  0
  -18.6872  -26.4912   20.2118 H   0  0  0  0  0  0
  -18.3377  -25.3478   21.4342 H   0  0  0  0  0  0
  -19.9727  -30.1244   24.5729 H   0  0  0  0  0  0
  -17.6998  -31.0166   24.4650 H   0  0  0  0  0  0
  -15.9334  -29.7046   23.2718 H   0  0  0  0  0  0
  -16.5499  -27.6892   21.9948 H   0  0  0  0  0  0
  -24.5954  -30.7188   25.7779 H   0  0  0  0  0  0
  -24.8895  -32.2991   26.4926 H   0  0  0  0  0  0
  -25.7959  -30.8997   27.0372 H   0  0  0  0  0  0
  -26.3026  -29.6941   24.1311 H   0  0  0  0  0  0
  -27.3917  -29.7260   25.4948 H   0  0  0  0  0  0
  -27.9007  -30.4344   23.9828 H   0  0  0  0  0  0
  -27.2847  -33.3634   26.2387 H   0  0  0  0  0  0
  -28.4051  -32.6861   25.0662 H   0  0  0  0  0  0
  -28.0795  -31.8401   26.5720 H   0  0  0  0  0  0
  -28.2582  -38.0227   24.7603 H   0  0  0  0  0  0
  -28.1172  -36.2768   24.6156 H   0  0  0  0  0  0
  -27.2339  -37.1373   25.8856 H   0  0  0  0  0  0
  -21.1366  -29.8094   22.7026 H   0  0  0  0  0  0
  -26.0185  -38.2971   24.1493 H   0  0  0  0  0  0
  -24.9824  -18.3968   21.2261 H   0  0  0  0  0  0
  -28.5474  -21.0369   22.8122 H   0  0  0  0  0  0
  -19.7367  -25.8788   23.5607 H   0  0  0  0  0  0
  -23.0299  -20.4336   20.4454 H   0  0  0  0  0  0
  -23.4441  -22.1072   20.1214 H   0  0  0  0  0  0
  -21.8688  -21.7094   20.7986 H   0  0  0  0  0  0
  -22.7537  -27.8008   19.7027 H   0  0  0  0  0  0
  -23.0124  -26.2553   19.9939 H   0  0  0  0  0  0
  -22.9622  -20.9567   22.9043 H   0  0  0  0  0  0
  -27.2905  -16.0240   20.8943 H   0  0  0  0  0  0
  -23.3079  -23.9949   22.2996 H   0  0  0  0  0  0
  -19.7666  -28.4185   21.2928 H   0  0  0  0  0  0
  1 25  1  0  0  0
  1 30  2  0  0  0
  1 83  1  0  0  0
  2  3  1  0  0  0
  2 25  1  0  0  0
  2 88  1  0  0  0
  2 89  1  0  0  0
  3  4  1  0  0  0
  3 90  1  0  0  0
  3 91  1  0  0  0
  4  5  1  0  0  0
  4 92  1  0  0  0
  4 93  1  0  0  0
  5  6  1  0  0  0
  5 26  1  0  0  0
  5 94  1  0  0  0
  6 25  1  0  0  0
  6 95  1  0  0  0
  6 96  1  0  0  0
  7  8  2  0  0  0
  7 26  1  0  0  0
  7 29  1  0  0  0
  8  9  1  0  0  0
  8 22  1  0  0  0
  9 10  1  0  0  0
  9 27  2  0  0  0
 10 11  2  0  0  0
 10 15  1  0  0  0
 11 12  1  0  0  0
 11 97  1  0  0  0
 12 13  2  0  0  0
 12 98  1  0  0  0
 13 14  1  0  0  0
 13 31  1  0  0  0
 14 15  2  0  0  0
 14 99  1  0  0  0
 15100  1  0  0  0
 16 17  2  0  0  0
 16 21  1  0  0  0
 16 31  1  0  0  0
 17 18  1  0  0  0
 17101  1  0  0  0
 18 19  2  0  0  0
 18102  1  0  0  0
 19 20  1  0  0  0
 19 24  1  0  0  0
 20 21  2  0  0  0
 20103  1  0  0  0
 21 23  1  0  0  0
 22 28  1  0  0  0
 22 32  2  0  0  0
 26 27  1  0  0  0
 28104  1  0  0  0
 28105  1  0  0  0
 29106  1  0  0  0
 29107  1  0  0  0
 33 34  1  0  0  0
 33 66  1  0  0  0
 33 70  2  0  0  0
 34 36  1  0  0  0
 34 59  1  0  0  0
 34108  1  0  0  0
 35 44  2  0  0  0
 35 45  1  0  0  0
 35 68  1  0  0  0
 36 56  1  0  0  0
 36109  1  0  0  0
 37 39  1  0  0  0
 37 47  1  0  0  0
 37 66  1  0  0  0
 37110  1  0  0  0
 38 43  2  0  0  0
 38 46  1  0  0  0
 38 47  1  0  0  0
 39 64  1  0  0  0
 39 67  2  0  0  0
 40 52  1  0  0  0
 40 53  2  0  0  0
 40 58  1  0  0  0
 41111  1  0  0  0
 41112  1  0  0  0
 41113  1  0  0  0
 41 48  1  0  0  0
 42 43  1  0  0  0
 42 66  1  0  0  0
 42114  1  0  0  0
 42115  1  0  0  0
 43 44  1  0  0  0
 44116  1  0  0  0
 45 46  2  0  0  0
 45117  1  0  0  0
 46118  1  0  0  0
 47119  1  0  0  0
 47120  1  0  0  0
 48 56  1  0  0  0
 48 65  1  0  0  0
 48121  1  0  0  0
 49 50  1  0  0  0
 49 53  1  0  0  0
 49 64  1  0  0  0
 49122  1  0  0  0
 50 51  1  0  0  0
 50123  1  0  0  0
 50124  1  0  0  0
 51 52  1  0  0  0
 51125  1  0  0  0
 51126  1  0  0  0
 52127  1  0  0  0
 52128  1  0  0  0
 53 54  1  0  0  0
 54 55  2  0  0  0
 54129  1  0  0  0
 55 57  1  0  0  0
 55130  1  0  0  0
 56 69  2  0  0  0
 57 58  2  0  0  0
 57131  1  0  0  0
 58132  1  0  0  0
 59 60  1  0  0  0
 59 61  1  0  0  0
 59 62  1  0  0  0
 60133  1  0  0  0
 60134  1  0  0  0
 60135  1  0  0  0
 61136  1  0  0  0
 61137  1  0  0  0
 61138  1  0  0  0
 62139  1  0  0  0
 62140  1  0  0  0
 62141  1  0  0  0
 63 65  1  0  0  0
 63142  1  0  0  0
 63143  1  0  0  0
 63144  1  0  0  0
 64145  1  0  0  0
 65146  1  0  0  0
 68 80  1  0  0  0
 71 73  2  0  0  0
 71 75  1  0  0  0
 71147  1  0  0  0
 72 74  2  0  0  0
 72 82  1  0  0  0
 72148  1  0  0  0
 73 74  1  0  0  0
 73 81  1  0  0  0
 74 87  1  0  0  0
 75 82  2  0  0  0
 75 83  1  0  0  0
 76 77  2  0  0  0
 76 78  1  0  0  0
 76149  1  0  0  0
 77 80  1  0  0  0
 77 86  1  0  0  0
 78 84  1  0  0  0
 78 85  2  0  0  0
 79150  1  0  0  0
 79151  1  0  0  0
 79152  1  0  0  0
 79 81  1  0  0  0
 80153  1  0  0  0
 80154  1  0  0  0
 81 84  1  0  0  0
 81155  1  0  0  0
 83156  1  0  0  0
 84157  1  0  0  0
 86158  1  0  0  0
M  ISO  4   1 100  68 101  80 101  83 100
M  END
> <chiral flag>
0

> <version>
0

> <s_m_source_file>
/data/baiqing/PycharmProjects/Reinvent-master-3.2/result/LINK_invent/BTK/process_docking_weight1_custom_product_contain_oxygen_bond_distance_aromatic_linkinvent_7_9_3/rearranged_h_0170.sdf

> <i_m_source_file_index>
56

> <r_mmod_Potential_Energy-OPLS-2005>
15729.599609375

> <r_mmod_Stretch_Energy-OPLS-2005>
7490.38623046875

> <r_mmod_Bend_Energy-OPLS-2005>
1364.7607421875

> <r_mmod_Torsional_Energy-OPLS-2005>
508.899749755859

> <r_mmod_Improper_Torsional_Energy-OPLS-2005>
48.2591590881348

> <r_mmod_Van_der_Waal_Energy-OPLS-2005>
2507.59228515625

> <r_mmod_Electrostatic_Energy-OPLS-2005>
-589.185607910156

> <r_mmod_Solvation_Energy-OPLS-2005>
-237.99919128418

> <b_mmod_Minimization_Converged-OPLS-2005>
0

> <r_mmod_RMS_Derivative-OPLS-2005>
7.95331764221191

$$$$
56
                    3D
 Structure written by MMmdl.
147155  0  0  1  0            999 V2000
  -30.6423  -14.7515   20.4487 C   0  0  0  0  0  0
  -30.4240  -12.4577   19.4833 C   0  0  0  0  0  0
  -29.5105  -12.5120   18.2401 C   0  0  0  0  0  0
  -28.0380  -12.3337   18.6533 C   0  0  0  0  0  0
  -27.6410  -13.2392   19.8501 C   0  0  2  0  0  0
  -28.6854  -13.1957   20.9883 C   0  0  0  0  0  0
  -25.2500  -13.8199   20.5676 C   0  0  0  0  0  0
  -24.1804  -13.0435   20.9211 C   0  0  0  0  0  0
  -24.6390  -11.6915   20.8739 C   0  0  0  0  0  0
  -23.9062  -10.4286   21.0397 C   0  0  0  0  0  0
  -24.3612   -9.4208   21.9181 C   0  0  0  0  0  0
  -23.6299   -8.2236   22.0745 C   0  0  0  0  0  0
  -22.4279   -8.0263   21.3538 C   0  0  0  0  0  0
  -21.9902   -9.0238   20.4637 C   0  0  0  0  0  0
  -22.7223  -10.2126   20.3046 C   0  0  0  0  0  0
  -21.6851   -6.0726   22.5279 C   0  0  0  0  0  0
  -21.4009   -6.5631   23.8214 C   0  0  0  0  0  0
  -21.3674   -5.6784   24.9180 C   0  0  0  0  0  0
  -21.6060   -4.3049   24.7216 C   0  0  0  0  0  0
  -21.8825   -3.8135   23.4337 C   0  0  0  0  0  0
  -21.9190   -4.6957   22.3393 C   0  0  0  0  0  0
  -22.7822  -13.5224   21.1874 C   0  0  0  0  0  0
  -22.1664   -4.2144   21.0968 F   0  0  0  0  0  0
  -21.5633   -3.4533   25.7733 F   0  0  0  0  0  0
  -29.9868  -13.5386   20.4010 N   0  0  0  0  0  0
  -26.2939  -12.9426   20.3274 N   0  0  0  0  0  0
  -25.9332  -11.6552   20.5746 N   0  0  0  0  0  0
  -22.0452  -12.8232   22.0419 N   0  0  0  0  0  0
  -25.4176  -15.1918   20.4103 N   0  0  0  0  0  0
  -31.8378  -14.7784   20.1430 O   0  0  0  0  0  0
  -21.6628   -6.8874   21.4240 O   0  0  0  0  0  0
  -22.3521  -14.5543   20.6736 O   0  0  0  0  0  0
  -24.6332  -31.8556   23.2006 C   0  0  0  0  0  0
  -25.9155  -32.4753   23.8348 C   0  0  1  0  0  0
  -27.2134  -27.2520   20.1370 C   0  0  0  0  0  0
  -25.5945  -33.8554   24.2270 N   0  0  0  0  0  0
  -23.4303  -30.4802   21.5435 C   0  0  2  0  0  0
  -24.8761  -28.9309   20.1112 C   0  0  0  0  0  0
  -22.7529  -29.4602   22.4913 C   0  0  0  0  0  0
  -18.0299  -28.1376   22.8493 C   0  0  0  0  0  0
  -24.1495  -36.7282   23.2638 C   0  0  0  0  0  0
  -25.9780  -30.7666   21.3821 C   0  0  0  0  0  0
  -26.0491  -29.3894   20.7236 C   0  0  0  0  0  0
  -27.2227  -28.5649   20.7232 C   0  0  0  0  0  0
  -26.0193  -26.8756   19.4800 C   0  0  0  0  0  0
  -24.8681  -27.6830   19.4749 C   0  0  0  0  0  0
  -23.6489  -29.8191   20.1589 C   0  0  0  0  0  0
  -25.4118  -36.3064   24.0326 C   0  0  1  0  0  0
  -20.5911  -28.3686   23.1269 C   0  0  2  0  0  0
  -20.6783  -26.9403   22.5402 C   0  0  0  0  0  0
  -19.5750  -26.6376   21.5214 C   0  0  0  0  0  0
  -18.1935  -26.7917   22.1635 C   0  0  0  0  0  0
  -19.1552  -28.8850   23.2871 C   0  0  0  0  0  0
  -18.9464  -30.1456   23.8885 C   0  0  0  0  0  0
  -17.6461  -30.6576   24.0553 C   0  0  0  0  0  0
  -25.9066  -34.9437   23.5095 C   0  0  0  0  0  0
  -16.5361  -29.9070   23.6327 C   0  0  0  0  0  0
  -16.7284  -28.6484   23.0359 C   0  0  0  0  0  0
  -26.4516  -31.6576   25.0737 C   0  0  0  0  0  0
  -25.3744  -31.3740   26.1470 C   0  0  0  0  0  0
  -27.0336  -30.2980   24.6224 C   0  0  0  0  0  0
  -27.6088  -32.4302   25.7501 C   0  0  0  0  0  0
  -27.5588  -37.1789   24.8460 C   0  0  0  0  0  0
  -21.4231  -29.3042   22.3665 N   0  0  0  0  0  0
  -26.4287  -37.3771   23.9420 N   0  0  0  0  0  0
  -24.6999  -31.0524   22.0983 N   0  0  0  0  0  0
  -23.4226  -28.8135   23.3001 O   0  0  0  0  0  0
  -28.2830  -26.3239   20.1991 O   0  0  0  0  0  0
  -26.5632  -34.8910   22.4668 O   0  0  0  0  0  0
  -23.5480  -32.1382   23.7302 O   0  0  0  0  0  0
  -31.5844  -17.7217   20.0799 C   0  0  0  0  0  0
  -30.3084  -17.3601   20.4492 C   0  0  0  0  0  0
  -30.1348  -19.7483   20.3565 C   0  0  0  0  0  0
  -29.0249  -23.7238   20.3487 C   0  0  0  0  0  0
  -28.6409  -22.1676   20.5149 C   0  0  0  0  0  0
  -27.9087  -24.8734   20.4147 C   0  0  0  0  0  0
  -29.4828  -18.5564   20.5927 N   0  0  0  0  0  0
  -29.9138  -15.9294   20.6318 N   0  0  0  0  0  0
  -29.7503  -21.1451   20.3735 N   0  0  0  0  0  0
  -30.2113  -24.0163   20.1575 O   0  0  0  0  0  0
  -31.8164  -19.4488   19.9322 S   0  0  0  0  0  0
  -31.4694  -12.5555   19.1842 H   0  0  0  0  0  0
  -30.3486  -11.4874   19.9771 H   0  0  0  0  0  0
  -29.7991  -11.7402   17.5245 H   0  0  0  0  0  0
  -29.6375  -13.4671   17.7288 H   0  0  0  0  0  0
  -27.8992  -11.2872   18.9244 H   0  0  0  0  0  0
  -27.3805  -12.5227   17.8042 H   0  0  0  0  0  0
  -27.6314  -14.2576   19.4612 H   0  0  0  0  0  0
  -28.7220  -12.2072   21.4507 H   0  0  0  0  0  0
  -28.4193  -13.8965   21.7826 H   0  0  0  0  0  0
  -25.2746   -9.5703   22.4769 H   0  0  0  0  0  0
  -24.0012   -7.4628   22.7459 H   0  0  0  0  0  0
  -21.0826   -8.8762   19.8942 H   0  0  0  0  0  0
  -22.3668  -10.9677   19.6166 H   0  0  0  0  0  0
  -21.2003   -7.6146   23.9723 H   0  0  0  0  0  0
  -21.1500   -6.0502   25.9090 H   0  0  0  0  0  0
  -22.0594   -2.7596   23.2822 H   0  0  0  0  0  0
  -22.4044  -11.9895   22.4821 H   0  0  0  0  0  0
  -21.1077  -13.1293   22.2641 H   0  0  0  0  0  0
  -24.6428  -15.8380   20.5157 H   0  0  0  0  0  0
  -26.2564  -15.6374   20.0611 H   0  0  0  0  0  0
  -26.7226  -32.5393   23.1092 H   0  0  0  0  0  0
  -25.0083  -33.9688   25.0406 H   0  0  0  0  0  0
  -22.7253  -31.3017   21.4007 H   0  0  0  0  0  0
  -23.3761  -35.9606   23.3264 H   0  0  0  0  0  0
  -24.3600  -36.8943   22.2058 H   0  0  0  0  0  0
  -23.7239  -37.6470   23.6684 H   0  0  0  0  0  0
  -26.1192  -31.5261   20.6124 H   0  0  0  0  0  0
  -26.8567  -30.8154   22.0136 H   0  0  0  0  0  0
  -28.1167  -28.9121   21.2212 H   0  0  0  0  0  0
  -25.9387  -25.9352   18.9589 H   0  0  0  0  0  0
  -23.9742  -27.3324   18.9764 H   0  0  0  0  0  0
  -23.7739  -30.5973   19.4049 H   0  0  0  0  0  0
  -22.7678  -29.2521   19.8530 H   0  0  0  0  0  0
  -25.1296  -36.1906   25.0817 H   0  0  0  0  0  0
  -20.9999  -28.3248   24.1390 H   0  0  0  0  0  0
  -20.5687  -26.2291   23.3602 H   0  0  0  0  0  0
  -21.6644  -26.7421   22.1188 H   0  0  0  0  0  0
  -19.6901  -25.6284   21.1242 H   0  0  0  0  0  0
  -19.6674  -27.3192   20.6742 H   0  0  0  0  0  0
  -17.4205  -26.6667   21.4043 H   0  0  0  0  0  0
  -18.0333  -26.0060   22.9029 H   0  0  0  0  0  0
  -19.7940  -30.7277   24.2245 H   0  0  0  0  0  0
  -17.5014  -31.6263   24.5148 H   0  0  0  0  0  0
  -15.5355  -30.2960   23.7653 H   0  0  0  0  0  0
  -15.8688  -28.0793   22.7073 H   0  0  0  0  0  0
  -24.5841  -30.7189   25.7789 H   0  0  0  0  0  0
  -24.9025  -32.2918   26.4987 H   0  0  0  0  0  0
  -25.8046  -30.8813   27.0196 H   0  0  0  0  0  0
  -26.2893  -29.6742   24.1253 H   0  0  0  0  0  0
  -27.4008  -29.7245   25.4746 H   0  0  0  0  0  0
  -27.8799  -30.4238   23.9466 H   0  0  0  0  0  0
  -27.2721  -33.3617   26.2066 H   0  0  0  0  0  0
  -28.3905  -32.6835   25.0325 H   0  0  0  0  0  0
  -28.0745  -31.8421   26.5420 H   0  0  0  0  0  0
  -28.2576  -38.0117   24.7545 H   0  0  0  0  0  0
  -28.1111  -36.2646   24.6228 H   0  0  0  0  0  0
  -27.2310  -37.1376   25.8863 H   0  0  0  0  0  0
  -20.9417  -29.8770   21.6875 H   0  0  0  0  0  0
  -26.0158  -38.2839   24.1429 H   0  0  0  0  0  0
  -32.4355  -17.0879   19.8757 H   0  0  0  0  0  0
  -27.8689  -21.9404   19.7794 H   0  0  0  0  0  0
  -28.1751  -22.0455   21.4935 H   0  0  0  0  0  0
  -27.4352  -24.8044   21.3951 H   0  0  0  0  0  0
  -27.1574  -24.5568   19.6964 H   0  0  0  0  0  0
  -28.9445  -15.7827   20.8627 H   0  0  0  0  0  0
  -30.5886  -21.6961   20.2012 H   0  0  0  0  0  0
  1 25  1  0  0  0
  1 30  2  0  0  0
  1 78  1  0  0  0
  2  3  1  0  0  0
  2 25  1  0  0  0
  2 82  1  0  0  0
  2 83  1  0  0  0
  3  4  1  0  0  0
  3 84  1  0  0  0
  3 85  1  0  0  0
  4  5  1  0  0  0
  4 86  1  0  0  0
  4 87  1  0  0  0
  5  6  1  0  0  0
  5 26  1  0  0  0
  5 88  1  0  0  0
  6 25  1  0  0  0
  6 89  1  0  0  0
  6 90  1  0  0  0
  7  8  2  0  0  0
  7 26  1  0  0  0
  7 29  1  0  0  0
  8  9  1  0  0  0
  8 22  1  0  0  0
  9 10  1  0  0  0
  9 27  2  0  0  0
 10 11  2  0  0  0
 10 15  1  0  0  0
 11 12  1  0  0  0
 11 91  1  0  0  0
 12 13  2  0  0  0
 12 92  1  0  0  0
 13 14  1  0  0  0
 13 31  1  0  0  0
 14 15  2  0  0  0
 14 93  1  0  0  0
 15 94  1  0  0  0
 16 17  2  0  0  0
 16 21  1  0  0  0
 16 31  1  0  0  0
 17 18  1  0  0  0
 17 95  1  0  0  0
 18 19  2  0  0  0
 18 96  1  0  0  0
 19 20  1  0  0  0
 19 24  1  0  0  0
 20 21  2  0  0  0
 20 97  1  0  0  0
 21 23  1  0  0  0
 22 28  1  0  0  0
 22 32  2  0  0  0
 26 27  1  0  0  0
 28 98  1  0  0  0
 28 99  1  0  0  0
 29100  1  0  0  0
 29101  1  0  0  0
 33 34  1  0  0  0
 33 66  1  0  0  0
 33 70  2  0  0  0
 34 36  1  0  0  0
 34 59  1  0  0  0
 34102  1  0  0  0
 35 44  2  0  0  0
 35 45  1  0  0  0
 35 68  1  0  0  0
 36 56  1  0  0  0
 36103  1  0  0  0
 37 39  1  0  0  0
 37 47  1  0  0  0
 37 66  1  0  0  0
 37104  1  0  0  0
 38 43  2  0  0  0
 38 46  1  0  0  0
 38 47  1  0  0  0
 39 64  1  0  0  0
 39 67  2  0  0  0
 40 52  1  0  0  0
 40 53  2  0  0  0
 40 58  1  0  0  0
 41105  1  0  0  0
 41106  1  0  0  0
 41107  1  0  0  0
 41 48  1  0  0  0
 42 43  1  0  0  0
 42 66  1  0  0  0
 42108  1  0  0  0
 42109  1  0  0  0
 43 44  1  0  0  0
 44110  1  0  0  0
 45 46  2  0  0  0
 45111  1  0  0  0
 46112  1  0  0  0
 47113  1  0  0  0
 47114  1  0  0  0
 48 56  1  0  0  0
 48 65  1  0  0  0
 48115  1  0  0  0
 49 50  1  0  0  0
 49 53  1  0  0  0
 49 64  1  0  0  0
 49116  1  0  0  0
 50 51  1  0  0  0
 50117  1  0  0  0
 50118  1  0  0  0
 51 52  1  0  0  0
 51119  1  0  0  0
 51120  1  0  0  0
 52121  1  0  0  0
 52122  1  0  0  0
 53 54  1  0  0  0
 54 55  2  0  0  0
 54123  1  0  0  0
 55 57  1  0  0  0
 55124  1  0  0  0
 56 69  2  0  0  0
 57 58  2  0  0  0
 57125  1  0  0  0
 58126  1  0  0  0
 59 60  1  0  0  0
 59 61  1  0  0  0
 59 62  1  0  0  0
 60127  1  0  0  0
 60128  1  0  0  0
 60129  1  0  0  0
 61130  1  0  0  0
 61131  1  0  0  0
 61132  1  0  0  0
 62133  1  0  0  0
 62134  1  0  0  0
 62135  1  0  0  0
 63 65  1  0  0  0
 63136  1  0  0  0
 63137  1  0  0  0
 63138  1  0  0  0
 64139  1  0  0  0
 65140  1  0  0  0
 68 76  1  0  0  0
 71 72  2  0  0  0
 71 81  1  0  0  0
 71141  1  0  0  0
 72 77  1  0  0  0
 72 78  1  0  0  0
 73 77  2  0  0  0
 73 79  1  0  0  0
 73 81  1  0  0  0
 74 75  1  0  0  0
 74 76  1  0  0  0
 74 80  2  0  0  0
 75 79  1  0  0  0
 75142  1  0  0  0
 75143  1  0  0  0
 76144  1  0  0  0
 76145  1  0  0  0
 78146  1  0  0  0
 79147  1  0  0  0
M  ISO  4   1 100  68 101  76 101  78 100
M  END
> <chiral flag>
0

> <version>
0

> <s_m_source_file>
/data/baiqing/PycharmProjects/Reinvent-master-3.2/result/LINK_invent/BTK/process_docking_weight1_custom_product_contain_oxygen_bond_distance_aromatic_linkinvent_7_9_3/rearranged_h_0170.sdf

> <i_m_source_file_index>
57

> <r_mmod_Potential_Energy-OPLS-2005>
101.447273254395

> <r_mmod_Stretch_Energy-OPLS-2005>
125.18879699707

> <r_mmod_Bend_Energy-OPLS-2005>
182.884628295898

> <r_mmod_Torsional_Energy-OPLS-2005>
207.250717163086

> <r_mmod_Improper_Torsional_Energy-OPLS-2005>
4.58963251113892

> <r_mmod_Van_der_Waal_Energy-OPLS-2005>
126.286865234375

> <r_mmod_Electrostatic_Energy-OPLS-2005>
-396.981628417969

> <r_mmod_Solvation_Energy-OPLS-2005>
-240.473770141602

> <b_mmod_Minimization_Converged-OPLS-2005>
0

> <r_mmod_RMS_Derivative-OPLS-2005>
2.3463032245636

$$$$
57
                    3D
 Structure written by MMmdl.
159167  0  0  1  0            999 V2000
  -30.5942  -14.7335   20.4362 C   0  0  0  0  0  0
  -30.4471  -12.4512   19.4282 C   0  0  0  0  0  0
  -29.5052  -12.4957   18.2051 C   0  0  0  0  0  0
  -28.0360  -12.3112   18.6401 C   0  0  0  0  0  0
  -27.6427  -13.2191   19.8363 C   0  0  2  0  0  0
  -28.6990  -13.1532   20.9612 C   0  0  0  0  0  0
  -25.2530  -13.8170   20.5671 C   0  0  0  0  0  0
  -24.1822  -13.0431   20.9214 C   0  0  0  0  0  0
  -24.6414  -11.6911   20.8776 C   0  0  0  0  0  0
  -23.9085  -10.4291   21.0424 C   0  0  0  0  0  0
  -24.3634   -9.4189   21.9203 C   0  0  0  0  0  0
  -23.6303   -8.2225   22.0772 C   0  0  0  0  0  0
  -22.4280   -8.0291   21.3558 C   0  0  0  0  0  0
  -21.9922   -9.0269   20.4652 C   0  0  0  0  0  0
  -22.7265  -10.2136   20.3062 C   0  0  0  0  0  0
  -21.6834   -6.0728   22.5282 C   0  0  0  0  0  0
  -21.4007   -6.5627   23.8220 C   0  0  0  0  0  0
  -21.3659   -5.6779   24.9179 C   0  0  0  0  0  0
  -21.6036   -4.3044   24.7221 C   0  0  0  0  0  0
  -21.8831   -3.8144   23.4341 C   0  0  0  0  0  0
  -21.9194   -4.6961   22.3398 C   0  0  0  0  0  0
  -22.7842  -13.5230   21.1852 C   0  0  0  0  0  0
  -22.1661   -4.2152   21.0976 F   0  0  0  0  0  0
  -21.5633   -3.4531   25.7729 F   0  0  0  0  0  0
  -29.9913  -13.5039   20.3575 N   0  0  0  0  0  0
  -26.2954  -12.9357   20.3253 N   0  0  0  0  0  0
  -25.9329  -11.6515   20.5753 N   0  0  0  0  0  0
  -22.0449  -12.8254   22.0402 N   0  0  0  0  0  0
  -25.4200  -15.1910   20.4018 N   0  0  0  0  0  0
  -31.8073  -14.8500   20.2376 O   0  0  0  0  0  0
  -21.6633   -6.8889   21.4254 O   0  0  0  0  0  0
  -22.3534  -14.5522   20.6660 O   0  0  0  0  0  0
  -24.6308  -31.8576   23.1985 C   0  0  0  0  0  0
  -25.9160  -32.4755   23.8308 C   0  0  1  0  0  0
  -27.1981  -27.2469   20.1045 C   0  0  0  0  0  0
  -25.5960  -33.8552   24.2225 N   0  0  0  0  0  0
  -23.4224  -30.4851   21.5443 C   0  0  2  0  0  0
  -24.8647  -28.9370   20.1047 C   0  0  0  0  0  0
  -22.7447  -29.4638   22.4884 C   0  0  0  0  0  0
  -18.0288  -28.1370   22.8512 C   0  0  0  0  0  0
  -24.1496  -36.7285   23.2633 C   0  0  0  0  0  0
  -25.9733  -30.7608   21.3837 C   0  0  0  0  0  0
  -26.0410  -29.3855   20.7207 C   0  0  0  0  0  0
  -27.2081  -28.5502   20.7159 C   0  0  0  0  0  0
  -26.0036  -26.8929   19.4348 C   0  0  0  0  0  0
  -24.8530  -27.7010   19.4498 C   0  0  0  0  0  0
  -23.6384  -29.8259   20.1595 C   0  0  0  0  0  0
  -25.4140  -36.3064   24.0297 C   0  0  1  0  0  0
  -20.5886  -28.3725   23.1271 C   0  0  2  0  0  0
  -20.6792  -26.9451   22.5452 C   0  0  0  0  0  0
  -19.5783  -26.6416   21.5210 C   0  0  0  0  0  0
  -18.1969  -26.7896   22.1674 C   0  0  0  0  0  0
  -19.1536  -28.8850   23.2890 C   0  0  0  0  0  0
  -18.9476  -30.1450   23.8889 C   0  0  0  0  0  0
  -17.6487  -30.6585   24.0546 C   0  0  0  0  0  0
  -25.9071  -34.9434   23.5061 C   0  0  0  0  0  0
  -16.5382  -29.9067   23.6333 C   0  0  0  0  0  0
  -16.7271  -28.6469   23.0387 C   0  0  0  0  0  0
  -26.4521  -31.6564   25.0689 C   0  0  0  0  0  0
  -25.3705  -31.3737   26.1368 C   0  0  0  0  0  0
  -27.0399  -30.2977   24.6214 C   0  0  0  0  0  0
  -27.6054  -32.4327   25.7459 C   0  0  0  0  0  0
  -27.5570  -37.1822   24.8460 C   0  0  0  0  0  0
  -21.4157  -29.3048   22.3603 N   0  0  0  0  0  0
  -26.4304  -37.3779   23.9378 N   0  0  0  0  0  0
  -24.6943  -31.0545   22.0970 N   0  0  0  0  0  0
  -23.4161  -28.8164   23.2968 O   0  0  0  0  0  0
  -28.2635  -26.3058   20.1675 O   0  0  0  0  0  0
  -26.5673  -34.8934   22.4640 O   0  0  0  0  0  0
  -23.5462  -32.1362   23.7307 O   0  0  0  0  0  0
  -30.0651  -19.8543   22.0152 C   0  0  0  0  0  0
  -30.3044  -17.4147   22.2038 C   0  0  0  0  0  0
  -29.7278  -19.7694   20.6474 C   0  0  0  0  0  0
  -29.9498  -17.2258   20.8535 C   0  0  0  0  0  0
  -30.3564  -18.7025   22.7721 C   0  0  0  0  0  0
  -29.6544  -18.4252   20.0864 C   0  0  0  0  0  0
  -29.5940  -21.0956   19.8964 C   0  0  0  0  0  0
  -25.9851  -23.3440   20.8952 C   0  0  0  0  0  0
  -27.0401  -24.4072   21.2761 C   0  0  0  0  0  0
  -29.2237  -23.7645   20.0192 C   0  0  0  0  0  0
  -27.9822  -24.8083   20.1052 C   0  0  2  0  0  0
  -30.1260  -21.1702   18.6797 N   0  0  0  0  0  0
  -29.7640  -15.8371   20.3879 N   0  0  0  0  0  0
  -29.0513  -22.2698   20.4043 N   0  3  0  0  0  0
  -30.6888  -18.8305   24.0782 F   0  0  0  0  0  0
  -29.3152  -18.2760   18.7824 F   0  0  0  0  0  0
  -31.4778  -12.6126   19.1039 H   0  0  0  0  0  0
  -30.4287  -11.4695   19.9038 H   0  0  0  0  0  0
  -29.7761  -11.7262   17.4817 H   0  0  0  0  0  0
  -29.6237  -13.4497   17.6899 H   0  0  0  0  0  0
  -27.9075  -11.2641   18.9221 H   0  0  0  0  0  0
  -27.3676  -12.4887   17.7956 H   0  0  0  0  0  0
  -27.6316  -14.2369   19.4473 H   0  0  0  0  0  0
  -28.7430  -12.1585   21.4075 H   0  0  0  0  0  0
  -28.4480  -13.8488   21.7639 H   0  0  0  0  0  0
  -25.2780   -9.5641   22.4777 H   0  0  0  0  0  0
  -23.9993   -7.4599   22.7478 H   0  0  0  0  0  0
  -21.0849   -8.8788   19.8946 H   0  0  0  0  0  0
  -22.3750  -10.9671   19.6158 H   0  0  0  0  0  0
  -21.1999   -7.6139   23.9723 H   0  0  0  0  0  0
  -21.1467   -6.0503   25.9077 H   0  0  0  0  0  0
  -22.0617   -2.7609   23.2834 H   0  0  0  0  0  0
  -22.4044  -11.9918   22.4817 H   0  0  0  0  0  0
  -21.1059  -13.1286   22.2548 H   0  0  0  0  0  0
  -24.6370  -15.8319   20.4735 H   0  0  0  0  0  0
  -26.2461  -15.6254   20.0164 H   0  0  0  0  0  0
  -26.7196  -32.5412   23.1013 H   0  0  0  0  0  0
  -25.0153  -33.9674   25.0407 H   0  0  0  0  0  0
  -22.7124  -31.3049   21.4057 H   0  0  0  0  0  0
  -23.3743  -35.9623   23.3307 H   0  0  0  0  0  0
  -24.3565  -36.8916   22.2040 H   0  0  0  0  0  0
  -23.7266  -37.6491   23.6673 H   0  0  0  0  0  0
  -26.1258  -31.5184   20.6127 H   0  0  0  0  0  0
  -26.8459  -30.8040   22.0235 H   0  0  0  0  0  0
  -28.1005  -28.8834   21.2262 H   0  0  0  0  0  0
  -25.9226  -25.9662   18.8945 H   0  0  0  0  0  0
  -23.9580  -27.3695   18.9400 H   0  0  0  0  0  0
  -23.7541  -30.6063   19.4065 H   0  0  0  0  0  0
  -22.7557  -29.2573   19.8611 H   0  0  0  0  0  0
  -25.1326  -36.1894   25.0790 H   0  0  0  0  0  0
  -21.0010  -28.3375   24.1371 H   0  0  0  0  0  0
  -20.5628  -26.2407   23.3701 H   0  0  0  0  0  0
  -21.6696  -26.7460   22.1352 H   0  0  0  0  0  0
  -19.6931  -25.6347   21.1190 H   0  0  0  0  0  0
  -19.6670  -27.3252   20.6759 H   0  0  0  0  0  0
  -17.4222  -26.6525   21.4095 H   0  0  0  0  0  0
  -18.0477  -26.0040   22.9114 H   0  0  0  0  0  0
  -19.7965  -30.7288   24.2202 H   0  0  0  0  0  0
  -17.5072  -31.6259   24.5159 H   0  0  0  0  0  0
  -15.5403  -30.3000   23.7604 H   0  0  0  0  0  0
  -15.8684  -28.0754   22.7136 H   0  0  0  0  0  0
  -24.5862  -30.7139   25.7618 H   0  0  0  0  0  0
  -24.8941  -32.2951   26.4735 H   0  0  0  0  0  0
  -25.7949  -30.8882   27.0167 H   0  0  0  0  0  0
  -26.3015  -29.6681   24.1247 H   0  0  0  0  0  0
  -27.4071  -29.7257   25.4739 H   0  0  0  0  0  0
  -27.8876  -30.4196   23.9471 H   0  0  0  0  0  0
  -27.2620  -33.3614   26.2022 H   0  0  0  0  0  0
  -28.3864  -32.6937   25.0298 H   0  0  0  0  0  0
  -28.0747  -31.8504   26.5393 H   0  0  0  0  0  0
  -28.2622  -38.0090   24.7513 H   0  0  0  0  0  0
  -28.1042  -36.2638   24.6297 H   0  0  0  0  0  0
  -27.2292  -37.1469   25.8864 H   0  0  0  0  0  0
  -20.9290  -29.8729   21.6791 H   0  0  0  0  0  0
  -26.0160  -38.2848   24.1360 H   0  0  0  0  0  0
  -30.1395  -20.8204   22.4937 H   0  0  0  0  0  0
  -30.5014  -16.5688   22.8410 H   0  0  0  0  0  0
  -26.4304  -22.4037   20.5739 H   0  0  0  0  0  0
  -25.3597  -23.6944   20.0739 H   0  0  0  0  0  0
  -25.3211  -23.1154   21.7315 H   0  0  0  0  0  0
  -27.6271  -24.0759   22.1315 H   0  0  0  0  0  0
  -26.4945  -25.2768   21.6369 H   0  0  0  0  0  0
  -30.0187  -24.1470   20.6605 H   0  0  0  0  0  0
  -29.6198  -23.8239   19.0059 H   0  0  0  0  0  0
  -27.4572  -24.6409   19.1662 H   0  0  0  0  0  0
  -30.5590  -20.3429   18.2935 H   0  0  0  0  0  0
  -29.9937  -21.9639   18.0757 H   0  0  0  0  0  0
  -28.8092  -15.6133   20.1549 H   0  0  0  0  0  0
  -28.5759  -22.1369   21.2873 H   0  0  0  0  0  0
  1 25  1  0  0  0
  1 30  2  0  0  0
  1 83  1  0  0  0
  2  3  1  0  0  0
  2 25  1  0  0  0
  2 87  1  0  0  0
  2 88  1  0  0  0
  3  4  1  0  0  0
  3 89  1  0  0  0
  3 90  1  0  0  0
  4  5  1  0  0  0
  4 91  1  0  0  0
  4 92  1  0  0  0
  5  6  1  0  0  0
  5 26  1  0  0  0
  5 93  1  0  0  0
  6 25  1  0  0  0
  6 94  1  0  0  0
  6 95  1  0  0  0
  7  8  2  0  0  0
  7 26  1  0  0  0
  7 29  1  0  0  0
  8  9  1  0  0  0
  8 22  1  0  0  0
  9 10  1  0  0  0
  9 27  2  0  0  0
 10 11  2  0  0  0
 10 15  1  0  0  0
 11 12  1  0  0  0
 11 96  1  0  0  0
 12 13  2  0  0  0
 12 97  1  0  0  0
 13 14  1  0  0  0
 13 31  1  0  0  0
 14 15  2  0  0  0
 14 98  1  0  0  0
 15 99  1  0  0  0
 16 17  2  0  0  0
 16 21  1  0  0  0
 16 31  1  0  0  0
 17 18  1  0  0  0
 17100  1  0  0  0
 18 19  2  0  0  0
 18101  1  0  0  0
 19 20  1  0  0  0
 19 24  1  0  0  0
 20 21  2  0  0  0
 20102  1  0  0  0
 21 23  1  0  0  0
 22 28  1  0  0  0
 22 32  2  0  0  0
 26 27  1  0  0  0
 28103  1  0  0  0
 28104  1  0  0  0
 29105  1  0  0  0
 29106  1  0  0  0
 33 34  1  0  0  0
 33 66  1  0  0  0
 33 70  2  0  0  0
 34 36  1  0  0  0
 34 59  1  0  0  0
 34107  1  0  0  0
 35 44  2  0  0  0
 35 45  1  0  0  0
 35 68  1  0  0  0
 36 56  1  0  0  0
 36108  1  0  0  0
 37 39  1  0  0  0
 37 47  1  0  0  0
 37 66  1  0  0  0
 37109  1  0  0  0
 38 43  2  0  0  0
 38 46  1  0  0  0
 38 47  1  0  0  0
 39 64  1  0  0  0
 39 67  2  0  0  0
 40 52  1  0  0  0
 40 53  2  0  0  0
 40 58  1  0  0  0
 41110  1  0  0  0
 41111  1  0  0  0
 41112  1  0  0  0
 41 48  1  0  0  0
 42 43  1  0  0  0
 42 66  1  0  0  0
 42113  1  0  0  0
 42114  1  0  0  0
 43 44  1  0  0  0
 44115  1  0  0  0
 45 46  2  0  0  0
 45116  1  0  0  0
 46117  1  0  0  0
 47118  1  0  0  0
 47119  1  0  0  0
 48 56  1  0  0  0
 48 65  1  0  0  0
 48120  1  0  0  0
 49 50  1  0  0  0
 49 53  1  0  0  0
 49 64  1  0  0  0
 49121  1  0  0  0
 50 51  1  0  0  0
 50122  1  0  0  0
 50123  1  0  0  0
 51 52  1  0  0  0
 51124  1  0  0  0
 51125  1  0  0  0
 52126  1  0  0  0
 52127  1  0  0  0
 53 54  1  0  0  0
 54 55  2  0  0  0
 54128  1  0  0  0
 55 57  1  0  0  0
 55129  1  0  0  0
 56 69  2  0  0  0
 57 58  2  0  0  0
 57130  1  0  0  0
 58131  1  0  0  0
 59 60  1  0  0  0
 59 61  1  0  0  0
 59 62  1  0  0  0
 60132  1  0  0  0
 60133  1  0  0  0
 60134  1  0  0  0
 61135  1  0  0  0
 61136  1  0  0  0
 61137  1  0  0  0
 62138  1  0  0  0
 62139  1  0  0  0
 62140  1  0  0  0
 63 65  1  0  0  0
 63141  1  0  0  0
 63142  1  0  0  0
 63143  1  0  0  0
 64144  1  0  0  0
 65145  1  0  0  0
 68 81  1  0  0  0
 71 73  2  0  0  0
 71 75  1  0  0  0
 71146  1  0  0  0
 72 74  1  0  0  0
 72 75  2  0  0  0
 72147  1  0  0  0
 73 76  1  0  0  0
 73 77  1  0  0  0
 74 76  2  0  0  0
 74 83  1  0  0  0
 75 85  1  0  0  0
 76 86  1  0  0  0
 77 82  1  0  0  0
 77 84  2  0  0  0
 78 79  1  0  0  0
 78148  1  0  0  0
 78149  1  0  0  0
 78150  1  0  0  0
 79151  1  0  0  0
 79152  1  0  0  0
 79 81  1  0  0  0
 80 81  1  0  0  0
 80 84  1  0  0  0
 80153  1  0  0  0
 80154  1  0  0  0
 81155  1  0  0  0
 82156  1  0  0  0
 82157  1  0  0  0
 83158  1  0  0  0
 84159  1  0  0  0
M  CHG  1  84   1
M  ISO  4   1 100  68 101  81 101  83 100
M  END
> <chiral flag>
0

> <version>
0

> <s_m_source_file>
/data/baiqing/PycharmProjects/Reinvent-master-3.2/result/LINK_invent/BTK/process_docking_weight1_custom_product_contain_oxygen_bond_distance_aromatic_linkinvent_7_9_3/rearranged_h_0170.sdf

> <i_m_source_file_index>
58

> <r_mmod_Potential_Energy-OPLS-2005>
-77.8887710571289

> <r_mmod_Stretch_Energy-OPLS-2005>
123.612312316895

> <r_mmod_Bend_Energy-OPLS-2005>
157.940994262695

> <r_mmod_Torsional_Energy-OPLS-2005>
273.776885986328

> <r_mmod_Improper_Torsional_Energy-OPLS-2005>
11.7403106689453

> <r_mmod_Van_der_Waal_Energy-OPLS-2005>
141.042297363281

> <r_mmod_Electrostatic_Energy-OPLS-2005>
-456.718780517578

> <r_mmod_Solvation_Energy-OPLS-2005>
-425.242736816406

> <b_mmod_Minimization_Converged-OPLS-2005>
0

> <r_mmod_RMS_Derivative-OPLS-2005>
4.70298194885254

$$$$
58
                    3D
 Structure written by MMmdl.
156164  0  0  1  0            999 V2000
  -30.6513  -14.5894   20.4972 C   0  0  0  0  0  0
  -30.4300  -12.3573   19.4618 C   0  0  0  0  0  0
  -29.5078  -12.4950   18.2312 C   0  0  0  0  0  0
  -28.0319  -12.3344   18.6436 C   0  0  0  0  0  0
  -27.6556  -13.2128   19.8666 C   0  0  2  0  0  0
  -28.6940  -13.0700   21.0024 C   0  0  0  0  0  0
  -25.2569  -13.8162   20.5685 C   0  0  0  0  0  0
  -24.1832  -13.0445   20.9184 C   0  0  0  0  0  0
  -24.6392  -11.6910   20.8737 C   0  0  0  0  0  0
  -23.9062  -10.4297   21.0403 C   0  0  0  0  0  0
  -24.3611   -9.4214   21.9188 C   0  0  0  0  0  0
  -23.6288   -8.2248   22.0759 C   0  0  0  0  0  0
  -22.4277   -8.0280   21.3545 C   0  0  0  0  0  0
  -21.9908   -9.0250   20.4649 C   0  0  0  0  0  0
  -22.7233  -10.2130   20.3053 C   0  0  0  0  0  0
  -21.6856   -6.0732   22.5285 C   0  0  0  0  0  0
  -21.4016   -6.5637   23.8216 C   0  0  0  0  0  0
  -21.3655   -5.6791   24.9177 C   0  0  0  0  0  0
  -21.6041   -4.3053   24.7230 C   0  0  0  0  0  0
  -21.8820   -3.8144   23.4352 C   0  0  0  0  0  0
  -21.9195   -4.6959   22.3408 C   0  0  0  0  0  0
  -22.7857  -13.5240   21.1851 C   0  0  0  0  0  0
  -22.1664   -4.2144   21.0984 F   0  0  0  0  0  0
  -21.5623   -3.4537   25.7741 F   0  0  0  0  0  0
  -30.0172  -13.3804   20.4437 N   0  0  0  0  0  0
  -26.2999  -12.9344   20.3330 N   0  0  0  0  0  0
  -25.9320  -11.6504   20.5768 N   0  0  0  0  0  0
  -22.0487  -12.8223   22.0382 N   0  0  0  0  0  0
  -25.4301  -15.1886   20.4110 N   0  0  0  0  0  0
  -31.8210  -14.7147   20.1211 O   0  0  0  0  0  0
  -21.6643   -6.8875   21.4245 O   0  0  0  0  0  0
  -22.3549  -14.5556   20.6713 O   0  0  0  0  0  0
  -24.6213  -31.8615   23.2036 C   0  0  0  0  0  0
  -25.9078  -32.4797   23.8364 C   0  0  1  0  0  0
  -27.2262  -27.3579   20.1121 C   0  0  0  0  0  0
  -25.5914  -33.8594   24.2314 N   0  0  0  0  0  0
  -23.4145  -30.4855   21.5431 C   0  0  2  0  0  0
  -24.8636  -28.9491   20.1047 C   0  0  0  0  0  0
  -22.7448  -29.4628   22.4917 C   0  0  0  0  0  0
  -18.0280  -28.1384   22.8481 C   0  0  0  0  0  0
  -24.1476  -36.7289   23.2644 C   0  0  0  0  0  0
  -25.9489  -30.8097   21.3650 C   0  0  0  0  0  0
  -26.0276  -29.4372   20.7114 C   0  0  0  0  0  0
  -27.2111  -28.6477   20.7160 C   0  0  0  0  0  0
  -26.0390  -26.9086   19.4892 C   0  0  0  0  0  0
  -24.8687  -27.6897   19.4851 C   0  0  0  0  0  0
  -23.6278  -29.8217   20.1568 C   0  0  0  0  0  0
  -25.4107  -36.3101   24.0338 C   0  0  1  0  0  0
  -20.5870  -28.3681   23.1277 C   0  0  2  0  0  0
  -20.6756  -26.9405   22.5399 C   0  0  0  0  0  0
  -19.5743  -26.6385   21.5189 C   0  0  0  0  0  0
  -18.1928  -26.7931   22.1607 C   0  0  0  0  0  0
  -19.1530  -28.8850   23.2880 C   0  0  0  0  0  0
  -18.9457  -30.1450   23.8900 C   0  0  0  0  0  0
  -17.6460  -30.6586   24.0566 C   0  0  0  0  0  0
  -25.9027  -34.9464   23.5121 C   0  0  0  0  0  0
  -16.5349  -29.9088   23.6331 C   0  0  0  0  0  0
  -16.7267  -28.6504   23.0349 C   0  0  0  0  0  0
  -26.4508  -31.6576   25.0692 C   0  0  0  0  0  0
  -25.3773  -31.3675   26.1428 C   0  0  0  0  0  0
  -27.0347  -30.3025   24.6060 C   0  0  0  0  0  0
  -27.6080  -32.4291   25.7466 C   0  0  0  0  0  0
  -27.5557  -37.1831   24.8485 C   0  0  0  0  0  0
  -21.4158  -29.3047   22.3674 N   0  0  0  0  0  0
  -26.4302  -37.3774   23.9386 N   0  0  0  0  0  0
  -24.6804  -31.0659   22.0970 N   0  0  0  0  0  0
  -23.4191  -28.8146   23.2967 O   0  0  0  0  0  0
  -28.3302  -26.5105   20.2040 O   0  0  0  0  0  0
  -26.5567  -34.8924   22.4667 O   0  0  0  0  0  0
  -23.5379  -32.1379   23.7383 O   0  0  0  0  0  0
  -30.5909  -18.4859   18.3790 C   0  0  0  0  0  0
  -30.0331  -19.6016   19.0272 C   0  0  0  0  0  0
  -30.5556  -17.2138   18.9746 C   0  0  0  0  0  0
  -29.4153  -19.4804   20.2942 C   0  0  0  0  0  0
  -29.9744  -17.0195   20.2493 C   0  0  0  0  0  0
  -29.4077  -18.1690   20.9000 C   0  0  0  0  0  0
  -28.5483  -25.5698   19.2073 C   0  0  0  0  0  0
  -28.7221  -24.2082   19.2653 C   0  0  0  0  0  0
  -28.6934  -23.3329   20.4661 C   0  0  0  0  0  0
  -27.2928  -20.5173   21.2962 C   0  0  0  0  0  0
  -28.7764  -20.7567   20.9538 C   0  0  2  0  0  0
  -29.8930  -15.6787   20.8180 N   0  0  0  0  0  0
  -28.8640  -22.0157   20.1465 N   0  0  0  0  0  0
  -28.5148  -23.7091   21.6254 O   0  0  0  0  0  0
  -28.9334  -23.5881   18.0889 O   0  0  0  0  0  0
  -28.8513  -17.9970   22.1236 F   0  0  0  0  0  0
  -31.4740  -12.4630   19.1611 H   0  0  0  0  0  0
  -30.3476  -11.3603   19.8979 H   0  0  0  0  0  0
  -29.7694  -11.7504   17.4786 H   0  0  0  0  0  0
  -29.6556  -13.4691   17.7621 H   0  0  0  0  0  0
  -27.8741  -11.2821   18.8850 H   0  0  0  0  0  0
  -27.3750  -12.5522   17.8011 H   0  0  0  0  0  0
  -27.6782  -14.2468   19.5219 H   0  0  0  0  0  0
  -28.6895  -12.0561   21.4054 H   0  0  0  0  0  0
  -28.4479  -13.7262   21.8386 H   0  0  0  0  0  0
  -25.2755   -9.5690   22.4767 H   0  0  0  0  0  0
  -23.9997   -7.4637   22.7482 H   0  0  0  0  0  0
  -21.0841   -8.8768   19.8951 H   0  0  0  0  0  0
  -22.3696  -10.9667   19.6155 H   0  0  0  0  0  0
  -21.2011   -7.6149   23.9718 H   0  0  0  0  0  0
  -21.1471   -6.0522   25.9079 H   0  0  0  0  0  0
  -22.0601   -2.7609   23.2857 H   0  0  0  0  0  0
  -22.4084  -11.9852   22.4734 H   0  0  0  0  0  0
  -21.1108  -13.1258   22.2597 H   0  0  0  0  0  0
  -24.6661  -15.8453   20.5270 H   0  0  0  0  0  0
  -26.2841  -15.6289   20.0929 H   0  0  0  0  0  0
  -26.7133  -32.5510   23.1110 H   0  0  0  0  0  0
  -25.0170  -33.9751   25.0534 H   0  0  0  0  0  0
  -22.7088  -31.3060   21.4010 H   0  0  0  0  0  0
  -23.3710  -35.9659   23.3410 H   0  0  0  0  0  0
  -24.3556  -36.8777   22.2036 H   0  0  0  0  0  0
  -23.7269  -37.6546   23.6578 H   0  0  0  0  0  0
  -26.0587  -31.5749   20.5940 H   0  0  0  0  0  0
  -26.8366  -30.8710   21.9828 H   0  0  0  0  0  0
  -28.1015  -29.0078   21.2130 H   0  0  0  0  0  0
  -25.9943  -25.9315   19.0296 H   0  0  0  0  0  0
  -23.9723  -27.3095   19.0152 H   0  0  0  0  0  0
  -23.7418  -30.5974   19.3992 H   0  0  0  0  0  0
  -22.7522  -29.2433   19.8564 H   0  0  0  0  0  0
  -25.1294  -36.1988   25.0835 H   0  0  0  0  0  0
  -20.9970  -28.3232   24.1390 H   0  0  0  0  0  0
  -20.5628  -26.2279   23.3589 H   0  0  0  0  0  0
  -21.6628  -26.7417   22.1210 H   0  0  0  0  0  0
  -19.6900  -25.6294   21.1220 H   0  0  0  0  0  0
  -19.6691  -27.3191   20.6717 H   0  0  0  0  0  0
  -17.4187  -26.6669   21.4016 H   0  0  0  0  0  0
  -18.0348  -26.0079   22.9009 H   0  0  0  0  0  0
  -19.7937  -30.7260   24.2262 H   0  0  0  0  0  0
  -17.5024  -31.6270   24.5162 H   0  0  0  0  0  0
  -15.5353  -30.2998   23.7652 H   0  0  0  0  0  0
  -15.8662  -28.0830   22.7059 H   0  0  0  0  0  0
  -24.5981  -30.6978   25.7763 H   0  0  0  0  0  0
  -24.8927  -32.2822   26.4851 H   0  0  0  0  0  0
  -25.8136  -30.8875   27.0197 H   0  0  0  0  0  0
  -26.2891  -29.6773   24.1124 H   0  0  0  0  0  0
  -27.4143  -29.7268   25.4512 H   0  0  0  0  0  0
  -27.8717  -30.4351   23.9200 H   0  0  0  0  0  0
  -27.2715  -33.3605   26.2032 H   0  0  0  0  0  0
  -28.3912  -32.6805   25.0301 H   0  0  0  0  0  0
  -28.0720  -31.8407   26.5390 H   0  0  0  0  0  0
  -28.2649  -38.0045   24.7406 H   0  0  0  0  0  0
  -28.0967  -36.2570   24.6481 H   0  0  0  0  0  0
  -27.2254  -37.1687   25.8885 H   0  0  0  0  0  0
  -20.9302  -29.8834   21.6960 H   0  0  0  0  0  0
  -26.0189  -38.2864   24.1323 H   0  0  0  0  0  0
  -31.0425  -18.6043   17.4034 H   0  0  0  0  0  0
  -30.0902  -20.5532   18.5198 H   0  0  0  0  0  0
  -30.9714  -16.3868   18.4179 H   0  0  0  0  0  0
  -28.5809  -26.0796   18.2536 H   0  0  0  0  0  0
  -27.1582  -19.6675   21.9621 H   0  0  0  0  0  0
  -26.7063  -20.3247   20.3977 H   0  0  0  0  0  0
  -26.8546  -21.3784   21.8022 H   0  0  0  0  0  0
  -29.3184  -20.9268   21.8862 H   0  0  0  0  0  0
  -29.0551  -15.4872   21.3463 H   0  0  0  0  0  0
  -29.0099  -21.8901   19.1534 H   0  0  0  0  0  0
  -28.9271  -24.2485   17.4092 H   0  0  0  0  0  0
  1 25  1  0  0  0
  1 30  2  0  0  0
  1 82  1  0  0  0
  2  3  1  0  0  0
  2 25  1  0  0  0
  2 87  1  0  0  0
  2 88  1  0  0  0
  3  4  1  0  0  0
  3 89  1  0  0  0
  3 90  1  0  0  0
  4  5  1  0  0  0
  4 91  1  0  0  0
  4 92  1  0  0  0
  5  6  1  0  0  0
  5 26  1  0  0  0
  5 93  1  0  0  0
  6 25  1  0  0  0
  6 94  1  0  0  0
  6 95  1  0  0  0
  7  8  2  0  0  0
  7 26  1  0  0  0
  7 29  1  0  0  0
  8  9  1  0  0  0
  8 22  1  0  0  0
  9 10  1  0  0  0
  9 27  2  0  0  0
 10 11  2  0  0  0
 10 15  1  0  0  0
 11 12  1  0  0  0
 11 96  1  0  0  0
 12 13  2  0  0  0
 12 97  1  0  0  0
 13 14  1  0  0  0
 13 31  1  0  0  0
 14 15  2  0  0  0
 14 98  1  0  0  0
 15 99  1  0  0  0
 16 17  2  0  0  0
 16 21  1  0  0  0
 16 31  1  0  0  0
 17 18  1  0  0  0
 17100  1  0  0  0
 18 19  2  0  0  0
 18101  1  0  0  0
 19 20  1  0  0  0
 19 24  1  0  0  0
 20 21  2  0  0  0
 20102  1  0  0  0
 21 23  1  0  0  0
 22 28  1  0  0  0
 22 32  2  0  0  0
 26 27  1  0  0  0
 28103  1  0  0  0
 28104  1  0  0  0
 29105  1  0  0  0
 29106  1  0  0  0
 33 34  1  0  0  0
 33 66  1  0  0  0
 33 70  2  0  0  0
 34 36  1  0  0  0
 34 59  1  0  0  0
 34107  1  0  0  0
 35 44  2  0  0  0
 35 45  1  0  0  0
 35 68  1  0  0  0
 36 56  1  0  0  0
 36108  1  0  0  0
 37 39  1  0  0  0
 37 47  1  0  0  0
 37 66  1  0  0  0
 37109  1  0  0  0
 38 43  2  0  0  0
 38 46  1  0  0  0
 38 47  1  0  0  0
 39 64  1  0  0  0
 39 67  2  0  0  0
 40 52  1  0  0  0
 40 53  2  0  0  0
 40 58  1  0  0  0
 41110  1  0  0  0
 41111  1  0  0  0
 41112  1  0  0  0
 41 48  1  0  0  0
 42 43  1  0  0  0
 42 66  1  0  0  0
 42113  1  0  0  0
 42114  1  0  0  0
 43 44  1  0  0  0
 44115  1  0  0  0
 45 46  2  0  0  0
 45116  1  0  0  0
 46117  1  0  0  0
 47118  1  0  0  0
 47119  1  0  0  0
 48 56  1  0  0  0
 48 65  1  0  0  0
 48120  1  0  0  0
 49 50  1  0  0  0
 49 53  1  0  0  0
 49 64  1  0  0  0
 49121  1  0  0  0
 50 51  1  0  0  0
 50122  1  0  0  0
 50123  1  0  0  0
 51 52  1  0  0  0
 51124  1  0  0  0
 51125  1  0  0  0
 52126  1  0  0  0
 52127  1  0  0  0
 53 54  1  0  0  0
 54 55  2  0  0  0
 54128  1  0  0  0
 55 57  1  0  0  0
 55129  1  0  0  0
 56 69  2  0  0  0
 57 58  2  0  0  0
 57130  1  0  0  0
 58131  1  0  0  0
 59 60  1  0  0  0
 59 61  1  0  0  0
 59 62  1  0  0  0
 60132  1  0  0  0
 60133  1  0  0  0
 60134  1  0  0  0
 61135  1  0  0  0
 61136  1  0  0  0
 61137  1  0  0  0
 62138  1  0  0  0
 62139  1  0  0  0
 62140  1  0  0  0
 63 65  1  0  0  0
 63141  1  0  0  0
 63142  1  0  0  0
 63143  1  0  0  0
 64144  1  0  0  0
 65145  1  0  0  0
 68 77  1  0  0  0
 71 72  2  0  0  0
 71 73  1  0  0  0
 71146  1  0  0  0
 72 74  1  0  0  0
 72147  1  0  0  0
 73 75  2  0  0  0
 73148  1  0  0  0
 74 76  2  0  0  0
 74 81  1  0  0  0
 75 76  1  0  0  0
 75 82  1  0  0  0
 76 86  1  0  0  0
 77 78  2  0  0  0
 77149  1  0  0  0
 78 79  1  0  0  0
 78 85  1  0  0  0
 79 83  1  0  0  0
 79 84  2  0  0  0
 80150  1  0  0  0
 80151  1  0  0  0
 80152  1  0  0  0
 80 81  1  0  0  0
 81 83  1  0  0  0
 81153  1  0  0  0
 82154  1  0  0  0
 83155  1  0  0  0
 85156  1  0  0  0
M  ISO  4   1 100  68 101  77 101  82 100
M  END
> <chiral flag>
0

> <version>
0

> <s_m_source_file>
/data/baiqing/PycharmProjects/Reinvent-master-3.2/result/LINK_invent/BTK/process_docking_weight1_custom_product_contain_oxygen_bond_distance_aromatic_linkinvent_7_9_3/rearranged_h_0170.sdf

> <i_m_source_file_index>
59

> <r_mmod_Potential_Energy-OPLS-2005>
-72.3320999145508

> <r_mmod_Stretch_Energy-OPLS-2005>
66.1201629638672

> <r_mmod_Bend_Energy-OPLS-2005>
130.797225952148

> <r_mmod_Torsional_Energy-OPLS-2005>
215.614852905273

> <r_mmod_Improper_Torsional_Energy-OPLS-2005>
4.86884021759033

> <r_mmod_Van_der_Waal_Energy-OPLS-2005>
157.863723754883

> <r_mmod_Electrostatic_Energy-OPLS-2005>
-453.209533691406

> <r_mmod_Solvation_Energy-OPLS-2005>
-232.301712036133

> <b_mmod_Minimization_Converged-OPLS-2005>
0

> <r_mmod_RMS_Derivative-OPLS-2005>
1.84398460388184

$$$$
59
                    3D
 Structure written by MMmdl.
153161  0  0  1  0            999 V2000
  -30.6068  -14.8263   20.4271 C   0  0  0  0  0  0
  -30.4232  -12.5024   19.5012 C   0  0  0  0  0  0
  -29.5161  -12.5037   18.2483 C   0  0  0  0  0  0
  -28.0440  -12.3009   18.6602 C   0  0  0  0  0  0
  -27.6294  -13.2327   19.8260 C   0  0  2  0  0  0
  -28.6622  -13.2488   20.9688 C   0  0  0  0  0  0
  -25.2500  -13.8194   20.5660 C   0  0  0  0  0  0
  -24.1790  -13.0435   20.9164 C   0  0  0  0  0  0
  -24.6379  -11.6919   20.8697 C   0  0  0  0  0  0
  -23.9058  -10.4288   21.0403 C   0  0  0  0  0  0
  -24.3646   -9.4191   21.9175 C   0  0  0  0  0  0
  -23.6315   -8.2229   22.0750 C   0  0  0  0  0  0
  -22.4278   -8.0278   21.3537 C   0  0  0  0  0  0
  -21.9917   -9.0248   20.4629 C   0  0  0  0  0  0
  -22.7238  -10.2131   20.3028 C   0  0  0  0  0  0
  -21.6864   -6.0762   22.5278 C   0  0  0  0  0  0
  -21.4013   -6.5675   23.8222 C   0  0  0  0  0  0
  -21.3638   -5.6816   24.9183 C   0  0  0  0  0  0
  -21.6032   -4.3073   24.7231 C   0  0  0  0  0  0
  -21.8805   -3.8160   23.4360 C   0  0  0  0  0  0
  -21.9201   -4.6990   22.3416 C   0  0  0  0  0  0
  -22.7830  -13.5212   21.1872 C   0  0  0  0  0  0
  -22.1649   -4.2159   21.1002 F   0  0  0  0  0  0
  -21.5655   -3.4576   25.7761 F   0  0  0  0  0  0
  -29.9585  -13.6073   20.3842 N   0  0  0  0  0  0
  -26.2876  -12.9386   20.3147 N   0  0  0  0  0  0
  -25.9292  -11.6531   20.5698 N   0  0  0  0  0  0
  -22.0539  -12.8129   22.0417 N   0  0  0  0  0  0
  -25.4340  -15.1914   20.4175 N   0  0  0  0  0  0
  -31.8125  -14.8588   20.1592 O   0  0  0  0  0  0
  -21.6625   -6.8882   21.4236 O   0  0  0  0  0  0
  -22.3469  -14.5523   20.6748 O   0  0  0  0  0  0
  -24.6398  -31.8537   23.1964 C   0  0  0  0  0  0
  -25.9188  -32.4760   23.8341 C   0  0  1  0  0  0
  -27.2010  -27.2027   20.1182 C   0  0  0  0  0  0
  -25.5939  -33.8561   24.2230 N   0  0  0  0  0  0
  -23.4363  -30.4802   21.5408 C   0  0  2  0  0  0
  -24.8753  -28.9216   20.1081 C   0  0  0  0  0  0
  -22.7522  -29.4634   22.4877 C   0  0  0  0  0  0
  -18.0320  -28.1365   22.8415 C   0  0  0  0  0  0
  -24.1477  -36.7270   23.2633 C   0  0  0  0  0  0
  -25.9888  -30.7534   21.3801 C   0  0  0  0  0  0
  -26.0542  -29.3704   20.7180 C   0  0  0  0  0  0
  -27.2160  -28.5222   20.7099 C   0  0  0  0  0  0
  -25.9919  -26.8418   19.4798 C   0  0  0  0  0  0
  -24.8520  -27.6685   19.4808 C   0  0  0  0  0  0
  -23.6529  -29.8185   20.1551 C   0  0  0  0  0  0
  -25.4099  -36.3033   24.0308 C   0  0  1  0  0  0
  -20.5901  -28.3748   23.1271 C   0  0  2  0  0  0
  -20.6828  -26.9466   22.5473 C   0  0  0  0  0  0
  -19.5908  -26.6393   21.5199 C   0  0  0  0  0  0
  -18.2045  -26.7927   22.1532 C   0  0  0  0  0  0
  -19.1543  -28.8872   23.2829 C   0  0  0  0  0  0
  -18.9407  -30.1446   23.8899 C   0  0  0  0  0  0
  -17.6399  -30.6566   24.0526 C   0  0  0  0  0  0
  -25.9066  -34.9426   23.5069 C   0  0  0  0  0  0
  -16.5324  -29.9032   23.6257 C   0  0  0  0  0  0
  -16.7269  -28.6468   23.0228 C   0  0  0  0  0  0
  -26.4506  -31.6608   25.0764 C   0  0  0  0  0  0
  -25.3720  -31.3783   26.1488 C   0  0  0  0  0  0
  -27.0368  -30.3007   24.6321 C   0  0  0  0  0  0
  -27.6040  -32.4373   25.7553 C   0  0  0  0  0  0
  -27.5553  -37.1785   24.8459 C   0  0  0  0  0  0
  -21.4239  -29.3071   22.3628 N   0  0  0  0  0  0
  -26.4261  -37.3740   23.9408 N   0  0  0  0  0  0
  -24.7092  -31.0450   22.0975 N   0  0  0  0  0  0
  -23.4206  -28.8173   23.3004 O   0  0  0  0  0  0
  -28.2793  -26.2727   20.2083 O   0  0  0  0  0  0
  -26.5654  -34.8915   22.4647 O   0  0  0  0  0  0
  -23.5533  -32.1352   23.7236 O   0  0  0  0  0  0
  -29.2531  -16.2466   22.7011 C   0  0  0  0  0  0
  -27.9394  -17.9867   23.7208 C   0  0  0  0  0  0
  -28.8366  -18.3421   21.4213 C   0  0  0  0  0  0
  -29.3409  -16.9235   21.4550 C   0  0  0  0  0  0
  -28.5711  -16.7529   23.8115 C   0  0  0  0  0  0
  -28.0797  -18.7645   22.5646 C   0  0  0  0  0  0
  -28.9476  -19.4419   20.2999 C   0  0  0  0  0  0
  -28.4962  -23.5261   20.4574 C   0  0  0  0  0  0
  -28.7215  -22.0763   19.7616 C   0  0  0  0  0  0
  -28.2675  -24.8751   19.5794 C   0  0  0  0  0  0
  -29.9001  -16.0450   20.3867 N   0  0  0  0  0  0
  -28.8561  -20.8027   20.6234 N   0  0  0  0  0  0
  -29.1044  -19.0908   19.1310 O   0  0  0  0  0  0
  -28.4861  -23.5875   21.6911 O   0  0  0  0  0  0
  -28.4941  -16.0335   24.9587 F   0  0  0  0  0  0
  -27.4367  -19.9572   22.5910 F   0  0  0  0  0  0
  -31.4693  -12.6102   19.2087 H   0  0  0  0  0  0
  -30.3642  -11.5492   20.0281 H   0  0  0  0  0  0
  -29.8240  -11.7240   17.5494 H   0  0  0  0  0  0
  -29.6204  -13.4511   17.7183 H   0  0  0  0  0  0
  -27.9263  -11.2582   18.9553 H   0  0  0  0  0  0
  -27.3818  -12.4467   17.8062 H   0  0  0  0  0  0
  -27.6019  -14.2364   19.3977 H   0  0  0  0  0  0
  -28.7219  -12.2848   21.4770 H   0  0  0  0  0  0
  -28.3504  -13.9753   21.7139 H   0  0  0  0  0  0
  -25.2831   -9.5663   22.4720 H   0  0  0  0  0  0
  -24.0035   -7.4609   22.7462 H   0  0  0  0  0  0
  -21.0847   -8.8718   19.8958 H   0  0  0  0  0  0
  -22.3673  -10.9652   19.6102 H   0  0  0  0  0  0
  -21.1975   -7.6180   23.9731 H   0  0  0  0  0  0
  -21.1477   -6.0556   25.9092 H   0  0  0  0  0  0
  -22.0607   -2.7632   23.2854 H   0  0  0  0  0  0
  -22.4245  -11.9720   22.4574 H   0  0  0  0  0  0
  -21.1165  -13.1058   22.2817 H   0  0  0  0  0  0
  -24.6854  -15.8636   20.5431 H   0  0  0  0  0  0
  -26.3103  -15.6194   20.1521 H   0  0  0  0  0  0
  -26.7259  -32.5356   23.1092 H   0  0  0  0  0  0
  -25.0020  -33.9730   25.0329 H   0  0  0  0  0  0
  -22.7362  -31.3055   21.3954 H   0  0  0  0  0  0
  -23.3727  -35.9622   23.3293 H   0  0  0  0  0  0
  -24.3542  -36.8919   22.2046 H   0  0  0  0  0  0
  -23.7285  -37.6484   23.6687 H   0  0  0  0  0  0
  -26.1279  -31.5174   20.6117 H   0  0  0  0  0  0
  -26.8628  -30.7958   22.0174 H   0  0  0  0  0  0
  -28.1177  -28.8646   21.1996 H   0  0  0  0  0  0
  -25.8611  -25.8876   18.9985 H   0  0  0  0  0  0
  -23.9476  -27.3157   19.0033 H   0  0  0  0  0  0
  -23.7854  -30.5966   19.4008 H   0  0  0  0  0  0
  -22.7640  -29.2623   19.8479 H   0  0  0  0  0  0
  -25.1295  -36.1832   25.0801 H   0  0  0  0  0  0
  -20.9949  -28.3363   24.1406 H   0  0  0  0  0  0
  -20.5703  -26.2338   23.3650 H   0  0  0  0  0  0
  -21.6719  -26.7543   22.1284 H   0  0  0  0  0  0
  -19.7206  -25.6310   21.1267 H   0  0  0  0  0  0
  -19.6932  -27.3202   20.6733 H   0  0  0  0  0  0
  -17.4348  -26.6615   21.3928 H   0  0  0  0  0  0
  -18.0433  -26.0086   22.8918 H   0  0  0  0  0  0
  -19.7864  -30.7277   24.2301 H   0  0  0  0  0  0
  -17.4904  -31.6246   24.5159 H   0  0  0  0  0  0
  -15.5297  -30.2860   23.7616 H   0  0  0  0  0  0
  -15.8712  -28.0759   22.6875 H   0  0  0  0  0  0
  -24.5881  -30.7142   25.7822 H   0  0  0  0  0  0
  -24.8954  -32.2983   26.4894 H   0  0  0  0  0  0
  -25.8050  -30.8977   27.0279 H   0  0  0  0  0  0
  -26.2997  -29.6748   24.1291 H   0  0  0  0  0  0
  -27.3929  -29.7276   25.4894 H   0  0  0  0  0  0
  -27.8907  -30.4232   23.9656 H   0  0  0  0  0  0
  -27.2596  -33.3660   26.2116 H   0  0  0  0  0  0
  -28.3859  -32.6976   25.0399 H   0  0  0  0  0  0
  -28.0697  -31.8526   26.5503 H   0  0  0  0  0  0
  -28.2560  -38.0076   24.7457 H   0  0  0  0  0  0
  -28.1045  -36.2614   24.6313 H   0  0  0  0  0  0
  -27.2273  -37.1457   25.8859 H   0  0  0  0  0  0
  -20.9418  -29.8637   21.6702 H   0  0  0  0  0  0
  -26.0109  -38.2800   24.1426 H   0  0  0  0  0  0
  -29.6883  -15.2718   22.8458 H   0  0  0  0  0  0
  -27.3555  -18.3566   24.5545 H   0  0  0  0  0  0
  -29.6073  -22.1515   19.1307 H   0  0  0  0  0  0
  -27.8900  -21.9112   19.0762 H   0  0  0  0  0  0
  -27.3918  -24.6915   18.9635 H   0  0  0  0  0  0
  -29.0940  -24.8783   18.8704 H   0  0  0  0  0  0
  -30.2408  -16.6054   19.6187 H   0  0  0  0  0  0
  -28.7371  -20.9804   21.6117 H   0  0  0  0  0  0
  1 25  1  0  0  0
  1 30  2  0  0  0
  1 81  1  0  0  0
  2  3  1  0  0  0
  2 25  1  0  0  0
  2 87  1  0  0  0
  2 88  1  0  0  0
  3  4  1  0  0  0
  3 89  1  0  0  0
  3 90  1  0  0  0
  4  5  1  0  0  0
  4 91  1  0  0  0
  4 92  1  0  0  0
  5  6  1  0  0  0
  5 26  1  0  0  0
  5 93  1  0  0  0
  6 25  1  0  0  0
  6 94  1  0  0  0
  6 95  1  0  0  0
  7  8  2  0  0  0
  7 26  1  0  0  0
  7 29  1  0  0  0
  8  9  1  0  0  0
  8 22  1  0  0  0
  9 10  1  0  0  0
  9 27  2  0  0  0
 10 11  2  0  0  0
 10 15  1  0  0  0
 11 12  1  0  0  0
 11 96  1  0  0  0
 12 13  2  0  0  0
 12 97  1  0  0  0
 13 14  1  0  0  0
 13 31  1  0  0  0
 14 15  2  0  0  0
 14 98  1  0  0  0
 15 99  1  0  0  0
 16 17  2  0  0  0
 16 21  1  0  0  0
 16 31  1  0  0  0
 17 18  1  0  0  0
 17100  1  0  0  0
 18 19  2  0  0  0
 18101  1  0  0  0
 19 20  1  0  0  0
 19 24  1  0  0  0
 20 21  2  0  0  0
 20102  1  0  0  0
 21 23  1  0  0  0
 22 28  1  0  0  0
 22 32  2  0  0  0
 26 27  1  0  0  0
 28103  1  0  0  0
 28104  1  0  0  0
 29105  1  0  0  0
 29106  1  0  0  0
 33 34  1  0  0  0
 33 66  1  0  0  0
 33 70  2  0  0  0
 34 36  1  0  0  0
 34 59  1  0  0  0
 34107  1  0  0  0
 35 44  2  0  0  0
 35 45  1  0  0  0
 35 68  1  0  0  0
 36 56  1  0  0  0
 36108  1  0  0  0
 37 39  1  0  0  0
 37 47  1  0  0  0
 37 66  1  0  0  0
 37109  1  0  0  0
 38 43  2  0  0  0
 38 46  1  0  0  0
 38 47  1  0  0  0
 39 64  1  0  0  0
 39 67  2  0  0  0
 40 52  1  0  0  0
 40 53  2  0  0  0
 40 58  1  0  0  0
 41110  1  0  0  0
 41111  1  0  0  0
 41112  1  0  0  0
 41 48  1  0  0  0
 42 43  1  0  0  0
 42 66  1  0  0  0
 42113  1  0  0  0
 42114  1  0  0  0
 43 44  1  0  0  0
 44115  1  0  0  0
 45 46  2  0  0  0
 45116  1  0  0  0
 46117  1  0  0  0
 47118  1  0  0  0
 47119  1  0  0  0
 48 56  1  0  0  0
 48 65  1  0  0  0
 48120  1  0  0  0
 49 50  1  0  0  0
 49 53  1  0  0  0
 49 64  1  0  0  0
 49121  1  0  0  0
 50 51  1  0  0  0
 50122  1  0  0  0
 50123  1  0  0  0
 51 52  1  0  0  0
 51124  1  0  0  0
 51125  1  0  0  0
 52126  1  0  0  0
 52127  1  0  0  0
 53 54  1  0  0  0
 54 55  2  0  0  0
 54128  1  0  0  0
 55 57  1  0  0  0
 55129  1  0  0  0
 56 69  2  0  0  0
 57 58  2  0  0  0
 57130  1  0  0  0
 58131  1  0  0  0
 59 60  1  0  0  0
 59 61  1  0  0  0
 59 62  1  0  0  0
 60132  1  0  0  0
 60133  1  0  0  0
 60134  1  0  0  0
 61135  1  0  0  0
 61136  1  0  0  0
 61137  1  0  0  0
 62138  1  0  0  0
 62139  1  0  0  0
 62140  1  0  0  0
 63 65  1  0  0  0
 63141  1  0  0  0
 63142  1  0  0  0
 63143  1  0  0  0
 64144  1  0  0  0
 65145  1  0  0  0
 68 80  1  0  0  0
 71 74  2  0  0  0
 71 75  1  0  0  0
 71146  1  0  0  0
 72 75  2  0  0  0
 72 76  1  0  0  0
 72147  1  0  0  0
 73 74  1  0  0  0
 73 76  2  0  0  0
 73 77  1  0  0  0
 74 81  1  0  0  0
 75 85  1  0  0  0
 76 86  1  0  0  0
 77 82  1  0  0  0
 77 83  2  0  0  0
 78 79  1  0  0  0
 78 80  1  0  0  0
 78 84  2  0  0  0
 79 82  1  0  0  0
 79148  1  0  0  0
 79149  1  0  0  0
 80150  1  0  0  0
 80151  1  0  0  0
 81152  1  0  0  0
 82153  1  0  0  0
M  ISO  4   1 100  68 101  80 101  81 100
M  END
> <chiral flag>
0

> <version>
0

> <s_m_source_file>
/data/baiqing/PycharmProjects/Reinvent-master-3.2/result/LINK_invent/BTK/process_docking_weight1_custom_product_contain_oxygen_bond_distance_aromatic_linkinvent_7_9_3/rearranged_h_0170.sdf

> <i_m_source_file_index>
60

> <r_mmod_Potential_Energy-OPLS-2005>
376.7060546875

> <r_mmod_Stretch_Energy-OPLS-2005>
180.858703613281

> <r_mmod_Bend_Energy-OPLS-2005>
238.437438964844

> <r_mmod_Torsional_Energy-OPLS-2005>
269.581024169922

> <r_mmod_Improper_Torsional_Energy-OPLS-2005>
13.1475391387939

> <r_mmod_Van_der_Waal_Energy-OPLS-2005>
144.810928344727

> <r_mmod_Electrostatic_Energy-OPLS-2005>
-360.600250244141

> <r_mmod_Solvation_Energy-OPLS-2005>
-238.367218017578

> <b_mmod_Minimization_Converged-OPLS-2005>
0

> <r_mmod_RMS_Derivative-OPLS-2005>
5.75209856033325

$$$$
60
                    3D
 Structure written by MMmdl.
157165  0  0  1  0            999 V2000
  -30.6990  -14.5662   20.5489 C   0  0  0  0  0  0
  -30.4160  -12.3653   19.4387 C   0  0  0  0  0  0
  -29.4929  -12.5008   18.2123 C   0  0  0  0  0  0
  -28.0178  -12.3481   18.6298 C   0  0  0  0  0  0
  -27.6489  -13.2207   19.8602 C   0  0  2  0  0  0
  -28.6939  -13.0827   20.9888 C   0  0  0  0  0  0
  -25.2537  -13.8187   20.5691 C   0  0  0  0  0  0
  -24.1813  -13.0443   20.9197 C   0  0  0  0  0  0
  -24.6389  -11.6916   20.8746 C   0  0  0  0  0  0
  -23.9063  -10.4295   21.0408 C   0  0  0  0  0  0
  -24.3616   -9.4209   21.9185 C   0  0  0  0  0  0
  -23.6292   -8.2243   22.0754 C   0  0  0  0  0  0
  -22.4274   -8.0281   21.3545 C   0  0  0  0  0  0
  -21.9909   -9.0255   20.4647 C   0  0  0  0  0  0
  -22.7236  -10.2135   20.3057 C   0  0  0  0  0  0
  -21.6854   -6.0735   22.5279 C   0  0  0  0  0  0
  -21.4015   -6.5639   23.8212 C   0  0  0  0  0  0
  -21.3659   -5.6792   24.9175 C   0  0  0  0  0  0
  -21.6044   -4.3055   24.7226 C   0  0  0  0  0  0
  -21.8819   -3.8146   23.4347 C   0  0  0  0  0  0
  -21.9193   -4.6962   22.3404 C   0  0  0  0  0  0
  -22.7835  -13.5232   21.1855 C   0  0  0  0  0  0
  -22.1661   -4.2147   21.0981 F   0  0  0  0  0  0
  -21.5628   -3.4539   25.7739 F   0  0  0  0  0  0
  -30.0074  -13.3960   20.4121 N   0  0  0  0  0  0
  -26.2967  -12.9379   20.3323 N   0  0  0  0  0  0
  -25.9317  -11.6527   20.5766 N   0  0  0  0  0  0
  -22.0479  -12.8224   22.0412 N   0  0  0  0  0  0
  -25.4240  -15.1909   20.4096 N   0  0  0  0  0  0
  -31.8518  -14.6780   20.1224 O   0  0  0  0  0  0
  -21.6640   -6.8877   21.4240 O   0  0  0  0  0  0
  -22.3520  -14.5537   20.6701 O   0  0  0  0  0  0
  -24.6214  -31.8623   23.2046 C   0  0  0  0  0  0
  -25.9080  -32.4791   23.8360 C   0  0  1  0  0  0
  -27.2271  -27.3595   20.1006 C   0  0  0  0  0  0
  -25.5913  -33.8592   24.2293 N   0  0  0  0  0  0
  -23.4120  -30.4859   21.5463 C   0  0  2  0  0  0
  -24.8557  -28.9422   20.1112 C   0  0  0  0  0  0
  -22.7443  -29.4636   22.4954 C   0  0  0  0  0  0
  -18.0279  -28.1381   22.8490 C   0  0  0  0  0  0
  -24.1488  -36.7299   23.2640 C   0  0  0  0  0  0
  -25.9481  -30.8043   21.3680 C   0  0  0  0  0  0
  -26.0202  -29.4338   20.7120 C   0  0  0  0  0  0
  -27.2048  -28.6501   20.7020 C   0  0  0  0  0  0
  -26.0344  -26.8972   19.4985 C   0  0  0  0  0  0
  -24.8615  -27.6769   19.5015 C   0  0  0  0  0  0
  -23.6227  -29.8190   20.1610 C   0  0  0  0  0  0
  -25.4111  -36.3093   24.0335 C   0  0  1  0  0  0
  -20.5874  -28.3677   23.1300 C   0  0  2  0  0  0
  -20.6768  -26.9406   22.5415 C   0  0  0  0  0  0
  -19.5746  -26.6387   21.5212 C   0  0  0  0  0  0
  -18.1925  -26.7927   22.1624 C   0  0  0  0  0  0
  -19.1530  -28.8845   23.2892 C   0  0  0  0  0  0
  -18.9457  -30.1449   23.8905 C   0  0  0  0  0  0
  -17.6458  -30.6586   24.0565 C   0  0  0  0  0  0
  -25.9043  -34.9461   23.5114 C   0  0  0  0  0  0
  -16.5349  -29.9088   23.6328 C   0  0  0  0  0  0
  -16.7269  -28.6503   23.0352 C   0  0  0  0  0  0
  -26.4482  -31.6594   25.0718 C   0  0  0  0  0  0
  -25.3732  -31.3721   26.1458 C   0  0  0  0  0  0
  -27.0320  -30.3026   24.6142 C   0  0  0  0  0  0
  -27.6047  -32.4324   25.7485 C   0  0  0  0  0  0
  -27.5578  -37.1808   24.8467 C   0  0  0  0  0  0
  -21.4162  -29.3037   22.3699 N   0  0  0  0  0  0
  -26.4293  -37.3783   23.9406 N   0  0  0  0  0  0
  -24.6792  -31.0670   22.0973 N   0  0  0  0  0  0
  -23.4188  -28.8181   23.3020 O   0  0  0  0  0  0
  -28.3902  -26.5922   20.1456 O   0  0  0  0  0  0
  -26.5609  -34.8923   22.4679 O   0  0  0  0  0  0
  -23.5393  -32.1406   23.7405 O   0  0  0  0  0  0
  -31.6770  -16.5100   22.5806 C   0  0  0  0  0  0
  -32.3248  -17.5076   23.3257 C   0  0  0  0  0  0
  -30.8993  -19.1726   22.2968 C   0  0  0  0  0  0
  -30.2347  -18.1949   21.5165 C   0  0  0  0  0  0
  -30.6364  -16.8083   21.6594 C   0  0  0  0  0  0
  -31.9338  -18.8430   23.1845 C   0  0  0  0  0  0
  -28.8879  -22.7055   19.8537 C   0  0  0  0  0  0
  -28.8218  -21.4826   20.4705 C   0  0  0  0  0  0
  -28.3774  -24.0314   20.3719 C   0  0  0  0  0  0
  -29.1180  -18.7396   20.5931 C   0  0  0  0  0  0
  -29.3858  -20.1454   19.8932 C   0  0  0  0  0  0
  -28.5034  -25.3009   19.4609 C   0  0  0  0  0  0
  -30.0290  -15.6684   21.0023 N   0  0  0  0  0  0
  -27.8622  -24.1401   21.4905 O   0  0  0  0  0  0
  -28.2518  -21.2913   21.6699 O   0  0  0  0  0  0
  -32.5460  -19.8110   23.9064 F   0  0  0  0  0  0
  -31.4601  -12.4597   19.1355 H   0  0  0  0  0  0
  -30.3254  -11.3721   19.8816 H   0  0  0  0  0  0
  -29.7485  -11.7514   17.4619 H   0  0  0  0  0  0
  -29.6448  -13.4725   17.7398 H   0  0  0  0  0  0
  -27.8493  -11.2955   18.8599 H   0  0  0  0  0  0
  -27.3618  -12.5830   17.7907 H   0  0  0  0  0  0
  -27.6679  -14.2561   19.5191 H   0  0  0  0  0  0
  -28.6950  -12.0690   21.3923 H   0  0  0  0  0  0
  -28.4509  -13.7390   21.8259 H   0  0  0  0  0  0
  -25.2761   -9.5686   22.4760 H   0  0  0  0  0  0
  -24.0001   -7.4635   22.7475 H   0  0  0  0  0  0
  -21.0840   -8.8774   19.8954 H   0  0  0  0  0  0
  -22.3695  -10.9673   19.6166 H   0  0  0  0  0  0
  -21.2009   -7.6148   23.9715 H   0  0  0  0  0  0
  -21.1480   -6.0523   25.9077 H   0  0  0  0  0  0
  -22.0599   -2.7608   23.2849 H   0  0  0  0  0  0
  -22.4094  -11.9885   22.4800 H   0  0  0  0  0  0
  -21.1097  -13.1251   22.2617 H   0  0  0  0  0  0
  -24.6563  -15.8447   20.5184 H   0  0  0  0  0  0
  -26.2717  -15.6303   20.0742 H   0  0  0  0  0  0
  -26.7146  -32.5467   23.1110 H   0  0  0  0  0  0
  -25.0070  -33.9740   25.0444 H   0  0  0  0  0  0
  -22.7040  -31.3053   21.4054 H   0  0  0  0  0  0
  -23.3745  -35.9637   23.3319 H   0  0  0  0  0  0
  -24.3579  -36.8901   22.2051 H   0  0  0  0  0  0
  -23.7248  -37.6512   23.6645 H   0  0  0  0  0  0
  -26.0736  -31.5689   20.6001 H   0  0  0  0  0  0
  -26.8314  -30.8531   21.9933 H   0  0  0  0  0  0
  -28.1023  -29.0259   21.1734 H   0  0  0  0  0  0
  -25.9699  -25.9227   19.0400 H   0  0  0  0  0  0
  -23.9631  -27.2897   19.0405 H   0  0  0  0  0  0
  -23.7380  -30.5944   19.4028 H   0  0  0  0  0  0
  -22.7432  -29.2456   19.8622 H   0  0  0  0  0  0
  -25.1294  -36.1953   25.0829 H   0  0  0  0  0  0
  -20.9969  -28.3245   24.1419 H   0  0  0  0  0  0
  -20.5667  -26.2284   23.3607 H   0  0  0  0  0  0
  -21.6639  -26.7441   22.1208 H   0  0  0  0  0  0
  -19.6906  -25.6300   21.1237 H   0  0  0  0  0  0
  -19.6686  -27.3199   20.6743 H   0  0  0  0  0  0
  -17.4196  -26.6678   21.4026 H   0  0  0  0  0  0
  -18.0325  -26.0068   22.9019 H   0  0  0  0  0  0
  -19.7932  -30.7263   24.2280 H   0  0  0  0  0  0
  -17.5014  -31.6267   24.5165 H   0  0  0  0  0  0
  -15.5349  -30.2995   23.7645 H   0  0  0  0  0  0
  -15.8668  -28.0826   22.7066 H   0  0  0  0  0  0
  -24.5899  -30.7075   25.7793 H   0  0  0  0  0  0
  -24.8929  -32.2884   26.4899 H   0  0  0  0  0  0
  -25.8073  -30.8891   27.0221 H   0  0  0  0  0  0
  -26.2881  -29.6785   24.1175 H   0  0  0  0  0  0
  -27.4046  -29.7273   25.4626 H   0  0  0  0  0  0
  -27.8737  -30.4331   23.9337 H   0  0  0  0  0  0
  -27.2657  -33.3616   26.2077 H   0  0  0  0  0  0
  -28.3847  -32.6898   25.0308 H   0  0  0  0  0  0
  -28.0725  -31.8441   26.5390 H   0  0  0  0  0  0
  -28.2610  -38.0090   24.7497 H   0  0  0  0  0  0
  -28.1060  -36.2623   24.6317 H   0  0  0  0  0  0
  -27.2294  -37.1488   25.8871 H   0  0  0  0  0  0
  -20.9328  -29.8764   21.6922 H   0  0  0  0  0  0
  -26.0182  -38.2865   24.1392 H   0  0  0  0  0  0
  -31.9982  -15.4911   22.7444 H   0  0  0  0  0  0
  -33.1152  -17.2459   24.0139 H   0  0  0  0  0  0
  -30.6181  -20.2121   22.2273 H   0  0  0  0  0  0
  -29.3618  -22.7483   18.8835 H   0  0  0  0  0  0
  -28.1724  -18.7472   21.1357 H   0  0  0  0  0  0
  -28.9873  -17.9986   19.8037 H   0  0  0  0  0  0
  -30.4514  -20.2629   19.6916 H   0  0  0  0  0  0
  -28.9316  -20.0783   18.9036 H   0  0  0  0  0  0
  -27.8283  -25.2166   18.6118 H   0  0  0  0  0  0
  -29.5022  -25.2718   19.0255 H   0  0  0  0  0  0
  -29.0251  -15.5936   21.0650 H   0  0  0  0  0  0
  -27.9371  -22.1387   21.9709 H   0  0  0  0  0  0
  1 25  1  0  0  0
  1 30  2  0  0  0
  1 83  1  0  0  0
  2  3  1  0  0  0
  2 25  1  0  0  0
  2 87  1  0  0  0
  2 88  1  0  0  0
  3  4  1  0  0  0
  3 89  1  0  0  0
  3 90  1  0  0  0
  4  5  1  0  0  0
  4 91  1  0  0  0
  4 92  1  0  0  0
  5  6  1  0  0  0
  5 26  1  0  0  0
  5 93  1  0  0  0
  6 25  1  0  0  0
  6 94  1  0  0  0
  6 95  1  0  0  0
  7  8  2  0  0  0
  7 26  1  0  0  0
  7 29  1  0  0  0
  8  9  1  0  0  0
  8 22  1  0  0  0
  9 10  1  0  0  0
  9 27  2  0  0  0
 10 11  2  0  0  0
 10 15  1  0  0  0
 11 12  1  0  0  0
 11 96  1  0  0  0
 12 13  2  0  0  0
 12 97  1  0  0  0
 13 14  1  0  0  0
 13 31  1  0  0  0
 14 15  2  0  0  0
 14 98  1  0  0  0
 15 99  1  0  0  0
 16 17  2  0  0  0
 16 21  1  0  0  0
 16 31  1  0  0  0
 17 18  1  0  0  0
 17100  1  0  0  0
 18 19  2  0  0  0
 18101  1  0  0  0
 19 20  1  0  0  0
 19 24  1  0  0  0
 20 21  2  0  0  0
 20102  1  0  0  0
 21 23  1  0  0  0
 22 28  1  0  0  0
 22 32  2  0  0  0
 26 27  1  0  0  0
 28103  1  0  0  0
 28104  1  0  0  0
 29105  1  0  0  0
 29106  1  0  0  0
 33 34  1  0  0  0
 33 66  1  0  0  0
 33 70  2  0  0  0
 34 36  1  0  0  0
 34 59  1  0  0  0
 34107  1  0  0  0
 35 44  2  0  0  0
 35 45  1  0  0  0
 35 68  1  0  0  0
 36 56  1  0  0  0
 36108  1  0  0  0
 37 39  1  0  0  0
 37 47  1  0  0  0
 37 66  1  0  0  0
 37109  1  0  0  0
 38 43  2  0  0  0
 38 46  1  0  0  0
 38 47  1  0  0  0
 39 64  1  0  0  0
 39 67  2  0  0  0
 40 52  1  0  0  0
 40 53  2  0  0  0
 40 58  1  0  0  0
 41110  1  0  0  0
 41111  1  0  0  0
 41112  1  0  0  0
 41 48  1  0  0  0
 42 43  1  0  0  0
 42 66  1  0  0  0
 42113  1  0  0  0
 42114  1  0  0  0
 43 44  1  0  0  0
 44115  1  0  0  0
 45 46  2  0  0  0
 45116  1  0  0  0
 46117  1  0  0  0
 47118  1  0  0  0
 47119  1  0  0  0
 48 56  1  0  0  0
 48 65  1  0  0  0
 48120  1  0  0  0
 49 50  1  0  0  0
 49 53  1  0  0  0
 49 64  1  0  0  0
 49121  1  0  0  0
 50 51  1  0  0  0
 50122  1  0  0  0
 50123  1  0  0  0
 51 52  1  0  0  0
 51124  1  0  0  0
 51125  1  0  0  0
 52126  1  0  0  0
 52127  1  0  0  0
 53 54  1  0  0  0
 54 55  2  0  0  0
 54128  1  0  0  0
 55 57  1  0  0  0
 55129  1  0  0  0
 56 69  2  0  0  0
 57 58  2  0  0  0
 57130  1  0  0  0
 58131  1  0  0  0
 59 60  1  0  0  0
 59 61  1  0  0  0
 59 62  1  0  0  0
 60132  1  0  0  0
 60133  1  0  0  0
 60134  1  0  0  0
 61135  1  0  0  0
 61136  1  0  0  0
 61137  1  0  0  0
 62138  1  0  0  0
 62139  1  0  0  0
 62140  1  0  0  0
 63 65  1  0  0  0
 63141  1  0  0  0
 63142  1  0  0  0
 63143  1  0  0  0
 64144  1  0  0  0
 65145  1  0  0  0
 68 82  1  0  0  0
 71 72  2  0  0  0
 71 75  1  0  0  0
 71146  1  0  0  0
 72 76  1  0  0  0
 72147  1  0  0  0
 73 74  1  0  0  0
 73 76  2  0  0  0
 73148  1  0  0  0
 74 75  2  0  0  0
 74 80  1  0  0  0
 75 83  1  0  0  0
 76 86  1  0  0  0
 77 78  2  0  0  0
 77 79  1  0  0  0
 77149  1  0  0  0
 78 81  1  0  0  0
 78 85  1  0  0  0
 79 82  1  0  0  0
 79 84  2  0  0  0
 80 81  1  0  0  0
 80150  1  0  0  0
 80151  1  0  0  0
 81152  1  0  0  0
 81153  1  0  0  0
 82154  1  0  0  0
 82155  1  0  0  0
 83156  1  0  0  0
 85157  1  0  0  0
M  ISO  4   1 100  68 101  82 101  83 100
M  END
> <chiral flag>
0

> <version>
0

> <s_m_source_file>
/data/baiqing/PycharmProjects/Reinvent-master-3.2/result/LINK_invent/BTK/process_docking_weight1_custom_product_contain_oxygen_bond_distance_aromatic_linkinvent_7_9_3/rearranged_h_0170.sdf

> <i_m_source_file_index>
61

> <r_mmod_Potential_Energy-OPLS-2005>
24.4676895141602

> <r_mmod_Stretch_Energy-OPLS-2005>
68.1189346313477

> <r_mmod_Bend_Energy-OPLS-2005>
141.674209594727

> <r_mmod_Torsional_Energy-OPLS-2005>
206.629608154297

> <r_mmod_Improper_Torsional_Energy-OPLS-2005>
4.23219013214111

> <r_mmod_Van_der_Waal_Energy-OPLS-2005>
153.296936035156

> <r_mmod_Electrostatic_Energy-OPLS-2005>
-354.980194091797

> <r_mmod_Solvation_Energy-OPLS-2005>
-224.799942016602

> <b_mmod_Minimization_Converged-OPLS-2005>
0

> <r_mmod_RMS_Derivative-OPLS-2005>
0.31738805770874

$$$$
61
                    3D
 Structure written by MMmdl.
150158  0  0  1  0            999 V2000
  -30.6178  -14.6499   20.4974 C   0  0  0  0  0  0
  -30.4402  -12.3980   19.4568 C   0  0  0  0  0  0
  -29.5099  -12.5062   18.2275 C   0  0  0  0  0  0
  -28.0329  -12.3416   18.6388 C   0  0  0  0  0  0
  -27.6535  -13.2157   19.8636 C   0  0  2  0  0  0
  -28.6977  -13.0758   20.9947 C   0  0  0  0  0  0
  -25.2563  -13.8164   20.5683 C   0  0  0  0  0  0
  -24.1831  -13.0434   20.9197 C   0  0  0  0  0  0
  -24.6397  -11.6904   20.8743 C   0  0  0  0  0  0
  -23.9064  -10.4289   21.0407 C   0  0  0  0  0  0
  -24.3616   -9.4205   21.9184 C   0  0  0  0  0  0
  -23.6292   -8.2240   22.0753 C   0  0  0  0  0  0
  -22.4274   -8.0279   21.3544 C   0  0  0  0  0  0
  -21.9909   -9.0253   20.4646 C   0  0  0  0  0  0
  -22.7236  -10.2133   20.3056 C   0  0  0  0  0  0
  -21.6852   -6.0735   22.5280 C   0  0  0  0  0  0
  -21.4013   -6.5639   23.8213 C   0  0  0  0  0  0
  -21.3659   -5.6792   24.9174 C   0  0  0  0  0  0
  -21.6045   -4.3055   24.7225 C   0  0  0  0  0  0
  -21.8819   -3.8146   23.4346 C   0  0  0  0  0  0
  -21.9193   -4.6963   22.3402 C   0  0  0  0  0  0
  -22.7854  -13.5232   21.1860 C   0  0  0  0  0  0
  -22.1662   -4.2149   21.0980 F   0  0  0  0  0  0
  -21.5630   -3.4538   25.7737 F   0  0  0  0  0  0
  -30.0130  -13.4211   20.4327 N   0  0  0  0  0  0
  -26.2989  -12.9344   20.3313 N   0  0  0  0  0  0
  -25.9324  -11.6500   20.5757 N   0  0  0  0  0  0
  -22.0495  -12.8222   22.0414 N   0  0  0  0  0  0
  -25.4275  -15.1885   20.4078 N   0  0  0  0  0  0
  -31.7768  -14.8149   20.1080 O   0  0  0  0  0  0
  -21.6639   -6.8876   21.4240 O   0  0  0  0  0  0
  -22.3543  -14.5539   20.6708 O   0  0  0  0  0  0
  -24.6263  -31.8599   23.2032 C   0  0  0  0  0  0
  -25.9110  -32.4781   23.8360 C   0  0  1  0  0  0
  -27.2223  -27.3164   20.1214 C   0  0  0  0  0  0
  -25.5926  -33.8581   24.2286 N   0  0  0  0  0  0
  -23.4205  -30.4840   21.5456 C   0  0  2  0  0  0
  -24.8681  -28.9398   20.1122 C   0  0  0  0  0  0
  -22.7477  -29.4625   22.4936 C   0  0  0  0  0  0
  -18.0285  -28.1385   22.8490 C   0  0  0  0  0  0
  -24.1487  -36.7292   23.2638 C   0  0  0  0  0  0
  -25.9625  -30.7899   21.3759 C   0  0  0  0  0  0
  -26.0375  -29.4169   20.7186 C   0  0  0  0  0  0
  -27.2200  -28.6174   20.7135 C   0  0  0  0  0  0
  -26.0353  -26.9008   19.4771 C   0  0  0  0  0  0
  -24.8692  -27.6871   19.4817 C   0  0  0  0  0  0
  -23.6360  -29.8197   20.1609 C   0  0  0  0  0  0
  -25.4113  -36.3085   24.0329 C   0  0  1  0  0  0
  -20.5887  -28.3688   23.1283 C   0  0  2  0  0  0
  -20.6774  -26.9411   22.5409 C   0  0  0  0  0  0
  -19.5749  -26.6384   21.5212 C   0  0  0  0  0  0
  -18.1930  -26.7929   22.1625 C   0  0  0  0  0  0
  -19.1539  -28.8853   23.2881 C   0  0  0  0  0  0
  -18.9462  -30.1456   23.8895 C   0  0  0  0  0  0
  -17.6462  -30.6588   24.0564 C   0  0  0  0  0  0
  -25.9050  -34.9454   23.5107 C   0  0  0  0  0  0
  -16.5353  -29.9086   23.6334 C   0  0  0  0  0  0
  -16.7273  -28.6504   23.0355 C   0  0  0  0  0  0
  -26.4496  -31.6591   25.0730 C   0  0  0  0  0  0
  -25.3732  -31.3731   26.1459 C   0  0  0  0  0  0
  -27.0339  -30.3016   24.6183 C   0  0  0  0  0  0
  -27.6057  -32.4327   25.7501 C   0  0  0  0  0  0
  -27.5580  -37.1801   24.8466 C   0  0  0  0  0  0
  -21.4189  -29.3044   22.3679 N   0  0  0  0  0  0
  -26.4291  -37.3779   23.9409 N   0  0  0  0  0  0
  -24.6886  -31.0609   22.0986 N   0  0  0  0  0  0
  -23.4201  -28.8158   23.3010 O   0  0  0  0  0  0
  -28.3230  -26.4468   20.1571 O   0  0  0  0  0  0
  -26.5614  -34.8920   22.4671 O   0  0  0  0  0  0
  -23.5427  -32.1396   23.7359 O   0  0  0  0  0  0
  -31.0017  -17.8320   20.0466 C   0  0  0  0  0  0
  -28.8618  -18.0103   21.0926 C   0  0  0  0  0  0
  -29.9189  -17.1552   20.6670 C   0  0  0  0  0  0
  -30.9708  -19.2486   19.8881 C   0  0  0  0  0  0
  -29.8608  -20.0044   20.3473 C   0  0  0  0  0  0
  -29.0956  -23.9329   20.1979 C   0  0  0  0  0  0
  -28.8017  -22.4144   20.5477 C   0  0  0  0  0  0
  -28.0236  -25.0407   20.5442 C   0  0  0  0  0  0
  -28.8212  -19.3742   20.9456 N   0  0  0  0  0  0
  -29.8131  -15.6996   20.8618 N   0  0  0  0  0  0
  -29.8570  -21.4240   20.1699 N   0  0  0  0  0  0
  -30.1634  -24.2357   19.6524 O   0  0  0  0  0  0
  -32.0096  -19.8823   19.2889 F   0  0  0  0  0  0
  -31.4811  -12.5260   19.1547 H   0  0  0  0  0  0
  -30.3791  -11.4033   19.9011 H   0  0  0  0  0  0
  -29.7769  -11.7525   17.4856 H   0  0  0  0  0  0
  -29.6499  -13.4741   17.7434 H   0  0  0  0  0  0
  -27.8731  -11.2889   18.8749 H   0  0  0  0  0  0
  -27.3780  -12.5658   17.7962 H   0  0  0  0  0  0
  -27.6707  -14.2496   19.5189 H   0  0  0  0  0  0
  -28.7113  -12.0548   21.3795 H   0  0  0  0  0  0
  -28.4404  -13.7090   21.8451 H   0  0  0  0  0  0
  -25.2761   -9.5681   22.4756 H   0  0  0  0  0  0
  -24.0003   -7.4631   22.7471 H   0  0  0  0  0  0
  -21.0841   -8.8771   19.8951 H   0  0  0  0  0  0
  -22.3695  -10.9672   19.6164 H   0  0  0  0  0  0
  -21.2003   -7.6147   23.9716 H   0  0  0  0  0  0
  -21.1482   -6.0522   25.9078 H   0  0  0  0  0  0
  -22.0598   -2.7609   23.2846 H   0  0  0  0  0  0
  -22.4109  -11.9880   22.4796 H   0  0  0  0  0  0
  -21.1115  -13.1249   22.2623 H   0  0  0  0  0  0
  -24.6534  -15.8373   20.5007 H   0  0  0  0  0  0
  -26.2616  -15.6204   20.0321 H   0  0  0  0  0  0
  -26.7178  -32.5452   23.1110 H   0  0  0  0  0  0
  -25.0087  -33.9728   25.0440 H   0  0  0  0  0  0
  -22.7145  -31.3048   21.4029 H   0  0  0  0  0  0
  -23.3751  -35.9622   23.3302 H   0  0  0  0  0  0
  -24.3581  -36.8912   22.2053 H   0  0  0  0  0  0
  -23.7236  -37.6494   23.6657 H   0  0  0  0  0  0
  -26.0947  -31.5535   20.6079 H   0  0  0  0  0  0
  -26.8428  -30.8385   22.0052 H   0  0  0  0  0  0
  -28.1163  -28.9781   21.1986 H   0  0  0  0  0  0
  -25.9893  -25.9550   18.9581 H   0  0  0  0  0  0
  -23.9765  -27.3210   18.9932 H   0  0  0  0  0  0
  -23.7549  -30.5964   19.4045 H   0  0  0  0  0  0
  -22.7561  -29.2486   19.8586 H   0  0  0  0  0  0
  -25.1294  -36.1938   25.0822 H   0  0  0  0  0  0
  -20.9980  -28.3257   24.1402 H   0  0  0  0  0  0
  -20.5676  -26.2295   23.3608 H   0  0  0  0  0  0
  -21.6642  -26.7440   22.1200 H   0  0  0  0  0  0
  -19.6909  -25.6294   21.1243 H   0  0  0  0  0  0
  -19.6688  -27.3194   20.6741 H   0  0  0  0  0  0
  -17.4200  -26.6679   21.4026 H   0  0  0  0  0  0
  -18.0329  -26.0071   22.9022 H   0  0  0  0  0  0
  -19.7938  -30.7275   24.2260 H   0  0  0  0  0  0
  -17.5017  -31.6270   24.5162 H   0  0  0  0  0  0
  -15.5354  -30.2989   23.7658 H   0  0  0  0  0  0
  -15.8673  -28.0824   22.7069 H   0  0  0  0  0  0
  -24.5902  -30.7085   25.7789 H   0  0  0  0  0  0
  -24.8928  -32.2899   26.4887 H   0  0  0  0  0  0
  -25.8059  -30.8907   27.0232 H   0  0  0  0  0  0
  -26.2912  -29.6768   24.1207 H   0  0  0  0  0  0
  -27.4040  -29.7271   25.4684 H   0  0  0  0  0  0
  -27.8781  -30.4307   23.9407 H   0  0  0  0  0  0
  -27.2669  -33.3630   26.2072 H   0  0  0  0  0  0
  -28.3870  -32.6883   25.0330 H   0  0  0  0  0  0
  -28.0721  -31.8455   26.5422 H   0  0  0  0  0  0
  -28.2597  -38.0099   24.7517 H   0  0  0  0  0  0
  -28.1077  -36.2631   24.6286 H   0  0  0  0  0  0
  -27.2300  -37.1443   25.8869 H   0  0  0  0  0  0
  -20.9363  -29.8776   21.6901 H   0  0  0  0  0  0
  -26.0174  -38.2854   24.1413 H   0  0  0  0  0  0
  -31.8583  -17.2899   19.6775 H   0  0  0  0  0  0
  -27.9937  -17.5802   21.5707 H   0  0  0  0  0  0
  -27.8675  -22.1302   20.0631 H   0  0  0  0  0  0
  -28.6260  -22.3434   21.6213 H   0  0  0  0  0  0
  -27.8745  -25.0217   21.6238 H   0  0  0  0  0  0
  -27.0889  -24.6913   20.1126 H   0  0  0  0  0  0
  -28.9236  -15.3899   21.2258 H   0  0  0  0  0  0
  -30.6726  -21.8179   19.7101 H   0  0  0  0  0  0
  1 25  1  0  0  0
  1 30  2  0  0  0
  1 80  1  0  0  0
  2  3  1  0  0  0
  2 25  1  0  0  0
  2 84  1  0  0  0
  2 85  1  0  0  0
  3  4  1  0  0  0
  3 86  1  0  0  0
  3 87  1  0  0  0
  4  5  1  0  0  0
  4 88  1  0  0  0
  4 89  1  0  0  0
  5  6  1  0  0  0
  5 26  1  0  0  0
  5 90  1  0  0  0
  6 25  1  0  0  0
  6 91  1  0  0  0
  6 92  1  0  0  0
  7  8  2  0  0  0
  7 26  1  0  0  0
  7 29  1  0  0  0
  8  9  1  0  0  0
  8 22  1  0  0  0
  9 10  1  0  0  0
  9 27  2  0  0  0
 10 11  2  0  0  0
 10 15  1  0  0  0
 11 12  1  0  0  0
 11 93  1  0  0  0
 12 13  2  0  0  0
 12 94  1  0  0  0
 13 14  1  0  0  0
 13 31  1  0  0  0
 14 15  2  0  0  0
 14 95  1  0  0  0
 15 96  1  0  0  0
 16 17  2  0  0  0
 16 21  1  0  0  0
 16 31  1  0  0  0
 17 18  1  0  0  0
 17 97  1  0  0  0
 18 19  2  0  0  0
 18 98  1  0  0  0
 19 20  1  0  0  0
 19 24  1  0  0  0
 20 21  2  0  0  0
 20 99  1  0  0  0
 21 23  1  0  0  0
 22 28  1  0  0  0
 22 32  2  0  0  0
 26 27  1  0  0  0
 28100  1  0  0  0
 28101  1  0  0  0
 29102  1  0  0  0
 29103  1  0  0  0
 33 34  1  0  0  0
 33 66  1  0  0  0
 33 70  2  0  0  0
 34 36  1  0  0  0
 34 59  1  0  0  0
 34104  1  0  0  0
 35 44  2  0  0  0
 35 45  1  0  0  0
 35 68  1  0  0  0
 36 56  1  0  0  0
 36105  1  0  0  0
 37 39  1  0  0  0
 37 47  1  0  0  0
 37 66  1  0  0  0
 37106  1  0  0  0
 38 43  2  0  0  0
 38 46  1  0  0  0
 38 47  1  0  0  0
 39 64  1  0  0  0
 39 67  2  0  0  0
 40 52  1  0  0  0
 40 53  2  0  0  0
 40 58  1  0  0  0
 41107  1  0  0  0
 41108  1  0  0  0
 41109  1  0  0  0
 41 48  1  0  0  0
 42 43  1  0  0  0
 42 66  1  0  0  0
 42110  1  0  0  0
 42111  1  0  0  0
 43 44  1  0  0  0
 44112  1  0  0  0
 45 46  2  0  0  0
 45113  1  0  0  0
 46114  1  0  0  0
 47115  1  0  0  0
 47116  1  0  0  0
 48 56  1  0  0  0
 48 65  1  0  0  0
 48117  1  0  0  0
 49 50  1  0  0  0
 49 53  1  0  0  0
 49 64  1  0  0  0
 49118  1  0  0  0
 50 51  1  0  0  0
 50119  1  0  0  0
 50120  1  0  0  0
 51 52  1  0  0  0
 51121  1  0  0  0
 51122  1  0  0  0
 52123  1  0  0  0
 52124  1  0  0  0
 53 54  1  0  0  0
 54 55  2  0  0  0
 54125  1  0  0  0
 55 57  1  0  0  0
 55126  1  0  0  0
 56 69  2  0  0  0
 57 58  2  0  0  0
 57127  1  0  0  0
 58128  1  0  0  0
 59 60  1  0  0  0
 59 61  1  0  0  0
 59 62  1  0  0  0
 60129  1  0  0  0
 60130  1  0  0  0
 60131  1  0  0  0
 61132  1  0  0  0
 61133  1  0  0  0
 61134  1  0  0  0
 62135  1  0  0  0
 62136  1  0  0  0
 62137  1  0  0  0
 63 65  1  0  0  0
 63138  1  0  0  0
 63139  1  0  0  0
 63140  1  0  0  0
 64141  1  0  0  0
 65142  1  0  0  0
 68 78  1  0  0  0
 71 73  2  0  0  0
 71 74  1  0  0  0
 71143  1  0  0  0
 72 73  1  0  0  0
 72 79  2  0  0  0
 72144  1  0  0  0
 73 80  1  0  0  0
 74 75  2  0  0  0
 74 83  1  0  0  0
 75 79  1  0  0  0
 75 81  1  0  0  0
 76 77  1  0  0  0
 76 78  1  0  0  0
 76 82  2  0  0  0
 77 81  1  0  0  0
 77145  1  0  0  0
 77146  1  0  0  0
 78147  1  0  0  0
 78148  1  0  0  0
 80149  1  0  0  0
 81150  1  0  0  0
M  ISO  4   1 100  68 101  78 101  80 100
M  END
> <chiral flag>
0

> <version>
0

> <s_m_source_file>
/data/baiqing/PycharmProjects/Reinvent-master-3.2/result/LINK_invent/BTK/process_docking_weight1_custom_product_contain_oxygen_bond_distance_aromatic_linkinvent_7_9_3/rearranged_h_0170.sdf

> <i_m_source_file_index>
62

> <r_mmod_Potential_Energy-OPLS-2005>
-144.992919921875

> <r_mmod_Stretch_Energy-OPLS-2005>
78.8335113525391

> <r_mmod_Bend_Energy-OPLS-2005>
144.359222412109

> <r_mmod_Torsional_Energy-OPLS-2005>
210.772369384766

> <r_mmod_Improper_Torsional_Energy-OPLS-2005>
4.04822683334351

> <r_mmod_Van_der_Waal_Energy-OPLS-2005>
146.01399230957

> <r_mmod_Electrostatic_Energy-OPLS-2005>
-536.500305175781

> <r_mmod_Solvation_Energy-OPLS-2005>
-244.41145324707

> <b_mmod_Minimization_Converged-OPLS-2005>
0

> <r_mmod_RMS_Derivative-OPLS-2005>
0.340102761983871

$$$$
62
                    3D
 Structure written by MMmdl.
162170  0  0  1  0            999 V2000
  -30.7410  -14.5461   20.5808 C   0  0  0  0  0  0
  -30.3834  -12.3622   19.4701 C   0  0  0  0  0  0
  -29.4808  -12.4943   18.2273 C   0  0  0  0  0  0
  -28.0039  -12.3315   18.6346 C   0  0  0  0  0  0
  -27.6262  -13.2243   19.8440 C   0  0  2  0  0  0
  -28.6638  -13.1120   20.9869 C   0  0  0  0  0  0
  -25.2410  -13.8209   20.5651 C   0  0  0  0  0  0
  -24.1699  -13.0468   20.9238 C   0  0  0  0  0  0
  -24.6297  -11.6941   20.8745 C   0  0  0  0  0  0
  -23.8992  -10.4323   21.0402 C   0  0  0  0  0  0
  -24.3563   -9.4229   21.9180 C   0  0  0  0  0  0
  -23.6265   -8.2251   22.0777 C   0  0  0  0  0  0
  -22.4244   -8.0286   21.3573 C   0  0  0  0  0  0
  -21.9843   -9.0239   20.4673 C   0  0  0  0  0  0
  -22.7159  -10.2128   20.3063 C   0  0  0  0  0  0
  -21.6845   -6.0715   22.5303 C   0  0  0  0  0  0
  -21.4010   -6.5631   23.8230 C   0  0  0  0  0  0
  -21.3654   -5.6789   24.9200 C   0  0  0  0  0  0
  -21.6033   -4.3060   24.7241 C   0  0  0  0  0  0
  -21.8822   -3.8152   23.4369 C   0  0  0  0  0  0
  -21.9173   -4.6957   22.3411 C   0  0  0  0  0  0
  -22.7727  -13.5280   21.1860 C   0  0  0  0  0  0
  -22.1654   -4.2141   21.0993 F   0  0  0  0  0  0
  -21.5605   -3.4541   25.7748 F   0  0  0  0  0  0
  -29.9759  -13.4240   20.4207 N   0  0  0  0  0  0
  -26.2807  -12.9407   20.3209 N   0  0  0  0  0  0
  -25.9201  -11.6559   20.5707 N   0  0  0  0  0  0
  -22.0347  -12.8328   22.0434 N   0  0  0  0  0  0
  -25.4070  -15.1933   20.4006 N   0  0  0  0  0  0
  -31.9305  -14.4857   20.2440 O   0  0  0  0  0  0
  -21.6643   -6.8867   21.4257 O   0  0  0  0  0  0
  -22.3434  -14.5565   20.6672 O   0  0  0  0  0  0
  -24.6176  -31.8688   23.2154 C   0  0  0  0  0  0
  -25.9047  -32.4803   23.8466 C   0  0  1  0  0  0
  -27.2226  -27.4306   20.1110 C   0  0  0  0  0  0
  -25.5908  -33.8617   24.2415 N   0  0  0  0  0  0
  -23.4029  -30.4990   21.5545 C   0  0  2  0  0  0
  -24.8459  -28.9723   20.1118 C   0  0  0  0  0  0
  -22.7401  -29.4655   22.4953 C   0  0  0  0  0  0
  -18.0273  -28.1359   22.8500 C   0  0  0  0  0  0
  -24.1472  -36.7332   23.2629 C   0  0  0  0  0  0
  -25.9293  -30.8464   21.3557 C   0  0  0  0  0  0
  -26.0093  -29.4786   20.7031 C   0  0  0  0  0  0
  -27.2018  -28.7158   20.6983 C   0  0  0  0  0  0
  -26.0400  -26.9451   19.5000 C   0  0  0  0  0  0
  -24.8571  -27.7038   19.5067 C   0  0  0  0  0  0
  -23.6116  -29.8451   20.1620 C   0  0  0  0  0  0
  -25.4071  -36.3115   24.0362 C   0  0  1  0  0  0
  -20.5870  -28.3633   23.1318 C   0  0  2  0  0  0
  -20.6729  -26.9369   22.5406 C   0  0  0  0  0  0
  -19.5696  -26.6372   21.5207 C   0  0  0  0  0  0
  -18.1892  -26.7898   22.1637 C   0  0  0  0  0  0
  -19.1526  -28.8809   23.2921 C   0  0  0  0  0  0
  -18.9438  -30.1421   23.8921 C   0  0  0  0  0  0
  -17.6447  -30.6553   24.0581 C   0  0  0  0  0  0
  -25.9003  -34.9473   23.5187 C   0  0  0  0  0  0
  -16.5351  -29.9059   23.6321 C   0  0  0  0  0  0
  -16.7274  -28.6487   23.0328 C   0  0  0  0  0  0
  -26.4505  -31.6546   25.0770 C   0  0  0  0  0  0
  -25.3854  -31.3549   26.1566 C   0  0  0  0  0  0
  -27.0267  -30.3003   24.6019 C   0  0  0  0  0  0
  -27.6113  -32.4251   25.7516 C   0  0  0  0  0  0
  -27.5582  -37.1818   24.8478 C   0  0  0  0  0  0
  -21.4128  -29.3039   22.3745 N   0  0  0  0  0  0
  -26.4268  -37.3801   23.9436 N   0  0  0  0  0  0
  -24.6689  -31.0837   22.1015 N   0  0  0  0  0  0
  -23.4209  -28.8184   23.2936 O   0  0  0  0  0  0
  -28.3821  -26.6836   20.1626 O   0  0  0  0  0  0
  -26.5548  -34.8932   22.4742 O   0  0  0  0  0  0
  -23.5376  -32.1403   23.7558 O   0  0  0  0  0  0
  -28.1008  -18.4460   20.4203 C   0  0  0  0  0  0
  -27.9135  -19.8493   20.4078 C   0  0  0  0  0  0
  -28.6593  -19.9606   22.7008 C   0  0  0  0  0  0
  -28.6259  -17.7724   21.5555 C   0  0  0  0  0  0
  -28.8680  -18.5584   22.7206 C   0  0  0  0  0  0
  -28.2630  -20.6427   21.5258 C   0  0  0  0  0  0
  -28.2888  -25.3262   19.9540 C   0  0  0  0  0  0
  -28.4700  -24.3697   20.9005 C   0  0  0  0  0  0
  -28.3124  -22.9563   20.5006 C   0  0  0  0  0  0
  -29.4327  -17.9520   23.9988 C   0  0  0  0  0  0
  -28.9552  -16.2476   21.4821 C   0  0  0  0  0  0
  -31.0407  -16.9104   20.2295 C   0  0  0  0  0  0
  -31.0777  -16.9025   18.6837 C   0  0  0  0  0  0
  -28.2578  -22.0828   21.5384 N   0  0  0  0  0  0
  -30.1854  -15.8068   20.7423 N   0  0  0  0  0  0
  -28.2190  -22.6034   19.3242 O   0  0  0  0  0  0
  -28.8096  -24.7087   22.1552 O   0  0  0  0  0  0
  -29.8778  -16.5567   18.2048 F   0  0  0  0  0  0
  -31.4130  -18.1098   18.2251 F   0  0  0  0  0  0
  -31.4322  -12.4132   19.1732 H   0  0  0  0  0  0
  -30.2678  -11.3809   19.9359 H   0  0  0  0  0  0
  -29.7477  -11.7492   17.4717 H   0  0  0  0  0  0
  -29.6315  -13.4671   17.7589 H   0  0  0  0  0  0
  -27.8445  -11.2808   18.8834 H   0  0  0  0  0  0
  -27.3495  -12.5399   17.7865 H   0  0  0  0  0  0
  -27.6277  -14.2442   19.4613 H   0  0  0  0  0  0
  -28.6637  -12.0985   21.3864 H   0  0  0  0  0  0
  -28.4111  -13.7477   21.8318 H   0  0  0  0  0  0
  -25.2691   -9.5720   22.4796 H   0  0  0  0  0  0
  -23.9968   -7.4636   22.7505 H   0  0  0  0  0  0
  -21.0778   -8.8735   19.9010 H   0  0  0  0  0  0
  -22.3575  -10.9658   19.6208 H   0  0  0  0  0  0
  -21.2043   -7.6151   23.9741 H   0  0  0  0  0  0
  -21.1456   -6.0519   25.9088 H   0  0  0  0  0  0
  -22.0600   -2.7602   23.2871 H   0  0  0  0  0  0
  -22.3850  -11.9957   22.4812 H   0  0  0  0  0  0
  -21.1018  -13.1467   22.2658 H   0  0  0  0  0  0
  -24.6269  -15.8404   20.4894 H   0  0  0  0  0  0
  -26.2276  -15.6264   19.9978 H   0  0  0  0  0  0
  -26.7133  -32.5527   23.1257 H   0  0  0  0  0  0
  -25.0133  -33.9791   25.0606 H   0  0  0  0  0  0
  -22.6909  -31.3177   21.4217 H   0  0  0  0  0  0
  -23.3726  -35.9685   23.3274 H   0  0  0  0  0  0
  -24.3586  -36.8946   22.2050 H   0  0  0  0  0  0
  -23.7250  -37.6553   23.6641 H   0  0  0  0  0  0
  -26.0326  -31.6206   20.5922 H   0  0  0  0  0  0
  -26.8221  -30.9076   21.9633 H   0  0  0  0  0  0
  -28.1040  -29.1010   21.1516 H   0  0  0  0  0  0
  -26.0065  -25.9772   19.0243 H   0  0  0  0  0  0
  -23.9591  -27.3035   19.0550 H   0  0  0  0  0  0
  -23.7309  -30.6369   19.4173 H   0  0  0  0  0  0
  -22.7268  -29.2848   19.8479 H   0  0  0  0  0  0
  -25.1237  -36.1996   25.0862 H   0  0  0  0  0  0
  -21.0020  -28.3189   24.1429 H   0  0  0  0  0  0
  -20.5532  -26.2274   23.3603 H   0  0  0  0  0  0
  -21.6602  -26.7319   22.1272 H   0  0  0  0  0  0
  -19.6830  -25.6282   21.1218 H   0  0  0  0  0  0
  -19.6622  -27.3186   20.6739 H   0  0  0  0  0  0
  -17.4160  -26.6697   21.4041 H   0  0  0  0  0  0
  -18.0285  -26.0007   22.8999 H   0  0  0  0  0  0
  -19.7916  -30.7250   24.2303 H   0  0  0  0  0  0
  -17.4978  -31.6218   24.5170 H   0  0  0  0  0  0
  -15.5335  -30.2963   23.7560 H   0  0  0  0  0  0
  -15.8689  -28.0808   22.6985 H   0  0  0  0  0  0
  -24.6130  -30.6723   25.8017 H   0  0  0  0  0  0
  -24.8896  -32.2594   26.5100 H   0  0  0  0  0  0
  -25.8352  -30.8810   27.0284 H   0  0  0  0  0  0
  -26.2716  -29.6792   24.1161 H   0  0  0  0  0  0
  -27.4159  -29.7222   25.4406 H   0  0  0  0  0  0
  -27.8541  -30.4342   23.9036 H   0  0  0  0  0  0
  -27.2773  -33.3569   26.2092 H   0  0  0  0  0  0
  -28.3920  -32.6723   25.0319 H   0  0  0  0  0  0
  -28.0750  -31.8333   26.5411 H   0  0  0  0  0  0
  -28.2600  -38.0109   24.7499 H   0  0  0  0  0  0
  -28.1062  -36.2640   24.6295 H   0  0  0  0  0  0
  -27.2317  -37.1489   25.8888 H   0  0  0  0  0  0
  -20.9250  -29.8918   21.7138 H   0  0  0  0  0  0
  -26.0155  -38.2891   24.1437 H   0  0  0  0  0  0
  -27.8658  -17.9024   19.5180 H   0  0  0  0  0  0
  -27.5088  -20.2986   19.5127 H   0  0  0  0  0  0
  -28.8435  -20.5258   23.6031 H   0  0  0  0  0  0
  -28.0607  -25.0950   18.9261 H   0  0  0  0  0  0
  -28.7901  -17.1675   24.3993 H   0  0  0  0  0  0
  -29.5428  -18.7018   24.7855 H   0  0  0  0  0  0
  -30.4206  -17.5337   23.8067 H   0  0  0  0  0  0
  -29.0067  -15.8399   22.4911 H   0  0  0  0  0  0
  -28.0887  -15.7828   21.0210 H   0  0  0  0  0  0
  -30.7631  -17.9054   20.5540 H   0  0  0  0  0  0
  -32.0370  -16.8295   20.6652 H   0  0  0  0  0  0
  -31.8149  -16.2029   18.2721 H   0  0  0  0  0  0
  -28.3406  -22.5103   22.4445 H   0  0  0  0  0  0
  -29.2340  -23.9596   22.5549 H   0  0  0  0  0  0
  1 25  1  0  0  0
  1 30  2  0  0  0
  1 85  1  0  0  0
  2  3  1  0  0  0
  2 25  1  0  0  0
  2 90  1  0  0  0
  2 91  1  0  0  0
  3  4  1  0  0  0
  3 92  1  0  0  0
  3 93  1  0  0  0
  4  5  1  0  0  0
  4 94  1  0  0  0
  4 95  1  0  0  0
  5  6  1  0  0  0
  5 26  1  0  0  0
  5 96  1  0  0  0
  6 25  1  0  0  0
  6 97  1  0  0  0
  6 98  1  0  0  0
  7  8  2  0  0  0
  7 26  1  0  0  0
  7 29  1  0  0  0
  8  9  1  0  0  0
  8 22  1  0  0  0
  9 10  1  0  0  0
  9 27  2  0  0  0
 10 11  2  0  0  0
 10 15  1  0  0  0
 11 12  1  0  0  0
 11 99  1  0  0  0
 12 13  2  0  0  0
 12100  1  0  0  0
 13 14  1  0  0  0
 13 31  1  0  0  0
 14 15  2  0  0  0
 14101  1  0  0  0
 15102  1  0  0  0
 16 17  2  0  0  0
 16 21  1  0  0  0
 16 31  1  0  0  0
 17 18  1  0  0  0
 17103  1  0  0  0
 18 19  2  0  0  0
 18104  1  0  0  0
 19 20  1  0  0  0
 19 24  1  0  0  0
 20 21  2  0  0  0
 20105  1  0  0  0
 21 23  1  0  0  0
 22 28  1  0  0  0
 22 32  2  0  0  0
 26 27  1  0  0  0
 28106  1  0  0  0
 28107  1  0  0  0
 29108  1  0  0  0
 29109  1  0  0  0
 33 34  1  0  0  0
 33 66  1  0  0  0
 33 70  2  0  0  0
 34 36  1  0  0  0
 34 59  1  0  0  0
 34110  1  0  0  0
 35 44  2  0  0  0
 35 45  1  0  0  0
 35 68  1  0  0  0
 36 56  1  0  0  0
 36111  1  0  0  0
 37 39  1  0  0  0
 37 47  1  0  0  0
 37 66  1  0  0  0
 37112  1  0  0  0
 38 43  2  0  0  0
 38 46  1  0  0  0
 38 47  1  0  0  0
 39 64  1  0  0  0
 39 67  2  0  0  0
 40 52  1  0  0  0
 40 53  2  0  0  0
 40 58  1  0  0  0
 41113  1  0  0  0
 41114  1  0  0  0
 41115  1  0  0  0
 41 48  1  0  0  0
 42 43  1  0  0  0
 42 66  1  0  0  0
 42116  1  0  0  0
 42117  1  0  0  0
 43 44  1  0  0  0
 44118  1  0  0  0
 45 46  2  0  0  0
 45119  1  0  0  0
 46120  1  0  0  0
 47121  1  0  0  0
 47122  1  0  0  0
 48 56  1  0  0  0
 48 65  1  0  0  0
 48123  1  0  0  0
 49 50  1  0  0  0
 49 53  1  0  0  0
 49 64  1  0  0  0
 49124  1  0  0  0
 50 51  1  0  0  0
 50125  1  0  0  0
 50126  1  0  0  0
 51 52  1  0  0  0
 51127  1  0  0  0
 51128  1  0  0  0
 52129  1  0  0  0
 52130  1  0  0  0
 53 54  1  0  0  0
 54 55  2  0  0  0
 54131  1  0  0  0
 55 57  1  0  0  0
 55132  1  0  0  0
 56 69  2  0  0  0
 57 58  2  0  0  0
 57133  1  0  0  0
 58134  1  0  0  0
 59 60  1  0  0  0
 59 61  1  0  0  0
 59 62  1  0  0  0
 60135  1  0  0  0
 60136  1  0  0  0
 60137  1  0  0  0
 61138  1  0  0  0
 61139  1  0  0  0
 61140  1  0  0  0
 62141  1  0  0  0
 62142  1  0  0  0
 62143  1  0  0  0
 63 65  1  0  0  0
 63144  1  0  0  0
 63145  1  0  0  0
 63146  1  0  0  0
 64147  1  0  0  0
 65148  1  0  0  0
 68 77  1  0  0  0
 71 72  2  0  0  0
 71 74  1  0  0  0
 71149  1  0  0  0
 72 76  1  0  0  0
 72150  1  0  0  0
 73 75  1  0  0  0
 73 76  2  0  0  0
 73151  1  0  0  0
 74 75  2  0  0  0
 74 81  1  0  0  0
 75 80  1  0  0  0
 76 84  1  0  0  0
 77 78  2  0  0  0
 77152  1  0  0  0
 78 79  1  0  0  0
 78 87  1  0  0  0
 79 84  1  0  0  0
 79 86  2  0  0  0
 80153  1  0  0  0
 80154  1  0  0  0
 80155  1  0  0  0
 81 85  1  0  0  0
 81156  1  0  0  0
 81157  1  0  0  0
 82 83  1  0  0  0
 82 85  1  0  0  0
 82158  1  0  0  0
 82159  1  0  0  0
 83 88  1  0  0  0
 83 89  1  0  0  0
 83160  1  0  0  0
 84161  1  0  0  0
 87162  1  0  0  0
M  ISO  4   1 100  68 101  77 101  85 100
M  END
> <chiral flag>
0

> <version>
0

> <s_m_source_file>
/data/baiqing/PycharmProjects/Reinvent-master-3.2/result/LINK_invent/BTK/process_docking_weight1_custom_product_contain_oxygen_bond_distance_aromatic_linkinvent_7_9_3/rearranged_h_0170.sdf

> <i_m_source_file_index>
63

> <r_mmod_Potential_Energy-OPLS-2005>
109.708229064941

> <r_mmod_Stretch_Energy-OPLS-2005>
57.4789009094238

> <r_mmod_Bend_Energy-OPLS-2005>
141.446044921875

> <r_mmod_Torsional_Energy-OPLS-2005>
285.148376464844

> <r_mmod_Improper_Torsional_Energy-OPLS-2005>
10.9097909927368

> <r_mmod_Van_der_Waal_Energy-OPLS-2005>
185.609268188477

> <r_mmod_Electrostatic_Energy-OPLS-2005>
-384.35986328125

> <r_mmod_Solvation_Energy-OPLS-2005>
-221.248962402344

> <b_mmod_Minimization_Converged-OPLS-2005>
0

> <r_mmod_RMS_Derivative-OPLS-2005>
8.49542140960693

$$$$
63
                    3D
 Structure written by MMmdl.
165173  0  0  1  0            999 V2000
  -30.5888  -14.5621   20.6129 C   0  0  0  0  0  0
  -30.4570  -12.3724   19.4252 C   0  0  0  0  0  0
  -29.5120  -12.5315   18.2092 C   0  0  0  0  0  0
  -28.0290  -12.3668   18.6123 C   0  0  0  0  0  0
  -27.6632  -13.1896   19.8763 C   0  0  2  0  0  0
  -28.7028  -12.9295   20.9881 C   0  0  0  0  0  0
  -25.2602  -13.8108   20.5648 C   0  0  0  0  0  0
  -24.1820  -13.0425   20.9153 C   0  0  0  0  0  0
  -24.6336  -11.6872   20.8699 C   0  0  0  0  0  0
  -23.8977  -10.4282   21.0408 C   0  0  0  0  0  0
  -24.3546   -9.4215   21.9182 C   0  0  0  0  0  0
  -23.6255   -8.2233   22.0748 C   0  0  0  0  0  0
  -22.4244   -8.0252   21.3543 C   0  0  0  0  0  0
  -21.9855   -9.0214   20.4635 C   0  0  0  0  0  0
  -22.7155  -10.2122   20.3042 C   0  0  0  0  0  0
  -21.6850   -6.0715   22.5267 C   0  0  0  0  0  0
  -21.4009   -6.5620   23.8211 C   0  0  0  0  0  0
  -21.3659   -5.6770   24.9167 C   0  0  0  0  0  0
  -21.6046   -4.3039   24.7213 C   0  0  0  0  0  0
  -21.8820   -3.8127   23.4340 C   0  0  0  0  0  0
  -21.9187   -4.6933   22.3396 C   0  0  0  0  0  0
  -22.7862  -13.5272   21.1837 C   0  0  0  0  0  0
  -22.1663   -4.2137   21.0973 F   0  0  0  0  0  0
  -21.5641   -3.4518   25.7724 F   0  0  0  0  0  0
  -30.0228  -13.3261   20.4595 N   0  0  0  0  0  0
  -26.3002  -12.9218   20.3325 N   0  0  0  0  0  0
  -25.9256  -11.6404   20.5704 N   0  0  0  0  0  0
  -22.0464  -12.8293   22.0380 N   0  0  0  0  0  0
  -25.4388  -15.1814   20.4046 N   0  0  0  0  0  0
  -31.7036  -14.8390   20.1454 O   0  0  0  0  0  0
  -21.6621   -6.8857   21.4233 O   0  0  0  0  0  0
  -22.3569  -14.5573   20.6664 O   0  0  0  0  0  0
  -24.6212  -31.8638   23.2113 C   0  0  0  0  0  0
  -25.9076  -32.4809   23.8411 C   0  0  1  0  0  0
  -27.2313  -27.3817   20.1028 C   0  0  0  0  0  0
  -25.5932  -33.8611   24.2345 N   0  0  0  0  0  0
  -23.4119  -30.4859   21.5542 C   0  0  2  0  0  0
  -24.8554  -28.9488   20.1056 C   0  0  0  0  0  0
  -22.7467  -29.4618   22.5022 C   0  0  0  0  0  0
  -18.0287  -28.1385   22.8525 C   0  0  0  0  0  0
  -24.1452  -36.7226   23.2642 C   0  0  0  0  0  0
  -25.9432  -30.8176   21.3672 C   0  0  0  0  0  0
  -26.0191  -29.4521   20.6998 C   0  0  0  0  0  0
  -27.2061  -28.6799   20.6843 C   0  0  0  0  0  0
  -26.0449  -26.9000   19.5054 C   0  0  0  0  0  0
  -24.8662  -27.6772   19.5030 C   0  0  0  0  0  0
  -23.6197  -29.8234   20.1658 C   0  0  0  0  0  0
  -25.4088  -36.3089   24.0371 C   0  0  1  0  0  0
  -20.5886  -28.3655   23.1359 C   0  0  2  0  0  0
  -20.6764  -26.9392   22.5448 C   0  0  0  0  0  0
  -19.5721  -26.6404   21.5254 C   0  0  0  0  0  0
  -18.1908  -26.7942   22.1671 C   0  0  0  0  0  0
  -19.1536  -28.8847   23.2924 C   0  0  0  0  0  0
  -18.9444  -30.1471   23.8896 C   0  0  0  0  0  0
  -17.6436  -30.6585   24.0569 C   0  0  0  0  0  0
  -25.9033  -34.9464   23.5142 C   0  0  0  0  0  0
  -16.5342  -29.9085   23.6327 C   0  0  0  0  0  0
  -16.7285  -28.6518   23.0355 C   0  0  0  0  0  0
  -26.4498  -31.6609   25.0748 C   0  0  0  0  0  0
  -25.3780  -31.3701   26.1519 C   0  0  0  0  0  0
  -27.0323  -30.3060   24.6102 C   0  0  0  0  0  0
  -27.6064  -32.4367   25.7484 C   0  0  0  0  0  0
  -27.5575  -37.1756   24.8482 C   0  0  0  0  0  0
  -21.4188  -29.3016   22.3772 N   0  0  0  0  0  0
  -26.4254  -37.3812   23.9475 N   0  0  0  0  0  0
  -24.6771  -31.0705   22.1016 N   0  0  0  0  0  0
  -23.4225  -28.8165   23.3064 O   0  0  0  0  0  0
  -28.3998  -26.6301   20.1755 O   0  0  0  0  0  0
  -26.5559  -34.8938   22.4685 O   0  0  0  0  0  0
  -23.5395  -32.1440   23.7483 O   0  0  0  0  0  0
  -29.2162  -18.2964   23.4826 C   0  0  0  0  0  0
  -29.5110  -17.0196   22.9864 C   0  0  0  0  0  0
  -29.1921  -19.4013   22.6010 C   0  0  0  0  0  0
  -29.7946  -16.8310   21.6216 C   0  0  0  0  0  0
  -29.5046  -19.1752   21.2352 C   0  0  0  0  0  0
  -28.0050  -22.5263   24.3580 C   0  0  0  0  0  0
  -28.7674  -21.1868   24.3019 C   0  0  0  0  0  0
  -28.4274  -24.0751   20.3356 C   0  0  0  0  0  0
  -28.8358  -23.7871   24.5463 C   0  0  0  0  0  0
  -30.2437  -22.9487   18.8591 C   0  0  0  0  0  0
  -28.5809  -25.3707   19.4623 C   0  0  0  0  0  0
  -28.6597  -21.4063   20.1663 C   0  0  0  0  0  0
  -29.3657  -22.8226   20.1223 C   0  0  2  0  0  0
  -29.8129  -17.9181   20.7755 N   0  0  0  0  0  0
  -28.8111  -20.6973   23.0541 N   0  0  0  0  0  0
  -29.7644  -15.4412   21.2454 N   0  0  0  0  0  0
  -29.5763  -20.2322   20.2811 N   0  0  0  0  0  0
  -26.7782  -22.5870   24.2367 O   0  0  0  0  0  0
  -29.2801  -20.6704   25.2980 O   0  0  0  0  0  0
  -27.5708  -24.0337   21.2239 O   0  0  0  0  0  0
  -31.4953  -12.5389   19.1299 H   0  0  0  0  0  0
  -30.4178  -11.3528   19.8155 H   0  0  0  0  0  0
  -29.7788  -11.8107   17.4343 H   0  0  0  0  0  0
  -29.6492  -13.5205   17.7688 H   0  0  0  0  0  0
  -27.8473  -11.3083   18.7990 H   0  0  0  0  0  0
  -27.3760  -12.6451   17.7841 H   0  0  0  0  0  0
  -27.7181  -14.2437   19.6001 H   0  0  0  0  0  0
  -28.7134  -11.8695   21.2432 H   0  0  0  0  0  0
  -28.4347  -13.4301   21.9184 H   0  0  0  0  0  0
  -25.2715   -9.5722   22.4737 H   0  0  0  0  0  0
  -23.9990   -7.4632   22.7472 H   0  0  0  0  0  0
  -21.0807   -8.8705   19.8946 H   0  0  0  0  0  0
  -22.3615  -10.9628   19.6126 H   0  0  0  0  0  0
  -21.2003   -7.6136   23.9715 H   0  0  0  0  0  0
  -21.1490   -6.0503   25.9092 H   0  0  0  0  0  0
  -22.0603   -2.7589   23.2816 H   0  0  0  0  0  0
  -22.4040  -11.9955   22.4775 H   0  0  0  0  0  0
  -21.1077  -13.1362   22.2562 H   0  0  0  0  0  0
  -24.6736  -15.8398   20.5072 H   0  0  0  0  0  0
  -26.2887  -15.6109   20.0592 H   0  0  0  0  0  0
  -26.7121  -32.5472   23.1140 H   0  0  0  0  0  0
  -25.0188  -33.9761   25.0567 H   0  0  0  0  0  0
  -22.7017  -31.3045   21.4215 H   0  0  0  0  0  0
  -23.3786  -35.9476   23.3283 H   0  0  0  0  0  0
  -24.3547  -36.8856   22.2052 H   0  0  0  0  0  0
  -23.7097  -37.6392   23.6648 H   0  0  0  0  0  0
  -26.0678  -31.5959   20.6134 H   0  0  0  0  0  0
  -26.8245  -30.8592   21.9950 H   0  0  0  0  0  0
  -28.1062  -29.0799   21.1340 H   0  0  0  0  0  0
  -25.9964  -25.9138   19.0690 H   0  0  0  0  0  0
  -23.9689  -27.2771   19.0522 H   0  0  0  0  0  0
  -23.7340  -30.6088   19.4171 H   0  0  0  0  0  0
  -22.7392  -29.2554   19.8629 H   0  0  0  0  0  0
  -25.1256  -36.1939   25.0867 H   0  0  0  0  0  0
  -20.9977  -28.3177   24.1486 H   0  0  0  0  0  0
  -20.5705  -26.2249   23.3637 H   0  0  0  0  0  0
  -21.6619  -26.7462   22.1188 H   0  0  0  0  0  0
  -19.6846  -25.6333   21.1248 H   0  0  0  0  0  0
  -19.6622  -27.3251   20.6806 H   0  0  0  0  0  0
  -17.4202  -26.6767   21.4037 H   0  0  0  0  0  0
  -18.0229  -26.0082   22.9055 H   0  0  0  0  0  0
  -19.7906  -30.7308   24.2245 H   0  0  0  0  0  0
  -17.4983  -31.6254   24.5188 H   0  0  0  0  0  0
  -15.5344  -30.2961   23.7643 H   0  0  0  0  0  0
  -15.8716  -28.0840   22.7024 H   0  0  0  0  0  0
  -24.5976  -30.6997   25.7909 H   0  0  0  0  0  0
  -24.8909  -32.2819   26.4984 H   0  0  0  0  0  0
  -25.8175  -30.8915   27.0280 H   0  0  0  0  0  0
  -26.2838  -29.6826   24.1179 H   0  0  0  0  0  0
  -27.4155  -29.7306   25.4539 H   0  0  0  0  0  0
  -27.8667  -30.4425   23.9217 H   0  0  0  0  0  0
  -27.2691  -33.3721   26.1979 H   0  0  0  0  0  0
  -28.3878  -32.6866   25.0287 H   0  0  0  0  0  0
  -28.0708  -31.8547   26.5457 H   0  0  0  0  0  0
  -28.2587  -38.0070   24.7653 H   0  0  0  0  0  0
  -28.1093  -36.2626   24.6169 H   0  0  0  0  0  0
  -27.2313  -37.1245   25.8888 H   0  0  0  0  0  0
  -20.9382  -29.8738   21.6971 H   0  0  0  0  0  0
  -26.0138  -38.2880   24.1569 H   0  0  0  0  0  0
  -28.9613  -18.3887   24.5283 H   0  0  0  0  0  0
  -29.4643  -16.1843   23.6747 H   0  0  0  0  0  0
  -29.9008  -23.5542   24.5324 H   0  0  0  0  0  0
  -28.5927  -24.2544   25.5001 H   0  0  0  0  0  0
  -28.6232  -24.4918   23.7419 H   0  0  0  0  0  0
  -30.9044  -23.8147   18.9089 H   0  0  0  0  0  0
  -29.6364  -23.0263   17.9562 H   0  0  0  0  0  0
  -30.9013  -22.0889   18.7404 H   0  0  0  0  0  0
  -27.9550  -25.3035   18.5733 H   0  0  0  0  0  0
  -29.6015  -25.4184   19.0930 H   0  0  0  0  0  0
  -28.1350  -21.2865   19.2192 H   0  0  0  0  0  0
  -27.8574  -21.3787   20.9000 H   0  0  0  0  0  0
  -30.0373  -22.8534   20.9811 H   0  0  0  0  0  0
  -28.4821  -21.3302   22.3383 H   0  0  0  0  0  0
  -28.9634  -14.9603   21.6206 H   0  0  0  0  0  0
  -29.9471  -19.9291   19.3876 H   0  0  0  0  0  0
  1 25  1  0  0  0
  1 30  2  0  0  0
  1 86  1  0  0  0
  2  3  1  0  0  0
  2 25  1  0  0  0
  2 91  1  0  0  0
  2 92  1  0  0  0
  3  4  1  0  0  0
  3 93  1  0  0  0
  3 94  1  0  0  0
  4  5  1  0  0  0
  4 95  1  0  0  0
  4 96  1  0  0  0
  5  6  1  0  0  0
  5 26  1  0  0  0
  5 97  1  0  0  0
  6 25  1  0  0  0
  6 98  1  0  0  0
  6 99  1  0  0  0
  7  8  2  0  0  0
  7 26  1  0  0  0
  7 29  1  0  0  0
  8  9  1  0  0  0
  8 22  1  0  0  0
  9 10  1  0  0  0
  9 27  2  0  0  0
 10 11  2  0  0  0
 10 15  1  0  0  0
 11 12  1  0  0  0
 11100  1  0  0  0
 12 13  2  0  0  0
 12101  1  0  0  0
 13 14  1  0  0  0
 13 31  1  0  0  0
 14 15  2  0  0  0
 14102  1  0  0  0
 15103  1  0  0  0
 16 17  2  0  0  0
 16 21  1  0  0  0
 16 31  1  0  0  0
 17 18  1  0  0  0
 17104  1  0  0  0
 18 19  2  0  0  0
 18105  1  0  0  0
 19 20  1  0  0  0
 19 24  1  0  0  0
 20 21  2  0  0  0
 20106  1  0  0  0
 21 23  1  0  0  0
 22 28  1  0  0  0
 22 32  2  0  0  0
 26 27  1  0  0  0
 28107  1  0  0  0
 28108  1  0  0  0
 29109  1  0  0  0
 29110  1  0  0  0
 33 34  1  0  0  0
 33 66  1  0  0  0
 33 70  2  0  0  0
 34 36  1  0  0  0
 34 59  1  0  0  0
 34111  1  0  0  0
 35 44  2  0  0  0
 35 45  1  0  0  0
 35 68  1  0  0  0
 36 56  1  0  0  0
 36112  1  0  0  0
 37 39  1  0  0  0
 37 47  1  0  0  0
 37 66  1  0  0  0
 37113  1  0  0  0
 38 43  2  0  0  0
 38 46  1  0  0  0
 38 47  1  0  0  0
 39 64  1  0  0  0
 39 67  2  0  0  0
 40 52  1  0  0  0
 40 53  2  0  0  0
 40 58  1  0  0  0
 41114  1  0  0  0
 41115  1  0  0  0
 41116  1  0  0  0
 41 48  1  0  0  0
 42 43  1  0  0  0
 42 66  1  0  0  0
 42117  1  0  0  0
 42118  1  0  0  0
 43 44  1  0  0  0
 44119  1  0  0  0
 45 46  2  0  0  0
 45120  1  0  0  0
 46121  1  0  0  0
 47122  1  0  0  0
 47123  1  0  0  0
 48 56  1  0  0  0
 48 65  1  0  0  0
 48124  1  0  0  0
 49 50  1  0  0  0
 49 53  1  0  0  0
 49 64  1  0  0  0
 49125  1  0  0  0
 50 51  1  0  0  0
 50126  1  0  0  0
 50127  1  0  0  0
 51 52  1  0  0  0
 51128  1  0  0  0
 51129  1  0  0  0
 52130  1  0  0  0
 52131  1  0  0  0
 53 54  1  0  0  0
 54 55  2  0  0  0
 54132  1  0  0  0
 55 57  1  0  0  0
 55133  1  0  0  0
 56 69  2  0  0  0
 57 58  2  0  0  0
 57134  1  0  0  0
 58135  1  0  0  0
 59 60  1  0  0  0
 59 61  1  0  0  0
 59 62  1  0  0  0
 60136  1  0  0  0
 60137  1  0  0  0
 60138  1  0  0  0
 61139  1  0  0  0
 61140  1  0  0  0
 61141  1  0  0  0
 62142  1  0  0  0
 62143  1  0  0  0
 62144  1  0  0  0
 63 65  1  0  0  0
 63145  1  0  0  0
 63146  1  0  0  0
 63147  1  0  0  0
 64148  1  0  0  0
 65149  1  0  0  0
 68 81  1  0  0  0
 71 72  2  0  0  0
 71 73  1  0  0  0
 71150  1  0  0  0
 72 74  1  0  0  0
 72151  1  0  0  0
 73 75  2  0  0  0
 73 85  1  0  0  0
 74 84  2  0  0  0
 74 86  1  0  0  0
 75 84  1  0  0  0
 75 87  1  0  0  0
 76 77  1  0  0  0
 76 79  1  0  0  0
 76 88  2  0  0  0
 77 85  1  0  0  0
 77 89  2  0  0  0
 78 81  1  0  0  0
 78 83  1  0  0  0
 78 90  2  0  0  0
 79152  1  0  0  0
 79153  1  0  0  0
 79154  1  0  0  0
 80155  1  0  0  0
 80156  1  0  0  0
 80157  1  0  0  0
 80 83  1  0  0  0
 81158  1  0  0  0
 81159  1  0  0  0
 82 83  1  0  0  0
 82 87  1  0  0  0
 82160  1  0  0  0
 82161  1  0  0  0
 83162  1  0  0  0
 85163  1  0  0  0
 86164  1  0  0  0
 87165  1  0  0  0
M  ISO  4   1 100  68 101  81 101  86 100
M  END
> <chiral flag>
0

> <version>
0

> <s_m_source_file>
/data/baiqing/PycharmProjects/Reinvent-master-3.2/result/LINK_invent/BTK/process_docking_weight1_custom_product_contain_oxygen_bond_distance_aromatic_linkinvent_7_9_3/rearranged_h_0170.sdf

> <i_m_source_file_index>
64

> <r_mmod_Potential_Energy-OPLS-2005>
-148.47981262207

> <r_mmod_Stretch_Energy-OPLS-2005>
64.7214813232422

> <r_mmod_Bend_Energy-OPLS-2005>
176.112976074219

> <r_mmod_Torsional_Energy-OPLS-2005>
261.975616455078

> <r_mmod_Improper_Torsional_Energy-OPLS-2005>
7.07710361480713

> <r_mmod_Van_der_Waal_Energy-OPLS-2005>
148.450439453125

> <r_mmod_Electrostatic_Energy-OPLS-2005>
-556.529541015625

> <r_mmod_Solvation_Energy-OPLS-2005>
-279.867858886719

> <b_mmod_Minimization_Converged-OPLS-2005>
0

> <r_mmod_RMS_Derivative-OPLS-2005>
4.31256294250488

$$$$
64
                    3D
 Structure written by MMmdl.
147155  0  0  1  0            999 V2000
  -30.5615  -14.9007   20.4329 C   0  0  0  0  0  0
  -30.4372  -12.5569   19.4909 C   0  0  0  0  0  0
  -29.5150  -12.5147   18.2507 C   0  0  0  0  0  0
  -28.0466  -12.3127   18.6703 C   0  0  0  0  0  0
  -27.6300  -13.2434   19.8392 C   0  0  2  0  0  0
  -28.6740  -13.2525   20.9760 C   0  0  0  0  0  0
  -25.2461  -13.8209   20.5700 C   0  0  0  0  0  0
  -24.1776  -13.0441   20.9231 C   0  0  0  0  0  0
  -24.6388  -11.6923   20.8769 C   0  0  0  0  0  0
  -23.9075  -10.4291   21.0414 C   0  0  0  0  0  0
  -24.3626   -9.4200   21.9181 C   0  0  0  0  0  0
  -23.6295   -8.2244   22.0752 C   0  0  0  0  0  0
  -22.4276   -8.0284   21.3546 C   0  0  0  0  0  0
  -21.9918   -9.0258   20.4652 C   0  0  0  0  0  0
  -22.7253  -10.2133   20.3062 C   0  0  0  0  0  0
  -21.6855   -6.0733   22.5276 C   0  0  0  0  0  0
  -21.4016   -6.5638   23.8208 C   0  0  0  0  0  0
  -21.3657   -5.6793   24.9170 C   0  0  0  0  0  0
  -21.6046   -4.3056   24.7227 C   0  0  0  0  0  0
  -21.8821   -3.8145   23.4350 C   0  0  0  0  0  0
  -21.9192   -4.6960   22.3403 C   0  0  0  0  0  0
  -22.7798  -13.5212   21.1887 C   0  0  0  0  0  0
  -22.1665   -4.2140   21.0985 F   0  0  0  0  0  0
  -21.5625   -3.4546   25.7743 F   0  0  0  0  0  0
  -29.9550  -13.6502   20.3802 N   0  0  0  0  0  0
  -26.2882  -12.9436   20.3253 N   0  0  0  0  0  0
  -25.9316  -11.6572   20.5758 N   0  0  0  0  0  0
  -22.0460  -12.8192   22.0452 N   0  0  0  0  0  0
  -25.4126  -15.1937   20.4096 N   0  0  0  0  0  0
  -31.7660  -14.9529   20.1595 O   0  0  0  0  0  0
  -21.6644   -6.8879   21.4242 O   0  0  0  0  0  0
  -22.3472  -14.5504   20.6718 O   0  0  0  0  0  0
  -24.6392  -31.8466   23.1908 C   0  0  0  0  0  0
  -25.9174  -32.4714   23.8285 C   0  0  1  0  0  0
  -27.2193  -27.1638   20.1573 C   0  0  0  0  0  0
  -25.5930  -33.8520   24.2199 N   0  0  0  0  0  0
  -23.4416  -30.4654   21.5356 C   0  0  2  0  0  0
  -24.8931  -28.8946   20.1119 C   0  0  0  0  0  0
  -22.7546  -29.4553   22.4877 C   0  0  0  0  0  0
  -18.0297  -28.1393   22.8484 C   0  0  0  0  0  0
  -24.1491  -36.7270   23.2650 C   0  0  0  0  0  0
  -25.9948  -30.7280   21.3874 C   0  0  0  0  0  0
  -26.0669  -29.3401   20.7338 C   0  0  0  0  0  0
  -27.2308  -28.4885   20.7438 C   0  0  0  0  0  0
  -26.0254  -26.8152   19.4890 C   0  0  0  0  0  0
  -24.8831  -27.6437   19.4747 C   0  0  0  0  0  0
  -23.6676  -29.7933   20.1548 C   0  0  0  0  0  0
  -25.4127  -36.3047   24.0317 C   0  0  1  0  0  0
  -20.5905  -28.3710   23.1250 C   0  0  2  0  0  0
  -20.6780  -26.9416   22.5412 C   0  0  0  0  0  0
  -19.5756  -26.6377   21.5219 C   0  0  0  0  0  0
  -18.1938  -26.7929   22.1633 C   0  0  0  0  0  0
  -19.1553  -28.8872   23.2858 C   0  0  0  0  0  0
  -18.9473  -30.1471   23.8875 C   0  0  0  0  0  0
  -17.6469  -30.6592   24.0559 C   0  0  0  0  0  0
  -25.9063  -34.9418   23.5065 C   0  0  0  0  0  0
  -16.5358  -29.9085   23.6336 C   0  0  0  0  0  0
  -16.7281  -28.6503   23.0358 C   0  0  0  0  0  0
  -26.4509  -31.6580   25.0715 C   0  0  0  0  0  0
  -25.3695  -31.3759   26.1407 C   0  0  0  0  0  0
  -27.0390  -30.2985   24.6287 C   0  0  0  0  0  0
  -27.6025  -32.4362   25.7503 C   0  0  0  0  0  0
  -27.5560  -37.1816   24.8486 C   0  0  0  0  0  0
  -21.4242  -29.3040   22.3628 N   0  0  0  0  0  0
  -26.4309  -37.3737   23.9374 N   0  0  0  0  0  0
  -24.7111  -31.0344   22.0929 N   0  0  0  0  0  0
  -23.4204  -28.8103   23.3017 O   0  0  0  0  0  0
  -28.2818  -26.1990   20.1932 O   0  0  0  0  0  0
  -26.5652  -34.8906   22.4647 O   0  0  0  0  0  0
  -23.5519  -32.1327   23.7146 O   0  0  0  0  0  0
  -31.3495  -18.0086   20.4401 C   0  0  0  0  0  0
  -31.2280  -19.4389   20.3749 C   0  0  0  0  0  0
  -30.0817  -17.4816   20.5058 C   0  0  0  0  0  0
  -29.9201  -19.8471   20.4078 C   0  0  0  0  0  0
  -28.0397  -24.7679   20.3684 C   0  0  0  0  0  0
  -28.9213  -23.6716   20.2450 C   0  0  0  0  0  0
  -28.5890  -22.1731   20.4594 C   0  0  0  0  0  0
  -29.6315  -21.2499   20.3025 N   0  0  0  0  0  0
  -29.7797  -16.0775   20.5780 N   0  0  0  0  0  0
  -27.4621  -21.7780   20.7620 O   0  0  0  0  0  0
  -29.1642  -18.6206   20.4969 O   0  0  0  0  0  0
  -30.1889  -23.9501   19.9084 O   0  0  0  0  0  0
  -32.2809  -20.2873   20.2864 F   0  0  0  0  0  0
  -31.4704  -12.7101   19.1750 H   0  0  0  0  0  0
  -30.4259  -11.6013   20.0175 H   0  0  0  0  0  0
  -29.8250  -11.7158   17.5756 H   0  0  0  0  0  0
  -29.6109  -13.4460   17.6909 H   0  0  0  0  0  0
  -27.9347  -11.2713   18.9748 H   0  0  0  0  0  0
  -27.3810  -12.4518   17.8168 H   0  0  0  0  0  0
  -27.5983  -14.2481   19.4169 H   0  0  0  0  0  0
  -28.7499  -12.2717   21.4470 H   0  0  0  0  0  0
  -28.3809  -13.9506   21.7616 H   0  0  0  0  0  0
  -25.2769   -9.5673   22.4756 H   0  0  0  0  0  0
  -24.0001   -7.4636   22.7468 H   0  0  0  0  0  0
  -21.0848   -8.8787   19.8956 H   0  0  0  0  0  0
  -22.3712  -10.9677   19.6176 H   0  0  0  0  0  0
  -21.2013   -7.6144   23.9706 H   0  0  0  0  0  0
  -21.1474   -6.0523   25.9069 H   0  0  0  0  0  0
  -22.0599   -2.7608   23.2850 H   0  0  0  0  0  0
  -22.4106  -11.9871   22.4853 H   0  0  0  0  0  0
  -21.1075  -13.1200   22.2664 H   0  0  0  0  0  0
  -24.6412  -15.8429   20.5184 H   0  0  0  0  0  0
  -26.2456  -15.6338   20.0415 H   0  0  0  0  0  0
  -26.7239  -32.5331   23.1017 H   0  0  0  0  0  0
  -25.0041  -33.9642   25.0322 H   0  0  0  0  0  0
  -22.7418  -31.2893   21.3825 H   0  0  0  0  0  0
  -23.3716  -35.9650   23.3411 H   0  0  0  0  0  0
  -24.3540  -36.8794   22.2042 H   0  0  0  0  0  0
  -23.7311  -37.6528   23.6617 H   0  0  0  0  0  0
  -26.1463  -31.4819   20.6137 H   0  0  0  0  0  0
  -26.8669  -30.7803   22.0274 H   0  0  0  0  0  0
  -28.1270  -28.8242   21.2470 H   0  0  0  0  0  0
  -25.9587  -25.8584   18.9907 H   0  0  0  0  0  0
  -23.9888  -27.2998   18.9740 H   0  0  0  0  0  0
  -23.7989  -30.5670   19.3975 H   0  0  0  0  0  0
  -22.7839  -29.2312   19.8474 H   0  0  0  0  0  0
  -25.1331  -36.1895   25.0815 H   0  0  0  0  0  0
  -20.9998  -28.3296   24.1371 H   0  0  0  0  0  0
  -20.5673  -26.2320   23.3628 H   0  0  0  0  0  0
  -21.6645  -26.7422   22.1206 H   0  0  0  0  0  0
  -19.6910  -25.6281   21.1265 H   0  0  0  0  0  0
  -19.6695  -27.3171   20.6737 H   0  0  0  0  0  0
  -17.4204  -26.6669   21.4040 H   0  0  0  0  0  0
  -18.0340  -26.0077   22.9037 H   0  0  0  0  0  0
  -19.7950  -30.7298   24.2226 H   0  0  0  0  0  0
  -17.5022  -31.6269   24.5167 H   0  0  0  0  0  0
  -15.5358  -30.2982   23.7673 H   0  0  0  0  0  0
  -15.8679  -28.0815   22.7084 H   0  0  0  0  0  0
  -24.5902  -30.7073   25.7733 H   0  0  0  0  0  0
  -24.8845  -32.2935   26.4748 H   0  0  0  0  0  0
  -25.7979  -30.9004   27.0237 H   0  0  0  0  0  0
  -26.3018  -29.6705   24.1269 H   0  0  0  0  0  0
  -27.3990  -29.7282   25.4861 H   0  0  0  0  0  0
  -27.8922  -30.4241   23.9616 H   0  0  0  0  0  0
  -27.2588  -33.3659   26.2055 H   0  0  0  0  0  0
  -28.3843  -32.6944   25.0346 H   0  0  0  0  0  0
  -28.0692  -31.8519   26.5445 H   0  0  0  0  0  0
  -28.2668  -38.0017   24.7388 H   0  0  0  0  0  0
  -28.0963  -36.2543   24.6517 H   0  0  0  0  0  0
  -27.2246  -37.1710   25.8885 H   0  0  0  0  0  0
  -20.9444  -29.8749   21.6809 H   0  0  0  0  0  0
  -26.0190  -38.2831   24.1284 H   0  0  0  0  0  0
  -32.2727  -17.4490   20.4342 H   0  0  0  0  0  0
  -27.0105  -24.5861   20.6473 H   0  0  0  0  0  0
  -30.4726  -21.7709   20.0877 H   0  0  0  0  0  0
  -28.8023  -15.8785   20.7231 H   0  0  0  0  0  0
  -30.2456  -24.8928   19.8128 H   0  0  0  0  0  0
  1 25  1  0  0  0
  1 30  2  0  0  0
  1 79  1  0  0  0
  2  3  1  0  0  0
  2 25  1  0  0  0
  2 84  1  0  0  0
  2 85  1  0  0  0
  3  4  1  0  0  0
  3 86  1  0  0  0
  3 87  1  0  0  0
  4  5  1  0  0  0
  4 88  1  0  0  0
  4 89  1  0  0  0
  5  6  1  0  0  0
  5 26  1  0  0  0
  5 90  1  0  0  0
  6 25  1  0  0  0
  6 91  1  0  0  0
  6 92  1  0  0  0
  7  8  2  0  0  0
  7 26  1  0  0  0
  7 29  1  0  0  0
  8  9  1  0  0  0
  8 22  1  0  0  0
  9 10  1  0  0  0
  9 27  2  0  0  0
 10 11  2  0  0  0
 10 15  1  0  0  0
 11 12  1  0  0  0
 11 93  1  0  0  0
 12 13  2  0  0  0
 12 94  1  0  0  0
 13 14  1  0  0  0
 13 31  1  0  0  0
 14 15  2  0  0  0
 14 95  1  0  0  0
 15 96  1  0  0  0
 16 17  2  0  0  0
 16 21  1  0  0  0
 16 31  1  0  0  0
 17 18  1  0  0  0
 17 97  1  0  0  0
 18 19  2  0  0  0
 18 98  1  0  0  0
 19 20  1  0  0  0
 19 24  1  0  0  0
 20 21  2  0  0  0
 20 99  1  0  0  0
 21 23  1  0  0  0
 22 28  1  0  0  0
 22 32  2  0  0  0
 26 27  1  0  0  0
 28100  1  0  0  0
 28101  1  0  0  0
 29102  1  0  0  0
 29103  1  0  0  0
 33 34  1  0  0  0
 33 66  1  0  0  0
 33 70  2  0  0  0
 34 36  1  0  0  0
 34 59  1  0  0  0
 34104  1  0  0  0
 35 44  2  0  0  0
 35 45  1  0  0  0
 35 68  1  0  0  0
 36 56  1  0  0  0
 36105  1  0  0  0
 37 39  1  0  0  0
 37 47  1  0  0  0
 37 66  1  0  0  0
 37106  1  0  0  0
 38 43  2  0  0  0
 38 46  1  0  0  0
 38 47  1  0  0  0
 39 64  1  0  0  0
 39 67  2  0  0  0
 40 52  1  0  0  0
 40 53  2  0  0  0
 40 58  1  0  0  0
 41107  1  0  0  0
 41108  1  0  0  0
 41109  1  0  0  0
 41 48  1  0  0  0
 42 43  1  0  0  0
 42 66  1  0  0  0
 42110  1  0  0  0
 42111  1  0  0  0
 43 44  1  0  0  0
 44112  1  0  0  0
 45 46  2  0  0  0
 45113  1  0  0  0
 46114  1  0  0  0
 47115  1  0  0  0
 47116  1  0  0  0
 48 56  1  0  0  0
 48 65  1  0  0  0
 48117  1  0  0  0
 49 50  1  0  0  0
 49 53  1  0  0  0
 49 64  1  0  0  0
 49118  1  0  0  0
 50 51  1  0  0  0
 50119  1  0  0  0
 50120  1  0  0  0
 51 52  1  0  0  0
 51121  1  0  0  0
 51122  1  0  0  0
 52123  1  0  0  0
 52124  1  0  0  0
 53 54  1  0  0  0
 54 55  2  0  0  0
 54125  1  0  0  0
 55 57  1  0  0  0
 55126  1  0  0  0
 56 69  2  0  0  0
 57 58  2  0  0  0
 57127  1  0  0  0
 58128  1  0  0  0
 59 60  1  0  0  0
 59 61  1  0  0  0
 59 62  1  0  0  0
 60129  1  0  0  0
 60130  1  0  0  0
 60131  1  0  0  0
 61132  1  0  0  0
 61133  1  0  0  0
 61134  1  0  0  0
 62135  1  0  0  0
 62136  1  0  0  0
 62137  1  0  0  0
 63 65  1  0  0  0
 63138  1  0  0  0
 63139  1  0  0  0
 63140  1  0  0  0
 64141  1  0  0  0
 65142  1  0  0  0
 68 75  1  0  0  0
 71 72  1  0  0  0
 71 73  2  0  0  0
 71143  1  0  0  0
 72 74  2  0  0  0
 72 83  1  0  0  0
 73 79  1  0  0  0
 73 81  1  0  0  0
 74 78  1  0  0  0
 74 81  1  0  0  0
 75 76  2  0  0  0
 75144  1  0  0  0
 76 77  1  0  0  0
 76 82  1  0  0  0
 77 78  1  0  0  0
 77 80  2  0  0  0
 78145  1  0  0  0
 79146  1  0  0  0
 82147  1  0  0  0
M  ISO  4   1 100  68 101  75 101  79 100
M  END
> <chiral flag>
0

> <version>
0

> <s_m_source_file>
/data/baiqing/PycharmProjects/Reinvent-master-3.2/result/LINK_invent/BTK/process_docking_weight1_custom_product_contain_oxygen_bond_distance_aromatic_linkinvent_7_9_3/rearranged_h_0170.sdf

> <i_m_source_file_index>
65

> <r_mmod_Potential_Energy-OPLS-2005>
247.818283081055

> <r_mmod_Stretch_Energy-OPLS-2005>
189.707382202148

> <r_mmod_Bend_Energy-OPLS-2005>
255.003112792969

> <r_mmod_Torsional_Energy-OPLS-2005>
199.495193481445

> <r_mmod_Improper_Torsional_Energy-OPLS-2005>
4.738205909729

> <r_mmod_Van_der_Waal_Energy-OPLS-2005>
118.783226013184

> <r_mmod_Electrostatic_Energy-OPLS-2005>
-461.577758789062

> <r_mmod_Solvation_Energy-OPLS-2005>
-220.64778137207

> <b_mmod_Minimization_Converged-OPLS-2005>
0

> <r_mmod_RMS_Derivative-OPLS-2005>
1.13694095611572

$$$$
65
                    3D
 Structure written by MMmdl.
152160  0  0  1  0            999 V2000
  -30.5881  -14.8277   20.4268 C   0  0  0  0  0  0
  -30.4315  -12.5009   19.5017 C   0  0  0  0  0  0
  -29.5182  -12.5210   18.2546 C   0  0  0  0  0  0
  -28.0461  -12.3308   18.6638 C   0  0  0  0  0  0
  -27.6386  -13.2430   19.8508 C   0  0  2  0  0  0
  -28.6788  -13.2176   20.9934 C   0  0  0  0  0  0
  -25.2486  -13.8218   20.5708 C   0  0  0  0  0  0
  -24.1788  -13.0446   20.9210 C   0  0  0  0  0  0
  -24.6394  -11.6929   20.8743 C   0  0  0  0  0  0
  -23.9074  -10.4296   21.0402 C   0  0  0  0  0  0
  -24.3621   -9.4209   21.9180 C   0  0  0  0  0  0
  -23.6292   -8.2245   22.0752 C   0  0  0  0  0  0
  -22.4275   -8.0281   21.3543 C   0  0  0  0  0  0
  -21.9911   -9.0255   20.4648 C   0  0  0  0  0  0
  -22.7242  -10.2131   20.3056 C   0  0  0  0  0  0
  -21.6856   -6.0731   22.5275 C   0  0  0  0  0  0
  -21.4017   -6.5634   23.8207 C   0  0  0  0  0  0
  -21.3662   -5.6788   24.9170 C   0  0  0  0  0  0
  -21.6045   -4.3052   24.7222 C   0  0  0  0  0  0
  -21.8819   -3.8142   23.4345 C   0  0  0  0  0  0
  -21.9193   -4.6958   22.3400 C   0  0  0  0  0  0
  -22.7808  -13.5220   21.1865 C   0  0  0  0  0  0
  -22.1662   -4.2142   21.0977 F   0  0  0  0  0  0
  -21.5626   -3.4535   25.7736 F   0  0  0  0  0  0
  -29.9777  -13.5836   20.4154 N   0  0  0  0  0  0
  -26.2920  -12.9448   20.3280 N   0  0  0  0  0  0
  -25.9330  -11.6578   20.5748 N   0  0  0  0  0  0
  -22.0456  -12.8214   22.0424 N   0  0  0  0  0  0
  -25.4170  -15.1944   20.4140 N   0  0  0  0  0  0
  -31.7740  -14.8938   20.0833 O   0  0  0  0  0  0
  -21.6645   -6.8875   21.4237 O   0  0  0  0  0  0
  -22.3492  -14.5523   20.6704 O   0  0  0  0  0  0
  -24.6368  -31.8505   23.1962 C   0  0  0  0  0  0
  -25.9171  -32.4727   23.8322 C   0  0  1  0  0  0
  -27.2111  -27.1944   20.1387 C   0  0  0  0  0  0
  -25.5948  -33.8533   24.2235 N   0  0  0  0  0  0
  -23.4373  -30.4736   21.5397 C   0  0  2  0  0  0
  -24.8860  -28.9155   20.1087 C   0  0  0  0  0  0
  -22.7536  -29.4576   22.4878 C   0  0  0  0  0  0
  -18.0301  -28.1394   22.8479 C   0  0  0  0  0  0
  -24.1495  -36.7272   23.2638 C   0  0  0  0  0  0
  -25.9900  -30.7383   21.3928 C   0  0  0  0  0  0
  -26.0583  -29.3552   20.7364 C   0  0  0  0  0  0
  -27.2194  -28.5042   20.7488 C   0  0  0  0  0  0
  -26.0252  -26.8629   19.4427 C   0  0  0  0  0  0
  -24.8782  -27.6791   19.4501 C   0  0  0  0  0  0
  -23.6614  -29.8111   20.1555 C   0  0  0  0  0  0
  -25.4122  -36.3051   24.0319 C   0  0  1  0  0  0
  -20.5909  -28.3713   23.1247 C   0  0  2  0  0  0
  -20.6788  -26.9422   22.5404 C   0  0  0  0  0  0
  -19.5762  -26.6382   21.5211 C   0  0  0  0  0  0
  -18.1942  -26.7933   22.1623 C   0  0  0  0  0  0
  -19.1556  -28.8870   23.2858 C   0  0  0  0  0  0
  -18.9474  -30.1466   23.8885 C   0  0  0  0  0  0
  -17.6471  -30.6590   24.0560 C   0  0  0  0  0  0
  -25.9067  -34.9423   23.5081 C   0  0  0  0  0  0
  -16.5362  -29.9085   23.6332 C   0  0  0  0  0  0
  -16.7287  -28.6504   23.0352 C   0  0  0  0  0  0
  -26.4517  -31.6574   25.0736 C   0  0  0  0  0  0
  -25.3718  -31.3746   26.1442 C   0  0  0  0  0  0
  -27.0371  -30.2973   24.6286 C   0  0  0  0  0  0
  -27.6061  -32.4327   25.7513 C   0  0  0  0  0  0
  -27.5579  -37.1791   24.8461 C   0  0  0  0  0  0
  -21.4235  -29.3049   22.3624 N   0  0  0  0  0  0
  -26.4290  -37.3756   23.9405 N   0  0  0  0  0  0
  -24.7071  -31.0410   22.0978 N   0  0  0  0  0  0
  -23.4208  -28.8112   23.2997 O   0  0  0  0  0  0
  -28.2734  -26.2367   20.2040 O   0  0  0  0  0  0
  -26.5645  -34.8905   22.4655 O   0  0  0  0  0  0
  -23.5503  -32.1365   23.7211 O   0  0  0  0  0  0
  -30.0730  -18.4732   17.8632 C   0  0  0  0  0  0
  -30.1077  -17.3061   18.6390 C   0  0  0  0  0  0
  -29.8137  -19.7382   18.4312 C   0  0  0  0  0  0
  -29.8706  -17.3453   20.0215 C   0  0  0  0  0  0
  -29.5354  -19.8345   19.8289 C   0  0  0  0  0  0
  -28.0256  -24.8055   20.1637 C   0  0  0  0  0  0
  -28.8929  -23.7155   20.3205 C   0  0  0  0  0  0
  -28.4722  -22.2513   20.1479 C   0  0  0  0  0  0
  -29.8776  -20.9460   17.4820 C   0  0  0  0  0  0
  -29.5785  -18.6198   20.5696 N   0  0  0  0  0  0
  -29.4007  -21.2298   20.3870 N   0  0  0  0  0  0
  -29.8434  -15.9934   20.6829 N   0  0  0  0  0  0
  -27.3246  -21.9483   19.8150 O   0  0  0  0  0  0
  -30.1789  -23.9570   20.6098 O   0  0  0  0  0  0
  -30.4135  -20.6200   16.3048 F   0  0  0  0  0  0
  -28.6524  -21.4075   17.2407 F   0  0  0  0  0  0
  -30.6299  -21.9256   17.9831 F   0  0  0  0  0  0
  -31.4740  -12.6200   19.2027 H   0  0  0  0  0  0
  -30.3778  -11.5336   20.0032 H   0  0  0  0  0  0
  -29.8155  -11.7390   17.5546 H   0  0  0  0  0  0
  -29.6347  -13.4679   17.7250 H   0  0  0  0  0  0
  -27.9169  -11.2844   18.9422 H   0  0  0  0  0  0
  -27.3899  -12.5014   17.8097 H   0  0  0  0  0  0
  -27.6212  -14.2573   19.4511 H   0  0  0  0  0  0
  -28.7269  -12.2311   21.4567 H   0  0  0  0  0  0
  -28.3975  -13.9137   21.7845 H   0  0  0  0  0  0
  -25.2761   -9.5682   22.4758 H   0  0  0  0  0  0
  -23.9995   -7.4639   22.7474 H   0  0  0  0  0  0
  -21.0836   -8.8775   19.8960 H   0  0  0  0  0  0
  -22.3697  -10.9667   19.6165 H   0  0  0  0  0  0
  -21.2015   -7.6142   23.9708 H   0  0  0  0  0  0
  -21.1487   -6.0520   25.9071 H   0  0  0  0  0  0
  -22.0598   -2.7603   23.2852 H   0  0  0  0  0  0
  -22.4078  -11.9881   22.4821 H   0  0  0  0  0  0
  -21.1076  -13.1239   22.2634 H   0  0  0  0  0  0
  -24.6466  -15.8459   20.5199 H   0  0  0  0  0  0
  -26.2619  -15.6346   20.0731 H   0  0  0  0  0  0
  -26.7233  -32.5355   23.1053 H   0  0  0  0  0  0
  -25.0080  -33.9664   25.0371 H   0  0  0  0  0  0
  -22.7369  -31.2981   21.3915 H   0  0  0  0  0  0
  -23.3757  -35.9604   23.3291 H   0  0  0  0  0  0
  -24.3583  -36.8909   22.2054 H   0  0  0  0  0  0
  -23.7253  -37.6468   23.6678 H   0  0  0  0  0  0
  -26.1428  -31.4942   20.6213 H   0  0  0  0  0  0
  -26.8623  -30.7856   22.0327 H   0  0  0  0  0  0
  -28.1095  -28.8291   21.2690 H   0  0  0  0  0  0
  -25.9479  -25.9415   18.8867 H   0  0  0  0  0  0
  -23.9892  -27.3465   18.9320 H   0  0  0  0  0  0
  -23.7962  -30.5895   19.4037 H   0  0  0  0  0  0
  -22.7776  -29.2522   19.8429 H   0  0  0  0  0  0
  -25.1307  -36.1888   25.0812 H   0  0  0  0  0  0
  -21.0004  -28.3302   24.1366 H   0  0  0  0  0  0
  -20.5687  -26.2326   23.3617 H   0  0  0  0  0  0
  -21.6656  -26.7437   22.1199 H   0  0  0  0  0  0
  -19.6924  -25.6289   21.1250 H   0  0  0  0  0  0
  -19.6696  -27.3185   20.6734 H   0  0  0  0  0  0
  -17.4210  -26.6675   21.4029 H   0  0  0  0  0  0
  -18.0343  -26.0080   22.9025 H   0  0  0  0  0  0
  -19.7948  -30.7285   24.2252 H   0  0  0  0  0  0
  -17.5023  -31.6267   24.5166 H   0  0  0  0  0  0
  -15.5363  -30.2983   23.7659 H   0  0  0  0  0  0
  -15.8687  -28.0817   22.7076 H   0  0  0  0  0  0
  -24.5907  -30.7079   25.7769 H   0  0  0  0  0  0
  -24.8896  -32.2921   26.4824 H   0  0  0  0  0  0
  -25.8017  -30.8954   27.0247 H   0  0  0  0  0  0
  -26.2973  -29.6705   24.1292 H   0  0  0  0  0  0
  -27.3992  -29.7259   25.4843 H   0  0  0  0  0  0
  -27.8885  -30.4213   23.9590 H   0  0  0  0  0  0
  -27.2666  -33.3640   26.2058 H   0  0  0  0  0  0
  -28.3890  -32.6863   25.0352 H   0  0  0  0  0  0
  -28.0712  -31.8473   26.5456 H   0  0  0  0  0  0
  -28.2585  -38.0098   24.7512 H   0  0  0  0  0  0
  -28.1087  -36.2627   24.6283 H   0  0  0  0  0  0
  -27.2297  -37.1431   25.8863 H   0  0  0  0  0  0
  -20.9431  -29.8775   21.6822 H   0  0  0  0  0  0
  -26.0161  -38.2825   24.1410 H   0  0  0  0  0  0
  -30.2636  -18.3739   16.8049 H   0  0  0  0  0  0
  -30.3064  -16.3708   18.1338 H   0  0  0  0  0  0
  -26.9894  -24.5791   19.9719 H   0  0  0  0  0  0
  -30.2400  -21.5813   20.8269 H   0  0  0  0  0  0
  -29.0126  -15.8307   21.2293 H   0  0  0  0  0  0
  -30.2765  -24.8994   20.6668 H   0  0  0  0  0  0
  1 25  1  0  0  0
  1 30  2  0  0  0
  1 82  1  0  0  0
  2  3  1  0  0  0
  2 25  1  0  0  0
  2 88  1  0  0  0
  2 89  1  0  0  0
  3  4  1  0  0  0
  3 90  1  0  0  0
  3 91  1  0  0  0
  4  5  1  0  0  0
  4 92  1  0  0  0
  4 93  1  0  0  0
  5  6  1  0  0  0
  5 26  1  0  0  0
  5 94  1  0  0  0
  6 25  1  0  0  0
  6 95  1  0  0  0
  6 96  1  0  0  0
  7  8  2  0  0  0
  7 26  1  0  0  0
  7 29  1  0  0  0
  8  9  1  0  0  0
  8 22  1  0  0  0
  9 10  1  0  0  0
  9 27  2  0  0  0
 10 11  2  0  0  0
 10 15  1  0  0  0
 11 12  1  0  0  0
 11 97  1  0  0  0
 12 13  2  0  0  0
 12 98  1  0  0  0
 13 14  1  0  0  0
 13 31  1  0  0  0
 14 15  2  0  0  0
 14 99  1  0  0  0
 15100  1  0  0  0
 16 17  2  0  0  0
 16 21  1  0  0  0
 16 31  1  0  0  0
 17 18  1  0  0  0
 17101  1  0  0  0
 18 19  2  0  0  0
 18102  1  0  0  0
 19 20  1  0  0  0
 19 24  1  0  0  0
 20 21  2  0  0  0
 20103  1  0  0  0
 21 23  1  0  0  0
 22 28  1  0  0  0
 22 32  2  0  0  0
 26 27  1  0  0  0
 28104  1  0  0  0
 28105  1  0  0  0
 29106  1  0  0  0
 29107  1  0  0  0
 33 34  1  0  0  0
 33 66  1  0  0  0
 33 70  2  0  0  0
 34 36  1  0  0  0
 34 59  1  0  0  0
 34108  1  0  0  0
 35 44  2  0  0  0
 35 45  1  0  0  0
 35 68  1  0  0  0
 36 56  1  0  0  0
 36109  1  0  0  0
 37 39  1  0  0  0
 37 47  1  0  0  0
 37 66  1  0  0  0
 37110  1  0  0  0
 38 43  2  0  0  0
 38 46  1  0  0  0
 38 47  1  0  0  0
 39 64  1  0  0  0
 39 67  2  0  0  0
 40 52  1  0  0  0
 40 53  2  0  0  0
 40 58  1  0  0  0
 41111  1  0  0  0
 41112  1  0  0  0
 41113  1  0  0  0
 41 48  1  0  0  0
 42 43  1  0  0  0
 42 66  1  0  0  0
 42114  1  0  0  0
 42115  1  0  0  0
 43 44  1  0  0  0
 44116  1  0  0  0
 45 46  2  0  0  0
 45117  1  0  0  0
 46118  1  0  0  0
 47119  1  0  0  0
 47120  1  0  0  0
 48 56  1  0  0  0
 48 65  1  0  0  0
 48121  1  0  0  0
 49 50  1  0  0  0
 49 53  1  0  0  0
 49 64  1  0  0  0
 49122  1  0  0  0
 50 51  1  0  0  0
 50123  1  0  0  0
 50124  1  0  0  0
 51 52  1  0  0  0
 51125  1  0  0  0
 51126  1  0  0  0
 52127  1  0  0  0
 52128  1  0  0  0
 53 54  1  0  0  0
 54 55  2  0  0  0
 54129  1  0  0  0
 55 57  1  0  0  0
 55130  1  0  0  0
 56 69  2  0  0  0
 57 58  2  0  0  0
 57131  1  0  0  0
 58132  1  0  0  0
 59 60  1  0  0  0
 59 61  1  0  0  0
 59 62  1  0  0  0
 60133  1  0  0  0
 60134  1  0  0  0
 60135  1  0  0  0
 61136  1  0  0  0
 61137  1  0  0  0
 61138  1  0  0  0
 62139  1  0  0  0
 62140  1  0  0  0
 62141  1  0  0  0
 63 65  1  0  0  0
 63142  1  0  0  0
 63143  1  0  0  0
 63144  1  0  0  0
 64145  1  0  0  0
 65146  1  0  0  0
 68 76  1  0  0  0
 71 72  2  0  0  0
 71 73  1  0  0  0
 71147  1  0  0  0
 72 74  1  0  0  0
 72148  1  0  0  0
 73 75  2  0  0  0
 73 79  1  0  0  0
 74 80  2  0  0  0
 74 82  1  0  0  0
 75 80  1  0  0  0
 75 81  1  0  0  0
 76 77  2  0  0  0
 76149  1  0  0  0
 77 78  1  0  0  0
 77 84  1  0  0  0
 78 81  1  0  0  0
 78 83  2  0  0  0
 79 85  1  0  0  0
 79 86  1  0  0  0
 79 87  1  0  0  0
 81150  1  0  0  0
 82151  1  0  0  0
 84152  1  0  0  0
M  ISO  4   1 100  68 101  76 101  82 100
M  END
> <chiral flag>
0

> <version>
0

> <s_m_source_file>
/data/baiqing/PycharmProjects/Reinvent-master-3.2/result/LINK_invent/BTK/process_docking_weight1_custom_product_contain_oxygen_bond_distance_aromatic_linkinvent_7_9_3/rearranged_h_0170.sdf

> <i_m_source_file_index>
66

> <r_mmod_Potential_Energy-OPLS-2005>
149.213851928711

> <r_mmod_Stretch_Energy-OPLS-2005>
171.722625732422

> <r_mmod_Bend_Energy-OPLS-2005>
182.019409179688

> <r_mmod_Torsional_Energy-OPLS-2005>
266.571472167969

> <r_mmod_Improper_Torsional_Energy-OPLS-2005>
5.83220386505127

> <r_mmod_Van_der_Waal_Energy-OPLS-2005>
150.72688293457

> <r_mmod_Electrostatic_Energy-OPLS-2005>
-528.834411621094

> <r_mmod_Solvation_Energy-OPLS-2005>
-228.747756958008

> <b_mmod_Minimization_Converged-OPLS-2005>
0

> <r_mmod_RMS_Derivative-OPLS-2005>
0.697774291038513

$$$$
66
                    3D
 Structure written by MMmdl.
154162  0  0  1  0            999 V2000
  -30.7875  -14.3899   20.5101 C   0  0  0  0  0  0
  -30.3834  -12.2368   19.4442 C   0  0  0  0  0  0
  -29.4869  -12.4711   18.2134 C   0  0  0  0  0  0
  -28.0047  -12.3650   18.6157 C   0  0  0  0  0  0
  -27.6547  -13.2202   19.8646 C   0  0  2  0  0  0
  -28.6934  -13.0412   20.9939 C   0  0  0  0  0  0
  -25.2552  -13.8203   20.5688 C   0  0  0  0  0  0
  -24.1817  -13.0457   20.9174 C   0  0  0  0  0  0
  -24.6390  -11.6929   20.8730 C   0  0  0  0  0  0
  -23.9065  -10.4304   21.0396 C   0  0  0  0  0  0
  -24.3617   -9.4220   21.9176 C   0  0  0  0  0  0
  -23.6293   -8.2254   22.0752 C   0  0  0  0  0  0
  -22.4276   -8.0285   21.3543 C   0  0  0  0  0  0
  -21.9909   -9.0257   20.4646 C   0  0  0  0  0  0
  -22.7234  -10.2137   20.3050 C   0  0  0  0  0  0
  -21.6857   -6.0734   22.5275 C   0  0  0  0  0  0
  -21.4016   -6.5640   23.8208 C   0  0  0  0  0  0
  -21.3658   -5.6795   24.9172 C   0  0  0  0  0  0
  -21.6044   -4.3056   24.7226 C   0  0  0  0  0  0
  -21.8818   -3.8147   23.4347 C   0  0  0  0  0  0
  -21.9191   -4.6961   22.3401 C   0  0  0  0  0  0
  -22.7838  -13.5238   21.1842 C   0  0  0  0  0  0
  -22.1660   -4.2145   21.0979 F   0  0  0  0  0  0
  -21.5631   -3.4541   25.7741 F   0  0  0  0  0  0
  -30.0332  -13.2642   20.4374 N   0  0  0  0  0  0
  -26.2991  -12.9403   20.3335 N   0  0  0  0  0  0
  -25.9320  -11.6547   20.5761 N   0  0  0  0  0  0
  -22.0493  -12.8224   22.0405 N   0  0  0  0  0  0
  -25.4279  -15.1921   20.4122 N   0  0  0  0  0  0
  -31.9675  -14.3879   20.1525 O   0  0  0  0  0  0
  -21.6647   -6.8877   21.4237 O   0  0  0  0  0  0
  -22.3514  -14.5544   20.6699 O   0  0  0  0  0  0
  -24.6089  -31.8726   23.2150 C   0  0  0  0  0  0
  -25.9006  -32.4848   23.8425 C   0  0  1  0  0  0
  -27.2266  -27.4912   20.0908 C   0  0  0  0  0  0
  -25.5884  -33.8645   24.2358 N   0  0  0  0  0  0
  -23.3931  -30.4977   21.5543 C   0  0  2  0  0  0
  -24.8383  -28.9728   20.1135 C   0  0  0  0  0  0
  -22.7375  -29.4684   22.5016 C   0  0  0  0  0  0
  -18.0264  -28.1373   22.8498 C   0  0  0  0  0  0
  -24.1484  -36.7329   23.2637 C   0  0  0  0  0  0
  -25.9158  -30.8567   21.3589 C   0  0  0  0  0  0
  -25.9946  -29.4954   20.7078 C   0  0  0  0  0  0
  -27.1952  -28.7596   20.6968 C   0  0  0  0  0  0
  -26.0608  -26.9705   19.4880 C   0  0  0  0  0  0
  -24.8627  -27.7066   19.5024 C   0  0  0  0  0  0
  -23.5977  -29.8322   20.1669 C   0  0  0  0  0  0
  -25.4102  -36.3130   24.0343 C   0  0  1  0  0  0
  -20.5851  -28.3652   23.1336 C   0  0  2  0  0  0
  -20.6756  -26.9396   22.5421 C   0  0  0  0  0  0
  -19.5737  -26.6388   21.5214 C   0  0  0  0  0  0
  -18.1914  -26.7921   22.1624 C   0  0  0  0  0  0
  -19.1512  -28.8828   23.2916 C   0  0  0  0  0  0
  -18.9444  -30.1437   23.8923 C   0  0  0  0  0  0
  -17.6448  -30.6583   24.0568 C   0  0  0  0  0  0
  -25.9025  -34.9491   23.5147 C   0  0  0  0  0  0
  -16.5339  -29.9089   23.6324 C   0  0  0  0  0  0
  -16.7254  -28.6505   23.0346 C   0  0  0  0  0  0
  -26.4458  -31.6606   25.0727 C   0  0  0  0  0  0
  -25.3745  -31.3689   26.1489 C   0  0  0  0  0  0
  -27.0277  -30.3060   24.6053 C   0  0  0  0  0  0
  -27.6050  -32.4310   25.7479 C   0  0  0  0  0  0
  -27.5583  -37.1815   24.8463 C   0  0  0  0  0  0
  -21.4111  -29.3030   22.3752 N   0  0  0  0  0  0
  -26.4294  -37.3805   23.9412 N   0  0  0  0  0  0
  -24.6573  -31.0882   22.1022 N   0  0  0  0  0  0
  -23.4175  -28.8224   23.3034 O   0  0  0  0  0  0
  -28.3829  -26.7640   20.1040 O   0  0  0  0  0  0
  -26.5583  -34.8930   22.4705 O   0  0  0  0  0  0
  -23.5298  -32.1452   23.7583 O   0  0  0  0  0  0
  -29.2846  -18.6688   20.9845 C   0  0  0  0  0  0
  -29.0473  -20.0587   21.0421 C   0  0  0  0  0  0
  -30.3475  -18.1544   20.2085 C   0  0  0  0  0  0
  -29.8846  -20.9428   20.3217 C   0  0  0  0  0  0
  -31.1888  -19.0557   19.5001 C   0  0  0  0  0  0
  -30.9459  -20.4356   19.5591 C   0  0  0  0  0  0
  -30.6412  -16.7175   20.1396 C   0  0  0  0  0  0
  -30.1273  -15.6558   20.8042 C   0  0  0  0  0  0
  -28.2686  -25.5127   20.6382 C   0  0  0  0  0  0
  -29.0883  -24.5221   20.2734 C   0  0  0  0  0  0
  -28.8884  -23.1870   20.8239 C   0  0  0  0  0  0
  -32.2854  -18.6358   18.7366 N   0  0  0  0  0  0
  -29.7514  -22.3440   20.2606 N   0  0  0  0  0  0
  -28.0539  -22.8698   21.6751 O   0  0  0  0  0  0
  -30.0687  -24.7696   19.3858 O   0  0  0  0  0  0
  -31.7519  -21.2893   18.8756 F   0  0  0  0  0  0
  -31.4349  -12.2490   19.1526 H   0  0  0  0  0  0
  -30.2104  -11.2431   19.8603 H   0  0  0  0  0  0
  -29.7148  -11.7393   17.4372 H   0  0  0  0  0  0
  -29.6891  -13.4523   17.7811 H   0  0  0  0  0  0
  -27.7959  -11.3134   18.8148 H   0  0  0  0  0  0
  -27.3658  -12.6454   17.7777 H   0  0  0  0  0  0
  -27.6915  -14.2632   19.5498 H   0  0  0  0  0  0
  -28.6379  -12.0322   21.4045 H   0  0  0  0  0  0
  -28.4817  -13.7103   21.8282 H   0  0  0  0  0  0
  -25.2762   -9.5702   22.4748 H   0  0  0  0  0  0
  -24.0001   -7.4649   22.7476 H   0  0  0  0  0  0
  -21.0838   -8.8772   19.8955 H   0  0  0  0  0  0
  -22.3687  -10.9672   19.6159 H   0  0  0  0  0  0
  -21.2012   -7.6150   23.9710 H   0  0  0  0  0  0
  -21.1480   -6.0529   25.9074 H   0  0  0  0  0  0
  -22.0598   -2.7610   23.2851 H   0  0  0  0  0  0
  -22.4118  -11.9888   22.4793 H   0  0  0  0  0  0
  -21.1109  -13.1242   22.2618 H   0  0  0  0  0  0
  -24.6673  -15.8528   20.5288 H   0  0  0  0  0  0
  -26.2906  -15.6294   20.1124 H   0  0  0  0  0  0
  -26.7084  -32.5582   23.1205 H   0  0  0  0  0  0
  -25.0043  -33.9819   25.0507 H   0  0  0  0  0  0
  -22.6792  -31.3128   21.4192 H   0  0  0  0  0  0
  -23.3741  -35.9669   23.3313 H   0  0  0  0  0  0
  -24.3583  -36.8925   22.2049 H   0  0  0  0  0  0
  -23.7240  -37.6542   23.6635 H   0  0  0  0  0  0
  -26.0175  -31.6241   20.5903 H   0  0  0  0  0  0
  -26.8082  -30.9129   21.9704 H   0  0  0  0  0  0
  -28.0903  -29.1536   21.1578 H   0  0  0  0  0  0
  -26.0806  -25.9991   19.0140 H   0  0  0  0  0  0
  -23.9733  -27.2987   19.0419 H   0  0  0  0  0  0
  -23.6999  -30.6079   19.4074 H   0  0  0  0  0  0
  -22.7235  -29.2480   19.8739 H   0  0  0  0  0  0
  -25.1276  -36.2005   25.0836 H   0  0  0  0  0  0
  -20.9941  -28.3210   24.1456 H   0  0  0  0  0  0
  -20.5661  -26.2258   23.3600 H   0  0  0  0  0  0
  -21.6628  -26.7448   22.1211 H   0  0  0  0  0  0
  -19.6899  -25.6303   21.1228 H   0  0  0  0  0  0
  -19.6679  -27.3213   20.6755 H   0  0  0  0  0  0
  -17.4185  -26.6673   21.4025 H   0  0  0  0  0  0
  -18.0317  -26.0057   22.9014 H   0  0  0  0  0  0
  -19.7921  -30.7244   24.2305 H   0  0  0  0  0  0
  -17.5005  -31.6266   24.5163 H   0  0  0  0  0  0
  -15.5342  -30.3002   23.7632 H   0  0  0  0  0  0
  -15.8653  -28.0834   22.7046 H   0  0  0  0  0  0
  -24.5910  -30.7045   25.7826 H   0  0  0  0  0  0
  -24.8946  -32.2838   26.4975 H   0  0  0  0  0  0
  -25.8116  -30.8830   27.0221 H   0  0  0  0  0  0
  -26.2801  -29.6832   24.1125 H   0  0  0  0  0  0
  -27.4092  -29.7278   25.4480 H   0  0  0  0  0  0
  -27.8617  -30.4401   23.9158 H   0  0  0  0  0  0
  -27.2681  -33.3591   26.2108 H   0  0  0  0  0  0
  -28.3830  -32.6895   25.0284 H   0  0  0  0  0  0
  -28.0750  -31.8399   26.5350 H   0  0  0  0  0  0
  -28.2604  -38.0109   24.7516 H   0  0  0  0  0  0
  -28.1075  -36.2644   24.6280 H   0  0  0  0  0  0
  -27.2305  -37.1457   25.8867 H   0  0  0  0  0  0
  -20.9258  -29.8760   21.6992 H   0  0  0  0  0  0
  -26.0191  -38.2888   24.1410 H   0  0  0  0  0  0
  -28.6400  -18.0020   21.5385 H   0  0  0  0  0  0
  -28.2207  -20.4192   21.6358 H   0  0  0  0  0  0
  -31.4120  -16.5007   19.4160 H   0  0  0  0  0  0
  -29.3215  -15.7458   21.5158 H   0  0  0  0  0  0
  -27.4589  -25.4117   21.3524 H   0  0  0  0  0  0
  -32.7687  -17.8030   19.0510 H   0  0  0  0  0  0
  -32.9290  -19.3764   18.4768 H   0  0  0  0  0  0
  -30.3898  -22.8097   19.6257 H   0  0  0  0  0  0
  -30.0027  -25.6898   19.1618 H   0  0  0  0  0  0
  1 25  1  0  0  0
  1 30  2  0  0  0
  1 78  1  0  0  0
  2  3  1  0  0  0
  2 25  1  0  0  0
  2 87  1  0  0  0
  2 88  1  0  0  0
  3  4  1  0  0  0
  3 89  1  0  0  0
  3 90  1  0  0  0
  4  5  1  0  0  0
  4 91  1  0  0  0
  4 92  1  0  0  0
  5  6  1  0  0  0
  5 26  1  0  0  0
  5 93  1  0  0  0
  6 25  1  0  0  0
  6 94  1  0  0  0
  6 95  1  0  0  0
  7  8  2  0  0  0
  7 26  1  0  0  0
  7 29  1  0  0  0
  8  9  1  0  0  0
  8 22  1  0  0  0
  9 10  1  0  0  0
  9 27  2  0  0  0
 10 11  2  0  0  0
 10 15  1  0  0  0
 11 12  1  0  0  0
 11 96  1  0  0  0
 12 13  2  0  0  0
 12 97  1  0  0  0
 13 14  1  0  0  0
 13 31  1  0  0  0
 14 15  2  0  0  0
 14 98  1  0  0  0
 15 99  1  0  0  0
 16 17  2  0  0  0
 16 21  1  0  0  0
 16 31  1  0  0  0
 17 18  1  0  0  0
 17100  1  0  0  0
 18 19  2  0  0  0
 18101  1  0  0  0
 19 20  1  0  0  0
 19 24  1  0  0  0
 20 21  2  0  0  0
 20102  1  0  0  0
 21 23  1  0  0  0
 22 28  1  0  0  0
 22 32  2  0  0  0
 26 27  1  0  0  0
 28103  1  0  0  0
 28104  1  0  0  0
 29105  1  0  0  0
 29106  1  0  0  0
 33 34  1  0  0  0
 33 66  1  0  0  0
 33 70  2  0  0  0
 34 36  1  0  0  0
 34 59  1  0  0  0
 34107  1  0  0  0
 35 44  2  0  0  0
 35 45  1  0  0  0
 35 68  1  0  0  0
 36 56  1  0  0  0
 36108  1  0  0  0
 37 39  1  0  0  0
 37 47  1  0  0  0
 37 66  1  0  0  0
 37109  1  0  0  0
 38 43  2  0  0  0
 38 46  1  0  0  0
 38 47  1  0  0  0
 39 64  1  0  0  0
 39 67  2  0  0  0
 40 52  1  0  0  0
 40 53  2  0  0  0
 40 58  1  0  0  0
 41110  1  0  0  0
 41111  1  0  0  0
 41112  1  0  0  0
 41 48  1  0  0  0
 42 43  1  0  0  0
 42 66  1  0  0  0
 42113  1  0  0  0
 42114  1  0  0  0
 43 44  1  0  0  0
 44115  1  0  0  0
 45 46  2  0  0  0
 45116  1  0  0  0
 46117  1  0  0  0
 47118  1  0  0  0
 47119  1  0  0  0
 48 56  1  0  0  0
 48 65  1  0  0  0
 48120  1  0  0  0
 49 50  1  0  0  0
 49 53  1  0  0  0
 49 64  1  0  0  0
 49121  1  0  0  0
 50 51  1  0  0  0
 50122  1  0  0  0
 50123  1  0  0  0
 51 52  1  0  0  0
 51124  1  0  0  0
 51125  1  0  0  0
 52126  1  0  0  0
 52127  1  0  0  0
 53 54  1  0  0  0
 54 55  2  0  0  0
 54128  1  0  0  0
 55 57  1  0  0  0
 55129  1  0  0  0
 56 69  2  0  0  0
 57 58  2  0  0  0
 57130  1  0  0  0
 58131  1  0  0  0
 59 60  1  0  0  0
 59 61  1  0  0  0
 59 62  1  0  0  0
 60132  1  0  0  0
 60133  1  0  0  0
 60134  1  0  0  0
 61135  1  0  0  0
 61136  1  0  0  0
 61137  1  0  0  0
 62138  1  0  0  0
 62139  1  0  0  0
 62140  1  0  0  0
 63 65  1  0  0  0
 63141  1  0  0  0
 63142  1  0  0  0
 63143  1  0  0  0
 64144  1  0  0  0
 65145  1  0  0  0
 68 79  1  0  0  0
 71 72  2  0  0  0
 71 73  1  0  0  0
 71146  1  0  0  0
 72 74  1  0  0  0
 72147  1  0  0  0
 73 75  2  0  0  0
 73 77  1  0  0  0
 74 76  2  0  0  0
 74 83  1  0  0  0
 75 76  1  0  0  0
 75 82  1  0  0  0
 76 86  1  0  0  0
 77 78  2  0  0  0
 77148  1  0  0  0
 78149  1  0  0  0
 79 80  2  0  0  0
 79150  1  0  0  0
 80 81  1  0  0  0
 80 85  1  0  0  0
 81 83  1  0  0  0
 81 84  2  0  0  0
 82151  1  0  0  0
 82152  1  0  0  0
 83153  1  0  0  0
 85154  1  0  0  0
M  ISO  4   1 100  68 101  78 100  79 101
M  END
> <chiral flag>
0

> <version>
0

> <s_m_source_file>
/data/baiqing/PycharmProjects/Reinvent-master-3.2/result/LINK_invent/BTK/process_docking_weight1_custom_product_contain_oxygen_bond_distance_aromatic_linkinvent_7_9_3/rearranged_h_0170.sdf

> <i_m_source_file_index>
67

> <r_mmod_Potential_Energy-OPLS-2005>
-45.3939895629883

> <r_mmod_Stretch_Energy-OPLS-2005>
31.0064334869385

> <r_mmod_Bend_Energy-OPLS-2005>
121.774635314941

> <r_mmod_Torsional_Energy-OPLS-2005>
195.911560058594

> <r_mmod_Improper_Torsional_Energy-OPLS-2005>
9.18264961242676

> <r_mmod_Van_der_Waal_Energy-OPLS-2005>
191.058471679688

> <r_mmod_Electrostatic_Energy-OPLS-2005>
-411.583435058594

> <r_mmod_Solvation_Energy-OPLS-2005>
-206.545501708984

> <b_mmod_Minimization_Converged-OPLS-2005>
0

> <r_mmod_RMS_Derivative-OPLS-2005>
0.443666964769363

$$$$
67
                    3D
 Structure written by MMmdl.
158166  0  0  1  0            999 V2000
  -30.6943  -14.5551   20.4847 C   0  0  0  0  0  0
  -30.4101  -12.3354   19.4498 C   0  0  0  0  0  0
  -29.4944  -12.4880   18.2181 C   0  0  0  0  0  0
  -28.0161  -12.3497   18.6284 C   0  0  0  0  0  0
  -27.6485  -13.2220   19.8600 C   0  0  2  0  0  0
  -28.6930  -13.0841   20.9904 C   0  0  0  0  0  0
  -25.2529  -13.8195   20.5690 C   0  0  0  0  0  0
  -24.1805  -13.0447   20.9192 C   0  0  0  0  0  0
  -24.6386  -11.6920   20.8744 C   0  0  0  0  0  0
  -23.9064  -10.4294   21.0405 C   0  0  0  0  0  0
  -24.3616   -9.4208   21.9184 C   0  0  0  0  0  0
  -23.6290   -8.2243   22.0751 C   0  0  0  0  0  0
  -22.4270   -8.0279   21.3543 C   0  0  0  0  0  0
  -21.9913   -9.0249   20.4639 C   0  0  0  0  0  0
  -22.7243  -10.2131   20.3050 C   0  0  0  0  0  0
  -21.6850   -6.0733   22.5277 C   0  0  0  0  0  0
  -21.4011   -6.5640   23.8210 C   0  0  0  0  0  0
  -21.3656   -5.6790   24.9170 C   0  0  0  0  0  0
  -21.6045   -4.3054   24.7222 C   0  0  0  0  0  0
  -21.8822   -3.8147   23.4345 C   0  0  0  0  0  0
  -21.9196   -4.6962   22.3402 C   0  0  0  0  0  0
  -22.7827  -13.5229   21.1862 C   0  0  0  0  0  0
  -22.1660   -4.2149   21.0977 F   0  0  0  0  0  0
  -21.5631   -3.4538   25.7738 F   0  0  0  0  0  0
  -30.0133  -13.3741   20.4183 N   0  0  0  0  0  0
  -26.2964  -12.9391   20.3322 N   0  0  0  0  0  0
  -25.9318  -11.6537   20.5772 N   0  0  0  0  0  0
  -22.0475  -12.8201   22.0412 N   0  0  0  0  0  0
  -25.4235  -15.1916   20.4098 N   0  0  0  0  0  0
  -31.8753  -14.6166   20.1378 O   0  0  0  0  0  0
  -21.6638   -6.8876   21.4238 O   0  0  0  0  0  0
  -22.3503  -14.5535   20.6717 O   0  0  0  0  0  0
  -24.6194  -31.8650   23.2073 C   0  0  0  0  0  0
  -25.9072  -32.4803   23.8387 C   0  0  1  0  0  0
  -27.2207  -27.3919   20.1099 C   0  0  0  0  0  0
  -25.5915  -33.8601   24.2322 N   0  0  0  0  0  0
  -23.4096  -30.4892   21.5481 C   0  0  2  0  0  0
  -24.8564  -28.9538   20.1086 C   0  0  0  0  0  0
  -22.7439  -29.4644   22.4961 C   0  0  0  0  0  0
  -18.0275  -28.1389   22.8494 C   0  0  0  0  0  0
  -24.1474  -36.7276   23.2645 C   0  0  0  0  0  0
  -25.9428  -30.8194   21.3659 C   0  0  0  0  0  0
  -26.0200  -29.4525   20.7092 C   0  0  0  0  0  0
  -27.2108  -28.6803   20.7040 C   0  0  0  0  0  0
  -26.0457  -26.9250   19.4864 C   0  0  0  0  0  0
  -24.8667  -27.6928   19.4893 C   0  0  0  0  0  0
  -23.6199  -29.8240   20.1617 C   0  0  0  0  0  0
  -25.4098  -36.3090   24.0348 C   0  0  1  0  0  0
  -20.5871  -28.3672   23.1298 C   0  0  2  0  0  0
  -20.6766  -26.9408   22.5405 C   0  0  0  0  0  0
  -19.5736  -26.6386   21.5213 C   0  0  0  0  0  0
  -18.1912  -26.7936   22.1622 C   0  0  0  0  0  0
  -19.1531  -28.8846   23.2891 C   0  0  0  0  0  0
  -18.9461  -30.1453   23.8900 C   0  0  0  0  0  0
  -17.6468  -30.6596   24.0568 C   0  0  0  0  0  0
  -25.9043  -34.9465   23.5131 C   0  0  0  0  0  0
  -16.5352  -29.9095   23.6350 C   0  0  0  0  0  0
  -16.7267  -28.6513   23.0369 C   0  0  0  0  0  0
  -26.4490  -31.6587   25.0723 C   0  0  0  0  0  0
  -25.3747  -31.3679   26.1456 C   0  0  0  0  0  0
  -27.0341  -30.3039   24.6097 C   0  0  0  0  0  0
  -27.6047  -32.4315   25.7494 C   0  0  0  0  0  0
  -27.5568  -37.1787   24.8475 C   0  0  0  0  0  0
  -21.4159  -29.3033   22.3698 N   0  0  0  0  0  0
  -26.4274  -37.3783   23.9435 N   0  0  0  0  0  0
  -24.6759  -31.0723   22.0985 N   0  0  0  0  0  0
  -23.4188  -28.8185   23.3023 O   0  0  0  0  0  0
  -28.3211  -26.5551   20.1581 O   0  0  0  0  0  0
  -26.5593  -34.8923   22.4684 O   0  0  0  0  0  0
  -23.5372  -32.1411   23.7447 O   0  0  0  0  0  0
  -31.5612  -17.4760   19.9964 C   0  0  0  0  0  0
  -30.3657  -17.0730   20.5464 C   0  0  0  0  0  0
  -29.5431  -18.2116   20.8973 C   0  0  0  0  0  0
  -30.1366  -19.4501   20.6863 C   0  0  0  0  0  0
  -29.7576  -20.8306   21.0246 C   0  0  0  0  0  0
  -28.5982  -24.0226   20.4434 C   0  0  0  0  0  0
  -27.9241  -22.7777   22.5745 C   0  0  0  0  0  0
  -26.4822  -22.6506   20.5006 C   0  0  0  0  0  0
  -28.0902  -25.3903   21.0033 C   0  0  0  0  0  0
  -27.9431  -22.7163   21.0223 C   0  0  0  0  0  0
  -30.6377  -21.5355   21.7550 N   0  0  0  0  0  0
  -29.9745  -15.6844   20.7475 N   0  0  0  0  0  0
  -28.5956  -21.4163   20.6226 N   0  3  0  0  0  0
  -29.4828  -23.9682   19.5833 O   0  0  0  0  0  0
  -28.3532  -18.0595   21.4331 F   0  0  0  0  0  0
  -31.7145  -19.2143   19.9666 S   0  0  0  0  0  0
  -31.4573  -12.4095   19.1521 H   0  0  0  0  0  0
  -30.2978  -11.3446   19.8934 H   0  0  0  0  0  0
  -29.7445  -11.7375   17.4668 H   0  0  0  0  0  0
  -29.6585  -13.4591   17.7483 H   0  0  0  0  0  0
  -27.8357  -11.2983   18.8533 H   0  0  0  0  0  0
  -27.3657  -12.5951   17.7874 H   0  0  0  0  0  0
  -27.6670  -14.2568   19.5181 H   0  0  0  0  0  0
  -28.6804  -12.0743   21.4035 H   0  0  0  0  0  0
  -28.4597  -13.7529   21.8209 H   0  0  0  0  0  0
  -25.2759   -9.5687   22.4757 H   0  0  0  0  0  0
  -24.0002   -7.4635   22.7471 H   0  0  0  0  0  0
  -21.0850   -8.8768   19.8935 H   0  0  0  0  0  0
  -22.3708  -10.9665   19.6152 H   0  0  0  0  0  0
  -21.1994   -7.6144   23.9714 H   0  0  0  0  0  0
  -21.1472   -6.0516   25.9074 H   0  0  0  0  0  0
  -22.0604   -2.7608   23.2845 H   0  0  0  0  0  0
  -22.4086  -11.9851   22.4781 H   0  0  0  0  0  0
  -21.1092  -13.1212   22.2626 H   0  0  0  0  0  0
  -24.6581  -15.8475   20.5212 H   0  0  0  0  0  0
  -26.2769  -15.6338   20.0931 H   0  0  0  0  0  0
  -26.7141  -32.5506   23.1150 H   0  0  0  0  0  0
  -25.0116  -33.9767   25.0501 H   0  0  0  0  0  0
  -22.6995  -31.3067   21.4082 H   0  0  0  0  0  0
  -23.3756  -35.9587   23.3308 H   0  0  0  0  0  0
  -24.3571  -36.8887   22.2059 H   0  0  0  0  0  0
  -23.7201  -37.6471   23.6652 H   0  0  0  0  0  0
  -26.0617  -31.5855   20.5986 H   0  0  0  0  0  0
  -26.8283  -30.8705   21.9878 H   0  0  0  0  0  0
  -28.1058  -29.0531   21.1815 H   0  0  0  0  0  0
  -26.0352  -25.9525   19.0142 H   0  0  0  0  0  0
  -23.9737  -27.3043   19.0201 H   0  0  0  0  0  0
  -23.7305  -30.6002   19.4036 H   0  0  0  0  0  0
  -22.7432  -29.2464   19.8639 H   0  0  0  0  0  0
  -25.1275  -36.1944   25.0840 H   0  0  0  0  0  0
  -20.9963  -28.3235   24.1418 H   0  0  0  0  0  0
  -20.5678  -26.2281   23.3594 H   0  0  0  0  0  0
  -21.6631  -26.7451   22.1178 H   0  0  0  0  0  0
  -19.6891  -25.6300   21.1230 H   0  0  0  0  0  0
  -19.6674  -27.3208   20.6753 H   0  0  0  0  0  0
  -17.4184  -26.6706   21.4017 H   0  0  0  0  0  0
  -18.0295  -26.0075   22.9007 H   0  0  0  0  0  0
  -19.7944  -30.7268   24.2252 H   0  0  0  0  0  0
  -17.5032  -31.6279   24.5163 H   0  0  0  0  0  0
  -15.5356  -30.3000   23.7692 H   0  0  0  0  0  0
  -15.8660  -28.0836   22.7096 H   0  0  0  0  0  0
  -24.5935  -30.7017   25.7783 H   0  0  0  0  0  0
  -24.8923  -32.2827   26.4910 H   0  0  0  0  0  0
  -25.8096  -30.8842   27.0210 H   0  0  0  0  0  0
  -26.2886  -29.6774   24.1182 H   0  0  0  0  0  0
  -27.4175  -29.7301   25.4547 H   0  0  0  0  0  0
  -27.8691  -30.4396   23.9218 H   0  0  0  0  0  0
  -27.2662  -33.3624   26.2059 H   0  0  0  0  0  0
  -28.3864  -32.6858   25.0322 H   0  0  0  0  0  0
  -28.0700  -31.8445   26.5425 H   0  0  0  0  0  0
  -28.2571  -38.0099   24.7551 H   0  0  0  0  0  0
  -28.1078  -36.2632   24.6261 H   0  0  0  0  0  0
  -27.2290  -37.1384   25.8879 H   0  0  0  0  0  0
  -20.9319  -29.8744   21.6913 H   0  0  0  0  0  0
  -26.0158  -38.2851   24.1468 H   0  0  0  0  0  0
  -32.3840  -16.8840   19.6164 H   0  0  0  0  0  0
  -27.0325  -23.2658   22.9677 H   0  0  0  0  0  0
  -28.7759  -23.3244   22.9803 H   0  0  0  0  0  0
  -27.9511  -21.7809   23.0173 H   0  0  0  0  0  0
  -25.7747  -23.1331   21.1750 H   0  0  0  0  0  0
  -26.1330  -21.6254   20.3736 H   0  0  0  0  0  0
  -26.3664  -23.1412   19.5324 H   0  0  0  0  0  0
  -28.5950  -25.5676   21.9530 H   0  0  0  0  0  0
  -27.0319  -25.2844   21.2465 H   0  0  0  0  0  0
  -31.4856  -21.0909   22.0749 H   0  0  0  0  0  0
  -30.5381  -22.5127   21.9640 H   0  0  0  0  0  0
  -29.0229  -15.5372   21.0471 H   0  0  0  0  0  0
  -28.0583  -20.8844   19.9531 H   0  0  0  0  0  0
  1 25  1  0  0  0
  1 30  2  0  0  0
  1 82  1  0  0  0
  2  3  1  0  0  0
  2 25  1  0  0  0
  2 87  1  0  0  0
  2 88  1  0  0  0
  3  4  1  0  0  0
  3 89  1  0  0  0
  3 90  1  0  0  0
  4  5  1  0  0  0
  4 91  1  0  0  0
  4 92  1  0  0  0
  5  6  1  0  0  0
  5 26  1  0  0  0
  5 93  1  0  0  0
  6 25  1  0  0  0
  6 94  1  0  0  0
  6 95  1  0  0  0
  7  8  2  0  0  0
  7 26  1  0  0  0
  7 29  1  0  0  0
  8  9  1  0  0  0
  8 22  1  0  0  0
  9 10  1  0  0  0
  9 27  2  0  0  0
 10 11  2  0  0  0
 10 15  1  0  0  0
 11 12  1  0  0  0
 11 96  1  0  0  0
 12 13  2  0  0  0
 12 97  1  0  0  0
 13 14  1  0  0  0
 13 31  1  0  0  0
 14 15  2  0  0  0
 14 98  1  0  0  0
 15 99  1  0  0  0
 16 17  2  0  0  0
 16 21  1  0  0  0
 16 31  1  0  0  0
 17 18  1  0  0  0
 17100  1  0  0  0
 18 19  2  0  0  0
 18101  1  0  0  0
 19 20  1  0  0  0
 19 24  1  0  0  0
 20 21  2  0  0  0
 20102  1  0  0  0
 21 23  1  0  0  0
 22 28  1  0  0  0
 22 32  2  0  0  0
 26 27  1  0  0  0
 28103  1  0  0  0
 28104  1  0  0  0
 29105  1  0  0  0
 29106  1  0  0  0
 33 34  1  0  0  0
 33 66  1  0  0  0
 33 70  2  0  0  0
 34 36  1  0  0  0
 34 59  1  0  0  0
 34107  1  0  0  0
 35 44  2  0  0  0
 35 45  1  0  0  0
 35 68  1  0  0  0
 36 56  1  0  0  0
 36108  1  0  0  0
 37 39  1  0  0  0
 37 47  1  0  0  0
 37 66  1  0  0  0
 37109  1  0  0  0
 38 43  2  0  0  0
 38 46  1  0  0  0
 38 47  1  0  0  0
 39 64  1  0  0  0
 39 67  2  0  0  0
 40 52  1  0  0  0
 40 53  2  0  0  0
 40 58  1  0  0  0
 41110  1  0  0  0
 41111  1  0  0  0
 41112  1  0  0  0
 41 48  1  0  0  0
 42 43  1  0  0  0
 42 66  1  0  0  0
 42113  1  0  0  0
 42114  1  0  0  0
 43 44  1  0  0  0
 44115  1  0  0  0
 45 46  2  0  0  0
 45116  1  0  0  0
 46117  1  0  0  0
 47118  1  0  0  0
 47119  1  0  0  0
 48 56  1  0  0  0
 48 65  1  0  0  0
 48120  1  0  0  0
 49 50  1  0  0  0
 49 53  1  0  0  0
 49 64  1  0  0  0
 49121  1  0  0  0
 50 51  1  0  0  0
 50122  1  0  0  0
 50123  1  0  0  0
 51 52  1  0  0  0
 51124  1  0  0  0
 51125  1  0  0  0
 52126  1  0  0  0
 52127  1  0  0  0
 53 54  1  0  0  0
 54 55  2  0  0  0
 54128  1  0  0  0
 55 57  1  0  0  0
 55129  1  0  0  0
 56 69  2  0  0  0
 57 58  2  0  0  0
 57130  1  0  0  0
 58131  1  0  0  0
 59 60  1  0  0  0
 59 61  1  0  0  0
 59 62  1  0  0  0
 60132  1  0  0  0
 60133  1  0  0  0
 60134  1  0  0  0
 61135  1  0  0  0
 61136  1  0  0  0
 61137  1  0  0  0
 62138  1  0  0  0
 62139  1  0  0  0
 62140  1  0  0  0
 63 65  1  0  0  0
 63141  1  0  0  0
 63142  1  0  0  0
 63143  1  0  0  0
 64144  1  0  0  0
 65145  1  0  0  0
 68 79  1  0  0  0
 71 72  2  0  0  0
 71 86  1  0  0  0
 71146  1  0  0  0
 72 73  1  0  0  0
 72 82  1  0  0  0
 73 74  2  0  0  0
 73 85  1  0  0  0
 74 75  1  0  0  0
 74 86  1  0  0  0
 75 81  1  0  0  0
 75 83  2  0  0  0
 76 79  1  0  0  0
 76 80  1  0  0  0
 76 84  2  0  0  0
 77147  1  0  0  0
 77148  1  0  0  0
 77149  1  0  0  0
 77 80  1  0  0  0
 78 80  1  0  0  0
 78150  1  0  0  0
 78151  1  0  0  0
 78152  1  0  0  0
 79153  1  0  0  0
 79154  1  0  0  0
 80 83  1  0  0  0
 81155  1  0  0  0
 81156  1  0  0  0
 82157  1  0  0  0
 83158  1  0  0  0
M  CHG  1  83   1
M  ISO  4   1 100  68 101  79 101  82 100
M  END
> <chiral flag>
0

> <version>
0

> <s_m_source_file>
/data/baiqing/PycharmProjects/Reinvent-master-3.2/result/LINK_invent/BTK/process_docking_weight1_custom_product_contain_oxygen_bond_distance_aromatic_linkinvent_7_9_3/rearranged_h_0170.sdf

> <i_m_source_file_index>
68

> <r_mmod_Potential_Energy-OPLS-2005>
-109.677543640137

> <r_mmod_Stretch_Energy-OPLS-2005>
54.7448043823242

> <r_mmod_Bend_Energy-OPLS-2005>
123.476837158203

> <r_mmod_Torsional_Energy-OPLS-2005>
249.777481079102

> <r_mmod_Improper_Torsional_Energy-OPLS-2005>
4.84431648254395

> <r_mmod_Van_der_Waal_Energy-OPLS-2005>
136.145263671875

> <r_mmod_Electrostatic_Energy-OPLS-2005>
-256.262725830078

> <r_mmod_Solvation_Energy-OPLS-2005>
-453.562194824219

> <b_mmod_Minimization_Converged-OPLS-2005>
0

> <r_mmod_RMS_Derivative-OPLS-2005>
1.11081290245056

$$$$
68
                    3D
 Structure written by MMmdl.
158166  0  0  1  0            999 V2000
  -30.6591  -14.5551   20.5371 C   0  0  0  0  0  0
  -30.4312  -12.3510   19.4288 C   0  0  0  0  0  0
  -29.4979  -12.5005   18.2087 C   0  0  0  0  0  0
  -28.0210  -12.3475   18.6255 C   0  0  0  0  0  0
  -27.6545  -13.2086   19.8637 C   0  0  2  0  0  0
  -28.7001  -13.0342   20.9880 C   0  0  0  0  0  0
  -25.2570  -13.8160   20.5671 C   0  0  0  0  0  0
  -24.1834  -13.0437   20.9194 C   0  0  0  0  0  0
  -24.6392  -11.6903   20.8748 C   0  0  0  0  0  0
  -23.9062  -10.4290   21.0416 C   0  0  0  0  0  0
  -24.3614   -9.4205   21.9193 C   0  0  0  0  0  0
  -23.6290   -8.2240   22.0756 C   0  0  0  0  0  0
  -22.4271   -8.0283   21.3545 C   0  0  0  0  0  0
  -21.9911   -9.0257   20.4646 C   0  0  0  0  0  0
  -22.7238  -10.2137   20.3060 C   0  0  0  0  0  0
  -21.6849   -6.0739   22.5282 C   0  0  0  0  0  0
  -21.4010   -6.5641   23.8216 C   0  0  0  0  0  0
  -21.3661   -5.6793   24.9178 C   0  0  0  0  0  0
  -21.6043   -4.3056   24.7227 C   0  0  0  0  0  0
  -21.8820   -3.8150   23.4346 C   0  0  0  0  0  0
  -21.9190   -4.6967   22.3402 C   0  0  0  0  0  0
  -22.7857  -13.5235   21.1861 C   0  0  0  0  0  0
  -22.1660   -4.2152   21.0980 F   0  0  0  0  0  0
  -21.5630   -3.4540   25.7740 F   0  0  0  0  0  0
  -30.0176  -13.3570   20.4204 N   0  0  0  0  0  0
  -26.2992  -12.9327   20.3319 N   0  0  0  0  0  0
  -25.9316  -11.6491   20.5759 N   0  0  0  0  0  0
  -22.0496  -12.8219   22.0407 N   0  0  0  0  0  0
  -25.4279  -15.1882   20.4065 N   0  0  0  0  0  0
  -31.8282  -14.7135   20.1736 O   0  0  0  0  0  0
  -21.6637   -6.8880   21.4241 O   0  0  0  0  0  0
  -22.3550  -14.5549   20.6716 O   0  0  0  0  0  0
  -24.6181  -31.8641   23.2066 C   0  0  0  0  0  0
  -25.9057  -32.4801   23.8377 C   0  0  1  0  0  0
  -27.2329  -27.3884   20.1156 C   0  0  0  0  0  0
  -25.5900  -33.8600   24.2311 N   0  0  0  0  0  0
  -23.4088  -30.4851   21.5489 C   0  0  2  0  0  0
  -24.8567  -28.9403   20.1210 C   0  0  0  0  0  0
  -22.7427  -29.4639   22.4993 C   0  0  0  0  0  0
  -18.0271  -28.1368   22.8493 C   0  0  0  0  0  0
  -24.1487  -36.7312   23.2642 C   0  0  0  0  0  0
  -25.9410  -30.8173   21.3642 C   0  0  0  0  0  0
  -26.0200  -29.4453   20.7174 C   0  0  0  0  0  0
  -27.2144  -28.6796   20.7057 C   0  0  0  0  0  0
  -26.0528  -26.9067   19.5142 C   0  0  0  0  0  0
  -24.8702  -27.6724   19.5139 C   0  0  0  0  0  0
  -23.6197  -29.8119   20.1664 C   0  0  0  0  0  0
  -25.4108  -36.3103   24.0339 C   0  0  1  0  0  0
  -20.5861  -28.3665   23.1313 C   0  0  2  0  0  0
  -20.6759  -26.9403   22.5415 C   0  0  0  0  0  0
  -19.5741  -26.6383   21.5209 C   0  0  0  0  0  0
  -18.1918  -26.7915   22.1619 C   0  0  0  0  0  0
  -19.1519  -28.8835   23.2893 C   0  0  0  0  0  0
  -18.9450  -30.1439   23.8907 C   0  0  0  0  0  0
  -17.6454  -30.6582   24.0560 C   0  0  0  0  0  0
  -25.9037  -34.9466   23.5127 C   0  0  0  0  0  0
  -16.5343  -29.9082   23.6328 C   0  0  0  0  0  0
  -16.7258  -28.6493   23.0360 C   0  0  0  0  0  0
  -26.4479  -31.6584   25.0711 C   0  0  0  0  0  0
  -25.3744  -31.3672   26.1454 C   0  0  0  0  0  0
  -27.0325  -30.3032   24.6093 C   0  0  0  0  0  0
  -27.6047  -32.4311   25.7476 C   0  0  0  0  0  0
  -27.5582  -37.1808   24.8467 C   0  0  0  0  0  0
  -21.4151  -29.3030   22.3727 N   0  0  0  0  0  0
  -26.4295  -37.3788   23.9407 N   0  0  0  0  0  0
  -24.6748  -31.0708   22.0982 N   0  0  0  0  0  0
  -23.4180  -28.8181   23.3051 O   0  0  0  0  0  0
  -28.3832  -26.6189   20.0623 O   0  0  0  0  0  0
  -26.5606  -34.8925   22.4694 O   0  0  0  0  0  0
  -23.5362  -32.1409   23.7435 O   0  0  0  0  0  0
  -31.5239  -18.6523   22.3108 C   0  0  0  0  0  0
  -30.9261  -19.6950   21.5740 C   0  0  0  0  0  0
  -31.1920  -17.3074   22.0530 C   0  0  0  0  0  0
  -29.9669  -19.4154   20.5770 C   0  0  0  0  0  0
  -30.2402  -16.9829   21.0623 C   0  0  0  0  0  0
  -29.6136  -18.0471   20.3444 C   0  0  0  0  0  0
  -28.3678  -24.0734   20.2488 C   0  0  0  0  0  0
  -28.8500  -22.7757   22.4289 C   0  0  0  0  0  0
  -29.4607  -20.5721   19.6754 C   0  0  0  0  0  0
  -28.4526  -25.4688   20.9517 C   0  0  0  0  0  0
  -29.0717  -22.8262   20.9034 C   0  0  1  0  0  0
  -29.8645  -15.6092   20.8517 N   0  0  0  0  0  0
  -28.5265  -21.5927   20.2513 N   0  3  0  0  0  0
  -27.7463  -23.9568   19.1864 O   0  0  0  0  0  0
  -28.6922  -17.7427   19.3982 F   0  0  0  0  0  0
  -31.4730  -12.4698   19.1262 H   0  0  0  0  0  0
  -30.3541  -11.3494   19.8541 H   0  0  0  0  0  0
  -29.7497  -11.7601   17.4483 H   0  0  0  0  0  0
  -29.6487  -13.4768   17.7452 H   0  0  0  0  0  0
  -27.8489  -11.2935   18.8462 H   0  0  0  0  0  0
  -27.3659  -12.5921   17.7888 H   0  0  0  0  0  0
  -27.6811  -14.2475   19.5348 H   0  0  0  0  0  0
  -28.6977  -12.0083   21.3589 H   0  0  0  0  0  0
  -28.4611  -13.6609   21.8489 H   0  0  0  0  0  0
  -25.2759   -9.5682   22.4768 H   0  0  0  0  0  0
  -23.9999   -7.4632   22.7475 H   0  0  0  0  0  0
  -21.0843   -8.8778   19.8950 H   0  0  0  0  0  0
  -22.3701  -10.9678   19.6169 H   0  0  0  0  0  0
  -21.2002   -7.6151   23.9720 H   0  0  0  0  0  0
  -21.1481   -6.0525   25.9082 H   0  0  0  0  0  0
  -22.0597   -2.7610   23.2847 H   0  0  0  0  0  0
  -22.4104  -11.9864   22.4773 H   0  0  0  0  0  0
  -21.1119  -13.1254   22.2627 H   0  0  0  0  0  0
  -24.6558  -15.8377   20.5086 H   0  0  0  0  0  0
  -26.2667  -15.6276   20.0492 H   0  0  0  0  0  0
  -26.7128  -32.5507   23.1135 H   0  0  0  0  0  0
  -25.0043  -33.9751   25.0453 H   0  0  0  0  0  0
  -22.6993  -31.3026   21.4057 H   0  0  0  0  0  0
  -23.3745  -35.9651   23.3308 H   0  0  0  0  0  0
  -24.3580  -36.8925   22.2055 H   0  0  0  0  0  0
  -23.7243  -37.6520   23.6655 H   0  0  0  0  0  0
  -26.0536  -31.5781   20.5902 H   0  0  0  0  0  0
  -26.8279  -30.8760   21.9831 H   0  0  0  0  0  0
  -28.1164  -29.0707   21.1560 H   0  0  0  0  0  0
  -26.0474  -25.9375   19.0366 H   0  0  0  0  0  0
  -23.9778  -27.2793   19.0457 H   0  0  0  0  0  0
  -23.7286  -30.5831   19.4028 H   0  0  0  0  0  0
  -22.7427  -29.2311   19.8742 H   0  0  0  0  0  0
  -25.1281  -36.1973   25.0833 H   0  0  0  0  0  0
  -20.9939  -28.3232   24.1437 H   0  0  0  0  0  0
  -20.5670  -26.2269   23.3597 H   0  0  0  0  0  0
  -21.6629  -26.7449   22.1202 H   0  0  0  0  0  0
  -19.6907  -25.6298   21.1231 H   0  0  0  0  0  0
  -19.6683  -27.3197   20.6741 H   0  0  0  0  0  0
  -17.4190  -26.6667   21.4019 H   0  0  0  0  0  0
  -18.0317  -26.0046   22.9003 H   0  0  0  0  0  0
  -19.7930  -30.7239   24.2290 H   0  0  0  0  0  0
  -17.5017  -31.6270   24.5149 H   0  0  0  0  0  0
  -15.5345  -30.2994   23.7645 H   0  0  0  0  0  0
  -15.8651  -28.0812   22.7087 H   0  0  0  0  0  0
  -24.5924  -30.7015   25.7781 H   0  0  0  0  0  0
  -24.8921  -32.2812   26.4927 H   0  0  0  0  0  0
  -25.8098  -30.8824   27.0201 H   0  0  0  0  0  0
  -26.2872  -29.6765   24.1176 H   0  0  0  0  0  0
  -27.4136  -29.7289   25.4547 H   0  0  0  0  0  0
  -27.8686  -30.4357   23.9220 H   0  0  0  0  0  0
  -27.2669  -33.3612   26.2060 H   0  0  0  0  0  0
  -28.3851  -32.6867   25.0296 H   0  0  0  0  0  0
  -28.0722  -31.8430   26.5384 H   0  0  0  0  0  0
  -28.2597  -38.0108   24.7522 H   0  0  0  0  0  0
  -28.1080  -36.2637   24.6288 H   0  0  0  0  0  0
  -27.2297  -37.1455   25.8871 H   0  0  0  0  0  0
  -20.9321  -29.8757   21.6946 H   0  0  0  0  0  0
  -26.0186  -38.2872   24.1397 H   0  0  0  0  0  0
  -32.2578  -18.8845   23.0705 H   0  0  0  0  0  0
  -31.2357  -20.7139   21.7619 H   0  0  0  0  0  0
  -31.6653  -16.5267   22.6320 H   0  0  0  0  0  0
  -29.3354  -23.6136   22.9300 H   0  0  0  0  0  0
  -29.2704  -21.8675   22.8606 H   0  0  0  0  0  0
  -27.7908  -22.8025   22.6879 H   0  0  0  0  0  0
  -28.9403  -20.1215   18.8297 H   0  0  0  0  0  0
  -30.3214  -21.0768   19.2351 H   0  0  0  0  0  0
  -29.3983  -25.5237   21.4906 H   0  0  0  0  0  0
  -27.6652  -25.5277   21.7041 H   0  0  0  0  0  0
  -30.1400  -22.8934   20.6968 H   0  0  0  0  0  0
  -28.8773  -15.4118   20.8909 H   0  0  0  0  0  0
  -27.8276  -21.1542   20.8261 H   0  0  0  0  0  0
  -28.0359  -21.9890   19.4592 H   0  0  0  0  0  0
  1 25  1  0  0  0
  1 30  2  0  0  0
  1 82  1  0  0  0
  2  3  1  0  0  0
  2 25  1  0  0  0
  2 86  1  0  0  0
  2 87  1  0  0  0
  3  4  1  0  0  0
  3 88  1  0  0  0
  3 89  1  0  0  0
  4  5  1  0  0  0
  4 90  1  0  0  0
  4 91  1  0  0  0
  5  6  1  0  0  0
  5 26  1  0  0  0
  5 92  1  0  0  0
  6 25  1  0  0  0
  6 93  1  0  0  0
  6 94  1  0  0  0
  7  8  2  0  0  0
  7 26  1  0  0  0
  7 29  1  0  0  0
  8  9  1  0  0  0
  8 22  1  0  0  0
  9 10  1  0  0  0
  9 27  2  0  0  0
 10 11  2  0  0  0
 10 15  1  0  0  0
 11 12  1  0  0  0
 11 95  1  0  0  0
 12 13  2  0  0  0
 12 96  1  0  0  0
 13 14  1  0  0  0
 13 31  1  0  0  0
 14 15  2  0  0  0
 14 97  1  0  0  0
 15 98  1  0  0  0
 16 17  2  0  0  0
 16 21  1  0  0  0
 16 31  1  0  0  0
 17 18  1  0  0  0
 17 99  1  0  0  0
 18 19  2  0  0  0
 18100  1  0  0  0
 19 20  1  0  0  0
 19 24  1  0  0  0
 20 21  2  0  0  0
 20101  1  0  0  0
 21 23  1  0  0  0
 22 28  1  0  0  0
 22 32  2  0  0  0
 26 27  1  0  0  0
 28102  1  0  0  0
 28103  1  0  0  0
 29104  1  0  0  0
 29105  1  0  0  0
 33 34  1  0  0  0
 33 66  1  0  0  0
 33 70  2  0  0  0
 34 36  1  0  0  0
 34 59  1  0  0  0
 34106  1  0  0  0
 35 44  2  0  0  0
 35 45  1  0  0  0
 35 68  1  0  0  0
 36 56  1  0  0  0
 36107  1  0  0  0
 37 39  1  0  0  0
 37 47  1  0  0  0
 37 66  1  0  0  0
 37108  1  0  0  0
 38 43  2  0  0  0
 38 46  1  0  0  0
 38 47  1  0  0  0
 39 64  1  0  0  0
 39 67  2  0  0  0
 40 52  1  0  0  0
 40 53  2  0  0  0
 40 58  1  0  0  0
 41109  1  0  0  0
 41110  1  0  0  0
 41111  1  0  0  0
 41 48  1  0  0  0
 42 43  1  0  0  0
 42 66  1  0  0  0
 42112  1  0  0  0
 42113  1  0  0  0
 43 44  1  0  0  0
 44114  1  0  0  0
 45 46  2  0  0  0
 45115  1  0  0  0
 46116  1  0  0  0
 47117  1  0  0  0
 47118  1  0  0  0
 48 56  1  0  0  0
 48 65  1  0  0  0
 48119  1  0  0  0
 49 50  1  0  0  0
 49 53  1  0  0  0
 49 64  1  0  0  0
 49120  1  0  0  0
 50 51  1  0  0  0
 50121  1  0  0  0
 50122  1  0  0  0
 51 52  1  0  0  0
 51123  1  0  0  0
 51124  1  0  0  0
 52125  1  0  0  0
 52126  1  0  0  0
 53 54  1  0  0  0
 54 55  2  0  0  0
 54127  1  0  0  0
 55 57  1  0  0  0
 55128  1  0  0  0
 56 69  2  0  0  0
 57 58  2  0  0  0
 57129  1  0  0  0
 58130  1  0  0  0
 59 60  1  0  0  0
 59 61  1  0  0  0
 59 62  1  0  0  0
 60131  1  0  0  0
 60132  1  0  0  0
 60133  1  0  0  0
 61134  1  0  0  0
 61135  1  0  0  0
 61136  1  0  0  0
 62137  1  0  0  0
 62138  1  0  0  0
 62139  1  0  0  0
 63 65  1  0  0  0
 63140  1  0  0  0
 63141  1  0  0  0
 63142  1  0  0  0
 64143  1  0  0  0
 65144  1  0  0  0
 68 80  1  0  0  0
 71 72  2  0  0  0
 71 73  1  0  0  0
 71145  1  0  0  0
 72 74  1  0  0  0
 72146  1  0  0  0
 73 75  2  0  0  0
 73147  1  0  0  0
 74 76  2  0  0  0
 74 79  1  0  0  0
 75 76  1  0  0  0
 75 82  1  0  0  0
 76 85  1  0  0  0
 77 80  1  0  0  0
 77 81  1  0  0  0
 77 84  2  0  0  0
 78148  1  0  0  0
 78149  1  0  0  0
 78150  1  0  0  0
 78 81  1  0  0  0
 79 83  1  0  0  0
 79151  1  0  0  0
 79152  1  0  0  0
 80153  1  0  0  0
 80154  1  0  0  0
 81 83  1  0  0  0
 81155  1  0  0  0
 82156  1  0  0  0
 83157  1  0  0  0
 83158  1  0  0  0
M  CHG  1  83   1
M  ISO  4   1 100  68 101  80 101  82 100
M  END
> <chiral flag>
0

> <version>
0

> <s_m_source_file>
/data/baiqing/PycharmProjects/Reinvent-master-3.2/result/LINK_invent/BTK/process_docking_weight1_custom_product_contain_oxygen_bond_distance_aromatic_linkinvent_7_9_3/rearranged_h_0170.sdf

> <i_m_source_file_index>
69

> <r_mmod_Potential_Energy-OPLS-2005>
-287.501525878906

> <r_mmod_Stretch_Energy-OPLS-2005>
51.8749580383301

> <r_mmod_Bend_Energy-OPLS-2005>
111.126777648926

> <r_mmod_Torsional_Energy-OPLS-2005>
266.517791748047

> <r_mmod_Improper_Torsional_Energy-OPLS-2005>
6.05645036697388

> <r_mmod_Van_der_Waal_Energy-OPLS-2005>
137.668258666992

> <r_mmod_Electrostatic_Energy-OPLS-2005>
-404.077423095703

> <r_mmod_Solvation_Energy-OPLS-2005>
-480.604797363281

> <b_mmod_Minimization_Converged-OPLS-2005>
0

> <r_mmod_RMS_Derivative-OPLS-2005>
0.703182220458984

$$$$
69
                    3D
 Structure written by MMmdl.
158166  0  0  1  0            999 V2000
  -30.7236  -14.4875   20.5618 C   0  0  0  0  0  0
  -30.4153  -12.3164   19.4302 C   0  0  0  0  0  0
  -29.4931  -12.5032   18.2091 C   0  0  0  0  0  0
  -28.0154  -12.3630   18.6222 C   0  0  0  0  0  0
  -27.6581  -13.2147   19.8705 C   0  0  2  0  0  0
  -28.7018  -13.0290   20.9959 C   0  0  0  0  0  0
  -25.2574  -13.8179   20.5693 C   0  0  0  0  0  0
  -24.1832  -13.0445   20.9176 C   0  0  0  0  0  0
  -24.6398  -11.6915   20.8732 C   0  0  0  0  0  0
  -23.9064  -10.4294   21.0400 C   0  0  0  0  0  0
  -24.3615   -9.4213   21.9183 C   0  0  0  0  0  0
  -23.6292   -8.2248   22.0754 C   0  0  0  0  0  0
  -22.4273   -8.0282   21.3546 C   0  0  0  0  0  0
  -21.9910   -9.0253   20.4645 C   0  0  0  0  0  0
  -22.7237  -10.2134   20.3053 C   0  0  0  0  0  0
  -21.6855   -6.0738   22.5280 C   0  0  0  0  0  0
  -21.4013   -6.5640   23.8214 C   0  0  0  0  0  0
  -21.3658   -5.6793   24.9175 C   0  0  0  0  0  0
  -21.6043   -4.3055   24.7224 C   0  0  0  0  0  0
  -21.8820   -3.8148   23.4344 C   0  0  0  0  0  0
  -21.9192   -4.6966   22.3401 C   0  0  0  0  0  0
  -22.7853  -13.5240   21.1839 C   0  0  0  0  0  0
  -22.1664   -4.2152   21.0980 F   0  0  0  0  0  0
  -21.5627   -3.4539   25.7736 F   0  0  0  0  0  0
  -30.0302  -13.3216   20.4356 N   0  0  0  0  0  0
  -26.3012  -12.9366   20.3358 N   0  0  0  0  0  0
  -25.9329  -11.6518   20.5767 N   0  0  0  0  0  0
  -22.0487  -12.8229   22.0387 N   0  0  0  0  0  0
  -25.4284  -15.1903   20.4127 N   0  0  0  0  0  0
  -31.8525  -14.6249   20.0863 O   0  0  0  0  0  0
  -21.6640   -6.8879   21.4242 O   0  0  0  0  0  0
  -22.3539  -14.5546   20.6689 O   0  0  0  0  0  0
  -24.6161  -31.8670   23.2089 C   0  0  0  0  0  0
  -25.9046  -32.4819   23.8394 C   0  0  1  0  0  0
  -27.2321  -27.4261   20.0995 C   0  0  0  0  0  0
  -25.5895  -33.8616   24.2329 N   0  0  0  0  0  0
  -23.4055  -30.4903   21.5493 C   0  0  2  0  0  0
  -24.8543  -28.9576   20.1107 C   0  0  0  0  0  0
  -22.7424  -29.4650   22.4975 C   0  0  0  0  0  0
  -18.0271  -28.1383   22.8492 C   0  0  0  0  0  0
  -24.1484  -36.7308   23.2639 C   0  0  0  0  0  0
  -25.9356  -30.8314   21.3621 C   0  0  0  0  0  0
  -26.0158  -29.4661   20.7077 C   0  0  0  0  0  0
  -27.2124  -28.7084   20.6982 C   0  0  0  0  0  0
  -26.0591  -26.9391   19.4872 C   0  0  0  0  0  0
  -24.8715  -27.6941   19.4948 C   0  0  0  0  0  0
  -23.6147  -29.8233   20.1637 C   0  0  0  0  0  0
  -25.4106  -36.3107   24.0341 C   0  0  1  0  0  0
  -20.5867  -28.3666   23.1314 C   0  0  2  0  0  0
  -20.6763  -26.9402   22.5416 C   0  0  0  0  0  0
  -19.5740  -26.6392   21.5212 C   0  0  0  0  0  0
  -18.1919  -26.7929   22.1623 C   0  0  0  0  0  0
  -19.1524  -28.8841   23.2899 C   0  0  0  0  0  0
  -18.9450  -30.1447   23.8908 C   0  0  0  0  0  0
  -17.6452  -30.6584   24.0568 C   0  0  0  0  0  0
  -25.9034  -34.9473   23.5133 C   0  0  0  0  0  0
  -16.5343  -29.9086   23.6331 C   0  0  0  0  0  0
  -16.7260  -28.6505   23.0349 C   0  0  0  0  0  0
  -26.4474  -31.6591   25.0716 C   0  0  0  0  0  0
  -25.3742  -31.3683   26.1462 C   0  0  0  0  0  0
  -27.0307  -30.3040   24.6074 C   0  0  0  0  0  0
  -27.6048  -32.4307   25.7482 C   0  0  0  0  0  0
  -27.5579  -37.1812   24.8468 C   0  0  0  0  0  0
  -21.4147  -29.3032   22.3720 N   0  0  0  0  0  0
  -26.4291  -37.3791   23.9409 N   0  0  0  0  0  0
  -24.6710  -31.0767   22.0989 N   0  0  0  0  0  0
  -23.4193  -28.8187   23.3016 O   0  0  0  0  0  0
  -28.3469  -26.6167   20.1407 O   0  0  0  0  0  0
  -26.5591  -34.8923   22.4692 O   0  0  0  0  0  0
  -23.5350  -32.1418   23.7483 O   0  0  0  0  0  0
  -31.3035  -19.6160   21.4972 C   0  0  0  0  0  0
  -31.8681  -17.2462   21.3674 C   0  0  0  0  0  0
  -29.9307  -19.3191   21.3496 C   0  0  0  0  0  0
  -30.5028  -16.9034   21.2021 C   0  0  0  0  0  0
  -32.2620  -18.5892   21.5045 C   0  0  0  0  0  0
  -29.5414  -17.9512   21.2011 C   0  0  0  0  0  0
  -28.9564  -20.4322   21.4709 C   0  0  0  0  0  0
  -28.8916  -24.2129   20.7122 C   0  0  0  0  0  0
  -28.6018  -23.2359   23.0492 C   0  0  0  0  0  0
  -28.1699  -25.5354   21.0832 C   0  0  0  0  0  0
  -28.4816  -22.9505   21.5306 C   0  0  2  0  0  0
  -30.0549  -15.5365   21.0917 N   0  0  0  0  0  0
  -29.2560  -21.7229   21.1652 N   0  0  0  0  0  0
  -27.7490  -20.1969   21.9878 N   0  3  0  0  0  0
  -29.7532  -24.1748   19.8279 O   0  0  0  0  0  0
  -33.5713  -18.8957   21.6686 F   0  0  0  0  0  0
  -28.2304  -17.6165   21.0914 F   0  0  0  0  0  0
  -31.4613  -12.3969   19.1288 H   0  0  0  0  0  0
  -30.3046  -11.3126   19.8437 H   0  0  0  0  0  0
  -29.7368  -11.7726   17.4364 H   0  0  0  0  0  0
  -29.6608  -13.4858   17.7643 H   0  0  0  0  0  0
  -27.8300  -11.3083   18.8286 H   0  0  0  0  0  0
  -27.3638  -12.6267   17.7884 H   0  0  0  0  0  0
  -27.6921  -14.2581   19.5558 H   0  0  0  0  0  0
  -28.6801  -12.0041   21.3701 H   0  0  0  0  0  0
  -28.4652  -13.6599   21.8542 H   0  0  0  0  0  0
  -25.2763   -9.5690   22.4756 H   0  0  0  0  0  0
  -24.0002   -7.4640   22.7478 H   0  0  0  0  0  0
  -21.0841   -8.8766   19.8952 H   0  0  0  0  0  0
  -22.3693  -10.9668   19.6154 H   0  0  0  0  0  0
  -21.2006   -7.6151   23.9716 H   0  0  0  0  0  0
  -21.1478   -6.0524   25.9078 H   0  0  0  0  0  0
  -22.0599   -2.7612   23.2843 H   0  0  0  0  0  0
  -22.4091  -11.9881   22.4767 H   0  0  0  0  0  0
  -21.1106  -13.1260   22.2587 H   0  0  0  0  0  0
  -24.6617  -15.8438   20.5288 H   0  0  0  0  0  0
  -26.2863  -15.6384   20.1170 H   0  0  0  0  0  0
  -26.7120  -32.5532   23.1166 H   0  0  0  0  0  0
  -25.0063  -33.9778   25.0483 H   0  0  0  0  0  0
  -22.6941  -31.3072   21.4106 H   0  0  0  0  0  0
  -23.3744  -35.9642   23.3312 H   0  0  0  0  0  0
  -24.3580  -36.8905   22.2051 H   0  0  0  0  0  0
  -23.7236  -37.6519   23.6642 H   0  0  0  0  0  0
  -26.0474  -31.5966   20.5929 H   0  0  0  0  0  0
  -26.8244  -30.8879   21.9788 H   0  0  0  0  0  0
  -28.1064  -29.0902   21.1712 H   0  0  0  0  0  0
  -26.0600  -25.9651   19.0182 H   0  0  0  0  0  0
  -23.9796  -27.2983   19.0279 H   0  0  0  0  0  0
  -23.7211  -30.5983   19.4040 H   0  0  0  0  0  0
  -22.7391  -29.2424   19.8685 H   0  0  0  0  0  0
  -25.1286  -36.1975   25.0835 H   0  0  0  0  0  0
  -20.9967  -28.3229   24.1432 H   0  0  0  0  0  0
  -20.5673  -26.2268   23.3599 H   0  0  0  0  0  0
  -21.6631  -26.7447   22.1205 H   0  0  0  0  0  0
  -19.6898  -25.6309   21.1221 H   0  0  0  0  0  0
  -19.6680  -27.3220   20.6755 H   0  0  0  0  0  0
  -17.4194  -26.6682   21.4017 H   0  0  0  0  0  0
  -18.0314  -26.0069   22.9017 H   0  0  0  0  0  0
  -19.7926  -30.7261   24.2281 H   0  0  0  0  0  0
  -17.5008  -31.6265   24.5171 H   0  0  0  0  0  0
  -15.5345  -30.2994   23.7650 H   0  0  0  0  0  0
  -15.8658  -28.0832   22.7055 H   0  0  0  0  0  0
  -24.5921  -30.7024   25.7799 H   0  0  0  0  0  0
  -24.8924  -32.2828   26.4928 H   0  0  0  0  0  0
  -25.8102  -30.8843   27.0210 H   0  0  0  0  0  0
  -26.2848  -29.6799   24.1139 H   0  0  0  0  0  0
  -27.4106  -29.7269   25.4514 H   0  0  0  0  0  0
  -27.8667  -30.4375   23.9204 H   0  0  0  0  0  0
  -27.2677  -33.3604   26.2079 H   0  0  0  0  0  0
  -28.3854  -32.6870   25.0307 H   0  0  0  0  0  0
  -28.0724  -31.8416   26.5382 H   0  0  0  0  0  0
  -28.2607  -38.0102   24.7514 H   0  0  0  0  0  0
  -28.1065  -36.2632   24.6300 H   0  0  0  0  0  0
  -27.2295  -37.1473   25.8871 H   0  0  0  0  0  0
  -20.9307  -29.8756   21.6944 H   0  0  0  0  0  0
  -26.0179  -38.2869   24.1405 H   0  0  0  0  0  0
  -31.6427  -20.6307   21.6451 H   0  0  0  0  0  0
  -32.6395  -16.4943   21.4130 H   0  0  0  0  0  0
  -27.6482  -23.5787   23.4518 H   0  0  0  0  0  0
  -29.3456  -24.0020   23.2746 H   0  0  0  0  0  0
  -28.8873  -22.3536   23.6227 H   0  0  0  0  0  0
  -28.5416  -25.8720   22.0509 H   0  0  0  0  0  0
  -27.1143  -25.2995   21.2251 H   0  0  0  0  0  0
  -27.4347  -22.7452   21.3015 H   0  0  0  0  0  0
  -29.0882  -15.3700   21.3244 H   0  0  0  0  0  0
  -30.0938  -21.8948   20.6196 H   0  0  0  0  0  0
  -27.4652  -19.2383   22.1365 H   0  0  0  0  0  0
  -27.0829  -20.9362   22.1296 H   0  0  0  0  0  0
  1 25  1  0  0  0
  1 30  2  0  0  0
  1 82  1  0  0  0
  2  3  1  0  0  0
  2 25  1  0  0  0
  2 88  1  0  0  0
  2 89  1  0  0  0
  3  4  1  0  0  0
  3 90  1  0  0  0
  3 91  1  0  0  0
  4  5  1  0  0  0
  4 92  1  0  0  0
  4 93  1  0  0  0
  5  6  1  0  0  0
  5 26  1  0  0  0
  5 94  1  0  0  0
  6 25  1  0  0  0
  6 95  1  0  0  0
  6 96  1  0  0  0
  7  8  2  0  0  0
  7 26  1  0  0  0
  7 29  1  0  0  0
  8  9  1  0  0  0
  8 22  1  0  0  0
  9 10  1  0  0  0
  9 27  2  0  0  0
 10 11  2  0  0  0
 10 15  1  0  0  0
 11 12  1  0  0  0
 11 97  1  0  0  0
 12 13  2  0  0  0
 12 98  1  0  0  0
 13 14  1  0  0  0
 13 31  1  0  0  0
 14 15  2  0  0  0
 14 99  1  0  0  0
 15100  1  0  0  0
 16 17  2  0  0  0
 16 21  1  0  0  0
 16 31  1  0  0  0
 17 18  1  0  0  0
 17101  1  0  0  0
 18 19  2  0  0  0
 18102  1  0  0  0
 19 20  1  0  0  0
 19 24  1  0  0  0
 20 21  2  0  0  0
 20103  1  0  0  0
 21 23  1  0  0  0
 22 28  1  0  0  0
 22 32  2  0  0  0
 26 27  1  0  0  0
 28104  1  0  0  0
 28105  1  0  0  0
 29106  1  0  0  0
 29107  1  0  0  0
 33 34  1  0  0  0
 33 66  1  0  0  0
 33 70  2  0  0  0
 34 36  1  0  0  0
 34 59  1  0  0  0
 34108  1  0  0  0
 35 44  2  0  0  0
 35 45  1  0  0  0
 35 68  1  0  0  0
 36 56  1  0  0  0
 36109  1  0  0  0
 37 39  1  0  0  0
 37 47  1  0  0  0
 37 66  1  0  0  0
 37110  1  0  0  0
 38 43  2  0  0  0
 38 46  1  0  0  0
 38 47  1  0  0  0
 39 64  1  0  0  0
 39 67  2  0  0  0
 40 52  1  0  0  0
 40 53  2  0  0  0
 40 58  1  0  0  0
 41111  1  0  0  0
 41112  1  0  0  0
 41113  1  0  0  0
 41 48  1  0  0  0
 42 43  1  0  0  0
 42 66  1  0  0  0
 42114  1  0  0  0
 42115  1  0  0  0
 43 44  1  0  0  0
 44116  1  0  0  0
 45 46  2  0  0  0
 45117  1  0  0  0
 46118  1  0  0  0
 47119  1  0  0  0
 47120  1  0  0  0
 48 56  1  0  0  0
 48 65  1  0  0  0
 48121  1  0  0  0
 49 50  1  0  0  0
 49 53  1  0  0  0
 49 64  1  0  0  0
 49122  1  0  0  0
 50 51  1  0  0  0
 50123  1  0  0  0
 50124  1  0  0  0
 51 52  1  0  0  0
 51125  1  0  0  0
 51126  1  0  0  0
 52127  1  0  0  0
 52128  1  0  0  0
 53 54  1  0  0  0
 54 55  2  0  0  0
 54129  1  0  0  0
 55 57  1  0  0  0
 55130  1  0  0  0
 56 69  2  0  0  0
 57 58  2  0  0  0
 57131  1  0  0  0
 58132  1  0  0  0
 59 60  1  0  0  0
 59 61  1  0  0  0
 59 62  1  0  0  0
 60133  1  0  0  0
 60134  1  0  0  0
 60135  1  0  0  0
 61136  1  0  0  0
 61137  1  0  0  0
 61138  1  0  0  0
 62139  1  0  0  0
 62140  1  0  0  0
 62141  1  0  0  0
 63 65  1  0  0  0
 63142  1  0  0  0
 63143  1  0  0  0
 63144  1  0  0  0
 64145  1  0  0  0
 65146  1  0  0  0
 68 80  1  0  0  0
 71 73  2  0  0  0
 71 75  1  0  0  0
 71147  1  0  0  0
 72 74  1  0  0  0
 72 75  2  0  0  0
 72148  1  0  0  0
 73 76  1  0  0  0
 73 77  1  0  0  0
 74 76  2  0  0  0
 74 82  1  0  0  0
 75 86  1  0  0  0
 76 87  1  0  0  0
 77 83  1  0  0  0
 77 84  2  0  0  0
 78 80  1  0  0  0
 78 81  1  0  0  0
 78 85  2  0  0  0
 79149  1  0  0  0
 79150  1  0  0  0
 79151  1  0  0  0
 79 81  1  0  0  0
 80152  1  0  0  0
 80153  1  0  0  0
 81 83  1  0  0  0
 81154  1  0  0  0
 82155  1  0  0  0
 83156  1  0  0  0
 84157  1  0  0  0
 84158  1  0  0  0
M  CHG  1  84   1
M  ISO  4   1 100  68 101  80 101  82 100
M  END
> <chiral flag>
0

> <version>
0

> <s_m_source_file>
/data/baiqing/PycharmProjects/Reinvent-master-3.2/result/LINK_invent/BTK/process_docking_weight1_custom_product_contain_oxygen_bond_distance_aromatic_linkinvent_7_9_3/rearranged_h_0170.sdf

> <i_m_source_file_index>
70

> <r_mmod_Potential_Energy-OPLS-2005>
-334.577880859375

> <r_mmod_Stretch_Energy-OPLS-2005>
45.5238571166992

> <r_mmod_Bend_Energy-OPLS-2005>
98.3548583984375

> <r_mmod_Torsional_Energy-OPLS-2005>
238.191436767578

> <r_mmod_Improper_Torsional_Energy-OPLS-2005>
4.65830898284912

> <r_mmod_Van_der_Waal_Energy-OPLS-2005>
163.063812255859

> <r_mmod_Electrostatic_Energy-OPLS-2005>
-450.543273925781

> <r_mmod_Solvation_Energy-OPLS-2005>
-450.966247558594

> <b_mmod_Minimization_Converged-OPLS-2005>
0

> <r_mmod_RMS_Derivative-OPLS-2005>
0.698028564453125

$$$$
70
                    3D
 Structure written by MMmdl.
153161  0  0  1  0            999 V2000
  -30.6646  -14.5288   20.5509 C   0  0  0  0  0  0
  -30.4323  -12.3372   19.4281 C   0  0  0  0  0  0
  -29.5003  -12.5121   18.2098 C   0  0  0  0  0  0
  -28.0221  -12.3595   18.6207 C   0  0  0  0  0  0
  -27.6593  -13.2073   19.8693 C   0  0  2  0  0  0
  -28.7005  -13.0051   20.9933 C   0  0  0  0  0  0
  -25.2578  -13.8164   20.5658 C   0  0  0  0  0  0
  -24.1833  -13.0438   20.9167 C   0  0  0  0  0  0
  -24.6393  -11.6905   20.8722 C   0  0  0  0  0  0
  -23.9059  -10.4295   21.0400 C   0  0  0  0  0  0
  -24.3614   -9.4212   21.9176 C   0  0  0  0  0  0
  -23.6296   -8.2245   22.0748 C   0  0  0  0  0  0
  -22.4276   -8.0286   21.3541 C   0  0  0  0  0  0
  -21.9906   -9.0260   20.4649 C   0  0  0  0  0  0
  -22.7229  -10.2139   20.3053 C   0  0  0  0  0  0
  -21.6855   -6.0735   22.5283 C   0  0  0  0  0  0
  -21.4014   -6.5638   23.8218 C   0  0  0  0  0  0
  -21.3655   -5.6787   24.9180 C   0  0  0  0  0  0
  -21.6047   -4.3052   24.7228 C   0  0  0  0  0  0
  -21.8819   -3.8147   23.4348 C   0  0  0  0  0  0
  -21.9194   -4.6964   22.3404 C   0  0  0  0  0  0
  -22.7858  -13.5236   21.1850 C   0  0  0  0  0  0
  -22.1663   -4.2145   21.0979 F   0  0  0  0  0  0
  -21.5630   -3.4535   25.7740 F   0  0  0  0  0  0
  -30.0291  -13.3263   20.4425 N   0  0  0  0  0  0
  -26.3007  -12.9329   20.3322 N   0  0  0  0  0  0
  -25.9318  -11.6493   20.5742 N   0  0  0  0  0  0
  -22.0498  -12.8228   22.0410 N   0  0  0  0  0  0
  -25.4299  -15.1885   20.4064 N   0  0  0  0  0  0
  -31.8044  -14.7221   20.1185 O   0  0  0  0  0  0
  -21.6640   -6.8880   21.4247 O   0  0  0  0  0  0
  -22.3542  -14.5544   20.6702 O   0  0  0  0  0  0
  -24.6208  -31.8648   23.2083 C   0  0  0  0  0  0
  -25.9084  -32.4808   23.8386 C   0  0  1  0  0  0
  -27.2331  -27.3899   20.0884 C   0  0  0  0  0  0
  -25.5923  -33.8608   24.2322 N   0  0  0  0  0  0
  -23.4105  -30.4914   21.5506 C   0  0  2  0  0  0
  -24.8549  -28.9579   20.1125 C   0  0  0  0  0  0
  -22.7435  -29.4654   22.4965 C   0  0  0  0  0  0
  -18.0263  -28.1392   22.8470 C   0  0  0  0  0  0
  -24.1491  -36.7297   23.2646 C   0  0  0  0  0  0
  -25.9469  -30.8179   21.3689 C   0  0  0  0  0  0
  -26.0216  -29.4511   20.7092 C   0  0  0  0  0  0
  -27.2110  -28.6761   20.6926 C   0  0  0  0  0  0
  -26.0304  -26.9193   19.5038 C   0  0  0  0  0  0
  -24.8567  -27.6924   19.5083 C   0  0  0  0  0  0
  -23.6208  -29.8306   20.1642 C   0  0  0  0  0  0
  -25.4109  -36.3098   24.0353 C   0  0  1  0  0  0
  -20.5861  -28.3674   23.1309 C   0  0  2  0  0  0
  -20.6753  -26.9410   22.5421 C   0  0  0  0  0  0
  -19.5744  -26.6392   21.5200 C   0  0  0  0  0  0
  -18.1915  -26.7944   22.1596 C   0  0  0  0  0  0
  -19.1515  -28.8845   23.2892 C   0  0  0  0  0  0
  -18.9445  -30.1448   23.8916 C   0  0  0  0  0  0
  -17.6449  -30.6599   24.0554 C   0  0  0  0  0  0
  -25.9043  -34.9468   23.5129 C   0  0  0  0  0  0
  -16.5335  -29.9094   23.6337 C   0  0  0  0  0  0
  -16.7252  -28.6512   23.0349 C   0  0  0  0  0  0
  -26.4486  -31.6601   25.0731 C   0  0  0  0  0  0
  -25.3748  -31.3746   26.1487 C   0  0  0  0  0  0
  -27.0285  -30.3014   24.6155 C   0  0  0  0  0  0
  -27.6085  -32.4303   25.7472 C   0  0  0  0  0  0
  -27.5589  -37.1796   24.8462 C   0  0  0  0  0  0
  -21.4150  -29.3039   22.3713 N   0  0  0  0  0  0
  -26.4285  -37.3792   23.9423 N   0  0  0  0  0  0
  -24.6779  -31.0720   22.1006 N   0  0  0  0  0  0
  -23.4186  -28.8186   23.3015 O   0  0  0  0  0  0
  -28.3887  -26.6112   20.1177 O   0  0  0  0  0  0
  -26.5590  -34.8927   22.4683 O   0  0  0  0  0  0
  -23.5388  -32.1415   23.7453 O   0  0  0  0  0  0
  -30.7835  -19.1290   20.9107 C   0  0  0  0  0  0
  -30.9323  -17.7716   21.3527 C   0  0  0  0  0  0
  -29.7938  -19.3198   19.9772 C   0  0  0  0  0  0
  -30.0548  -16.8777   20.7842 C   0  0  0  0  0  0
  -28.3963  -25.3679   19.4969 C   0  0  0  0  0  0
  -28.8870  -24.2122   20.0227 C   0  0  0  0  0  0
  -28.7637  -22.9567   19.2545 C   0  0  0  0  0  0
  -30.3664  -20.5844   17.8970 C   0  0  0  0  0  0
  -29.4369  -20.5338   19.1258 C   0  0  2  0  0  0
  -29.8962  -15.5376   21.0222 N   0  0  0  0  0  0
  -29.3808  -21.8679   19.7841 N   0  0  0  0  0  0
  -28.1419  -22.8755   18.1921 O   0  0  0  0  0  0
  -29.4687  -24.2063   21.2313 O   0  0  0  0  0  0
  -31.5660  -20.0942   21.3409 F   0  0  0  0  0  0
  -31.8348  -17.4243   22.2431 F   0  0  0  0  0  0
  -29.0018  -17.7678   19.6884 S   0  0  0  0  0  0
  -31.4739  -12.4523   19.1250 H   0  0  0  0  0  0
  -30.3490  -11.3272   19.8322 H   0  0  0  0  0  0
  -29.7487  -11.7849   17.4358 H   0  0  0  0  0  0
  -29.6584  -13.4961   17.7645 H   0  0  0  0  0  0
  -27.8444  -11.3035   18.8267 H   0  0  0  0  0  0
  -27.3689  -12.6195   17.7869 H   0  0  0  0  0  0
  -27.6970  -14.2514   19.5583 H   0  0  0  0  0  0
  -28.6872  -11.9723   21.3439 H   0  0  0  0  0  0
  -28.4515  -13.6114   21.8662 H   0  0  0  0  0  0
  -25.2771   -9.5694   22.4733 H   0  0  0  0  0  0
  -24.0018   -7.4631   22.7455 H   0  0  0  0  0  0
  -21.0836   -8.8780   19.8954 H   0  0  0  0  0  0
  -22.3691  -10.9674   19.6155 H   0  0  0  0  0  0
  -21.2009   -7.6148   23.9714 H   0  0  0  0  0  0
  -21.1473   -6.0523   25.9081 H   0  0  0  0  0  0
  -22.0599   -2.7608   23.2845 H   0  0  0  0  0  0
  -22.4102  -11.9888   22.4814 H   0  0  0  0  0  0
  -21.1125  -13.1267   22.2630 H   0  0  0  0  0  0
  -24.6610  -15.8423   20.5061 H   0  0  0  0  0  0
  -26.2801  -15.6267   20.0772 H   0  0  0  0  0  0
  -26.7153  -32.5493   23.1141 H   0  0  0  0  0  0
  -25.0110  -33.9759   25.0491 H   0  0  0  0  0  0
  -22.7008  -31.3103   21.4128 H   0  0  0  0  0  0
  -23.3763  -35.9619   23.3299 H   0  0  0  0  0  0
  -24.3608  -36.8913   22.2068 H   0  0  0  0  0  0
  -23.7228  -37.6497   23.6654 H   0  0  0  0  0  0
  -26.0712  -31.5874   20.6058 H   0  0  0  0  0  0
  -26.8308  -30.8636   21.9937 H   0  0  0  0  0  0
  -28.1103  -29.0541   21.1587 H   0  0  0  0  0  0
  -25.9623  -25.9419   19.0517 H   0  0  0  0  0  0
  -23.9559  -27.3000   19.0554 H   0  0  0  0  0  0
  -23.7331  -30.6083   19.4075 H   0  0  0  0  0  0
  -22.7427  -29.2549   19.8670 H   0  0  0  0  0  0
  -25.1284  -36.1961   25.0843 H   0  0  0  0  0  0
  -20.9941  -28.3245   24.1433 H   0  0  0  0  0  0
  -20.5621  -26.2289   23.3608 H   0  0  0  0  0  0
  -21.6632  -26.7435   22.1249 H   0  0  0  0  0  0
  -19.6909  -25.6300   21.1246 H   0  0  0  0  0  0
  -19.6716  -27.3189   20.6719 H   0  0  0  0  0  0
  -17.4196  -26.6686   21.3986 H   0  0  0  0  0  0
  -18.0306  -26.0087   22.8991 H   0  0  0  0  0  0
  -19.7920  -30.7233   24.2324 H   0  0  0  0  0  0
  -17.5014  -31.6292   24.5132 H   0  0  0  0  0  0
  -15.5339  -30.2989   23.7690 H   0  0  0  0  0  0
  -15.8644  -28.0843   22.7061 H   0  0  0  0  0  0
  -24.5942  -30.7047   25.7866 H   0  0  0  0  0  0
  -24.8899  -32.2903   26.4879 H   0  0  0  0  0  0
  -25.8111  -30.8990   27.0282 H   0  0  0  0  0  0
  -26.2823  -29.6790   24.1203 H   0  0  0  0  0  0
  -27.3997  -29.7257   25.4645 H   0  0  0  0  0  0
  -27.8700  -30.4280   23.9342 H   0  0  0  0  0  0
  -27.2746  -33.3616   26.2057 H   0  0  0  0  0  0
  -28.3882  -32.6837   25.0278 H   0  0  0  0  0  0
  -28.0764  -31.8412   26.5368 H   0  0  0  0  0  0
  -28.2611  -38.0089   24.7501 H   0  0  0  0  0  0
  -28.1067  -36.2618   24.6261 H   0  0  0  0  0  0
  -27.2321  -37.1443   25.8870 H   0  0  0  0  0  0
  -20.9304  -29.8769   21.6950 H   0  0  0  0  0  0
  -26.0175  -38.2875   24.1407 H   0  0  0  0  0  0
  -27.9574  -25.4082   18.5085 H   0  0  0  0  0  0
  -30.3181  -19.6505   17.3365 H   0  0  0  0  0  0
  -31.4056  -20.7406   18.1872 H   0  0  0  0  0  0
  -30.0934  -21.3793   17.2029 H   0  0  0  0  0  0
  -28.4293  -20.3497   18.7465 H   0  0  0  0  0  0
  -28.9684  -15.2475   21.2882 H   0  0  0  0  0  0
  -29.8643  -22.0017   20.6625 H   0  0  0  0  0  0
  -29.4589  -25.1023   21.5433 H   0  0  0  0  0  0
  1 25  1  0  0  0
  1 30  2  0  0  0
  1 80  1  0  0  0
  2  3  1  0  0  0
  2 25  1  0  0  0
  2 87  1  0  0  0
  2 88  1  0  0  0
  3  4  1  0  0  0
  3 89  1  0  0  0
  3 90  1  0  0  0
  4  5  1  0  0  0
  4 91  1  0  0  0
  4 92  1  0  0  0
  5  6  1  0  0  0
  5 26  1  0  0  0
  5 93  1  0  0  0
  6 25  1  0  0  0
  6 94  1  0  0  0
  6 95  1  0  0  0
  7  8  2  0  0  0
  7 26  1  0  0  0
  7 29  1  0  0  0
  8  9  1  0  0  0
  8 22  1  0  0  0
  9 10  1  0  0  0
  9 27  2  0  0  0
 10 11  2  0  0  0
 10 15  1  0  0  0
 11 12  1  0  0  0
 11 96  1  0  0  0
 12 13  2  0  0  0
 12 97  1  0  0  0
 13 14  1  0  0  0
 13 31  1  0  0  0
 14 15  2  0  0  0
 14 98  1  0  0  0
 15 99  1  0  0  0
 16 17  2  0  0  0
 16 21  1  0  0  0
 16 31  1  0  0  0
 17 18  1  0  0  0
 17100  1  0  0  0
 18 19  2  0  0  0
 18101  1  0  0  0
 19 20  1  0  0  0
 19 24  1  0  0  0
 20 21  2  0  0  0
 20102  1  0  0  0
 21 23  1  0  0  0
 22 28  1  0  0  0
 22 32  2  0  0  0
 26 27  1  0  0  0
 28103  1  0  0  0
 28104  1  0  0  0
 29105  1  0  0  0
 29106  1  0  0  0
 33 34  1  0  0  0
 33 66  1  0  0  0
 33 70  2  0  0  0
 34 36  1  0  0  0
 34 59  1  0  0  0
 34107  1  0  0  0
 35 44  2  0  0  0
 35 45  1  0  0  0
 35 68  1  0  0  0
 36 56  1  0  0  0
 36108  1  0  0  0
 37 39  1  0  0  0
 37 47  1  0  0  0
 37 66  1  0  0  0
 37109  1  0  0  0
 38 43  2  0  0  0
 38 46  1  0  0  0
 38 47  1  0  0  0
 39 64  1  0  0  0
 39 67  2  0  0  0
 40 52  1  0  0  0
 40 53  2  0  0  0
 40 58  1  0  0  0
 41110  1  0  0  0
 41111  1  0  0  0
 41112  1  0  0  0
 41 48  1  0  0  0
 42 43  1  0  0  0
 42 66  1  0  0  0
 42113  1  0  0  0
 42114  1  0  0  0
 43 44  1  0  0  0
 44115  1  0  0  0
 45 46  2  0  0  0
 45116  1  0  0  0
 46117  1  0  0  0
 47118  1  0  0  0
 47119  1  0  0  0
 48 56  1  0  0  0
 48 65  1  0  0  0
 48120  1  0  0  0
 49 50  1  0  0  0
 49 53  1  0  0  0
 49 64  1  0  0  0
 49121  1  0  0  0
 50 51  1  0  0  0
 50122  1  0  0  0
 50123  1  0  0  0
 51 52  1  0  0  0
 51124  1  0  0  0
 51125  1  0  0  0
 52126  1  0  0  0
 52127  1  0  0  0
 53 54  1  0  0  0
 54 55  2  0  0  0
 54128  1  0  0  0
 55 57  1  0  0  0
 55129  1  0  0  0
 56 69  2  0  0  0
 57 58  2  0  0  0
 57130  1  0  0  0
 58131  1  0  0  0
 59 60  1  0  0  0
 59 61  1  0  0  0
 59 62  1  0  0  0
 60132  1  0  0  0
 60133  1  0  0  0
 60134  1  0  0  0
 61135  1  0  0  0
 61136  1  0  0  0
 61137  1  0  0  0
 62138  1  0  0  0
 62139  1  0  0  0
 62140  1  0  0  0
 63 65  1  0  0  0
 63141  1  0  0  0
 63142  1  0  0  0
 63143  1  0  0  0
 64144  1  0  0  0
 65145  1  0  0  0
 68 75  1  0  0  0
 71 72  1  0  0  0
 71 73  2  0  0  0
 71 84  1  0  0  0
 72 74  2  0  0  0
 72 85  1  0  0  0
 73 79  1  0  0  0
 73 86  1  0  0  0
 74 80  1  0  0  0
 74 86  1  0  0  0
 75 76  2  0  0  0
 75146  1  0  0  0
 76 77  1  0  0  0
 76 83  1  0  0  0
 77 81  1  0  0  0
 77 82  2  0  0  0
 78147  1  0  0  0
 78148  1  0  0  0
 78149  1  0  0  0
 78 79  1  0  0  0
 79 81  1  0  0  0
 79150  1  0  0  0
 80151  1  0  0  0
 81152  1  0  0  0
 83153  1  0  0  0
M  ISO  4   1 100  68 101  75 101  80 100
M  END
> <chiral flag>
0

> <version>
0

> <s_m_source_file>
/data/baiqing/PycharmProjects/Reinvent-master-3.2/result/LINK_invent/BTK/process_docking_weight1_custom_product_contain_oxygen_bond_distance_aromatic_linkinvent_7_9_3/rearranged_h_0170.sdf

> <i_m_source_file_index>
71

> <r_mmod_Potential_Energy-OPLS-2005>
-149.096450805664

> <r_mmod_Stretch_Energy-OPLS-2005>
45.7775611877441

> <r_mmod_Bend_Energy-OPLS-2005>
109.863502502441

> <r_mmod_Torsional_Energy-OPLS-2005>
206.595993041992

> <r_mmod_Improper_Torsional_Energy-OPLS-2005>
5.45500469207764

> <r_mmod_Van_der_Waal_Energy-OPLS-2005>
134.978302001953

> <r_mmod_Electrostatic_Energy-OPLS-2005>
-453.301208496094

> <r_mmod_Solvation_Energy-OPLS-2005>
-219.866622924805

> <b_mmod_Minimization_Converged-OPLS-2005>
0

> <r_mmod_RMS_Derivative-OPLS-2005>
1.55143570899963

$$$$
71
                    3D
 Structure written by MMmdl.
158166  0  0  1  0            999 V2000
  -30.7014  -14.5987   20.5023 C   0  0  0  0  0  0
  -30.4061  -12.3802   19.4438 C   0  0  0  0  0  0
  -29.4778  -12.4983   18.2153 C   0  0  0  0  0  0
  -28.0076  -12.3418   18.6408 C   0  0  0  0  0  0
  -27.6455  -13.2243   19.8627 C   0  0  2  0  0  0
  -28.6951  -13.1159   20.9931 C   0  0  0  0  0  0
  -25.2516  -13.8185   20.5692 C   0  0  0  0  0  0
  -24.1820  -13.0494   20.9203 C   0  0  0  0  0  0
  -24.6373  -11.6921   20.8798 C   0  0  0  0  0  0
  -23.9071  -10.4318   21.0468 C   0  0  0  0  0  0
  -24.3622   -9.4214   21.9227 C   0  0  0  0  0  0
  -23.6301   -8.2261   22.0797 C   0  0  0  0  0  0
  -22.4292   -8.0290   21.3569 C   0  0  0  0  0  0
  -21.9953   -9.0266   20.4647 C   0  0  0  0  0  0
  -22.7287  -10.2122   20.3066 C   0  0  0  0  0  0
  -21.6854   -6.0743   22.5296 C   0  0  0  0  0  0
  -21.4006   -6.5662   23.8209 C   0  0  0  0  0  0
  -21.3633   -5.6823   24.9187 C   0  0  0  0  0  0
  -21.6033   -4.3096   24.7235 C   0  0  0  0  0  0
  -21.8804   -3.8162   23.4377 C   0  0  0  0  0  0
  -21.9193   -4.6982   22.3425 C   0  0  0  0  0  0
  -22.7791  -13.5225   21.1844 C   0  0  0  0  0  0
  -22.1663   -4.2161   21.1003 F   0  0  0  0  0  0
  -21.5612   -3.4574   25.7756 F   0  0  0  0  0  0
  -30.0078  -13.4240   20.4101 N   0  0  0  0  0  0
  -26.2970  -12.9392   20.3378 N   0  0  0  0  0  0
  -25.9318  -11.6556   20.5853 N   0  0  0  0  0  0
  -22.0438  -12.8199   22.0346 N   0  0  0  0  0  0
  -25.4345  -15.1895   20.3949 N   0  0  0  0  0  0
  -31.8624  -14.6665   20.0914 O   0  0  0  0  0  0
  -21.6660   -6.8890   21.4249 O   0  0  0  0  0  0
  -22.3512  -14.5588   20.6733 O   0  0  0  0  0  0
  -24.6277  -31.8591   23.2043 C   0  0  0  0  0  0
  -25.9135  -32.4791   23.8403 C   0  0  1  0  0  0
  -27.2344  -27.3738   20.0835 C   0  0  0  0  0  0
  -25.5933  -33.8584   24.2306 N   0  0  0  0  0  0
  -23.4220  -30.4790   21.5460 C   0  0  2  0  0  0
  -24.8717  -28.9438   20.1163 C   0  0  0  0  0  0
  -22.7505  -29.4540   22.4905 C   0  0  0  0  0  0
  -18.0261  -28.1361   22.8476 C   0  0  0  0  0  0
  -24.1443  -36.7181   23.2644 C   0  0  0  0  0  0
  -25.9644  -30.8061   21.3730 C   0  0  0  0  0  0
  -26.0421  -29.4425   20.7043 C   0  0  0  0  0  0
  -27.2347  -28.6669   20.6752 C   0  0  0  0  0  0
  -26.0469  -26.9105   19.4853 C   0  0  0  0  0  0
  -24.8691  -27.6764   19.5094 C   0  0  0  0  0  0
  -23.6423  -29.8225   20.1594 C   0  0  0  0  0  0
  -25.4086  -36.3029   24.0346 C   0  0  1  0  0  0
  -20.5879  -28.3620   23.1276 C   0  0  2  0  0  0
  -20.6704  -26.9326   22.5409 C   0  0  0  0  0  0
  -19.5666  -26.6316   21.5212 C   0  0  0  0  0  0
  -18.1841  -26.7906   22.1613 C   0  0  0  0  0  0
  -19.1536  -28.8814   23.2849 C   0  0  0  0  0  0
  -18.9488  -30.1403   23.8880 C   0  0  0  0  0  0
  -17.6504  -30.6574   24.0557 C   0  0  0  0  0  0
  -25.9072  -34.9442   23.5137 C   0  0  0  0  0  0
  -16.5365  -29.9077   23.6379 C   0  0  0  0  0  0
  -16.7255  -28.6491   23.0394 C   0  0  0  0  0  0
  -26.4537  -31.6626   25.0793 C   0  0  0  0  0  0
  -25.3765  -31.3806   26.1515 C   0  0  0  0  0  0
  -27.0431  -30.3093   24.6208 C   0  0  0  0  0  0
  -27.6100  -32.4360   25.7553 C   0  0  0  0  0  0
  -27.5539  -37.1735   24.8463 C   0  0  0  0  0  0
  -21.4208  -29.2995   22.3718 N   0  0  0  0  0  0
  -26.4219  -37.3775   23.9475 N   0  0  0  0  0  0
  -24.6892  -31.0643   22.0976 N   0  0  0  0  0  0
  -23.4255  -28.8043   23.2929 O   0  0  0  0  0  0
  -28.3415  -26.5342   20.0790 O   0  0  0  0  0  0
  -26.5591  -34.8899   22.4666 O   0  0  0  0  0  0
  -23.5441  -32.1345   23.7378 O   0  0  0  0  0  0
  -29.6640  -18.2520   20.7873 C   0  0  0  0  0  0
  -31.8944  -17.3788   21.1363 C   0  0  0  0  0  0
  -31.5926  -19.7943   20.7861 C   0  0  0  0  0  0
  -30.5223  -17.1083   20.9168 C   0  0  0  0  0  0
  -30.1759  -19.5944   20.7338 C   0  0  0  0  0  0
  -32.4172  -18.6808   21.0669 C   0  0  0  0  0  0
  -28.5733  -23.9466   20.1360 C   0  0  0  0  0  0
  -28.1096  -22.6897   20.4450 C   0  0  0  0  0  0
  -28.7744  -21.5215   19.8520 C   0  0  0  0  0  0
  -26.9591  -22.3888   21.4265 C   0  0  0  0  0  0
  -28.1456  -25.2810   20.8035 C   0  0  0  0  0  0
  -32.2978  -21.1438   20.5534 C   0  0  0  0  0  0
  -29.2742  -20.7170   20.8226 N   0  0  0  0  0  0
  -30.0230  -15.7309   20.8764 N   0  0  0  0  0  0
  -28.8928  -21.2913   18.6443 O   0  0  0  0  0  0
  -33.7462  -18.8473   21.2764 F   0  0  0  0  0  0
  -32.7611  -21.6489   21.6967 F   0  0  0  0  0  0
  -33.3328  -20.9559   19.7339 F   0  0  0  0  0  0
  -31.5387  -22.0703   19.9744 F   0  0  0  0  0  0
  -31.4512  -12.4542   19.1409 H   0  0  0  0  0  0
  -30.3028  -11.3964   19.9028 H   0  0  0  0  0  0
  -29.7299  -11.7352   17.4762 H   0  0  0  0  0  0
  -29.6109  -13.4614   17.7210 H   0  0  0  0  0  0
  -27.8450  -11.2893   18.8758 H   0  0  0  0  0  0
  -27.3413  -12.5660   17.8074 H   0  0  0  0  0  0
  -27.6570  -14.2563   19.5116 H   0  0  0  0  0  0
  -28.6988  -12.1076   21.4105 H   0  0  0  0  0  0
  -28.4495  -13.7848   21.8215 H   0  0  0  0  0  0
  -25.2747   -9.5707   22.4835 H   0  0  0  0  0  0
  -24.0005   -7.4652   22.7534 H   0  0  0  0  0  0
  -21.0902   -8.8759   19.8917 H   0  0  0  0  0  0
  -22.3775  -10.9665   19.6166 H   0  0  0  0  0  0
  -21.1996   -7.6166   23.9716 H   0  0  0  0  0  0
  -21.1443   -6.0559   25.9068 H   0  0  0  0  0  0
  -22.0586   -2.7630   23.2877 H   0  0  0  0  0  0
  -22.4034  -11.9766   22.4583 H   0  0  0  0  0  0
  -21.1039  -13.1159   22.2570 H   0  0  0  0  0  0
  -24.6757  -15.8592   20.4549 H   0  0  0  0  0  0
  -26.2812  -15.5908   20.0156 H   0  0  0  0  0  0
  -26.7244  -32.5484   23.1195 H   0  0  0  0  0  0
  -25.0255  -33.9776   25.0551 H   0  0  0  0  0  0
  -22.7133  -31.2946   21.3984 H   0  0  0  0  0  0
  -23.3828  -35.9382   23.3199 H   0  0  0  0  0  0
  -24.3554  -36.8927   22.2084 H   0  0  0  0  0  0
  -23.7036  -37.6271   23.6759 H   0  0  0  0  0  0
  -26.1083  -31.5875   20.6233 H   0  0  0  0  0  0
  -26.8377  -30.8401   22.0135 H   0  0  0  0  0  0
  -28.1393  -29.0419   21.1381 H   0  0  0  0  0  0
  -26.0316  -25.9365   19.0171 H   0  0  0  0  0  0
  -23.9693  -27.2802   19.0618 H   0  0  0  0  0  0
  -23.7732  -30.6002   19.4058 H   0  0  0  0  0  0
  -22.7693  -29.2507   19.8414 H   0  0  0  0  0  0
  -25.1265  -36.1863   25.0857 H   0  0  0  0  0  0
  -20.9947  -28.3127   24.1403 H   0  0  0  0  0  0
  -20.5523  -26.2234   23.3608 H   0  0  0  0  0  0
  -21.6555  -26.7238   22.1215 H   0  0  0  0  0  0
  -19.6800  -25.6220   21.1226 H   0  0  0  0  0  0
  -19.6642  -27.3123   20.6748 H   0  0  0  0  0  0
  -17.4110  -26.6675   21.4001 H   0  0  0  0  0  0
  -18.0177  -26.0046   22.9022 H   0  0  0  0  0  0
  -19.7987  -30.7165   24.2230 H   0  0  0  0  0  0
  -17.5097  -31.6271   24.5108 H   0  0  0  0  0  0
  -15.5377  -30.2991   23.7759 H   0  0  0  0  0  0
  -15.8623  -28.0812   22.7193 H   0  0  0  0  0  0
  -24.5772  -30.7401   25.7793 H   0  0  0  0  0  0
  -24.9192  -32.3038   26.5097 H   0  0  0  0  0  0
  -25.8002  -30.8768   27.0204 H   0  0  0  0  0  0
  -26.3014  -29.6780   24.1307 H   0  0  0  0  0  0
  -27.4335  -29.7426   25.4670 H   0  0  0  0  0  0
  -27.8782  -30.4516   23.9342 H   0  0  0  0  0  0
  -27.2800  -33.3823   26.1839 H   0  0  0  0  0  0
  -28.4058  -32.6595   25.0450 H   0  0  0  0  0  0
  -28.0539  -31.8629   26.5698 H   0  0  0  0  0  0
  -28.2458  -38.0115   24.7609 H   0  0  0  0  0  0
  -28.1116  -36.2646   24.6158 H   0  0  0  0  0  0
  -27.2259  -37.1204   25.8854 H   0  0  0  0  0  0
  -20.9341  -29.8941   21.7147 H   0  0  0  0  0  0
  -26.0077  -38.2815   24.1625 H   0  0  0  0  0  0
  -28.5917  -18.1170   20.7376 H   0  0  0  0  0  0
  -32.5942  -16.5878   21.3515 H   0  0  0  0  0  0
  -29.3676  -24.0489   19.4019 H   0  0  0  0  0  0
  -26.0024  -22.1300   20.9556 H   0  0  0  0  0  0
  -26.7749  -23.2405   22.0726 H   0  0  0  0  0  0
  -27.1989  -21.5495   22.0836 H   0  0  0  0  0  0
  -28.7566  -25.3692   21.7007 H   0  0  0  0  0  0
  -27.1217  -25.1806   21.1523 H   0  0  0  0  0  0
  -29.1252  -21.0827   21.7578 H   0  0  0  0  0  0
  -29.0364  -15.6054   21.0441 H   0  0  0  0  0  0
  1 25  1  0  0  0
  1 30  2  0  0  0
  1 84  1  0  0  0
  2  3  1  0  0  0
  2 25  1  0  0  0
  2 90  1  0  0  0
  2 91  1  0  0  0
  3  4  1  0  0  0
  3 92  1  0  0  0
  3 93  1  0  0  0
  4  5  1  0  0  0
  4 94  1  0  0  0
  4 95  1  0  0  0
  5  6  1  0  0  0
  5 26  1  0  0  0
  5 96  1  0  0  0
  6 25  1  0  0  0
  6 97  1  0  0  0
  6 98  1  0  0  0
  7  8  2  0  0  0
  7 26  1  0  0  0
  7 29  1  0  0  0
  8  9  1  0  0  0
  8 22  1  0  0  0
  9 10  1  0  0  0
  9 27  2  0  0  0
 10 11  2  0  0  0
 10 15  1  0  0  0
 11 12  1  0  0  0
 11 99  1  0  0  0
 12 13  2  0  0  0
 12100  1  0  0  0
 13 14  1  0  0  0
 13 31  1  0  0  0
 14 15  2  0  0  0
 14101  1  0  0  0
 15102  1  0  0  0
 16 17  2  0  0  0
 16 21  1  0  0  0
 16 31  1  0  0  0
 17 18  1  0  0  0
 17103  1  0  0  0
 18 19  2  0  0  0
 18104  1  0  0  0
 19 20  1  0  0  0
 19 24  1  0  0  0
 20 21  2  0  0  0
 20105  1  0  0  0
 21 23  1  0  0  0
 22 28  1  0  0  0
 22 32  2  0  0  0
 26 27  1  0  0  0
 28106  1  0  0  0
 28107  1  0  0  0
 29108  1  0  0  0
 29109  1  0  0  0
 33 34  1  0  0  0
 33 66  1  0  0  0
 33 70  2  0  0  0
 34 36  1  0  0  0
 34 59  1  0  0  0
 34110  1  0  0  0
 35 44  2  0  0  0
 35 45  1  0  0  0
 35 68  1  0  0  0
 36 56  1  0  0  0
 36111  1  0  0  0
 37 39  1  0  0  0
 37 47  1  0  0  0
 37 66  1  0  0  0
 37112  1  0  0  0
 38 43  2  0  0  0
 38 46  1  0  0  0
 38 47  1  0  0  0
 39 64  1  0  0  0
 39 67  2  0  0  0
 40 52  1  0  0  0
 40 53  2  0  0  0
 40 58  1  0  0  0
 41113  1  0  0  0
 41114  1  0  0  0
 41115  1  0  0  0
 41 48  1  0  0  0
 42 43  1  0  0  0
 42 66  1  0  0  0
 42116  1  0  0  0
 42117  1  0  0  0
 43 44  1  0  0  0
 44118  1  0  0  0
 45 46  2  0  0  0
 45119  1  0  0  0
 46120  1  0  0  0
 47121  1  0  0  0
 47122  1  0  0  0
 48 56  1  0  0  0
 48 65  1  0  0  0
 48123  1  0  0  0
 49 50  1  0  0  0
 49 53  1  0  0  0
 49 64  1  0  0  0
 49124  1  0  0  0
 50 51  1  0  0  0
 50125  1  0  0  0
 50126  1  0  0  0
 51 52  1  0  0  0
 51127  1  0  0  0
 51128  1  0  0  0
 52129  1  0  0  0
 52130  1  0  0  0
 53 54  1  0  0  0
 54 55  2  0  0  0
 54131  1  0  0  0
 55 57  1  0  0  0
 55132  1  0  0  0
 56 69  2  0  0  0
 57 58  2  0  0  0
 57133  1  0  0  0
 58134  1  0  0  0
 59 60  1  0  0  0
 59 61  1  0  0  0
 59 62  1  0  0  0
 60135  1  0  0  0
 60136  1  0  0  0
 60137  1  0  0  0
 61138  1  0  0  0
 61139  1  0  0  0
 61140  1  0  0  0
 62141  1  0  0  0
 62142  1  0  0  0
 62143  1  0  0  0
 63 65  1  0  0  0
 63144  1  0  0  0
 63145  1  0  0  0
 63146  1  0  0  0
 64147  1  0  0  0
 65148  1  0  0  0
 68 81  1  0  0  0
 71 74  2  0  0  0
 71 75  1  0  0  0
 71149  1  0  0  0
 72 74  1  0  0  0
 72 76  2  0  0  0
 72150  1  0  0  0
 73 75  2  0  0  0
 73 76  1  0  0  0
 73 82  1  0  0  0
 74 84  1  0  0  0
 75 83  1  0  0  0
 76 86  1  0  0  0
 77 78  2  0  0  0
 77 81  1  0  0  0
 77151  1  0  0  0
 78 79  1  0  0  0
 78 80  1  0  0  0
 79 83  1  0  0  0
 79 85  2  0  0  0
 80152  1  0  0  0
 80153  1  0  0  0
 80154  1  0  0  0
 81155  1  0  0  0
 81156  1  0  0  0
 82 87  1  0  0  0
 82 88  1  0  0  0
 82 89  1  0  0  0
 83157  1  0  0  0
 84158  1  0  0  0
M  ISO  4   1 100  68 101  81 101  84 100
M  END
> <chiral flag>
0

> <version>
0

> <s_m_source_file>
/data/baiqing/PycharmProjects/Reinvent-master-3.2/result/LINK_invent/BTK/process_docking_weight1_custom_product_contain_oxygen_bond_distance_aromatic_linkinvent_7_9_3/rearranged_h_0170.sdf

> <i_m_source_file_index>
72

> <r_mmod_Potential_Energy-OPLS-2005>
150.022018432617

> <r_mmod_Stretch_Energy-OPLS-2005>
66.1816177368164

> <r_mmod_Bend_Energy-OPLS-2005>
122.26195526123

> <r_mmod_Torsional_Energy-OPLS-2005>
314.092163085938

> <r_mmod_Improper_Torsional_Energy-OPLS-2005>
6.59817981719971

> <r_mmod_Van_der_Waal_Energy-OPLS-2005>
162.152069091797

> <r_mmod_Electrostatic_Energy-OPLS-2005>
-328.141204833984

> <r_mmod_Solvation_Energy-OPLS-2005>
-230.072708129883

> <b_mmod_Minimization_Converged-OPLS-2005>
0

> <r_mmod_RMS_Derivative-OPLS-2005>
11.048246383667

$$$$
72
                    3D
 Structure written by MMmdl.
151159  0  0  1  0            999 V2000
  -30.5872  -14.8223   20.4485 C   0  0  0  0  0  0
  -30.4349  -12.5193   19.4821 C   0  0  0  0  0  0
  -29.5059  -12.5188   18.2480 C   0  0  0  0  0  0
  -28.0382  -12.3142   18.6678 C   0  0  0  0  0  0
  -27.6243  -13.2443   19.8402 C   0  0  2  0  0  0
  -28.6672  -13.2260   20.9757 C   0  0  0  0  0  0
  -25.2398  -13.8187   20.5758 C   0  0  0  0  0  0
  -24.1732  -13.0400   20.9240 C   0  0  0  0  0  0
  -24.6340  -11.6866   20.8710 C   0  0  0  0  0  0
  -23.9037  -10.4260   21.0393 C   0  0  0  0  0  0
  -24.3596   -9.4176   21.9184 C   0  0  0  0  0  0
  -23.6288   -8.2199   22.0749 C   0  0  0  0  0  0
  -22.4265   -8.0248   21.3539 C   0  0  0  0  0  0
  -21.9877   -9.0205   20.4632 C   0  0  0  0  0  0
  -22.7189  -10.2094   20.3059 C   0  0  0  0  0  0
  -21.6853   -6.0714   22.5289 C   0  0  0  0  0  0
  -21.3994   -6.5637   23.8207 C   0  0  0  0  0  0
  -21.3661   -5.6811   24.9190 C   0  0  0  0  0  0
  -21.6054   -4.3070   24.7261 C   0  0  0  0  0  0
  -21.8796   -3.8138   23.4390 C   0  0  0  0  0  0
  -21.9178   -4.6943   22.3432 C   0  0  0  0  0  0
  -22.7768  -13.5117   21.2005 C   0  0  0  0  0  0
  -22.1664   -4.2117   21.1019 F   0  0  0  0  0  0
  -21.5632   -3.4562   25.7777 F   0  0  0  0  0  0
  -29.9610  -13.5944   20.3856 N   0  0  0  0  0  0
  -26.2821  -12.9430   20.3216 N   0  0  0  0  0  0
  -25.9263  -11.6550   20.5635 N   0  0  0  0  0  0
  -22.0501  -12.8043   22.0581 N   0  0  0  0  0  0
  -25.4052  -15.1955   20.4261 N   0  0  0  0  0  0
  -31.7979  -14.8913   20.2164 O   0  0  0  0  0  0
  -21.6642   -6.8842   21.4238 O   0  0  0  0  0  0
  -22.3407  -14.5472   20.6938 O   0  0  0  0  0  0
  -24.6300  -31.8492   23.1983 C   0  0  0  0  0  0
  -25.9121  -32.4713   23.8335 C   0  0  1  0  0  0
  -27.2163  -27.2264   20.1199 C   0  0  0  0  0  0
  -25.5911  -33.8524   24.2248 N   0  0  0  0  0  0
  -23.4277  -30.4754   21.5388 C   0  0  2  0  0  0
  -24.8732  -28.9147   20.1047 C   0  0  0  0  0  0
  -22.7442  -29.4605   22.4862 C   0  0  0  0  0  0
  -18.0288  -28.1437   22.8473 C   0  0  0  0  0  0
  -24.1516  -36.7289   23.2649 C   0  0  0  0  0  0
  -25.9760  -30.7544   21.3771 C   0  0  0  0  0  0
  -26.0441  -29.3734   20.7172 C   0  0  0  0  0  0
  -27.2098  -28.5367   20.7176 C   0  0  0  0  0  0
  -26.0137  -26.8359   19.4924 C   0  0  0  0  0  0
  -24.8619  -27.6528   19.4883 C   0  0  0  0  0  0
  -23.6496  -29.8149   20.1525 C   0  0  0  0  0  0
  -25.4131  -36.3033   24.0336 C   0  0  1  0  0  0
  -20.5864  -28.3765   23.1288 C   0  0  2  0  0  0
  -20.6800  -26.9471   22.5501 C   0  0  0  0  0  0
  -19.5812  -26.6431   21.5260 C   0  0  0  0  0  0
  -18.1970  -26.7938   22.1676 C   0  0  0  0  0  0
  -19.1512  -28.8926   23.2876 C   0  0  0  0  0  0
  -18.9425  -30.1515   23.8898 C   0  0  0  0  0  0
  -17.6416  -30.6641   24.0570 C   0  0  0  0  0  0
  -25.9064  -34.9410   23.5101 C   0  0  0  0  0  0
  -16.5319  -29.9125   23.6317 C   0  0  0  0  0  0
  -16.7263  -28.6568   23.0296 C   0  0  0  0  0  0
  -26.4516  -31.6520   25.0706 C   0  0  0  0  0  0
  -25.3805  -31.3617   26.1464 C   0  0  0  0  0  0
  -27.0324  -30.2943   24.6150 C   0  0  0  0  0  0
  -27.6073  -32.4226   25.7457 C   0  0  0  0  0  0
  -27.5578  -37.1807   24.8467 C   0  0  0  0  0  0
  -21.4154  -29.3041   22.3585 N   0  0  0  0  0  0
  -26.4297  -37.3739   23.9406 N   0  0  0  0  0  0
  -24.6967  -31.0451   22.0942 N   0  0  0  0  0  0
  -23.4120  -28.8166   23.2991 O   0  0  0  0  0  0
  -28.3312  -26.3518   20.2175 O   0  0  0  0  0  0
  -26.5666  -34.8884   22.4673 O   0  0  0  0  0  0
  -23.5446  -32.1316   23.7294 O   0  0  0  0  0  0
  -29.6637  -20.1257   20.7515 C   0  0  0  0  0  0
  -28.3452  -20.0954   18.9763 C   0  0  0  0  0  0
  -28.8924  -20.9865   19.8688 C   0  0  0  0  0  0
  -29.5626  -18.7814   20.3381 C   0  0  0  0  0  0
  -28.3431  -23.5924   20.2010 C   0  0  0  0  0  0
  -28.1735  -25.0476   18.0100 C   0  0  0  0  0  0
  -30.3345  -17.4380   20.7296 C   0  0  0  0  0  0
  -28.5769  -25.0362   19.4947 C   0  0  1  0  0  0
  -28.9482  -22.4632   19.6521 N   0  0  0  0  0  0
  -29.8271  -15.9903   20.5688 N   0  0  0  0  0  0
  -27.6550  -23.5162   21.2209 O   0  0  0  0  0  0
  -28.7249  -18.7831   19.2458 O   0  0  0  0  0  0
  -31.4657  -12.6806   19.1640 H   0  0  0  0  0  0
  -30.4320  -11.5557   19.9968 H   0  0  0  0  0  0
  -29.8029  -11.7383   17.5462 H   0  0  0  0  0  0
  -29.6067  -13.4703   17.7201 H   0  0  0  0  0  0
  -27.9216  -11.2729   18.9757 H   0  0  0  0  0  0
  -27.3780  -12.4612   17.8111 H   0  0  0  0  0  0
  -27.5954  -14.2554   19.4336 H   0  0  0  0  0  0
  -28.7203  -12.2366   21.4245 H   0  0  0  0  0  0
  -28.3859  -13.9120   21.7783 H   0  0  0  0  0  0
  -25.2727   -9.5668   22.4788 H   0  0  0  0  0  0
  -24.0017   -7.4567   22.7456 H   0  0  0  0  0  0
  -21.0806   -8.8657   19.8961 H   0  0  0  0  0  0
  -22.3583  -10.9630   19.6204 H   0  0  0  0  0  0
  -21.1975   -7.6145   23.9683 H   0  0  0  0  0  0
  -21.1529   -6.0574   25.9084 H   0  0  0  0  0  0
  -22.0585   -2.7607   23.2894 H   0  0  0  0  0  0
  -22.4179  -11.9650   22.4826 H   0  0  0  0  0  0
  -21.1170  -13.1023   22.3033 H   0  0  0  0  0  0
  -24.6340  -15.8423   20.5545 H   0  0  0  0  0  0
  -26.2229  -15.6338   20.0225 H   0  0  0  0  0  0
  -26.7157  -32.5343   23.1042 H   0  0  0  0  0  0
  -24.9910  -33.9648   25.0289 H   0  0  0  0  0  0
  -22.7282  -31.3009   21.3911 H   0  0  0  0  0  0
  -23.3740  -35.9650   23.3277 H   0  0  0  0  0  0
  -24.3629  -36.8945   22.2069 H   0  0  0  0  0  0
  -23.7321  -37.6517   23.6676 H   0  0  0  0  0  0
  -26.1188  -31.5155   20.6085 H   0  0  0  0  0  0
  -26.8548  -30.8080   22.0079 H   0  0  0  0  0  0
  -28.1035  -28.8704   21.2239 H   0  0  0  0  0  0
  -25.9148  -25.8592   19.0494 H   0  0  0  0  0  0
  -23.9542  -27.2885   19.0259 H   0  0  0  0  0  0
  -23.7930  -30.6018   19.4111 H   0  0  0  0  0  0
  -22.7621  -29.2681   19.8307 H   0  0  0  0  0  0
  -25.1313  -36.1872   25.0835 H   0  0  0  0  0  0
  -20.9932  -28.3421   24.1421 H   0  0  0  0  0  0
  -20.5774  -26.2323   23.3697 H   0  0  0  0  0  0
  -21.6695  -26.7568   22.1313 H   0  0  0  0  0  0
  -19.7044  -25.6354   21.1281 H   0  0  0  0  0  0
  -19.6723  -27.3247   20.6807 H   0  0  0  0  0  0
  -17.4222  -26.6563   21.4124 H   0  0  0  0  0  0
  -18.0497  -26.0148   22.9171 H   0  0  0  0  0  0
  -19.7870  -30.7336   24.2306 H   0  0  0  0  0  0
  -17.4916  -31.6300   24.5170 H   0  0  0  0  0  0
  -15.5291  -30.2997   23.7658 H   0  0  0  0  0  0
  -15.8668  -28.0902   22.6965 H   0  0  0  0  0  0
  -24.6038  -30.6864   25.7864 H   0  0  0  0  0  0
  -24.8920  -32.2723   26.4918 H   0  0  0  0  0  0
  -25.8234  -30.8848   27.0215 H   0  0  0  0  0  0
  -26.2880  -29.6737   24.1153 H   0  0  0  0  0  0
  -27.3983  -29.7156   25.4638 H   0  0  0  0  0  0
  -27.8764  -30.4203   23.9372 H   0  0  0  0  0  0
  -27.2714  -33.3537   26.2014 H   0  0  0  0  0  0
  -28.3896  -32.6761   25.0294 H   0  0  0  0  0  0
  -28.0709  -31.8354   26.5390 H   0  0  0  0  0  0
  -28.2592  -38.0106   24.7464 H   0  0  0  0  0  0
  -28.1077  -36.2628   24.6313 H   0  0  0  0  0  0
  -27.2295  -37.1486   25.8877 H   0  0  0  0  0  0
  -20.9330  -29.8563   21.6634 H   0  0  0  0  0  0
  -26.0159  -38.2808   24.1385 H   0  0  0  0  0  0
  -30.3023  -20.4772   21.5514 H   0  0  0  0  0  0
  -27.7433  -20.2220   18.0831 H   0  0  0  0  0  0
  -28.8547  -24.4298   17.4244 H   0  0  0  0  0  0
  -28.2350  -26.0537   17.5988 H   0  0  0  0  0  0
  -27.1691  -24.6578   17.8397 H   0  0  0  0  0  0
  -31.3061  -17.4966   20.2340 H   0  0  0  0  0  0
  -30.5843  -17.5205   21.7862 H   0  0  0  0  0  0
  -29.6672  -25.0595   19.4550 H   0  0  0  0  0  0
  -29.4411  -22.7009   18.8020 H   0  0  0  0  0  0
  -28.8344  -15.8605   20.6789 H   0  0  0  0  0  0
  1 25  1  0  0  0
  1 30  2  0  0  0
  1 80  1  0  0  0
  2  3  1  0  0  0
  2 25  1  0  0  0
  2 83  1  0  0  0
  2 84  1  0  0  0
  3  4  1  0  0  0
  3 85  1  0  0  0
  3 86  1  0  0  0
  4  5  1  0  0  0
  4 87  1  0  0  0
  4 88  1  0  0  0
  5  6  1  0  0  0
  5 26  1  0  0  0
  5 89  1  0  0  0
  6 25  1  0  0  0
  6 90  1  0  0  0
  6 91  1  0  0  0
  7  8  2  0  0  0
  7 26  1  0  0  0
  7 29  1  0  0  0
  8  9  1  0  0  0
  8 22  1  0  0  0
  9 10  1  0  0  0
  9 27  2  0  0  0
 10 11  2  0  0  0
 10 15  1  0  0  0
 11 12  1  0  0  0
 11 92  1  0  0  0
 12 13  2  0  0  0
 12 93  1  0  0  0
 13 14  1  0  0  0
 13 31  1  0  0  0
 14 15  2  0  0  0
 14 94  1  0  0  0
 15 95  1  0  0  0
 16 17  2  0  0  0
 16 21  1  0  0  0
 16 31  1  0  0  0
 17 18  1  0  0  0
 17 96  1  0  0  0
 18 19  2  0  0  0
 18 97  1  0  0  0
 19 20  1  0  0  0
 19 24  1  0  0  0
 20 21  2  0  0  0
 20 98  1  0  0  0
 21 23  1  0  0  0
 22 28  1  0  0  0
 22 32  2  0  0  0
 26 27  1  0  0  0
 28 99  1  0  0  0
 28100  1  0  0  0
 29101  1  0  0  0
 29102  1  0  0  0
 33 34  1  0  0  0
 33 66  1  0  0  0
 33 70  2  0  0  0
 34 36  1  0  0  0
 34 59  1  0  0  0
 34103  1  0  0  0
 35 44  2  0  0  0
 35 45  1  0  0  0
 35 68  1  0  0  0
 36 56  1  0  0  0
 36104  1  0  0  0
 37 39  1  0  0  0
 37 47  1  0  0  0
 37 66  1  0  0  0
 37105  1  0  0  0
 38 43  2  0  0  0
 38 46  1  0  0  0
 38 47  1  0  0  0
 39 64  1  0  0  0
 39 67  2  0  0  0
 40 52  1  0  0  0
 40 53  2  0  0  0
 40 58  1  0  0  0
 41106  1  0  0  0
 41107  1  0  0  0
 41108  1  0  0  0
 41 48  1  0  0  0
 42 43  1  0  0  0
 42 66  1  0  0  0
 42109  1  0  0  0
 42110  1  0  0  0
 43 44  1  0  0  0
 44111  1  0  0  0
 45 46  2  0  0  0
 45112  1  0  0  0
 46113  1  0  0  0
 47114  1  0  0  0
 47115  1  0  0  0
 48 56  1  0  0  0
 48 65  1  0  0  0
 48116  1  0  0  0
 49 50  1  0  0  0
 49 53  1  0  0  0
 49 64  1  0  0  0
 49117  1  0  0  0
 50 51  1  0  0  0
 50118  1  0  0  0
 50119  1  0  0  0
 51 52  1  0  0  0
 51120  1  0  0  0
 51121  1  0  0  0
 52122  1  0  0  0
 52123  1  0  0  0
 53 54  1  0  0  0
 54 55  2  0  0  0
 54124  1  0  0  0
 55 57  1  0  0  0
 55125  1  0  0  0
 56 69  2  0  0  0
 57 58  2  0  0  0
 57126  1  0  0  0
 58127  1  0  0  0
 59 60  1  0  0  0
 59 61  1  0  0  0
 59 62  1  0  0  0
 60128  1  0  0  0
 60129  1  0  0  0
 60130  1  0  0  0
 61131  1  0  0  0
 61132  1  0  0  0
 61133  1  0  0  0
 62134  1  0  0  0
 62135  1  0  0  0
 62136  1  0  0  0
 63 65  1  0  0  0
 63137  1  0  0  0
 63138  1  0  0  0
 63139  1  0  0  0
 64140  1  0  0  0
 65141  1  0  0  0
 68 78  1  0  0  0
 71 73  1  0  0  0
 71 74  2  0  0  0
 71142  1  0  0  0
 72 73  2  0  0  0
 72 82  1  0  0  0
 72143  1  0  0  0
 73 79  1  0  0  0
 74 77  1  0  0  0
 74 82  1  0  0  0
 75 78  1  0  0  0
 75 79  1  0  0  0
 75 81  2  0  0  0
 76144  1  0  0  0
 76145  1  0  0  0
 76146  1  0  0  0
 76 78  1  0  0  0
 77 80  1  0  0  0
 77147  1  0  0  0
 77148  1  0  0  0
 78149  1  0  0  0
 79150  1  0  0  0
 80151  1  0  0  0
M  ISO  4   1 100  68 101  78 101  80 100
M  END
> <chiral flag>
0

> <version>
0

> <s_m_source_file>
/data/baiqing/PycharmProjects/Reinvent-master-3.2/result/LINK_invent/BTK/process_docking_weight1_custom_product_contain_oxygen_bond_distance_aromatic_linkinvent_7_9_3/rearranged_h_0170.sdf

> <i_m_source_file_index>
73

> <r_mmod_Potential_Energy-OPLS-2005>
191.164199829102

> <r_mmod_Stretch_Energy-OPLS-2005>
139.196716308594

> <r_mmod_Bend_Energy-OPLS-2005>
234.809860229492

> <r_mmod_Torsional_Energy-OPLS-2005>
252.910430908203

> <r_mmod_Improper_Torsional_Energy-OPLS-2005>
9.93581008911133

> <r_mmod_Van_der_Waal_Energy-OPLS-2005>
112.894432067871

> <r_mmod_Electrostatic_Energy-OPLS-2005>
-428.949829101562

> <r_mmod_Solvation_Energy-OPLS-2005>
-247.542556762695

> <b_mmod_Minimization_Converged-OPLS-2005>
0

> <r_mmod_RMS_Derivative-OPLS-2005>
5.63461112976074

$$$$
73
                    3D
 Structure written by MMmdl.
157165  0  0  1  0            999 V2000
  -30.6560  -14.4793   20.5747 C   0  0  0  0  0  0
  -30.4309  -12.3162   19.4050 C   0  0  0  0  0  0
  -29.4860  -12.4971   18.1978 C   0  0  0  0  0  0
  -28.0116  -12.3448   18.6232 C   0  0  0  0  0  0
  -27.6606  -13.1904   19.8756 C   0  0  2  0  0  0
  -28.7028  -12.9508   20.9899 C   0  0  0  0  0  0
  -25.2601  -13.8129   20.5702 C   0  0  0  0  0  0
  -24.1829  -13.0443   20.9190 C   0  0  0  0  0  0
  -24.6349  -11.6895   20.8753 C   0  0  0  0  0  0
  -23.9007  -10.4289   21.0404 C   0  0  0  0  0  0
  -24.3575   -9.4217   21.9187 C   0  0  0  0  0  0
  -23.6267   -8.2248   22.0752 C   0  0  0  0  0  0
  -22.4253   -8.0279   21.3539 C   0  0  0  0  0  0
  -21.9884   -9.0237   20.4632 C   0  0  0  0  0  0
  -22.7188  -10.2129   20.3050 C   0  0  0  0  0  0
  -21.6851   -6.0728   22.5273 C   0  0  0  0  0  0
  -21.4002   -6.5638   23.8204 C   0  0  0  0  0  0
  -21.3662   -5.6793   24.9172 C   0  0  0  0  0  0
  -21.6056   -4.3053   24.7223 C   0  0  0  0  0  0
  -21.8821   -3.8144   23.4343 C   0  0  0  0  0  0
  -21.9191   -4.6952   22.3404 C   0  0  0  0  0  0
  -22.7861  -13.5247   21.1864 C   0  0  0  0  0  0
  -22.1670   -4.2143   21.0970 F   0  0  0  0  0  0
  -21.5633   -3.4543   25.7736 F   0  0  0  0  0  0
  -30.0273  -13.2821   20.4372 N   0  0  0  0  0  0
  -26.3006  -12.9270   20.3372 N   0  0  0  0  0  0
  -25.9273  -11.6445   20.5781 N   0  0  0  0  0  0
  -22.0501  -12.8224   22.0391 N   0  0  0  0  0  0
  -25.4388  -15.1849   20.4100 N   0  0  0  0  0  0
  -31.7867  -14.7045   20.1328 O   0  0  0  0  0  0
  -21.6642   -6.8870   21.4228 O   0  0  0  0  0  0
  -22.3571  -14.5570   20.6725 O   0  0  0  0  0  0
  -24.6191  -31.8632   23.2081 C   0  0  0  0  0  0
  -25.9072  -32.4792   23.8390 C   0  0  1  0  0  0
  -27.2373  -27.4042   20.0850 C   0  0  0  0  0  0
  -25.5912  -33.8583   24.2343 N   0  0  0  0  0  0
  -23.4071  -30.4893   21.5506 C   0  0  2  0  0  0
  -24.8501  -28.9466   20.1174 C   0  0  0  0  0  0
  -22.7414  -29.4655   22.4992 C   0  0  0  0  0  0
  -18.0269  -28.1377   22.8507 C   0  0  0  0  0  0
  -24.1467  -36.7296   23.2641 C   0  0  0  0  0  0
  -25.9345  -30.8250   21.3547 C   0  0  0  0  0  0
  -26.0136  -29.4532   20.7080 C   0  0  0  0  0  0
  -27.2050  -28.6875   20.6921 C   0  0  0  0  0  0
  -26.0452  -26.9137   19.5026 C   0  0  0  0  0  0
  -24.8617  -27.6772   19.5165 C   0  0  0  0  0  0
  -23.6134  -29.8169   20.1690 C   0  0  0  0  0  0
  -25.4089  -36.3087   24.0343 C   0  0  1  0  0  0
  -20.5862  -28.3674   23.1312 C   0  0  2  0  0  0
  -20.6759  -26.9410   22.5411 C   0  0  0  0  0  0
  -19.5737  -26.6404   21.5199 C   0  0  0  0  0  0
  -18.1917  -26.7935   22.1614 C   0  0  0  0  0  0
  -19.1516  -28.8840   23.2912 C   0  0  0  0  0  0
  -18.9437  -30.1448   23.8925 C   0  0  0  0  0  0
  -17.6441  -30.6592   24.0576 C   0  0  0  0  0  0
  -25.9021  -34.9449   23.5142 C   0  0  0  0  0  0
  -16.5329  -29.9090   23.6335 C   0  0  0  0  0  0
  -16.7254  -28.6496   23.0368 C   0  0  0  0  0  0
  -26.4537  -31.6554   25.0692 C   0  0  0  0  0  0
  -25.3807  -31.3536   26.1420 C   0  0  0  0  0  0
  -27.0457  -30.3050   24.6008 C   0  0  0  0  0  0
  -27.6115  -32.4284   25.7461 C   0  0  0  0  0  0
  -27.5578  -37.1777   24.8458 C   0  0  0  0  0  0
  -21.4135  -29.3044   22.3716 N   0  0  0  0  0  0
  -26.4265  -37.3788   23.9446 N   0  0  0  0  0  0
  -24.6740  -31.0714   22.0989 N   0  0  0  0  0  0
  -23.4173  -28.8186   23.3033 O   0  0  0  0  0  0
  -28.4215  -26.6822   20.1043 O   0  0  0  0  0  0
  -26.5582  -34.8908   22.4702 O   0  0  0  0  0  0
  -23.5378  -32.1383   23.7471 O   0  0  0  0  0  0
  -28.8771  -18.6164   18.2846 C   0  0  0  0  0  0
  -29.3504  -17.6290   19.1643 C   0  0  0  0  0  0
  -28.6943  -19.9372   18.7280 C   0  0  0  0  0  0
  -29.6758  -17.9522   20.5004 C   0  0  0  0  0  0
  -29.5130  -19.3084   20.9553 C   0  0  0  0  0  0
  -28.9854  -20.3102   20.0613 C   0  0  0  0  0  0
  -28.4221  -24.1661   20.2221 C   0  0  0  0  0  0
  -30.2478  -16.8425   21.4160 C   0  0  0  0  0  0
  -28.6678  -22.7923   19.5370 C   0  0  0  0  0  0
  -28.5603  -25.4467   19.3552 C   0  0  0  0  0  0
  -29.9006  -19.6498   22.4098 C   0  0  0  0  0  0
  -28.7224  -21.6459   20.4689 N   0  0  0  0  0  0
  -29.8893  -15.4470   21.1123 N   0  0  0  0  0  0
  -28.1403  -24.2255   21.4253 O   0  0  0  0  0  0
  -28.9818  -19.1550   23.2403 F   0  0  0  0  0  0
  -31.0841  -19.1236   22.7275 F   0  0  0  0  0  0
  -30.0105  -20.9539   22.6642 F   0  0  0  0  0  0
  -31.4683  -12.4493   19.0935 H   0  0  0  0  0  0
  -30.3647  -11.3010   19.7991 H   0  0  0  0  0  0
  -29.7244  -11.7699   17.4207 H   0  0  0  0  0  0
  -29.6356  -13.4830   17.7541 H   0  0  0  0  0  0
  -27.8365  -11.2882   18.8338 H   0  0  0  0  0  0
  -27.3468  -12.6022   17.7981 H   0  0  0  0  0  0
  -27.7104  -14.2372   19.5785 H   0  0  0  0  0  0
  -28.6917  -11.9061   21.3037 H   0  0  0  0  0  0
  -28.4624  -13.5199   21.8884 H   0  0  0  0  0  0
  -25.2714   -9.5731   22.4767 H   0  0  0  0  0  0
  -23.9993   -7.4652   22.7483 H   0  0  0  0  0  0
  -21.0828   -8.8736   19.8931 H   0  0  0  0  0  0
  -22.3629  -10.9669   19.6172 H   0  0  0  0  0  0
  -21.1986   -7.6152   23.9700 H   0  0  0  0  0  0
  -21.1489   -6.0532   25.9076 H   0  0  0  0  0  0
  -22.0599   -2.7610   23.2844 H   0  0  0  0  0  0
  -22.4106  -11.9848   22.4730 H   0  0  0  0  0  0
  -21.1118  -13.1248   22.2620 H   0  0  0  0  0  0
  -24.6748  -15.8425   20.5124 H   0  0  0  0  0  0
  -26.2908  -15.6163   20.0741 H   0  0  0  0  0  0
  -26.7121  -32.5528   23.1146 H   0  0  0  0  0  0
  -25.0064  -33.9722   25.0498 H   0  0  0  0  0  0
  -22.6965  -31.3066   21.4124 H   0  0  0  0  0  0
  -23.3742  -35.9607   23.3243 H   0  0  0  0  0  0
  -24.3572  -36.8985   22.2068 H   0  0  0  0  0  0
  -23.7186  -37.6460   23.6708 H   0  0  0  0  0  0
  -26.0212  -31.5789   20.5716 H   0  0  0  0  0  0
  -26.8332  -30.9026   21.9543 H   0  0  0  0  0  0
  -28.1055  -29.0776   21.1482 H   0  0  0  0  0  0
  -25.9942  -25.9344   19.0521 H   0  0  0  0  0  0
  -23.9604  -27.2753   19.0746 H   0  0  0  0  0  0
  -23.7184  -30.5866   19.4048 H   0  0  0  0  0  0
  -22.7349  -29.2348   19.8820 H   0  0  0  0  0  0
  -25.1261  -36.1939   25.0835 H   0  0  0  0  0  0
  -20.9966  -28.3256   24.1422 H   0  0  0  0  0  0
  -20.5675  -26.2267   23.3595 H   0  0  0  0  0  0
  -21.6623  -26.7465   22.1185 H   0  0  0  0  0  0
  -19.6886  -25.6328   21.1195 H   0  0  0  0  0  0
  -19.6661  -27.3245   20.6756 H   0  0  0  0  0  0
  -17.4192  -26.6706   21.4009 H   0  0  0  0  0  0
  -18.0283  -26.0069   22.8985 H   0  0  0  0  0  0
  -19.7916  -30.7264   24.2289 H   0  0  0  0  0  0
  -17.4997  -31.6267   24.5192 H   0  0  0  0  0  0
  -15.5331  -30.2999   23.7660 H   0  0  0  0  0  0
  -15.8641  -28.0826   22.7074 H   0  0  0  0  0  0
  -24.6096  -30.6780   25.7702 H   0  0  0  0  0  0
  -24.8845  -32.2604   26.4873 H   0  0  0  0  0  0
  -25.8205  -30.8717   27.0162 H   0  0  0  0  0  0
  -26.3001  -29.6639   24.1282 H   0  0  0  0  0  0
  -27.4567  -29.7435   25.4409 H   0  0  0  0  0  0
  -27.8641  -30.4467   23.8948 H   0  0  0  0  0  0
  -27.2801  -33.3642   26.1964 H   0  0  0  0  0  0
  -28.3956  -32.6719   25.0282 H   0  0  0  0  0  0
  -28.0730  -31.8419   26.5410 H   0  0  0  0  0  0
  -28.2512  -38.0162   24.7653 H   0  0  0  0  0  0
  -28.1168  -36.2696   24.6129 H   0  0  0  0  0  0
  -27.2299  -37.1234   25.8854 H   0  0  0  0  0  0
  -20.9286  -29.8742   21.6917 H   0  0  0  0  0  0
  -26.0134  -38.2835   24.1551 H   0  0  0  0  0  0
  -28.6484  -18.3586   17.2597 H   0  0  0  0  0  0
  -29.4786  -16.6226   18.7922 H   0  0  0  0  0  0
  -28.3082  -20.6525   18.0163 H   0  0  0  0  0  0
  -29.9096  -16.9987   22.4393 H   0  0  0  0  0  0
  -31.3335  -16.9408   21.4335 H   0  0  0  0  0  0
  -29.5994  -22.8474   18.9700 H   0  0  0  0  0  0
  -27.8658  -22.6426   18.8145 H   0  0  0  0  0  0
  -27.8993  -25.3983   18.4906 H   0  0  0  0  0  0
  -29.5707  -25.4350   18.9459 H   0  0  0  0  0  0
  -28.9434  -21.8964   21.4328 H   0  0  0  0  0  0
  -28.9797  -15.1449   21.4263 H   0  0  0  0  0  0
  1 25  1  0  0  0
  1 30  2  0  0  0
  1 83  1  0  0  0
  2  3  1  0  0  0
  2 25  1  0  0  0
  2 88  1  0  0  0
  2 89  1  0  0  0
  3  4  1  0  0  0
  3 90  1  0  0  0
  3 91  1  0  0  0
  4  5  1  0  0  0
  4 92  1  0  0  0
  4 93  1  0  0  0
  5  6  1  0  0  0
  5 26  1  0  0  0
  5 94  1  0  0  0
  6 25  1  0  0  0
  6 95  1  0  0  0
  6 96  1  0  0  0
  7  8  2  0  0  0
  7 26  1  0  0  0
  7 29  1  0  0  0
  8  9  1  0  0  0
  8 22  1  0  0  0
  9 10  1  0  0  0
  9 27  2  0  0  0
 10 11  2  0  0  0
 10 15  1  0  0  0
 11 12  1  0  0  0
 11 97  1  0  0  0
 12 13  2  0  0  0
 12 98  1  0  0  0
 13 14  1  0  0  0
 13 31  1  0  0  0
 14 15  2  0  0  0
 14 99  1  0  0  0
 15100  1  0  0  0
 16 17  2  0  0  0
 16 21  1  0  0  0
 16 31  1  0  0  0
 17 18  1  0  0  0
 17101  1  0  0  0
 18 19  2  0  0  0
 18102  1  0  0  0
 19 20  1  0  0  0
 19 24  1  0  0  0
 20 21  2  0  0  0
 20103  1  0  0  0
 21 23  1  0  0  0
 22 28  1  0  0  0
 22 32  2  0  0  0
 26 27  1  0  0  0
 28104  1  0  0  0
 28105  1  0  0  0
 29106  1  0  0  0
 29107  1  0  0  0
 33 34  1  0  0  0
 33 66  1  0  0  0
 33 70  2  0  0  0
 34 36  1  0  0  0
 34 59  1  0  0  0
 34108  1  0  0  0
 35 44  2  0  0  0
 35 45  1  0  0  0
 35 68  1  0  0  0
 36 56  1  0  0  0
 36109  1  0  0  0
 37 39  1  0  0  0
 37 47  1  0  0  0
 37 66  1  0  0  0
 37110  1  0  0  0
 38 43  2  0  0  0
 38 46  1  0  0  0
 38 47  1  0  0  0
 39 64  1  0  0  0
 39 67  2  0  0  0
 40 52  1  0  0  0
 40 53  2  0  0  0
 40 58  1  0  0  0
 41111  1  0  0  0
 41112  1  0  0  0
 41113  1  0  0  0
 41 48  1  0  0  0
 42 43  1  0  0  0
 42 66  1  0  0  0
 42114  1  0  0  0
 42115  1  0  0  0
 43 44  1  0  0  0
 44116  1  0  0  0
 45 46  2  0  0  0
 45117  1  0  0  0
 46118  1  0  0  0
 47119  1  0  0  0
 47120  1  0  0  0
 48 56  1  0  0  0
 48 65  1  0  0  0
 48121  1  0  0  0
 49 50  1  0  0  0
 49 53  1  0  0  0
 49 64  1  0  0  0
 49122  1  0  0  0
 50 51  1  0  0  0
 50123  1  0  0  0
 50124  1  0  0  0
 51 52  1  0  0  0
 51125  1  0  0  0
 51126  1  0  0  0
 52127  1  0  0  0
 52128  1  0  0  0
 53 54  1  0  0  0
 54 55  2  0  0  0
 54129  1  0  0  0
 55 57  1  0  0  0
 55130  1  0  0  0
 56 69  2  0  0  0
 57 58  2  0  0  0
 57131  1  0  0  0
 58132  1  0  0  0
 59 60  1  0  0  0
 59 61  1  0  0  0
 59 62  1  0  0  0
 60133  1  0  0  0
 60134  1  0  0  0
 60135  1  0  0  0
 61136  1  0  0  0
 61137  1  0  0  0
 61138  1  0  0  0
 62139  1  0  0  0
 62140  1  0  0  0
 62141  1  0  0  0
 63 65  1  0  0  0
 63142  1  0  0  0
 63143  1  0  0  0
 63144  1  0  0  0
 64145  1  0  0  0
 65146  1  0  0  0
 68 80  1  0  0  0
 71 72  2  0  0  0
 71 73  1  0  0  0
 71147  1  0  0  0
 72 74  1  0  0  0
 72148  1  0  0  0
 73 76  2  0  0  0
 73149  1  0  0  0
 74 75  2  0  0  0
 74 78  1  0  0  0
 75 76  1  0  0  0
 75 81  1  0  0  0
 76 82  1  0  0  0
 77 79  1  0  0  0
 77 80  1  0  0  0
 77 84  2  0  0  0
 78 83  1  0  0  0
 78150  1  0  0  0
 78151  1  0  0  0
 79 82  1  0  0  0
 79152  1  0  0  0
 79153  1  0  0  0
 80154  1  0  0  0
 80155  1  0  0  0
 81 85  1  0  0  0
 81 86  1  0  0  0
 81 87  1  0  0  0
 82156  1  0  0  0
 83157  1  0  0  0
M  ISO  4   1 100  68 101  80 101  83 100
M  END
> <chiral flag>
0

> <version>
0

> <s_m_source_file>
/data/baiqing/PycharmProjects/Reinvent-master-3.2/result/LINK_invent/BTK/process_docking_weight1_custom_product_contain_oxygen_bond_distance_aromatic_linkinvent_7_9_3/rearranged_h_0170.sdf

> <i_m_source_file_index>
74

> <r_mmod_Potential_Energy-OPLS-2005>
57.4771537780762

> <r_mmod_Stretch_Energy-OPLS-2005>
51.1821975708008

> <r_mmod_Bend_Energy-OPLS-2005>
120.588745117188

> <r_mmod_Torsional_Energy-OPLS-2005>
178.070739746094

> <r_mmod_Improper_Torsional_Energy-OPLS-2005>
4.84267568588257

> <r_mmod_Van_der_Waal_Energy-OPLS-2005>
163.724060058594

> <r_mmod_Electrostatic_Energy-OPLS-2005>
-242.762634277344

> <r_mmod_Solvation_Energy-OPLS-2005>
-233.51203918457

> <b_mmod_Minimization_Converged-OPLS-2005>
0

> <r_mmod_RMS_Derivative-OPLS-2005>
2.75579214096069

$$$$
74
                    3D
 Structure written by MMmdl.
153161  0  0  1  0            999 V2000
  -30.6670  -14.5458   20.5411 C   0  0  0  0  0  0
  -30.4291  -12.3463   19.4287 C   0  0  0  0  0  0
  -29.4964  -12.4961   18.2085 C   0  0  0  0  0  0
  -28.0190  -12.3459   18.6249 C   0  0  0  0  0  0
  -27.6534  -13.2082   19.8626 C   0  0  2  0  0  0
  -28.6985  -13.0356   20.9870 C   0  0  0  0  0  0
  -25.2562  -13.8159   20.5673 C   0  0  0  0  0  0
  -24.1824  -13.0435   20.9190 C   0  0  0  0  0  0
  -24.6383  -11.6902   20.8745 C   0  0  0  0  0  0
  -23.9053  -10.4288   21.0411 C   0  0  0  0  0  0
  -24.3608   -9.4204   21.9187 C   0  0  0  0  0  0
  -23.6286   -8.2239   22.0755 C   0  0  0  0  0  0
  -22.4270   -8.0277   21.3543 C   0  0  0  0  0  0
  -21.9903   -9.0250   20.4647 C   0  0  0  0  0  0
  -22.7228  -10.2131   20.3058 C   0  0  0  0  0  0
  -21.6851   -6.0733   22.5279 C   0  0  0  0  0  0
  -21.4012   -6.5638   23.8211 C   0  0  0  0  0  0
  -21.3658   -5.6791   24.9174 C   0  0  0  0  0  0
  -21.6044   -4.3054   24.7226 C   0  0  0  0  0  0
  -21.8820   -3.8144   23.4348 C   0  0  0  0  0  0
  -21.9192   -4.6961   22.3403 C   0  0  0  0  0  0
  -22.7848  -13.5233   21.1853 C   0  0  0  0  0  0
  -22.1661   -4.2146   21.0981 F   0  0  0  0  0  0
  -21.5629   -3.4539   25.7740 F   0  0  0  0  0  0
  -30.0169  -13.3539   20.4188 N   0  0  0  0  0  0
  -26.2983  -12.9324   20.3318 N   0  0  0  0  0  0
  -25.9306  -11.6488   20.5760 N   0  0  0  0  0  0
  -22.0490  -12.8227   22.0410 N   0  0  0  0  0  0
  -25.4275  -15.1879   20.4065 N   0  0  0  0  0  0
  -31.8362  -14.6981   20.1755 O   0  0  0  0  0  0
  -21.6635   -6.8874   21.4239 O   0  0  0  0  0  0
  -22.3539  -14.5541   20.6703 O   0  0  0  0  0  0
  -24.6186  -31.8649   23.2071 C   0  0  0  0  0  0
  -25.9065  -32.4804   23.8378 C   0  0  1  0  0  0
  -27.2297  -27.3900   20.1117 C   0  0  0  0  0  0
  -25.5908  -33.8603   24.2311 N   0  0  0  0  0  0
  -23.4087  -30.4876   21.5486 C   0  0  2  0  0  0
  -24.8555  -28.9442   20.1192 C   0  0  0  0  0  0
  -22.7430  -29.4648   22.4979 C   0  0  0  0  0  0
  -18.0275  -28.1380   22.8489 C   0  0  0  0  0  0
  -24.1486  -36.7307   23.2639 C   0  0  0  0  0  0
  -25.9414  -30.8178   21.3657 C   0  0  0  0  0  0
  -26.0188  -29.4470   20.7163 C   0  0  0  0  0  0
  -27.2118  -28.6796   20.7042 C   0  0  0  0  0  0
  -26.0490  -26.9114   19.5082 C   0  0  0  0  0  0
  -24.8676  -27.6774   19.5106 C   0  0  0  0  0  0
  -23.6202  -29.8175   20.1648 C   0  0  0  0  0  0
  -25.4107  -36.3101   24.0335 C   0  0  1  0  0  0
  -20.5870  -28.3672   23.1309 C   0  0  2  0  0  0
  -20.6767  -26.9404   22.5415 C   0  0  0  0  0  0
  -19.5744  -26.6387   21.5212 C   0  0  0  0  0  0
  -18.1922  -26.7925   22.1624 C   0  0  0  0  0  0
  -19.1526  -28.8841   23.2894 C   0  0  0  0  0  0
  -18.9455  -30.1446   23.8906 C   0  0  0  0  0  0
  -17.6457  -30.6585   24.0565 C   0  0  0  0  0  0
  -25.9039  -34.9467   23.5122 C   0  0  0  0  0  0
  -16.5347  -29.9086   23.6327 C   0  0  0  0  0  0
  -16.7265  -28.6504   23.0347 C   0  0  0  0  0  0
  -26.4479  -31.6590   25.0717 C   0  0  0  0  0  0
  -25.3738  -31.3702   26.1463 C   0  0  0  0  0  0
  -27.0314  -30.3033   24.6108 C   0  0  0  0  0  0
  -27.6052  -32.4311   25.7481 C   0  0  0  0  0  0
  -27.5579  -37.1806   24.8464 C   0  0  0  0  0  0
  -21.4154  -29.3037   22.3715 N   0  0  0  0  0  0
  -26.4292  -37.3789   23.9409 N   0  0  0  0  0  0
  -24.6747  -31.0718   22.0987 N   0  0  0  0  0  0
  -23.4183  -28.8192   23.3037 O   0  0  0  0  0  0
  -28.3820  -26.6227   20.0710 O   0  0  0  0  0  0
  -26.5606  -34.8923   22.4686 O   0  0  0  0  0  0
  -23.5370  -32.1418   23.7445 O   0  0  0  0  0  0
  -31.6275  -18.4556   22.5695 C   0  0  0  0  0  0
  -30.9764  -19.5782   22.0240 C   0  0  0  0  0  0
  -31.2857  -17.1553   22.1551 C   0  0  0  0  0  0
  -29.6169  -18.0995   20.6434 C   0  0  0  0  0  0
  -29.9628  -19.4276   21.0486 C   0  0  0  0  0  0
  -30.2762  -16.9525   21.1892 C   0  0  0  0  0  0
  -28.8954  -22.9599   19.8982 C   0  0  0  0  0  0
  -29.1690  -21.8288   20.9607 C   0  0  0  0  0  0
  -27.8670  -24.0795   20.2166 C   0  0  0  0  0  0
  -28.3996  -25.4040   20.8626 C   0  0  0  0  0  0
  -29.3784  -20.5943   20.4251 N   0  0  0  0  0  0
  -29.8797  -15.6094   20.8511 N   0  0  0  0  0  0
  -29.4664  -22.9500   18.8013 O   0  0  0  0  0  0
  -29.1675  -22.0697   22.1731 O   0  0  0  0  0  0
  -31.4708  -12.4632   19.1245 H   0  0  0  0  0  0
  -30.3514  -11.3451   19.8553 H   0  0  0  0  0  0
  -29.7470  -11.7535   17.4498 H   0  0  0  0  0  0
  -29.6493  -13.4716   17.7440 H   0  0  0  0  0  0
  -27.8452  -11.2920   18.8458 H   0  0  0  0  0  0
  -27.3642  -12.5911   17.7879 H   0  0  0  0  0  0
  -27.6802  -14.2467   19.5333 H   0  0  0  0  0  0
  -28.6935  -12.0109   21.3616 H   0  0  0  0  0  0
  -28.4598  -13.6665   21.8449 H   0  0  0  0  0  0
  -25.2754   -9.5681   22.4760 H   0  0  0  0  0  0
  -23.9996   -7.4631   22.7472 H   0  0  0  0  0  0
  -21.0836   -8.8768   19.8952 H   0  0  0  0  0  0
  -22.3688  -10.9670   19.6167 H   0  0  0  0  0  0
  -21.2003   -7.6145   23.9714 H   0  0  0  0  0  0
  -21.1479   -6.0522   25.9077 H   0  0  0  0  0  0
  -22.0601   -2.7608   23.2850 H   0  0  0  0  0  0
  -22.4101  -11.9884   22.4793 H   0  0  0  0  0  0
  -21.1110  -13.1258   22.2620 H   0  0  0  0  0  0
  -24.6577  -15.8402   20.5101 H   0  0  0  0  0  0
  -26.2705  -15.6269   20.0596 H   0  0  0  0  0  0
  -26.7133  -32.5508   23.1136 H   0  0  0  0  0  0
  -25.0048  -33.9754   25.0451 H   0  0  0  0  0  0
  -22.6995  -31.3057   21.4065 H   0  0  0  0  0  0
  -23.3745  -35.9646   23.3309 H   0  0  0  0  0  0
  -24.3579  -36.8920   22.2053 H   0  0  0  0  0  0
  -23.7242  -37.6513   23.6653 H   0  0  0  0  0  0
  -26.0567  -31.5799   20.5938 H   0  0  0  0  0  0
  -26.8281  -30.8737   21.9855 H   0  0  0  0  0  0
  -28.1126  -29.0668   21.1594 H   0  0  0  0  0  0
  -26.0359  -25.9483   19.0217 H   0  0  0  0  0  0
  -23.9750  -27.2863   19.0421 H   0  0  0  0  0  0
  -23.7340  -30.5911   19.4042 H   0  0  0  0  0  0
  -22.7427  -29.2405   19.8672 H   0  0  0  0  0  0
  -25.1284  -36.1962   25.0829 H   0  0  0  0  0  0
  -20.9956  -28.3241   24.1431 H   0  0  0  0  0  0
  -20.5674  -26.2279   23.3606 H   0  0  0  0  0  0
  -21.6637  -26.7449   22.1207 H   0  0  0  0  0  0
  -19.6911  -25.6302   21.1233 H   0  0  0  0  0  0
  -19.6688  -27.3207   20.6750 H   0  0  0  0  0  0
  -17.4195  -26.6673   21.4024 H   0  0  0  0  0  0
  -18.0322  -26.0064   22.9018 H   0  0  0  0  0  0
  -19.7933  -30.7254   24.2285 H   0  0  0  0  0  0
  -17.5016  -31.6268   24.5163 H   0  0  0  0  0  0
  -15.5349  -30.2992   23.7651 H   0  0  0  0  0  0
  -15.8663  -28.0829   22.7056 H   0  0  0  0  0  0
  -24.5911  -30.7050   25.7797 H   0  0  0  0  0  0
  -24.8928  -32.2859   26.4917 H   0  0  0  0  0  0
  -25.8087  -30.8865   27.0220 H   0  0  0  0  0  0
  -26.2864  -29.6789   24.1163 H   0  0  0  0  0  0
  -27.4080  -29.7274   25.4571 H   0  0  0  0  0  0
  -27.8699  -30.4347   23.9265 H   0  0  0  0  0  0
  -27.2673  -33.3604   26.2079 H   0  0  0  0  0  0
  -28.3850  -32.6882   25.0300 H   0  0  0  0  0  0
  -28.0730  -31.8421   26.5380 H   0  0  0  0  0  0
  -28.2598  -38.0102   24.7510 H   0  0  0  0  0  0
  -28.1071  -36.2632   24.6288 H   0  0  0  0  0  0
  -27.2296  -37.1456   25.8868 H   0  0  0  0  0  0
  -20.9323  -29.8758   21.6931 H   0  0  0  0  0  0
  -26.0178  -38.2866   24.1415 H   0  0  0  0  0  0
  -32.4007  -18.5943   23.3119 H   0  0  0  0  0  0
  -31.2876  -20.5601   22.3522 H   0  0  0  0  0  0
  -31.7953  -16.3136   22.6032 H   0  0  0  0  0  0
  -28.8431  -17.9592   19.9016 H   0  0  0  0  0  0
  -27.1210  -23.6442   20.8815 H   0  0  0  0  0  0
  -27.3413  -24.3022   19.2910 H   0  0  0  0  0  0
  -29.4324  -25.2545   21.1801 H   0  0  0  0  0  0
  -27.8509  -25.5836   21.7889 H   0  0  0  0  0  0
  -29.1875  -20.5335   19.4332 H   0  0  0  0  0  0
  -28.8914  -15.4141   20.8899 H   0  0  0  0  0  0
  1 25  1  0  0  0
  1 30  2  0  0  0
  1 82  1  0  0  0
  2  3  1  0  0  0
  2 25  1  0  0  0
  2 85  1  0  0  0
  2 86  1  0  0  0
  3  4  1  0  0  0
  3 87  1  0  0  0
  3 88  1  0  0  0
  4  5  1  0  0  0
  4 89  1  0  0  0
  4 90  1  0  0  0
  5  6  1  0  0  0
  5 26  1  0  0  0
  5 91  1  0  0  0
  6 25  1  0  0  0
  6 92  1  0  0  0
  6 93  1  0  0  0
  7  8  2  0  0  0
  7 26  1  0  0  0
  7 29  1  0  0  0
  8  9  1  0  0  0
  8 22  1  0  0  0
  9 10  1  0  0  0
  9 27  2  0  0  0
 10 11  2  0  0  0
 10 15  1  0  0  0
 11 12  1  0  0  0
 11 94  1  0  0  0
 12 13  2  0  0  0
 12 95  1  0  0  0
 13 14  1  0  0  0
 13 31  1  0  0  0
 14 15  2  0  0  0
 14 96  1  0  0  0
 15 97  1  0  0  0
 16 17  2  0  0  0
 16 21  1  0  0  0
 16 31  1  0  0  0
 17 18  1  0  0  0
 17 98  1  0  0  0
 18 19  2  0  0  0
 18 99  1  0  0  0
 19 20  1  0  0  0
 19 24  1  0  0  0
 20 21  2  0  0  0
 20100  1  0  0  0
 21 23  1  0  0  0
 22 28  1  0  0  0
 22 32  2  0  0  0
 26 27  1  0  0  0
 28101  1  0  0  0
 28102  1  0  0  0
 29103  1  0  0  0
 29104  1  0  0  0
 33 34  1  0  0  0
 33 66  1  0  0  0
 33 70  2  0  0  0
 34 36  1  0  0  0
 34 59  1  0  0  0
 34105  1  0  0  0
 35 44  2  0  0  0
 35 45  1  0  0  0
 35 68  1  0  0  0
 36 56  1  0  0  0
 36106  1  0  0  0
 37 39  1  0  0  0
 37 47  1  0  0  0
 37 66  1  0  0  0
 37107  1  0  0  0
 38 43  2  0  0  0
 38 46  1  0  0  0
 38 47  1  0  0  0
 39 64  1  0  0  0
 39 67  2  0  0  0
 40 52  1  0  0  0
 40 53  2  0  0  0
 40 58  1  0  0  0
 41108  1  0  0  0
 41109  1  0  0  0
 41110  1  0  0  0
 41 48  1  0  0  0
 42 43  1  0  0  0
 42 66  1  0  0  0
 42111  1  0  0  0
 42112  1  0  0  0
 43 44  1  0  0  0
 44113  1  0  0  0
 45 46  2  0  0  0
 45114  1  0  0  0
 46115  1  0  0  0
 47116  1  0  0  0
 47117  1  0  0  0
 48 56  1  0  0  0
 48 65  1  0  0  0
 48118  1  0  0  0
 49 50  1  0  0  0
 49 53  1  0  0  0
 49 64  1  0  0  0
 49119  1  0  0  0
 50 51  1  0  0  0
 50120  1  0  0  0
 50121  1  0  0  0
 51 52  1  0  0  0
 51122  1  0  0  0
 51123  1  0  0  0
 52124  1  0  0  0
 52125  1  0  0  0
 53 54  1  0  0  0
 54 55  2  0  0  0
 54126  1  0  0  0
 55 57  1  0  0  0
 55127  1  0  0  0
 56 69  2  0  0  0
 57 58  2  0  0  0
 57128  1  0  0  0
 58129  1  0  0  0
 59 60  1  0  0  0
 59 61  1  0  0  0
 59 62  1  0  0  0
 60130  1  0  0  0
 60131  1  0  0  0
 60132  1  0  0  0
 61133  1  0  0  0
 61134  1  0  0  0
 61135  1  0  0  0
 62136  1  0  0  0
 62137  1  0  0  0
 62138  1  0  0  0
 63 65  1  0  0  0
 63139  1  0  0  0
 63140  1  0  0  0
 63141  1  0  0  0
 64142  1  0  0  0
 65143  1  0  0  0
 68 80  1  0  0  0
 71 72  2  0  0  0
 71 73  1  0  0  0
 71144  1  0  0  0
 72 75  1  0  0  0
 72145  1  0  0  0
 73 76  2  0  0  0
 73146  1  0  0  0
 74 75  2  0  0  0
 74 76  1  0  0  0
 74147  1  0  0  0
 75 81  1  0  0  0
 76 82  1  0  0  0
 77 78  1  0  0  0
 77 79  1  0  0  0
 77 83  2  0  0  0
 78 81  1  0  0  0
 78 84  2  0  0  0
 79 80  1  0  0  0
 79148  1  0  0  0
 79149  1  0  0  0
 80150  1  0  0  0
 80151  1  0  0  0
 81152  1  0  0  0
 82153  1  0  0  0
M  ISO  4   1 100  68 101  80 101  82 100
M  END
> <chiral flag>
0

> <version>
0

> <s_m_source_file>
/data/baiqing/PycharmProjects/Reinvent-master-3.2/result/LINK_invent/BTK/process_docking_weight1_custom_product_contain_oxygen_bond_distance_aromatic_linkinvent_7_9_3/rearranged_h_0170.sdf

> <i_m_source_file_index>
75

> <r_mmod_Potential_Energy-OPLS-2005>
11.3307399749756

> <r_mmod_Stretch_Energy-OPLS-2005>
51.5909271240234

> <r_mmod_Bend_Energy-OPLS-2005>
108.499305725098

> <r_mmod_Torsional_Energy-OPLS-2005>
276.517517089844

> <r_mmod_Improper_Torsional_Energy-OPLS-2005>
6.2486629486084

> <r_mmod_Van_der_Waal_Energy-OPLS-2005>
143.918167114258

> <r_mmod_Electrostatic_Energy-OPLS-2005>
-358.163848876953

> <r_mmod_Solvation_Energy-OPLS-2005>
-240.561676025391

> <b_mmod_Minimization_Converged-OPLS-2005>
0

> <r_mmod_RMS_Derivative-OPLS-2005>
0.419799417257309

$$$$
75
                    3D
 Structure written by MMmdl.
158166  0  0  1  0            999 V2000
  -30.7065  -14.4669   20.5763 C   0  0  0  0  0  0
  -30.4206  -12.3017   19.4317 C   0  0  0  0  0  0
  -29.4989  -12.5123   18.2117 C   0  0  0  0  0  0
  -28.0168  -12.3773   18.6147 C   0  0  0  0  0  0
  -27.6633  -13.2072   19.8784 C   0  0  2  0  0  0
  -28.7007  -12.9676   20.9968 C   0  0  0  0  0  0
  -25.2596  -13.8166   20.5675 C   0  0  0  0  0  0
  -24.1835  -13.0443   20.9153 C   0  0  0  0  0  0
  -24.6387  -11.6908   20.8713 C   0  0  0  0  0  0
  -23.9052  -10.4294   21.0392 C   0  0  0  0  0  0
  -24.3606   -9.4216   21.9176 C   0  0  0  0  0  0
  -23.6285   -8.2250   22.0754 C   0  0  0  0  0  0
  -22.4270   -8.0280   21.3541 C   0  0  0  0  0  0
  -21.9899   -9.0248   20.4644 C   0  0  0  0  0  0
  -22.7222  -10.2130   20.3047 C   0  0  0  0  0  0
  -21.6851   -6.0732   22.5273 C   0  0  0  0  0  0
  -21.4013   -6.5637   23.8206 C   0  0  0  0  0  0
  -21.3660   -5.6791   24.9169 C   0  0  0  0  0  0
  -21.6046   -4.3053   24.7222 C   0  0  0  0  0  0
  -21.8820   -3.8144   23.4344 C   0  0  0  0  0  0
  -21.9192   -4.6960   22.3398 C   0  0  0  0  0  0
  -22.7861  -13.5245   21.1827 C   0  0  0  0  0  0
  -22.1661   -4.2146   21.0974 F   0  0  0  0  0  0
  -21.5630   -3.4540   25.7736 F   0  0  0  0  0  0
  -30.0345  -13.2851   20.4593 N   0  0  0  0  0  0
  -26.3028  -12.9333   20.3363 N   0  0  0  0  0  0
  -25.9313  -11.6490   20.5744 N   0  0  0  0  0  0
  -22.0501  -12.8232   22.0383 N   0  0  0  0  0  0
  -25.4346  -15.1885   20.4116 N   0  0  0  0  0  0
  -31.8228  -14.6262   20.0723 O   0  0  0  0  0  0
  -21.6638   -6.8874   21.4236 O   0  0  0  0  0  0
  -22.3546  -14.5557   20.6691 O   0  0  0  0  0  0
  -24.6139  -31.8680   23.2092 C   0  0  0  0  0  0
  -25.9036  -32.4821   23.8389 C   0  0  1  0  0  0
  -27.2356  -27.4462   20.0974 C   0  0  0  0  0  0
  -25.5894  -33.8620   24.2324 N   0  0  0  0  0  0
  -23.4014  -30.4903   21.5496 C   0  0  2  0  0  0
  -24.8491  -28.9544   20.1158 C   0  0  0  0  0  0
  -22.7399  -29.4663   22.4995 C   0  0  0  0  0  0
  -18.0267  -28.1375   22.8490 C   0  0  0  0  0  0
  -24.1487  -36.7317   23.2640 C   0  0  0  0  0  0
  -25.9283  -30.8377   21.3593 C   0  0  0  0  0  0
  -26.0082  -29.4718   20.7089 C   0  0  0  0  0  0
  -27.2082  -28.7259   20.6941 C   0  0  0  0  0  0
  -26.0640  -26.9359   19.5028 C   0  0  0  0  0  0
  -24.8711  -27.6849   19.5095 C   0  0  0  0  0  0
  -23.6090  -29.8189   20.1653 C   0  0  0  0  0  0
  -25.4108  -36.3115   24.0339 C   0  0  1  0  0  0
  -20.5855  -28.3664   23.1315 C   0  0  2  0  0  0
  -20.6760  -26.9399   22.5416 C   0  0  0  0  0  0
  -19.5740  -26.6384   21.5207 C   0  0  0  0  0  0
  -18.1914  -26.7924   22.1614 C   0  0  0  0  0  0
  -19.1515  -28.8836   23.2899 C   0  0  0  0  0  0
  -18.9449  -30.1443   23.8910 C   0  0  0  0  0  0
  -17.6453  -30.6583   24.0569 C   0  0  0  0  0  0
  -25.9032  -34.9478   23.5130 C   0  0  0  0  0  0
  -16.5343  -29.9085   23.6332 C   0  0  0  0  0  0
  -16.7257  -28.6503   23.0347 C   0  0  0  0  0  0
  -26.4467  -31.6594   25.0713 C   0  0  0  0  0  0
  -25.3749  -31.3704   26.1479 C   0  0  0  0  0  0
  -27.0281  -30.3033   24.6080 C   0  0  0  0  0  0
  -27.6057  -32.4301   25.7468 C   0  0  0  0  0  0
  -27.5580  -37.1817   24.8467 C   0  0  0  0  0  0
  -21.4130  -29.3035   22.3728 N   0  0  0  0  0  0
  -26.4297  -37.3795   23.9405 N   0  0  0  0  0  0
  -24.6661  -31.0793   22.0981 N   0  0  0  0  0  0
  -23.4174  -28.8208   23.3037 O   0  0  0  0  0  0
  -28.3871  -26.6969   20.0877 O   0  0  0  0  0  0
  -26.5598  -34.8930   22.4693 O   0  0  0  0  0  0
  -23.5336  -32.1420   23.7500 O   0  0  0  0  0  0
  -28.6930  -19.2416   23.3143 C   0  0  0  0  0  0
  -29.2130  -18.0897   22.7068 C   0  0  0  0  0  0
  -28.5592  -20.4289   22.5797 C   0  0  0  0  0  0
  -29.6048  -18.0964   21.3502 C   0  0  0  0  0  0
  -29.4147  -19.2960   20.5816 C   0  0  0  0  0  0
  -28.9230  -20.4886   21.2136 C   0  0  0  0  0  0
  -30.1938  -16.8455   20.7889 C   0  0  0  0  0  0
  -29.9934  -15.5748   21.2186 C   0  0  0  0  0  0
  -29.7566  -19.3104   19.1228 C   0  0  0  0  0  0
  -28.5737  -24.2320   20.3133 C   0  0  0  0  0  0
  -29.0551  -18.2840   18.2381 C   0  0  0  0  0  0
  -28.5205  -22.9802   21.2135 C   0  0  0  0  0  0
  -28.3573  -25.5921   21.0071 C   0  0  0  0  0  0
  -28.7675  -21.7103   20.5119 N   0  0  0  0  0  0
  -30.5190  -20.1296   18.5998 O   0  0  0  0  0  0
  -28.7907  -24.1368   19.0986 O   0  0  0  0  0  0
  -31.4672  -12.3868   19.1348 H   0  0  0  0  0  0
  -30.3119  -11.2885   19.8218 H   0  0  0  0  0  0
  -29.7401  -11.7931   17.4279 H   0  0  0  0  0  0
  -29.6750  -13.5012   17.7853 H   0  0  0  0  0  0
  -27.8190  -11.3204   18.7978 H   0  0  0  0  0  0
  -27.3730  -12.6667   17.7834 H   0  0  0  0  0  0
  -27.7154  -14.2592   19.5965 H   0  0  0  0  0  0
  -28.6776  -11.9220   21.3076 H   0  0  0  0  0  0
  -28.4456  -13.5249   21.8957 H   0  0  0  0  0  0
  -25.2750   -9.5695   22.4748 H   0  0  0  0  0  0
  -23.9993   -7.4647   22.7480 H   0  0  0  0  0  0
  -21.0829   -8.8761   19.8953 H   0  0  0  0  0  0
  -22.3677  -10.9665   19.6154 H   0  0  0  0  0  0
  -21.2007   -7.6144   23.9707 H   0  0  0  0  0  0
  -21.1484   -6.0523   25.9071 H   0  0  0  0  0  0
  -22.0601   -2.7608   23.2844 H   0  0  0  0  0  0
  -22.4112  -11.9884   22.4752 H   0  0  0  0  0  0
  -21.1125  -13.1258   22.2599 H   0  0  0  0  0  0
  -24.6774  -15.8514   20.5346 H   0  0  0  0  0  0
  -26.3033  -15.6263   20.1312 H   0  0  0  0  0  0
  -26.7111  -32.5545   23.1161 H   0  0  0  0  0  0
  -25.0059  -33.9782   25.0479 H   0  0  0  0  0  0
  -22.6901  -31.3069   21.4093 H   0  0  0  0  0  0
  -23.3754  -35.9644   23.3293 H   0  0  0  0  0  0
  -24.3587  -36.8945   22.2058 H   0  0  0  0  0  0
  -23.7230  -37.6513   23.6666 H   0  0  0  0  0  0
  -26.0368  -31.6029   20.5891 H   0  0  0  0  0  0
  -26.8173  -30.8940   21.9756 H   0  0  0  0  0  0
  -28.1062  -29.1224   21.1472 H   0  0  0  0  0  0
  -26.0765  -25.9613   19.0350 H   0  0  0  0  0  0
  -23.9808  -27.2801   19.0483 H   0  0  0  0  0  0
  -23.7127  -30.5914   19.4024 H   0  0  0  0  0  0
  -22.7340  -29.2358   19.8731 H   0  0  0  0  0  0
  -25.1286  -36.1987   25.0833 H   0  0  0  0  0  0
  -20.9942  -28.3229   24.1438 H   0  0  0  0  0  0
  -20.5661  -26.2268   23.3599 H   0  0  0  0  0  0
  -21.6634  -26.7440   22.1215 H   0  0  0  0  0  0
  -19.6903  -25.6298   21.1232 H   0  0  0  0  0  0
  -19.6683  -27.3204   20.6746 H   0  0  0  0  0  0
  -17.4184  -26.6677   21.4013 H   0  0  0  0  0  0
  -18.0308  -26.0057   22.9000 H   0  0  0  0  0  0
  -19.7927  -30.7259   24.2278 H   0  0  0  0  0  0
  -17.5008  -31.6265   24.5164 H   0  0  0  0  0  0
  -15.5348  -30.2997   23.7649 H   0  0  0  0  0  0
  -15.8654  -28.0837   22.7051 H   0  0  0  0  0  0
  -24.5873  -30.7114   25.7808 H   0  0  0  0  0  0
  -24.9011  -32.2870   26.5001 H   0  0  0  0  0  0
  -25.8103  -30.8794   27.0191 H   0  0  0  0  0  0
  -26.2803  -29.6791   24.1173 H   0  0  0  0  0  0
  -27.4085  -29.7275   25.4528 H   0  0  0  0  0  0
  -27.8628  -30.4343   23.9191 H   0  0  0  0  0  0
  -27.2705  -33.3624   26.2025 H   0  0  0  0  0  0
  -28.3876  -32.6814   25.0289 H   0  0  0  0  0  0
  -28.0703  -31.8424   26.5395 H   0  0  0  0  0  0
  -28.2613  -38.0098   24.7497 H   0  0  0  0  0  0
  -28.1061  -36.2631   24.6318 H   0  0  0  0  0  0
  -27.2296  -37.1503   25.8870 H   0  0  0  0  0  0
  -20.9288  -29.8761   21.6958 H   0  0  0  0  0  0
  -26.0189  -38.2879   24.1392 H   0  0  0  0  0  0
  -28.4088  -19.2189   24.3570 H   0  0  0  0  0  0
  -29.3358  -17.2052   23.3151 H   0  0  0  0  0  0
  -28.1616  -21.2886   23.0987 H   0  0  0  0  0  0
  -30.8842  -16.9862   19.9680 H   0  0  0  0  0  0
  -29.3213  -15.3952   22.0407 H   0  0  0  0  0  0
  -28.2785  -17.7577   18.7924 H   0  0  0  0  0  0
  -29.7715  -17.5548   17.8620 H   0  0  0  0  0  0
  -28.5891  -18.7814   17.3882 H   0  0  0  0  0  0
  -27.5356  -22.9514   21.6814 H   0  0  0  0  0  0
  -29.2538  -23.1086   22.0109 H   0  0  0  0  0  0
  -29.1496  -25.7330   21.7424 H   0  0  0  0  0  0
  -27.4181  -25.5562   21.5614 H   0  0  0  0  0  0
  -29.1992  -21.8102   19.5939 H   0  0  0  0  0  0
  1 25  1  0  0  0
  1 30  2  0  0  0
  1 78  1  0  0  0
  2  3  1  0  0  0
  2 25  1  0  0  0
  2 87  1  0  0  0
  2 88  1  0  0  0
  3  4  1  0  0  0
  3 89  1  0  0  0
  3 90  1  0  0  0
  4  5  1  0  0  0
  4 91  1  0  0  0
  4 92  1  0  0  0
  5  6  1  0  0  0
  5 26  1  0  0  0
  5 93  1  0  0  0
  6 25  1  0  0  0
  6 94  1  0  0  0
  6 95  1  0  0  0
  7  8  2  0  0  0
  7 26  1  0  0  0
  7 29  1  0  0  0
  8  9  1  0  0  0
  8 22  1  0  0  0
  9 10  1  0  0  0
  9 27  2  0  0  0
 10 11  2  0  0  0
 10 15  1  0  0  0
 11 12  1  0  0  0
 11 96  1  0  0  0
 12 13  2  0  0  0
 12 97  1  0  0  0
 13 14  1  0  0  0
 13 31  1  0  0  0
 14 15  2  0  0  0
 14 98  1  0  0  0
 15 99  1  0  0  0
 16 17  2  0  0  0
 16 21  1  0  0  0
 16 31  1  0  0  0
 17 18  1  0  0  0
 17100  1  0  0  0
 18 19  2  0  0  0
 18101  1  0  0  0
 19 20  1  0  0  0
 19 24  1  0  0  0
 20 21  2  0  0  0
 20102  1  0  0  0
 21 23  1  0  0  0
 22 28  1  0  0  0
 22 32  2  0  0  0
 26 27  1  0  0  0
 28103  1  0  0  0
 28104  1  0  0  0
 29105  1  0  0  0
 29106  1  0  0  0
 33 34  1  0  0  0
 33 66  1  0  0  0
 33 70  2  0  0  0
 34 36  1  0  0  0
 34 59  1  0  0  0
 34107  1  0  0  0
 35 44  2  0  0  0
 35 45  1  0  0  0
 35 68  1  0  0  0
 36 56  1  0  0  0
 36108  1  0  0  0
 37 39  1  0  0  0
 37 47  1  0  0  0
 37 66  1  0  0  0
 37109  1  0  0  0
 38 43  2  0  0  0
 38 46  1  0  0  0
 38 47  1  0  0  0
 39 64  1  0  0  0
 39 67  2  0  0  0
 40 52  1  0  0  0
 40 53  2  0  0  0
 40 58  1  0  0  0
 41110  1  0  0  0
 41111  1  0  0  0
 41112  1  0  0  0
 41 48  1  0  0  0
 42 43  1  0  0  0
 42 66  1  0  0  0
 42113  1  0  0  0
 42114  1  0  0  0
 43 44  1  0  0  0
 44115  1  0  0  0
 45 46  2  0  0  0
 45116  1  0  0  0
 46117  1  0  0  0
 47118  1  0  0  0
 47119  1  0  0  0
 48 56  1  0  0  0
 48 65  1  0  0  0
 48120  1  0  0  0
 49 50  1  0  0  0
 49 53  1  0  0  0
 49 64  1  0  0  0
 49121  1  0  0  0
 50 51  1  0  0  0
 50122  1  0  0  0
 50123  1  0  0  0
 51 52  1  0  0  0
 51124  1  0  0  0
 51125  1  0  0  0
 52126  1  0  0  0
 52127  1  0  0  0
 53 54  1  0  0  0
 54 55  2  0  0  0
 54128  1  0  0  0
 55 57  1  0  0  0
 55129  1  0  0  0
 56 69  2  0  0  0
 57 58  2  0  0  0
 57130  1  0  0  0
 58131  1  0  0  0
 59 60  1  0  0  0
 59 61  1  0  0  0
 59 62  1  0  0  0
 60132  1  0  0  0
 60133  1  0  0  0
 60134  1  0  0  0
 61135  1  0  0  0
 61136  1  0  0  0
 61137  1  0  0  0
 62138  1  0  0  0
 62139  1  0  0  0
 62140  1  0  0  0
 63 65  1  0  0  0
 63141  1  0  0  0
 63142  1  0  0  0
 63143  1  0  0  0
 64144  1  0  0  0
 65145  1  0  0  0
 68 83  1  0  0  0
 71 72  2  0  0  0
 71 73  1  0  0  0
 71146  1  0  0  0
 72 74  1  0  0  0
 72147  1  0  0  0
 73 76  2  0  0  0
 73148  1  0  0  0
 74 75  2  0  0  0
 74 77  1  0  0  0
 75 76  1  0  0  0
 75 79  1  0  0  0
 76 84  1  0  0  0
 77 78  2  0  0  0
 77149  1  0  0  0
 78150  1  0  0  0
 79 81  1  0  0  0
 79 85  2  0  0  0
 80 82  1  0  0  0
 80 83  1  0  0  0
 80 86  2  0  0  0
 81151  1  0  0  0
 81152  1  0  0  0
 81153  1  0  0  0
 82 84  1  0  0  0
 82154  1  0  0  0
 82155  1  0  0  0
 83156  1  0  0  0
 83157  1  0  0  0
 84158  1  0  0  0
M  ISO  4   1 100  68 101  78 100  83 101
M  END
> <chiral flag>
0

> <version>
0

> <s_m_source_file>
/data/baiqing/PycharmProjects/Reinvent-master-3.2/result/LINK_invent/BTK/process_docking_weight1_custom_product_contain_oxygen_bond_distance_aromatic_linkinvent_7_9_3/rearranged_h_0170.sdf

> <i_m_source_file_index>
76

> <r_mmod_Potential_Energy-OPLS-2005>
110.144340515137

> <r_mmod_Stretch_Energy-OPLS-2005>
44.3942222595215

> <r_mmod_Bend_Energy-OPLS-2005>
101.518707275391

> <r_mmod_Torsional_Energy-OPLS-2005>
241.681259155273

> <r_mmod_Improper_Torsional_Energy-OPLS-2005>
4.72965717315674

> <r_mmod_Van_der_Waal_Energy-OPLS-2005>
164.595397949219

> <r_mmod_Electrostatic_Energy-OPLS-2005>
-223.759353637695

> <r_mmod_Solvation_Energy-OPLS-2005>
-234.195022583008

> <b_mmod_Minimization_Converged-OPLS-2005>
0

> <r_mmod_RMS_Derivative-OPLS-2005>
0.652576327323914

$$$$
77
                    3D
 Structure written by MMmdl.
151159  0  0  1  0            999 V2000
  -30.6071  -14.7691   20.4489 C   0  0  0  0  0  0
  -30.4355  -12.4656   19.4901 C   0  0  0  0  0  0
  -29.5177  -12.5079   18.2475 C   0  0  0  0  0  0
  -28.0440  -12.3276   18.6585 C   0  0  0  0  0  0
  -27.6435  -13.2338   19.8532 C   0  0  2  0  0  0
  -28.6858  -13.1828   20.9932 C   0  0  0  0  0  0
  -25.2517  -13.8198   20.5697 C   0  0  0  0  0  0
  -24.1807  -13.0442   20.9207 C   0  0  0  0  0  0
  -24.6399  -11.6921   20.8745 C   0  0  0  0  0  0
  -23.9073  -10.4295   21.0406 C   0  0  0  0  0  0
  -24.3620   -9.4208   21.9186 C   0  0  0  0  0  0
  -23.6295   -8.2242   22.0754 C   0  0  0  0  0  0
  -22.4278   -8.0277   21.3543 C   0  0  0  0  0  0
  -21.9915   -9.0253   20.4646 C   0  0  0  0  0  0
  -22.7243  -10.2133   20.3056 C   0  0  0  0  0  0
  -21.6855   -6.0730   22.5276 C   0  0  0  0  0  0
  -21.4015   -6.5635   23.8207 C   0  0  0  0  0  0
  -21.3662   -5.6790   24.9172 C   0  0  0  0  0  0
  -21.6046   -4.3052   24.7226 C   0  0  0  0  0  0
  -21.8820   -3.8142   23.4347 C   0  0  0  0  0  0
  -21.9196   -4.6958   22.3402 C   0  0  0  0  0  0
  -22.7827  -13.5226   21.1864 C   0  0  0  0  0  0
  -22.1662   -4.2140   21.0980 F   0  0  0  0  0  0
  -21.5633   -3.4537   25.7740 F   0  0  0  0  0  0
  -29.9888  -13.5357   20.4160 N   0  0  0  0  0  0
  -26.2948  -12.9411   20.3290 N   0  0  0  0  0  0
  -25.9334  -11.6550   20.5756 N   0  0  0  0  0  0
  -22.0469  -12.8213   22.0413 N   0  0  0  0  0  0
  -25.4210  -15.1921   20.4107 N   0  0  0  0  0  0
  -31.7869  -14.8625   20.1003 O   0  0  0  0  0  0
  -21.6642   -6.8872   21.4238 O   0  0  0  0  0  0
  -22.3511  -14.5531   20.6708 O   0  0  0  0  0  0
  -24.6339  -31.8536   23.1977 C   0  0  0  0  0  0
  -25.9152  -32.4753   23.8326 C   0  0  1  0  0  0
  -27.2169  -27.2327   20.1336 C   0  0  0  0  0  0
  -25.5943  -33.8556   24.2252 N   0  0  0  0  0  0
  -23.4319  -30.4766   21.5414 C   0  0  2  0  0  0
  -24.8796  -28.9236   20.1081 C   0  0  0  0  0  0
  -22.7522  -29.4589   22.4898 C   0  0  0  0  0  0
  -18.0299  -28.1393   22.8493 C   0  0  0  0  0  0
  -24.1485  -36.7270   23.2638 C   0  0  0  0  0  0
  -25.9807  -30.7565   21.3840 C   0  0  0  0  0  0
  -26.0516  -29.3763   20.7269 C   0  0  0  0  0  0
  -27.2196  -28.5426   20.7332 C   0  0  0  0  0  0
  -26.0259  -26.8702   19.4610 C   0  0  0  0  0  0
  -24.8738  -27.6797   19.4621 C   0  0  0  0  0  0
  -23.6517  -29.8130   20.1569 C   0  0  0  0  0  0
  -25.4115  -36.3068   24.0327 C   0  0  1  0  0  0
  -20.5907  -28.3703   23.1266 C   0  0  2  0  0  0
  -20.6781  -26.9418   22.5408 C   0  0  0  0  0  0
  -19.5751  -26.6390   21.5217 C   0  0  0  0  0  0
  -18.1935  -26.7936   22.1632 C   0  0  0  0  0  0
  -19.1554  -28.8866   23.2875 C   0  0  0  0  0  0
  -18.9471  -30.1469   23.8889 C   0  0  0  0  0  0
  -17.6467  -30.6591   24.0567 C   0  0  0  0  0  0
  -25.9060  -34.9439   23.5091 C   0  0  0  0  0  0
  -16.5359  -29.9086   23.6340 C   0  0  0  0  0  0
  -16.7285  -28.6506   23.0360 C   0  0  0  0  0  0
  -26.4511  -31.6585   25.0722 C   0  0  0  0  0  0
  -25.3725  -31.3745   26.1437 C   0  0  0  0  0  0
  -27.0365  -30.2998   24.6227 C   0  0  0  0  0  0
  -27.6057  -32.4329   25.7502 C   0  0  0  0  0  0
  -27.5578  -37.1792   24.8468 C   0  0  0  0  0  0
  -21.4225  -29.3044   22.3647 N   0  0  0  0  0  0
  -26.4284  -37.3776   23.9417 N   0  0  0  0  0  0
  -24.7014  -31.0475   22.0968 N   0  0  0  0  0  0
  -23.4215  -28.8127   23.3001 O   0  0  0  0  0  0
  -28.2955  -26.3061   20.2166 O   0  0  0  0  0  0
  -26.5629  -34.8920   22.4659 O   0  0  0  0  0  0
  -23.5480  -32.1369   23.7252 O   0  0  0  0  0  0
  -29.2463  -21.0910   22.2808 C   0  0  0  0  0  0
  -29.4947  -19.8983   22.9891 C   0  0  0  0  0  0
  -29.7233  -18.6851   22.3098 C   0  0  0  0  0  0
  -29.6992  -18.6771   20.9013 C   0  0  0  0  0  0
  -29.2061  -21.0806   20.8764 C   0  0  0  0  0  0
  -30.1082  -17.3382   20.1256 C   0  0  0  0  0  0
  -29.0023  -23.7457   20.6685 C   0  0  0  0  0  0
  -28.1095  -24.9146   19.9649 C   0  0  2  0  0  0
  -29.4319  -19.8739   20.2138 N   0  0  0  0  0  0
  -28.9059  -22.3042   20.1565 N   0  0  0  0  0  0
  -29.8360  -15.9098   20.6304 N   0  0  0  0  0  0
  -29.5267  -19.9256   24.3448 F   0  0  0  0  0  0
  -29.9973  -17.5577   23.0127 F   0  0  0  0  0  0
  -28.2474  -24.7013   18.6318 F   0  0  0  0  0  0
  -31.4776  -12.5862   19.1895 H   0  0  0  0  0  0
  -30.3787  -11.4920   19.9799 H   0  0  0  0  0  0
  -29.8059  -11.7309   17.5380 H   0  0  0  0  0  0
  -29.6426  -13.4596   17.7286 H   0  0  0  0  0  0
  -27.9069  -11.2803   18.9299 H   0  0  0  0  0  0
  -27.3870  -12.5086   17.8066 H   0  0  0  0  0  0
  -27.6347  -14.2523   19.4644 H   0  0  0  0  0  0
  -28.7224  -12.1902   21.4445 H   0  0  0  0  0  0
  -28.4160  -13.8732   21.7938 H   0  0  0  0  0  0
  -25.2762   -9.5685   22.4763 H   0  0  0  0  0  0
  -24.0004   -7.4634   22.7475 H   0  0  0  0  0  0
  -21.0844   -8.8773   19.8951 H   0  0  0  0  0  0
  -22.3701  -10.9672   19.6162 H   0  0  0  0  0  0
  -21.1999   -7.6141   23.9709 H   0  0  0  0  0  0
  -21.1487   -6.0519   25.9075 H   0  0  0  0  0  0
  -22.0598   -2.7603   23.2852 H   0  0  0  0  0  0
  -22.4087  -11.9875   22.4803 H   0  0  0  0  0  0
  -21.1084  -13.1235   22.2610 H   0  0  0  0  0  0
  -24.6515  -15.8444   20.5151 H   0  0  0  0  0  0
  -26.2639  -15.6302   20.0631 H   0  0  0  0  0  0
  -26.7215  -32.5398   23.1063 H   0  0  0  0  0  0
  -25.0115  -33.9696   25.0412 H   0  0  0  0  0  0
  -22.7293  -31.3000   21.3965 H   0  0  0  0  0  0
  -23.3757  -35.9593   23.3301 H   0  0  0  0  0  0
  -24.3571  -36.8891   22.2052 H   0  0  0  0  0  0
  -23.7227  -37.6467   23.6661 H   0  0  0  0  0  0
  -26.1235  -31.5146   20.6128 H   0  0  0  0  0  0
  -26.8571  -30.8068   22.0184 H   0  0  0  0  0  0
  -28.1116  -28.8823   21.2405 H   0  0  0  0  0  0
  -25.9497  -25.9296   18.9360 H   0  0  0  0  0  0
  -23.9815  -27.3349   18.9576 H   0  0  0  0  0  0
  -23.7769  -30.5907   19.4024 H   0  0  0  0  0  0
  -22.7698  -29.2478   19.8504 H   0  0  0  0  0  0
  -25.1297  -36.1911   25.0819 H   0  0  0  0  0  0
  -21.0008  -28.3280   24.1384 H   0  0  0  0  0  0
  -20.5685  -26.2314   23.3616 H   0  0  0  0  0  0
  -21.6647  -26.7437   22.1198 H   0  0  0  0  0  0
  -19.6904  -25.6302   21.1246 H   0  0  0  0  0  0
  -19.6682  -27.3200   20.6745 H   0  0  0  0  0  0
  -17.4207  -26.6701   21.4030 H   0  0  0  0  0  0
  -18.0322  -26.0077   22.9024 H   0  0  0  0  0  0
  -19.7943  -30.7298   24.2245 H   0  0  0  0  0  0
  -17.5017  -31.6268   24.5172 H   0  0  0  0  0  0
  -15.5359  -30.2983   23.7662 H   0  0  0  0  0  0
  -15.8689  -28.0819   22.7074 H   0  0  0  0  0  0
  -24.5915  -30.7074   25.7771 H   0  0  0  0  0  0
  -24.8896  -32.2916   26.4816 H   0  0  0  0  0  0
  -25.8034  -30.8964   27.0241 H   0  0  0  0  0  0
  -26.2960  -29.6743   24.1230 H   0  0  0  0  0  0
  -27.4021  -29.7266   25.4757 H   0  0  0  0  0  0
  -27.8851  -30.4274   23.9502 H   0  0  0  0  0  0
  -27.2661  -33.3643   26.2046 H   0  0  0  0  0  0
  -28.3887  -32.6864   25.0342 H   0  0  0  0  0  0
  -28.0703  -31.8474   26.5447 H   0  0  0  0  0  0
  -28.2593  -38.0091   24.7529 H   0  0  0  0  0  0
  -28.1076  -36.2625   24.6278 H   0  0  0  0  0  0
  -27.2298  -37.1420   25.8871 H   0  0  0  0  0  0
  -20.9412  -29.8775   21.6858 H   0  0  0  0  0  0
  -26.0159  -38.2846   24.1429 H   0  0  0  0  0  0
  -29.0754  -21.9899   22.8506 H   0  0  0  0  0  0
  -31.1817  -17.4233   19.9538 H   0  0  0  0  0  0
  -29.6608  -17.4008   19.1336 H   0  0  0  0  0  0
  -28.7827  -23.7700   21.7340 H   0  0  0  0  0  0
  -30.0510  -24.0304   20.5823 H   0  0  0  0  0  0
  -27.0940  -24.6357   20.2418 H   0  0  0  0  0  0
  -28.8328  -22.2328   19.1472 H   0  0  0  0  0  0
  -28.8939  -15.7493   20.9492 H   0  0  0  0  0  0
  1 25  1  0  0  0
  1 30  2  0  0  0
  1 81  1  0  0  0
  2  3  1  0  0  0
  2 25  1  0  0  0
  2 85  1  0  0  0
  2 86  1  0  0  0
  3  4  1  0  0  0
  3 87  1  0  0  0
  3 88  1  0  0  0
  4  5  1  0  0  0
  4 89  1  0  0  0
  4 90  1  0  0  0
  5  6  1  0  0  0
  5 26  1  0  0  0
  5 91  1  0  0  0
  6 25  1  0  0  0
  6 92  1  0  0  0
  6 93  1  0  0  0
  7  8  2  0  0  0
  7 26  1  0  0  0
  7 29  1  0  0  0
  8  9  1  0  0  0
  8 22  1  0  0  0
  9 10  1  0  0  0
  9 27  2  0  0  0
 10 11  2  0  0  0
 10 15  1  0  0  0
 11 12  1  0  0  0
 11 94  1  0  0  0
 12 13  2  0  0  0
 12 95  1  0  0  0
 13 14  1  0  0  0
 13 31  1  0  0  0
 14 15  2  0  0  0
 14 96  1  0  0  0
 15 97  1  0  0  0
 16 17  2  0  0  0
 16 21  1  0  0  0
 16 31  1  0  0  0
 17 18  1  0  0  0
 17 98  1  0  0  0
 18 19  2  0  0  0
 18 99  1  0  0  0
 19 20  1  0  0  0
 19 24  1  0  0  0
 20 21  2  0  0  0
 20100  1  0  0  0
 21 23  1  0  0  0
 22 28  1  0  0  0
 22 32  2  0  0  0
 26 27  1  0  0  0
 28101  1  0  0  0
 28102  1  0  0  0
 29103  1  0  0  0
 29104  1  0  0  0
 33 34  1  0  0  0
 33 66  1  0  0  0
 33 70  2  0  0  0
 34 36  1  0  0  0
 34 59  1  0  0  0
 34105  1  0  0  0
 35 44  2  0  0  0
 35 45  1  0  0  0
 35 68  1  0  0  0
 36 56  1  0  0  0
 36106  1  0  0  0
 37 39  1  0  0  0
 37 47  1  0  0  0
 37 66  1  0  0  0
 37107  1  0  0  0
 38 43  2  0  0  0
 38 46  1  0  0  0
 38 47  1  0  0  0
 39 64  1  0  0  0
 39 67  2  0  0  0
 40 52  1  0  0  0
 40 53  2  0  0  0
 40 58  1  0  0  0
 41108  1  0  0  0
 41109  1  0  0  0
 41110  1  0  0  0
 41 48  1  0  0  0
 42 43  1  0  0  0
 42 66  1  0  0  0
 42111  1  0  0  0
 42112  1  0  0  0
 43 44  1  0  0  0
 44113  1  0  0  0
 45 46  2  0  0  0
 45114  1  0  0  0
 46115  1  0  0  0
 47116  1  0  0  0
 47117  1  0  0  0
 48 56  1  0  0  0
 48 65  1  0  0  0
 48118  1  0  0  0
 49 50  1  0  0  0
 49 53  1  0  0  0
 49 64  1  0  0  0
 49119  1  0  0  0
 50 51  1  0  0  0
 50120  1  0  0  0
 50121  1  0  0  0
 51 52  1  0  0  0
 51122  1  0  0  0
 51123  1  0  0  0
 52124  1  0  0  0
 52125  1  0  0  0
 53 54  1  0  0  0
 54 55  2  0  0  0
 54126  1  0  0  0
 55 57  1  0  0  0
 55127  1  0  0  0
 56 69  2  0  0  0
 57 58  2  0  0  0
 57128  1  0  0  0
 58129  1  0  0  0
 59 60  1  0  0  0
 59 61  1  0  0  0
 59 62  1  0  0  0
 60130  1  0  0  0
 60131  1  0  0  0
 60132  1  0  0  0
 61133  1  0  0  0
 61134  1  0  0  0
 61135  1  0  0  0
 62136  1  0  0  0
 62137  1  0  0  0
 62138  1  0  0  0
 63 65  1  0  0  0
 63139  1  0  0  0
 63140  1  0  0  0
 63141  1  0  0  0
 64142  1  0  0  0
 65143  1  0  0  0
 68 78  1  0  0  0
 71 72  2  0  0  0
 71 75  1  0  0  0
 71144  1  0  0  0
 72 73  1  0  0  0
 72 82  1  0  0  0
 73 74  2  0  0  0
 73 83  1  0  0  0
 74 76  1  0  0  0
 74 79  1  0  0  0
 75 79  2  0  0  0
 75 80  1  0  0  0
 76 81  1  0  0  0
 76145  1  0  0  0
 76146  1  0  0  0
 77 78  1  0  0  0
 77 80  1  0  0  0
 77147  1  0  0  0
 77148  1  0  0  0
 78 84  1  0  0  0
 78149  1  0  0  0
 80150  1  0  0  0
 81151  1  0  0  0
M  ISO  4   1 100  68 101  78 101  81 100
M  END
> <chiral flag>
0

> <version>
0

> <s_m_source_file>
/data/baiqing/PycharmProjects/Reinvent-master-3.2/result/LINK_invent/BTK/process_docking_weight1_custom_product_contain_oxygen_bond_distance_aromatic_linkinvent_7_9_3/rearranged_h_0170.sdf

> <i_m_source_file_index>
77

> <r_mmod_Potential_Energy-OPLS-2005>
-140.735229492188

> <r_mmod_Stretch_Energy-OPLS-2005>
132.154983520508

> <r_mmod_Bend_Energy-OPLS-2005>
179.717727661133

> <r_mmod_Torsional_Energy-OPLS-2005>
187.286270141602

> <r_mmod_Improper_Torsional_Energy-OPLS-2005>
7.24391269683838

> <r_mmod_Van_der_Waal_Energy-OPLS-2005>
144.362731933594

> <r_mmod_Electrostatic_Energy-OPLS-2005>
-670.426330566406

> <r_mmod_Solvation_Energy-OPLS-2005>
-222.547302246094

> <b_mmod_Minimization_Converged-OPLS-2005>
0

> <r_mmod_RMS_Derivative-OPLS-2005>
0.719948947429657

$$$$
78
                    3D
 Structure written by MMmdl.
158166  0  0  1  0            999 V2000
  -30.6766  -14.4801   20.5391 C   0  0  0  0  0  0
  -30.4479  -12.3075   19.3982 C   0  0  0  0  0  0
  -29.5019  -12.4898   18.1922 C   0  0  0  0  0  0
  -28.0208  -12.3547   18.5986 C   0  0  0  0  0  0
  -27.6653  -13.1972   19.8542 C   0  0  2  0  0  0
  -28.7128  -12.9821   20.9738 C   0  0  0  0  0  0
  -25.2641  -13.8108   20.5544 C   0  0  0  0  0  0
  -24.1913  -13.0422   20.9098 C   0  0  0  0  0  0
  -24.6424  -11.6889   20.8634 C   0  0  0  0  0  0
  -23.9081  -10.4302   21.0337 C   0  0  0  0  0  0
  -24.3646   -9.4233   21.9145 C   0  0  0  0  0  0
  -23.6302   -8.2278   22.0742 C   0  0  0  0  0  0
  -22.4291   -8.0320   21.3541 C   0  0  0  0  0  0
  -21.9920   -9.0266   20.4652 C   0  0  0  0  0  0
  -22.7230  -10.2133   20.3031 C   0  0  0  0  0  0
  -21.6857   -6.0760   22.5267 C   0  0  0  0  0  0
  -21.4018   -6.5663   23.8202 C   0  0  0  0  0  0
  -21.3666   -5.6804   24.9166 C   0  0  0  0  0  0
  -21.6030   -4.3059   24.7198 C   0  0  0  0  0  0
  -21.8829   -3.8160   23.4324 C   0  0  0  0  0  0
  -21.9199   -4.6985   22.3385 C   0  0  0  0  0  0
  -22.7949  -13.5237   21.1740 C   0  0  0  0  0  0
  -22.1661   -4.2197   21.0943 F   0  0  0  0  0  0
  -21.5632   -3.4541   25.7687 F   0  0  0  0  0  0
  -30.0431  -13.2873   20.4126 N   0  0  0  0  0  0
  -26.3065  -12.9293   20.3213 N   0  0  0  0  0  0
  -25.9362  -11.6472   20.5664 N   0  0  0  0  0  0
  -22.0585  -12.8285   22.0342 N   0  0  0  0  0  0
  -25.4317  -15.1834   20.3951 N   0  0  0  0  0  0
  -31.8460  -14.6768   20.2000 O   0  0  0  0  0  0
  -21.6643   -6.8937   21.4253 O   0  0  0  0  0  0
  -22.3666  -14.5574   20.6604 O   0  0  0  0  0  0
  -24.6154  -31.8701   23.2149 C   0  0  0  0  0  0
  -25.9102  -32.4807   23.8368 C   0  0  1  0  0  0
  -27.2189  -27.4202   20.0641 C   0  0  0  0  0  0
  -25.5988  -33.8586   24.2294 N   0  0  0  0  0  0
  -23.3924  -30.4998   21.5687 C   0  0  2  0  0  0
  -24.8362  -28.9792   20.1110 C   0  0  0  0  0  0
  -22.7393  -29.4694   22.5174 C   0  0  0  0  0  0
  -18.0298  -28.1320   22.8529 C   0  0  0  0  0  0
  -24.1551  -36.7244   23.2632 C   0  0  0  0  0  0
  -25.9309  -30.8223   21.3813 C   0  0  0  0  0  0
  -26.0042  -29.4635   20.7108 C   0  0  0  0  0  0
  -27.1962  -28.6920   20.6921 C   0  0  0  0  0  0
  -26.0208  -26.9798   19.4405 C   0  0  0  0  0  0
  -24.8418  -27.7359   19.4712 C   0  0  0  0  0  0
  -23.5943  -29.8370   20.1861 C   0  0  0  0  0  0
  -25.4172  -36.3065   24.0328 C   0  0  1  0  0  0
  -20.5851  -28.3574   23.1430 C   0  0  2  0  0  0
  -20.6823  -26.9343   22.5432 C   0  0  0  0  0  0
  -19.5810  -26.6401   21.5225 C   0  0  0  0  0  0
  -18.1976  -26.7895   22.1639 C   0  0  0  0  0  0
  -19.1537  -28.8789   23.2930 C   0  0  0  0  0  0
  -18.9470  -30.1469   23.8803 C   0  0  0  0  0  0
  -17.6460  -30.6547   24.0585 C   0  0  0  0  0  0
  -25.9082  -34.9448   23.5107 C   0  0  0  0  0  0
  -16.5329  -29.9024   23.6419 C   0  0  0  0  0  0
  -16.7279  -28.6480   23.0326 C   0  0  0  0  0  0
  -26.4491  -31.6587   25.0673 C   0  0  0  0  0  0
  -25.3665  -31.3781   26.1355 C   0  0  0  0  0  0
  -27.0384  -30.3023   24.6124 C   0  0  0  0  0  0
  -27.6056  -32.4319   25.7405 C   0  0  0  0  0  0
  -27.5610  -37.1787   24.8457 C   0  0  0  0  0  0
  -21.4095  -29.3023   22.3907 N   0  0  0  0  0  0
  -26.4353  -37.3735   23.9372 N   0  0  0  0  0  0
  -24.6647  -31.0755   22.1123 N   0  0  0  0  0  0
  -23.4199  -28.8236   23.3155 O   0  0  0  0  0  0
  -28.3659  -26.6291   20.0733 O   0  0  0  0  0  0
  -26.5577  -34.8908   22.4623 O   0  0  0  0  0  0
  -23.5383  -32.1537   23.7576 O   0  0  0  0  0  0
  -29.6654  -17.9067   20.4406 C   0  0  0  0  0  0
  -30.5263  -17.0354   22.5470 C   0  0  0  0  0  0
  -29.9866  -19.4201   22.3239 C   0  0  0  0  0  0
  -30.0770  -16.8106   21.2349 C   0  0  0  0  0  0
  -29.6456  -19.2294   20.9493 C   0  0  0  0  0  0
  -30.4644  -18.3300   23.0942 C   0  0  0  0  0  0
  -29.7524  -20.6946   23.0402 C   0  0  0  0  0  0
  -28.7854  -22.7353   19.8737 C   0  0  0  0  0  0
  -29.2392  -24.2326   19.9932 C   0  0  0  0  0  0
  -28.3116  -20.9382   23.4853 C   0  0  0  0  0  0
  -29.8134  -21.5858   19.9710 C   0  0  0  0  0  0
  -28.1465  -25.2602   19.6461 C   0  0  0  0  0  0
  -29.8244  -15.4891   20.7845 N   0  0  0  0  0  0
  -29.1924  -20.2458   20.0728 N   0  0  0  0  0  0
  -30.6252  -21.5401   23.2704 O   0  0  0  0  0  0
  -27.5910  -22.4571   19.7016 O   0  0  0  0  0  0
  -30.3819  -24.5541   20.3366 O   0  0  0  0  0  0
  -30.8037  -18.4954   24.3921 F   0  0  0  0  0  0
  -31.4839  -12.4460   19.0813 H   0  0  0  0  0  0
  -30.3913  -11.2970   19.8088 H   0  0  0  0  0  0
  -29.7372  -11.7633   17.4160 H   0  0  0  0  0  0
  -29.6696  -13.4776   17.7572 H   0  0  0  0  0  0
  -27.8128  -11.3004   18.7798 H   0  0  0  0  0  0
  -27.3806  -12.6434   17.7622 H   0  0  0  0  0  0
  -27.7114  -14.2392   19.5318 H   0  0  0  0  0  0
  -28.6913  -11.9504   21.3296 H   0  0  0  0  0  0
  -28.4848  -13.6041   21.8435 H   0  0  0  0  0  0
  -25.2814   -9.5721   22.4721 H   0  0  0  0  0  0
  -23.9997   -7.4705   22.7493 H   0  0  0  0  0  0
  -21.0843   -8.8761   19.9006 H   0  0  0  0  0  0
  -22.3652  -10.9660   19.6143 H   0  0  0  0  0  0
  -21.2014   -7.6176   23.9713 H   0  0  0  0  0  0
  -21.1462   -6.0527   25.9050 H   0  0  0  0  0  0
  -22.0598   -2.7638   23.2760 H   0  0  0  0  0  0
  -22.4150  -11.9943   22.4780 H   0  0  0  0  0  0
  -21.1215  -13.1374   22.2515 H   0  0  0  0  0  0
  -24.6519  -15.8229   20.5135 H   0  0  0  0  0  0
  -26.2620  -15.6296   20.0244 H   0  0  0  0  0  0
  -26.7135  -32.5430   23.1109 H   0  0  0  0  0  0
  -25.0296  -33.9748   25.0555 H   0  0  0  0  0  0
  -22.6765  -31.3146   21.4393 H   0  0  0  0  0  0
  -23.3834  -35.9557   23.3319 H   0  0  0  0  0  0
  -24.3652  -36.8805   22.2032 H   0  0  0  0  0  0
  -23.7281  -37.6444   23.6625 H   0  0  0  0  0  0
  -26.0491  -31.5995   20.6263 H   0  0  0  0  0  0
  -26.8179  -30.8544   22.0086 H   0  0  0  0  0  0
  -28.0862  -29.0741   21.1740 H   0  0  0  0  0  0
  -25.9509  -26.0482   18.9030 H   0  0  0  0  0  0
  -23.9490  -27.3614   18.9900 H   0  0  0  0  0  0
  -23.6718  -30.6110   19.4208 H   0  0  0  0  0  0
  -22.7195  -29.2440   19.9120 H   0  0  0  0  0  0
  -25.1363  -36.1916   25.0812 H   0  0  0  0  0  0
  -20.9917  -28.3005   24.1559 H   0  0  0  0  0  0
  -20.5832  -26.2074   23.3495 H   0  0  0  0  0  0
  -21.6665  -26.7514   22.1136 H   0  0  0  0  0  0
  -19.6882  -25.6349   21.1204 H   0  0  0  0  0  0
  -19.6772  -27.3247   20.6760 H   0  0  0  0  0  0
  -17.4274  -26.6786   21.4022 H   0  0  0  0  0  0
  -18.0280  -25.9955   22.8932 H   0  0  0  0  0  0
  -19.7920  -30.7393   24.1991 H   0  0  0  0  0  0
  -17.5006  -31.6196   24.5188 H   0  0  0  0  0  0
  -15.5352  -30.2876   23.7845 H   0  0  0  0  0  0
  -15.8674  -28.0888   22.6928 H   0  0  0  0  0  0
  -24.5777  -30.7243   25.7613 H   0  0  0  0  0  0
  -24.8924  -32.2998   26.4736 H   0  0  0  0  0  0
  -25.7836  -30.8876   27.0141 H   0  0  0  0  0  0
  -26.3027  -29.6712   24.1117 H   0  0  0  0  0  0
  -27.4095  -29.7297   25.4631 H   0  0  0  0  0  0
  -27.8846  -30.4367   23.9364 H   0  0  0  0  0  0
  -27.2686  -33.3630   26.2003 H   0  0  0  0  0  0
  -28.3810  -32.6867   25.0157 H   0  0  0  0  0  0
  -28.0799  -31.8396   26.5247 H   0  0  0  0  0  0
  -28.2627  -38.0082   24.7537 H   0  0  0  0  0  0
  -28.1132  -36.2610   24.6338 H   0  0  0  0  0  0
  -27.2300  -37.1467   25.8848 H   0  0  0  0  0  0
  -20.9168  -29.8795   21.7220 H   0  0  0  0  0  0
  -26.0257  -38.2831   24.1289 H   0  0  0  0  0  0
  -29.3233  -17.7148   19.4334 H   0  0  0  0  0  0
  -30.8319  -16.2187   23.1856 H   0  0  0  0  0  0
  -27.9856  -21.9439   23.2229 H   0  0  0  0  0  0
  -28.2141  -20.8056   24.5650 H   0  0  0  0  0  0
  -27.6441  -20.2212   23.0103 H   0  0  0  0  0  0
  -30.3966  -21.6068   19.0527 H   0  0  0  0  0  0
  -30.5338  -21.7876   20.7601 H   0  0  0  0  0  0
  -27.2357  -24.8895   20.1165 H   0  0  0  0  0  0
  -28.0002  -25.2418   18.5647 H   0  0  0  0  0  0
  -28.8561  -15.2080   20.7871 H   0  0  0  0  0  0
  -28.6631  -19.9741   19.2491 H   0  0  0  0  0  0
  1 25  1  0  0  0
  1 30  2  0  0  0
  1 83  1  0  0  0
  2  3  1  0  0  0
  2 25  1  0  0  0
  2 89  1  0  0  0
  2 90  1  0  0  0
  3  4  1  0  0  0
  3 91  1  0  0  0
  3 92  1  0  0  0
  4  5  1  0  0  0
  4 93  1  0  0  0
  4 94  1  0  0  0
  5  6  1  0  0  0
  5 26  1  0  0  0
  5 95  1  0  0  0
  6 25  1  0  0  0
  6 96  1  0  0  0
  6 97  1  0  0  0
  7  8  2  0  0  0
  7 26  1  0  0  0
  7 29  1  0  0  0
  8  9  1  0  0  0
  8 22  1  0  0  0
  9 10  1  0  0  0
  9 27  2  0  0  0
 10 11  2  0  0  0
 10 15  1  0  0  0
 11 12  1  0  0  0
 11 98  1  0  0  0
 12 13  2  0  0  0
 12 99  1  0  0  0
 13 14  1  0  0  0
 13 31  1  0  0  0
 14 15  2  0  0  0
 14100  1  0  0  0
 15101  1  0  0  0
 16 17  2  0  0  0
 16 21  1  0  0  0
 16 31  1  0  0  0
 17 18  1  0  0  0
 17102  1  0  0  0
 18 19  2  0  0  0
 18103  1  0  0  0
 19 20  1  0  0  0
 19 24  1  0  0  0
 20 21  2  0  0  0
 20104  1  0  0  0
 21 23  1  0  0  0
 22 28  1  0  0  0
 22 32  2  0  0  0
 26 27  1  0  0  0
 28105  1  0  0  0
 28106  1  0  0  0
 29107  1  0  0  0
 29108  1  0  0  0
 33 34  1  0  0  0
 33 66  1  0  0  0
 33 70  2  0  0  0
 34 36  1  0  0  0
 34 59  1  0  0  0
 34109  1  0  0  0
 35 44  2  0  0  0
 35 45  1  0  0  0
 35 68  1  0  0  0
 36 56  1  0  0  0
 36110  1  0  0  0
 37 39  1  0  0  0
 37 47  1  0  0  0
 37 66  1  0  0  0
 37111  1  0  0  0
 38 43  2  0  0  0
 38 46  1  0  0  0
 38 47  1  0  0  0
 39 64  1  0  0  0
 39 67  2  0  0  0
 40 52  1  0  0  0
 40 53  2  0  0  0
 40 58  1  0  0  0
 41112  1  0  0  0
 41113  1  0  0  0
 41114  1  0  0  0
 41 48  1  0  0  0
 42 43  1  0  0  0
 42 66  1  0  0  0
 42115  1  0  0  0
 42116  1  0  0  0
 43 44  1  0  0  0
 44117  1  0  0  0
 45 46  2  0  0  0
 45118  1  0  0  0
 46119  1  0  0  0
 47120  1  0  0  0
 47121  1  0  0  0
 48 56  1  0  0  0
 48 65  1  0  0  0
 48122  1  0  0  0
 49 50  1  0  0  0
 49 53  1  0  0  0
 49 64  1  0  0  0
 49123  1  0  0  0
 50 51  1  0  0  0
 50124  1  0  0  0
 50125  1  0  0  0
 51 52  1  0  0  0
 51126  1  0  0  0
 51127  1  0  0  0
 52128  1  0  0  0
 52129  1  0  0  0
 53 54  1  0  0  0
 54 55  2  0  0  0
 54130  1  0  0  0
 55 57  1  0  0  0
 55131  1  0  0  0
 56 69  2  0  0  0
 57 58  2  0  0  0
 57132  1  0  0  0
 58133  1  0  0  0
 59 60  1  0  0  0
 59 61  1  0  0  0
 59 62  1  0  0  0
 60134  1  0  0  0
 60135  1  0  0  0
 60136  1  0  0  0
 61137  1  0  0  0
 61138  1  0  0  0
 61139  1  0  0  0
 62140  1  0  0  0
 62141  1  0  0  0
 62142  1  0  0  0
 63 65  1  0  0  0
 63143  1  0  0  0
 63144  1  0  0  0
 63145  1  0  0  0
 64146  1  0  0  0
 65147  1  0  0  0
 68 82  1  0  0  0
 71 74  2  0  0  0
 71 75  1  0  0  0
 71148  1  0  0  0
 72 74  1  0  0  0
 72 76  2  0  0  0
 72149  1  0  0  0
 73 75  2  0  0  0
 73 76  1  0  0  0
 73 77  1  0  0  0
 74 83  1  0  0  0
 75 84  1  0  0  0
 76 88  1  0  0  0
 77 80  1  0  0  0
 77 85  2  0  0  0
 78 79  1  0  0  0
 78 81  1  0  0  0
 78 86  2  0  0  0
 79 82  1  0  0  0
 79 87  2  0  0  0
 80150  1  0  0  0
 80151  1  0  0  0
 80152  1  0  0  0
 81 84  1  0  0  0
 81153  1  0  0  0
 81154  1  0  0  0
 82155  1  0  0  0
 82156  1  0  0  0
 83157  1  0  0  0
 84158  1  0  0  0
M  ISO  4   1 100  68 101  82 101  83 100
M  END
> <chiral flag>
0

> <version>
0

> <s_m_source_file>
/data/baiqing/PycharmProjects/Reinvent-master-3.2/result/LINK_invent/BTK/process_docking_weight1_custom_product_contain_oxygen_bond_distance_aromatic_linkinvent_7_9_3/rearranged_h_0170.sdf

> <i_m_source_file_index>
78

> <r_mmod_Potential_Energy-OPLS-2005>
251.498138427734

> <r_mmod_Stretch_Energy-OPLS-2005>
43.314811706543

> <r_mmod_Bend_Energy-OPLS-2005>
119.179039001465

> <r_mmod_Torsional_Energy-OPLS-2005>
296.1474609375

> <r_mmod_Improper_Torsional_Energy-OPLS-2005>
10.7044095993042

> <r_mmod_Van_der_Waal_Energy-OPLS-2005>
162.911422729492

> <r_mmod_Electrostatic_Energy-OPLS-2005>
-146.151794433594

> <r_mmod_Solvation_Energy-OPLS-2005>
-254.670745849609

> <b_mmod_Minimization_Converged-OPLS-2005>
0

> <r_mmod_RMS_Derivative-OPLS-2005>
7.77273416519165

$$$$
79
                    3D
 Structure written by MMmdl.
158166  0  0  1  0            999 V2000
  -30.7398  -14.4446   20.6164 C   0  0  0  0  0  0
  -30.4169  -12.3115   19.4136 C   0  0  0  0  0  0
  -29.4894  -12.5160   18.2006 C   0  0  0  0  0  0
  -28.0127  -12.3724   18.6162 C   0  0  0  0  0  0
  -27.6609  -13.2114   19.8742 C   0  0  2  0  0  0
  -28.7027  -12.9946   20.9942 C   0  0  0  0  0  0
  -25.2577  -13.8178   20.5678 C   0  0  0  0  0  0
  -24.1833  -13.0444   20.9168 C   0  0  0  0  0  0
  -24.6395  -11.6916   20.8731 C   0  0  0  0  0  0
  -23.9064  -10.4296   21.0399 C   0  0  0  0  0  0
  -24.3616   -9.4212   21.9181 C   0  0  0  0  0  0
  -23.6293   -8.2246   22.0752 C   0  0  0  0  0  0
  -22.4274   -8.0278   21.3543 C   0  0  0  0  0  0
  -21.9908   -9.0251   20.4646 C   0  0  0  0  0  0
  -22.7237  -10.2131   20.3052 C   0  0  0  0  0  0
  -21.6854   -6.0732   22.5281 C   0  0  0  0  0  0
  -21.4011   -6.5638   23.8212 C   0  0  0  0  0  0
  -21.3655   -5.6790   24.9174 C   0  0  0  0  0  0
  -21.6045   -4.3054   24.7226 C   0  0  0  0  0  0
  -21.8823   -3.8142   23.4347 C   0  0  0  0  0  0
  -21.9197   -4.6958   22.3403 C   0  0  0  0  0  0
  -22.7853  -13.5236   21.1834 C   0  0  0  0  0  0
  -22.1663   -4.2144   21.0981 F   0  0  0  0  0  0
  -21.5630   -3.4536   25.7737 F   0  0  0  0  0  0
  -30.0356  -13.2933   20.4416 N   0  0  0  0  0  0
  -26.3023  -12.9356   20.3373 N   0  0  0  0  0  0
  -25.9327  -11.6509   20.5768 N   0  0  0  0  0  0
  -22.0493  -12.8231   22.0387 N   0  0  0  0  0  0
  -25.4296  -15.1890   20.4084 N   0  0  0  0  0  0
  -31.8285  -14.6471   20.0730 O   0  0  0  0  0  0
  -21.6642   -6.8872   21.4240 O   0  0  0  0  0  0
  -22.3540  -14.5548   20.6687 O   0  0  0  0  0  0
  -24.6141  -31.8676   23.2095 C   0  0  0  0  0  0
  -25.9039  -32.4819   23.8393 C   0  0  1  0  0  0
  -27.2330  -27.4343   20.1026 C   0  0  0  0  0  0
  -25.5903  -33.8618   24.2328 N   0  0  0  0  0  0
  -23.4029  -30.4904   21.5493 C   0  0  2  0  0  0
  -24.8506  -28.9556   20.1149 C   0  0  0  0  0  0
  -22.7413  -29.4654   22.4983 C   0  0  0  0  0  0
  -18.0274  -28.1376   22.8489 C   0  0  0  0  0  0
  -24.1480  -36.7300   23.2637 C   0  0  0  0  0  0
  -25.9311  -30.8350   21.3610 C   0  0  0  0  0  0
  -26.0110  -29.4690   20.7090 C   0  0  0  0  0  0
  -27.2088  -28.7173   20.6957 C   0  0  0  0  0  0
  -26.0586  -26.9354   19.5003 C   0  0  0  0  0  0
  -24.8692  -27.6884   19.5058 C   0  0  0  0  0  0
  -23.6119  -29.8216   20.1642 C   0  0  0  0  0  0
  -25.4102  -36.3106   24.0344 C   0  0  1  0  0  0
  -20.5863  -28.3656   23.1322 C   0  0  2  0  0  0
  -20.6756  -26.9389   22.5429 C   0  0  0  0  0  0
  -19.5747  -26.6383   21.5212 C   0  0  0  0  0  0
  -18.1919  -26.7928   22.1610 C   0  0  0  0  0  0
  -19.1522  -28.8833   23.2903 C   0  0  0  0  0  0
  -18.9450  -30.1437   23.8915 C   0  0  0  0  0  0
  -17.6454  -30.6577   24.0571 C   0  0  0  0  0  0
  -25.9036  -34.9475   23.5131 C   0  0  0  0  0  0
  -16.5343  -29.9083   23.6328 C   0  0  0  0  0  0
  -16.7262  -28.6503   23.0342 C   0  0  0  0  0  0
  -26.4468  -31.6593   25.0715 C   0  0  0  0  0  0
  -25.3744  -31.3711   26.1474 C   0  0  0  0  0  0
  -27.0275  -30.3030   24.6076 C   0  0  0  0  0  0
  -27.6065  -32.4294   25.7469 C   0  0  0  0  0  0
  -27.5582  -37.1796   24.8457 C   0  0  0  0  0  0
  -21.4141  -29.3021   22.3724 N   0  0  0  0  0  0
  -26.4279  -37.3797   23.9424 N   0  0  0  0  0  0
  -24.6679  -31.0784   22.0991 N   0  0  0  0  0  0
  -23.4188  -28.8201   23.3027 O   0  0  0  0  0  0
  -28.3824  -26.6761   20.1039 O   0  0  0  0  0  0
  -26.5595  -34.8932   22.4689 O   0  0  0  0  0  0
  -23.5337  -32.1426   23.7495 O   0  0  0  0  0  0
  -28.8187  -19.8864   21.3626 C   0  0  0  0  0  0
  -30.6369  -19.6704   19.8030 C   0  0  0  0  0  0
  -29.1290  -18.5928   21.8532 C   0  0  0  0  0  0
  -29.5963  -20.4654   20.3325 C   0  0  0  0  0  0
  -30.2391  -17.9131   21.2821 C   0  0  0  0  0  0
  -28.2780  -17.9942   22.9224 C   0  0  0  0  0  0
  -28.8485  -24.2342   19.9965 C   0  0  0  0  0  0
  -27.5864  -18.9479   23.8902 C   0  0  0  0  0  0
  -30.8197  -16.6103   21.8514 C   0  0  0  0  0  0
  -28.7585  -22.8249   20.6338 C   0  0  0  0  0  0
  -28.2537  -25.4148   20.7932 C   0  0  0  0  0  0
  -30.9532  -18.4395   20.2604 N   0  0  0  0  0  0
  -29.3711  -21.7626   19.8172 N   0  0  0  0  0  0
  -30.1736  -15.3735   21.3995 N   0  0  0  0  0  0
  -28.1143  -16.7814   23.0703 O   0  0  0  0  0  0
  -29.3865  -24.3959   18.8936 O   0  0  0  0  0  0
  -31.4620  -12.4022   19.1114 H   0  0  0  0  0  0
  -30.3119  -11.2996   19.8085 H   0  0  0  0  0  0
  -29.7294  -11.7965   17.4165 H   0  0  0  0  0  0
  -29.6573  -13.5050   17.7712 H   0  0  0  0  0  0
  -27.8248  -11.3158   18.8109 H   0  0  0  0  0  0
  -27.3603  -12.6470   17.7862 H   0  0  0  0  0  0
  -27.7050  -14.2604   19.5801 H   0  0  0  0  0  0
  -28.6778  -11.9604   21.3396 H   0  0  0  0  0  0
  -28.4565  -13.5966   21.8695 H   0  0  0  0  0  0
  -25.2764   -9.5690   22.4751 H   0  0  0  0  0  0
  -24.0008   -7.4635   22.7470 H   0  0  0  0  0  0
  -21.0840   -8.8765   19.8949 H   0  0  0  0  0  0
  -22.3698  -10.9663   19.6151 H   0  0  0  0  0  0
  -21.1994   -7.6146   23.9713 H   0  0  0  0  0  0
  -21.1472   -6.0518   25.9076 H   0  0  0  0  0  0
  -22.0603   -2.7605   23.2849 H   0  0  0  0  0  0
  -22.4094  -11.9883   22.4774 H   0  0  0  0  0  0
  -21.1108  -13.1254   22.2577 H   0  0  0  0  0  0
  -24.6670  -15.8478   20.5217 H   0  0  0  0  0  0
  -26.2949  -15.6293   20.1218 H   0  0  0  0  0  0
  -26.7111  -32.5536   23.1162 H   0  0  0  0  0  0
  -25.0077  -33.9778   25.0490 H   0  0  0  0  0  0
  -22.6918  -31.3072   21.4097 H   0  0  0  0  0  0
  -23.3758  -35.9613   23.3286 H   0  0  0  0  0  0
  -24.3586  -36.8924   22.2055 H   0  0  0  0  0  0
  -23.7208  -37.6493   23.6655 H   0  0  0  0  0  0
  -26.0411  -31.6012   20.5923 H   0  0  0  0  0  0
  -26.8201  -30.8902   21.9776 H   0  0  0  0  0  0
  -28.1055  -29.1087   21.1558 H   0  0  0  0  0  0
  -26.0632  -25.9642   19.0256 H   0  0  0  0  0  0
  -23.9778  -27.2889   19.0419 H   0  0  0  0  0  0
  -23.7200  -30.5965   19.4044 H   0  0  0  0  0  0
  -22.7368  -29.2401   19.8679 H   0  0  0  0  0  0
  -25.1275  -36.1963   25.0836 H   0  0  0  0  0  0
  -20.9959  -28.3215   24.1442 H   0  0  0  0  0  0
  -20.5636  -26.2264   23.3615 H   0  0  0  0  0  0
  -21.6628  -26.7417   22.1232 H   0  0  0  0  0  0
  -19.6906  -25.6301   21.1223 H   0  0  0  0  0  0
  -19.6703  -27.3210   20.6758 H   0  0  0  0  0  0
  -17.4202  -26.6698   21.3995 H   0  0  0  0  0  0
  -18.0303  -26.0055   22.8987 H   0  0  0  0  0  0
  -19.7927  -30.7246   24.2289 H   0  0  0  0  0  0
  -17.5010  -31.6258   24.5174 H   0  0  0  0  0  0
  -15.5344  -30.2989   23.7649 H   0  0  0  0  0  0
  -15.8662  -28.0835   22.7036 H   0  0  0  0  0  0
  -24.5924  -30.7037   25.7829 H   0  0  0  0  0  0
  -24.8921  -32.2867   26.4907 H   0  0  0  0  0  0
  -25.8105  -30.8906   27.0240 H   0  0  0  0  0  0
  -26.2795  -29.6808   24.1143 H   0  0  0  0  0  0
  -27.4056  -29.7250   25.4519 H   0  0  0  0  0  0
  -27.8635  -30.4341   23.9203 H   0  0  0  0  0  0
  -27.2714  -33.3605   26.2050 H   0  0  0  0  0  0
  -28.3875  -32.6824   25.0286 H   0  0  0  0  0  0
  -28.0726  -31.8402   26.5375 H   0  0  0  0  0  0
  -28.2584  -38.0109   24.7531 H   0  0  0  0  0  0
  -28.1091  -36.2646   24.6231 H   0  0  0  0  0  0
  -27.2320  -37.1381   25.8864 H   0  0  0  0  0  0
  -20.9300  -29.8747   21.6954 H   0  0  0  0  0  0
  -26.0169  -38.2865   24.1462 H   0  0  0  0  0  0
  -27.9854  -20.4395   21.7700 H   0  0  0  0  0  0
  -31.2565  -20.0451   19.0010 H   0  0  0  0  0  0
  -28.2246  -19.8020   24.1157 H   0  0  0  0  0  0
  -27.3626  -18.4374   24.8266 H   0  0  0  0  0  0
  -26.6508  -19.3079   23.4635 H   0  0  0  0  0  0
  -30.7675  -16.6410   22.9394 H   0  0  0  0  0  0
  -31.8913  -16.5880   21.6434 H   0  0  0  0  0  0
  -27.7053  -22.5969   20.8026 H   0  0  0  0  0  0
  -29.2391  -22.8635   21.6129 H   0  0  0  0  0  0
  -28.7806  -25.4885   21.7446 H   0  0  0  0  0  0
  -27.2155  -25.1819   21.0320 H   0  0  0  0  0  0
  -30.0049  -22.1105   19.0975 H   0  0  0  0  0  0
  -29.2614  -15.1800   21.7863 H   0  0  0  0  0  0
  1 25  1  0  0  0
  1 30  2  0  0  0
  1 84  1  0  0  0
  2  3  1  0  0  0
  2 25  1  0  0  0
  2 87  1  0  0  0
  2 88  1  0  0  0
  3  4  1  0  0  0
  3 89  1  0  0  0
  3 90  1  0  0  0
  4  5  1  0  0  0
  4 91  1  0  0  0
  4 92  1  0  0  0
  5  6  1  0  0  0
  5 26  1  0  0  0
  5 93  1  0  0  0
  6 25  1  0  0  0
  6 94  1  0  0  0
  6 95  1  0  0  0
  7  8  2  0  0  0
  7 26  1  0  0  0
  7 29  1  0  0  0
  8  9  1  0  0  0
  8 22  1  0  0  0
  9 10  1  0  0  0
  9 27  2  0  0  0
 10 11  2  0  0  0
 10 15  1  0  0  0
 11 12  1  0  0  0
 11 96  1  0  0  0
 12 13  2  0  0  0
 12 97  1  0  0  0
 13 14  1  0  0  0
 13 31  1  0  0  0
 14 15  2  0  0  0
 14 98  1  0  0  0
 15 99  1  0  0  0
 16 17  2  0  0  0
 16 21  1  0  0  0
 16 31  1  0  0  0
 17 18  1  0  0  0
 17100  1  0  0  0
 18 19  2  0  0  0
 18101  1  0  0  0
 19 20  1  0  0  0
 19 24  1  0  0  0
 20 21  2  0  0  0
 20102  1  0  0  0
 21 23  1  0  0  0
 22 28  1  0  0  0
 22 32  2  0  0  0
 26 27  1  0  0  0
 28103  1  0  0  0
 28104  1  0  0  0
 29105  1  0  0  0
 29106  1  0  0  0
 33 34  1  0  0  0
 33 66  1  0  0  0
 33 70  2  0  0  0
 34 36  1  0  0  0
 34 59  1  0  0  0
 34107  1  0  0  0
 35 44  2  0  0  0
 35 45  1  0  0  0
 35 68  1  0  0  0
 36 56  1  0  0  0
 36108  1  0  0  0
 37 39  1  0  0  0
 37 47  1  0  0  0
 37 66  1  0  0  0
 37109  1  0  0  0
 38 43  2  0  0  0
 38 46  1  0  0  0
 38 47  1  0  0  0
 39 64  1  0  0  0
 39 67  2  0  0  0
 40 52  1  0  0  0
 40 53  2  0  0  0
 40 58  1  0  0  0
 41110  1  0  0  0
 41111  1  0  0  0
 41112  1  0  0  0
 41 48  1  0  0  0
 42 43  1  0  0  0
 42 66  1  0  0  0
 42113  1  0  0  0
 42114  1  0  0  0
 43 44  1  0  0  0
 44115  1  0  0  0
 45 46  2  0  0  0
 45116  1  0  0  0
 46117  1  0  0  0
 47118  1  0  0  0
 47119  1  0  0  0
 48 56  1  0  0  0
 48 65  1  0  0  0
 48120  1  0  0  0
 49 50  1  0  0  0
 49 53  1  0  0  0
 49 64  1  0  0  0
 49121  1  0  0  0
 50 51  1  0  0  0
 50122  1  0  0  0
 50123  1  0  0  0
 51 52  1  0  0  0
 51124  1  0  0  0
 51125  1  0  0  0
 52126  1  0  0  0
 52127  1  0  0  0
 53 54  1  0  0  0
 54 55  2  0  0  0
 54128  1  0  0  0
 55 57  1  0  0  0
 55129  1  0  0  0
 56 69  2  0  0  0
 57 58  2  0  0  0
 57130  1  0  0  0
 58131  1  0  0  0
 59 60  1  0  0  0
 59 61  1  0  0  0
 59 62  1  0  0  0
 60132  1  0  0  0
 60133  1  0  0  0
 60134  1  0  0  0
 61135  1  0  0  0
 61136  1  0  0  0
 61137  1  0  0  0
 62138  1  0  0  0
 62139  1  0  0  0
 62140  1  0  0  0
 63 65  1  0  0  0
 63141  1  0  0  0
 63142  1  0  0  0
 63143  1  0  0  0
 64144  1  0  0  0
 65145  1  0  0  0
 68 81  1  0  0  0
 71 73  2  0  0  0
 71 74  1  0  0  0
 71146  1  0  0  0
 72 74  2  0  0  0
 72 82  1  0  0  0
 72147  1  0  0  0
 73 75  1  0  0  0
 73 76  1  0  0  0
 74 83  1  0  0  0
 75 79  1  0  0  0
 75 82  2  0  0  0
 76 78  1  0  0  0
 76 85  2  0  0  0
 77 80  1  0  0  0
 77 81  1  0  0  0
 77 86  2  0  0  0
 78148  1  0  0  0
 78149  1  0  0  0
 78150  1  0  0  0
 79 84  1  0  0  0
 79151  1  0  0  0
 79152  1  0  0  0
 80 83  1  0  0  0
 80153  1  0  0  0
 80154  1  0  0  0
 81155  1  0  0  0
 81156  1  0  0  0
 83157  1  0  0  0
 84158  1  0  0  0
M  ISO  4   1 100  68 101  81 101  84 100
M  END
> <chiral flag>
0

> <version>
0

> <s_m_source_file>
/data/baiqing/PycharmProjects/Reinvent-master-3.2/result/LINK_invent/BTK/process_docking_weight1_custom_product_contain_oxygen_bond_distance_aromatic_linkinvent_7_9_3/rearranged_h_0170.sdf

> <i_m_source_file_index>
79

> <r_mmod_Potential_Energy-OPLS-2005>
-231.16584777832

> <r_mmod_Stretch_Energy-OPLS-2005>
39.8927345275879

> <r_mmod_Bend_Energy-OPLS-2005>
100.874488830566

> <r_mmod_Torsional_Energy-OPLS-2005>
236.445556640625

> <r_mmod_Improper_Torsional_Energy-OPLS-2005>
4.19209909439087

> <r_mmod_Van_der_Waal_Energy-OPLS-2005>
156.43342590332

> <r_mmod_Electrostatic_Energy-OPLS-2005>
-519.336059570312

> <r_mmod_Solvation_Energy-OPLS-2005>
-260.656036376953

> <b_mmod_Minimization_Converged-OPLS-2005>
0

> <r_mmod_RMS_Derivative-OPLS-2005>
0.818793952465057

$$$$
80
                    3D
 Structure written by MMmdl.
153161  0  0  1  0            999 V2000
  -30.6013  -14.8404   20.4547 C   0  0  0  0  0  0
  -30.4333  -12.5191   19.4871 C   0  0  0  0  0  0
  -29.5159  -12.5142   18.2448 C   0  0  0  0  0  0
  -28.0454  -12.3230   18.6619 C   0  0  0  0  0  0
  -27.6361  -13.2423   19.8434 C   0  0  2  0  0  0
  -28.6801  -13.2332   20.9819 C   0  0  0  0  0  0
  -25.2490  -13.8221   20.5705 C   0  0  0  0  0  0
  -24.1807  -13.0443   20.9229 C   0  0  0  0  0  0
  -24.6425  -11.6926   20.8764 C   0  0  0  0  0  0
  -23.9096  -10.4294   21.0417 C   0  0  0  0  0  0
  -24.3643   -9.4205   21.9187 C   0  0  0  0  0  0
  -23.6310   -8.2244   22.0750 C   0  0  0  0  0  0
  -22.4284   -8.0295   21.3551 C   0  0  0  0  0  0
  -21.9940   -9.0266   20.4635 C   0  0  0  0  0  0
  -22.7278  -10.2139   20.3051 C   0  0  0  0  0  0
  -21.6858   -6.0752   22.5287 C   0  0  0  0  0  0
  -21.4011   -6.5641   23.8227 C   0  0  0  0  0  0
  -21.3659   -5.6790   24.9183 C   0  0  0  0  0  0
  -21.6049   -4.3060   24.7228 C   0  0  0  0  0  0
  -21.8814   -3.8154   23.4349 C   0  0  0  0  0  0
  -21.9191   -4.6976   22.3407 C   0  0  0  0  0  0
  -22.7820  -13.5211   21.1885 C   0  0  0  0  0  0
  -22.1658   -4.2160   21.0989 F   0  0  0  0  0  0
  -21.5629   -3.4539   25.7742 F   0  0  0  0  0  0
  -29.9665  -13.6100   20.3849 N   0  0  0  0  0  0
  -26.2922  -12.9446   20.3262 N   0  0  0  0  0  0
  -25.9354  -11.6579   20.5753 N   0  0  0  0  0  0
  -22.0470  -12.8184   22.0430 N   0  0  0  0  0  0
  -25.4137  -15.1956   20.4122 N   0  0  0  0  0  0
  -31.8012  -14.8791   20.1657 O   0  0  0  0  0  0
  -21.6646   -6.8898   21.4252 O   0  0  0  0  0  0
  -22.3497  -14.5523   20.6745 O   0  0  0  0  0  0
  -24.6357  -31.8535   23.1934 C   0  0  0  0  0  0
  -25.9161  -32.4747   23.8329 C   0  0  1  0  0  0
  -27.2216  -27.2171   20.1514 C   0  0  0  0  0  0
  -25.5927  -33.8555   24.2235 N   0  0  0  0  0  0
  -23.4357  -30.4762   21.5337 C   0  0  2  0  0  0
  -24.8927  -28.9164   20.1063 C   0  0  0  0  0  0
  -22.7536  -29.4611   22.4846 C   0  0  0  0  0  0
  -18.0310  -28.1389   22.8492 C   0  0  0  0  0  0
  -24.1470  -36.7275   23.2643 C   0  0  0  0  0  0
  -25.9878  -30.7531   21.3804 C   0  0  0  0  0  0
  -26.0660  -29.3709   20.7259 C   0  0  0  0  0  0
  -27.2363  -28.5351   20.7399 C   0  0  0  0  0  0
  -26.0315  -26.8489   19.4888 C   0  0  0  0  0  0
  -24.8840  -27.6644   19.4741 C   0  0  0  0  0  0
  -23.6631  -29.8086   20.1510 C   0  0  0  0  0  0
  -25.4093  -36.3066   24.0332 C   0  0  1  0  0  0
  -20.5918  -28.3711   23.1243 C   0  0  2  0  0  0
  -20.6765  -26.9415   22.5391 C   0  0  0  0  0  0
  -19.5741  -26.6382   21.5192 C   0  0  0  0  0  0
  -18.1938  -26.7928   22.1623 C   0  0  0  0  0  0
  -19.1566  -28.8871   23.2867 C   0  0  0  0  0  0
  -18.9477  -30.1466   23.8894 C   0  0  0  0  0  0
  -17.6472  -30.6595   24.0574 C   0  0  0  0  0  0
  -25.9046  -34.9440   23.5084 C   0  0  0  0  0  0
  -16.5363  -29.9099   23.6331 C   0  0  0  0  0  0
  -16.7291  -28.6507   23.0374 C   0  0  0  0  0  0
  -26.4490  -31.6594   25.0742 C   0  0  0  0  0  0
  -25.3682  -31.3796   26.1456 C   0  0  0  0  0  0
  -27.0347  -30.3005   24.6251 C   0  0  0  0  0  0
  -27.6035  -32.4350   25.7529 C   0  0  0  0  0  0
  -27.5566  -37.1797   24.8467 C   0  0  0  0  0  0
  -21.4234  -29.3067   22.3624 N   0  0  0  0  0  0
  -26.4260  -37.3774   23.9432 N   0  0  0  0  0  0
  -24.7054  -31.0476   22.0904 N   0  0  0  0  0  0
  -23.4224  -28.8143   23.2945 O   0  0  0  0  0  0
  -28.2228  -26.2055   20.2381 O   0  0  0  0  0  0
  -26.5647  -34.8923   22.4666 O   0  0  0  0  0  0
  -23.5494  -32.1373   23.7201 O   0  0  0  0  0  0
  -32.0401  -19.0615   21.3816 C   0  0  0  0  0  0
  -31.5861  -17.7503   21.1577 C   0  0  0  0  0  0
  -31.2363  -20.2155   21.2076 C   0  0  0  0  0  0
  -30.2709  -17.4799   20.7368 C   0  0  0  0  0  0
  -29.8827  -20.0849   20.7441 C   0  0  0  0  0  0
  -29.4343  -18.6849   20.5482 C   0  0  0  0  0  0
  -31.8867  -21.4922   21.6143 C   0  0  0  0  0  0
  -27.8176  -25.0042   20.9193 C   0  0  0  0  0  0
  -28.1037  -23.6210   21.0100 C   0  0  0  0  0  0
  -29.0917  -22.6604   20.3592 C   0  0  0  0  0  0
  -32.6344  -21.6286   22.6297 N   0  0  0  0  0  0
  -28.9516  -21.2873   20.6739 N   0  0  0  0  0  0
  -29.8558  -16.0263   20.6106 N   0  0  0  0  0  0
  -29.9525  -23.0359   19.5636 O   0  0  0  0  0  0
  -27.3449  -23.0147   21.9385 O   0  0  0  0  0  0
  -28.1411  -18.4894   20.1904 F   0  0  0  0  0  0
  -31.4715  -12.6492   19.1773 H   0  0  0  0  0  0
  -30.3948  -11.5546   19.9959 H   0  0  0  0  0  0
  -29.8135  -11.7226   17.5548 H   0  0  0  0  0  0
  -29.6306  -13.4539   17.7029 H   0  0  0  0  0  0
  -27.9225  -11.2782   18.9512 H   0  0  0  0  0  0
  -27.3845  -12.4800   17.8073 H   0  0  0  0  0  0
  -27.6131  -14.2527   19.4346 H   0  0  0  0  0  0
  -28.7418  -12.2522   21.4551 H   0  0  0  0  0  0
  -28.3988  -13.9371   21.7666 H   0  0  0  0  0  0
  -25.2787   -9.5678   22.4764 H   0  0  0  0  0  0
  -24.0018   -7.4639   22.7473 H   0  0  0  0  0  0
  -21.0874   -8.8795   19.8940 H   0  0  0  0  0  0
  -22.3753  -10.9682   19.6152 H   0  0  0  0  0  0
  -21.1998   -7.6143   23.9730 H   0  0  0  0  0  0
  -21.1483   -6.0519   25.9090 H   0  0  0  0  0  0
  -22.0592   -2.7615   23.2848 H   0  0  0  0  0  0
  -22.4073  -11.9833   22.4804 H   0  0  0  0  0  0
  -21.1083  -13.1196   22.2624 H   0  0  0  0  0  0
  -24.6390  -15.8416   20.5199 H   0  0  0  0  0  0
  -26.2552  -15.6461   20.0755 H   0  0  0  0  0  0
  -26.7241  -32.5408   23.1093 H   0  0  0  0  0  0
  -25.0057  -33.9690   25.0367 H   0  0  0  0  0  0
  -22.7314  -31.2974   21.3816 H   0  0  0  0  0  0
  -23.3737  -35.9602   23.3288 H   0  0  0  0  0  0
  -24.3555  -36.8907   22.2058 H   0  0  0  0  0  0
  -23.7197  -37.6457   23.6677 H   0  0  0  0  0  0
  -26.1327  -31.5058   20.6048 H   0  0  0  0  0  0
  -26.8636  -30.8111   22.0154 H   0  0  0  0  0  0
  -28.1239  -28.8696   21.2584 H   0  0  0  0  0  0
  -25.9715  -25.8765   19.0205 H   0  0  0  0  0  0
  -23.9885  -27.3079   18.9840 H   0  0  0  0  0  0
  -23.7969  -30.5868   19.3978 H   0  0  0  0  0  0
  -22.7809  -29.2476   19.8355 H   0  0  0  0  0  0
  -25.1257  -36.1904   25.0821 H   0  0  0  0  0  0
  -21.0040  -28.3291   24.1353 H   0  0  0  0  0  0
  -20.5601  -26.2335   23.3609 H   0  0  0  0  0  0
  -21.6642  -26.7382   22.1231 H   0  0  0  0  0  0
  -19.6877  -25.6283   21.1252 H   0  0  0  0  0  0
  -19.6668  -27.3165   20.6701 H   0  0  0  0  0  0
  -17.4186  -26.6700   21.4041 H   0  0  0  0  0  0
  -18.0355  -26.0044   22.9001 H   0  0  0  0  0  0
  -19.7947  -30.7302   24.2245 H   0  0  0  0  0  0
  -17.5027  -31.6271   24.5188 H   0  0  0  0  0  0
  -15.5364  -30.3021   23.7632 H   0  0  0  0  0  0
  -15.8687  -28.0825   22.7100 H   0  0  0  0  0  0
  -24.5870  -30.7111   25.7819 H   0  0  0  0  0  0
  -24.8850  -32.2984   26.4801 H   0  0  0  0  0  0
  -25.7975  -30.9058   27.0290 H   0  0  0  0  0  0
  -26.2956  -29.6768   24.1211 H   0  0  0  0  0  0
  -27.3948  -29.7257   25.4792 H   0  0  0  0  0  0
  -27.8861  -30.4276   23.9565 H   0  0  0  0  0  0
  -27.2637  -33.3677   26.2049 H   0  0  0  0  0  0
  -28.3887  -32.6869   25.0391 H   0  0  0  0  0  0
  -28.0655  -31.8512   26.5496 H   0  0  0  0  0  0
  -28.2579  -38.0107   24.7544 H   0  0  0  0  0  0
  -28.1063  -36.2642   24.6225 H   0  0  0  0  0  0
  -27.2321  -37.1381   25.8884 H   0  0  0  0  0  0
  -20.9414  -29.8858   21.6893 H   0  0  0  0  0  0
  -26.0127  -38.2838   24.1447 H   0  0  0  0  0  0
  -33.0576  -19.1706   21.7327 H   0  0  0  0  0  0
  -32.2796  -16.9507   21.3668 H   0  0  0  0  0  0
  -31.7289  -22.3629   20.9808 H   0  0  0  0  0  0
  -27.0277  -25.3081   21.5963 H   0  0  0  0  0  0
  -32.7215  -20.7610   23.1489 H   0  0  0  0  0  0
  -28.0035  -21.0524   20.9336 H   0  0  0  0  0  0
  -28.8593  -15.8787   20.6537 H   0  0  0  0  0  0
  -27.7995  -22.2243   22.1993 H   0  0  0  0  0  0
  1 25  1  0  0  0
  1 30  2  0  0  0
  1 83  1  0  0  0
  2  3  1  0  0  0
  2 25  1  0  0  0
  2 87  1  0  0  0
  2 88  1  0  0  0
  3  4  1  0  0  0
  3 89  1  0  0  0
  3 90  1  0  0  0
  4  5  1  0  0  0
  4 91  1  0  0  0
  4 92  1  0  0  0
  5  6  1  0  0  0
  5 26  1  0  0  0
  5 93  1  0  0  0
  6 25  1  0  0  0
  6 94  1  0  0  0
  6 95  1  0  0  0
  7  8  2  0  0  0
  7 26  1  0  0  0
  7 29  1  0  0  0
  8  9  1  0  0  0
  8 22  1  0  0  0
  9 10  1  0  0  0
  9 27  2  0  0  0
 10 11  2  0  0  0
 10 15  1  0  0  0
 11 12  1  0  0  0
 11 96  1  0  0  0
 12 13  2  0  0  0
 12 97  1  0  0  0
 13 14  1  0  0  0
 13 31  1  0  0  0
 14 15  2  0  0  0
 14 98  1  0  0  0
 15 99  1  0  0  0
 16 17  2  0  0  0
 16 21  1  0  0  0
 16 31  1  0  0  0
 17 18  1  0  0  0
 17100  1  0  0  0
 18 19  2  0  0  0
 18101  1  0  0  0
 19 20  1  0  0  0
 19 24  1  0  0  0
 20 21  2  0  0  0
 20102  1  0  0  0
 21 23  1  0  0  0
 22 28  1  0  0  0
 22 32  2  0  0  0
 26 27  1  0  0  0
 28103  1  0  0  0
 28104  1  0  0  0
 29105  1  0  0  0
 29106  1  0  0  0
 33 34  1  0  0  0
 33 66  1  0  0  0
 33 70  2  0  0  0
 34 36  1  0  0  0
 34 59  1  0  0  0
 34107  1  0  0  0
 35 44  2  0  0  0
 35 45  1  0  0  0
 35 68  1  0  0  0
 36 56  1  0  0  0
 36108  1  0  0  0
 37 39  1  0  0  0
 37 47  1  0  0  0
 37 66  1  0  0  0
 37109  1  0  0  0
 38 43  2  0  0  0
 38 46  1  0  0  0
 38 47  1  0  0  0
 39 64  1  0  0  0
 39 67  2  0  0  0
 40 52  1  0  0  0
 40 53  2  0  0  0
 40 58  1  0  0  0
 41110  1  0  0  0
 41111  1  0  0  0
 41112  1  0  0  0
 41 48  1  0  0  0
 42 43  1  0  0  0
 42 66  1  0  0  0
 42113  1  0  0  0
 42114  1  0  0  0
 43 44  1  0  0  0
 44115  1  0  0  0
 45 46  2  0  0  0
 45116  1  0  0  0
 46117  1  0  0  0
 47118  1  0  0  0
 47119  1  0  0  0
 48 56  1  0  0  0
 48 65  1  0  0  0
 48120  1  0  0  0
 49 50  1  0  0  0
 49 53  1  0  0  0
 49 64  1  0  0  0
 49121  1  0  0  0
 50 51  1  0  0  0
 50122  1  0  0  0
 50123  1  0  0  0
 51 52  1  0  0  0
 51124  1  0  0  0
 51125  1  0  0  0
 52126  1  0  0  0
 52127  1  0  0  0
 53 54  1  0  0  0
 54 55  2  0  0  0
 54128  1  0  0  0
 55 57  1  0  0  0
 55129  1  0  0  0
 56 69  2  0  0  0
 57 58  2  0  0  0
 57130  1  0  0  0
 58131  1  0  0  0
 59 60  1  0  0  0
 59 61  1  0  0  0
 59 62  1  0  0  0
 60132  1  0  0  0
 60133  1  0  0  0
 60134  1  0  0  0
 61135  1  0  0  0
 61136  1  0  0  0
 61137  1  0  0  0
 62138  1  0  0  0
 62139  1  0  0  0
 62140  1  0  0  0
 63 65  1  0  0  0
 63141  1  0  0  0
 63142  1  0  0  0
 63143  1  0  0  0
 64144  1  0  0  0
 65145  1  0  0  0
 68 78  1  0  0  0
 71 72  2  0  0  0
 71 73  1  0  0  0
 71146  1  0  0  0
 72 74  1  0  0  0
 72147  1  0  0  0
 73 75  2  0  0  0
 73 77  1  0  0  0
 74 76  2  0  0  0
 74 83  1  0  0  0
 75 76  1  0  0  0
 75 82  1  0  0  0
 76 86  1  0  0  0
 77 81  2  0  0  0
 77148  1  0  0  0
 78 79  2  0  0  0
 78149  1  0  0  0
 79 80  1  0  0  0
 79 85  1  0  0  0
 80 82  1  0  0  0
 80 84  2  0  0  0
 81150  1  0  0  0
 82151  1  0  0  0
 83152  1  0  0  0
 85153  1  0  0  0
M  ISO  4   1 100  68 101  78 101  83 100
M  END
> <chiral flag>
0

> <version>
0

> <s_m_source_file>
/data/baiqing/PycharmProjects/Reinvent-master-3.2/result/LINK_invent/BTK/process_docking_weight1_custom_product_contain_oxygen_bond_distance_aromatic_linkinvent_7_9_3/rearranged_h_0170.sdf

> <i_m_source_file_index>
80

> <r_mmod_Potential_Energy-OPLS-2005>
333.400390625

> <r_mmod_Stretch_Energy-OPLS-2005>
181.444610595703

> <r_mmod_Bend_Energy-OPLS-2005>
257.905609130859

> <r_mmod_Torsional_Energy-OPLS-2005>
269.953430175781

> <r_mmod_Improper_Torsional_Energy-OPLS-2005>
7.04274749755859

> <r_mmod_Van_der_Waal_Energy-OPLS-2005>
156.345626831055

> <r_mmod_Electrostatic_Energy-OPLS-2005>
-421.653350830078

> <r_mmod_Solvation_Energy-OPLS-2005>
-253.79899597168

> <b_mmod_Minimization_Converged-OPLS-2005>
0

> <r_mmod_RMS_Derivative-OPLS-2005>
2.75018334388733

$$$$
81
                    3D
 Structure written by MMmdl.
156164  0  0  1  0            999 V2000
  -30.6508  -14.5824   20.5193 C   0  0  0  0  0  0
  -30.4317  -12.3644   19.4350 C   0  0  0  0  0  0
  -29.4997  -12.4997   18.2120 C   0  0  0  0  0  0
  -28.0227  -12.3434   18.6270 C   0  0  0  0  0  0
  -27.6513  -13.2109   19.8590 C   0  0  2  0  0  0
  -28.6970  -13.0573   20.9859 C   0  0  0  0  0  0
  -25.2558  -13.8161   20.5672 C   0  0  0  0  0  0
  -24.1827  -13.0434   20.9195 C   0  0  0  0  0  0
  -24.6390  -11.6906   20.8746 C   0  0  0  0  0  0
  -23.9059  -10.4291   21.0414 C   0  0  0  0  0  0
  -24.3615   -9.4205   21.9190 C   0  0  0  0  0  0
  -23.6291   -8.2239   22.0757 C   0  0  0  0  0  0
  -22.4273   -8.0279   21.3546 C   0  0  0  0  0  0
  -21.9909   -9.0253   20.4648 C   0  0  0  0  0  0
  -22.7236  -10.2132   20.3060 C   0  0  0  0  0  0
  -21.6852   -6.0738   22.5281 C   0  0  0  0  0  0
  -21.4012   -6.5642   23.8214 C   0  0  0  0  0  0
  -21.3658   -5.6795   24.9177 C   0  0  0  0  0  0
  -21.6044   -4.3056   24.7227 C   0  0  0  0  0  0
  -21.8819   -3.8150   23.4347 C   0  0  0  0  0  0
  -21.9192   -4.6967   22.3404 C   0  0  0  0  0  0
  -22.7849  -13.5231   21.1855 C   0  0  0  0  0  0
  -22.1661   -4.2154   21.0981 F   0  0  0  0  0  0
  -21.5629   -3.4540   25.7738 F   0  0  0  0  0  0
  -30.0124  -13.3802   20.4152 N   0  0  0  0  0  0
  -26.2975  -12.9329   20.3298 N   0  0  0  0  0  0
  -25.9310  -11.6490   20.5753 N   0  0  0  0  0  0
  -22.0487  -12.8227   22.0411 N   0  0  0  0  0  0
  -25.4256  -15.1884   20.4059 N   0  0  0  0  0  0
  -31.8281  -14.7264   20.1769 O   0  0  0  0  0  0
  -21.6636   -6.8878   21.4242 O   0  0  0  0  0  0
  -22.3539  -14.5543   20.6709 O   0  0  0  0  0  0
  -24.6195  -31.8629   23.2050 C   0  0  0  0  0  0
  -25.9069  -32.4791   23.8359 C   0  0  1  0  0  0
  -27.2320  -27.3711   20.1276 C   0  0  0  0  0  0
  -25.5900  -33.8586   24.2290 N   0  0  0  0  0  0
  -23.4112  -30.4848   21.5459 C   0  0  2  0  0  0
  -24.8593  -28.9335   20.1249 C   0  0  0  0  0  0
  -22.7437  -29.4640   22.4965 C   0  0  0  0  0  0
  -18.0281  -28.1389   22.8483 C   0  0  0  0  0  0
  -24.1493  -36.7300   23.2639 C   0  0  0  0  0  0
  -25.9447  -30.8108   21.3661 C   0  0  0  0  0  0
  -26.0223  -29.4357   20.7241 C   0  0  0  0  0  0
  -27.2137  -28.6646   20.7173 C   0  0  0  0  0  0
  -26.0551  -26.8976   19.5164 C   0  0  0  0  0  0
  -24.8729  -27.6649   19.5178 C   0  0  0  0  0  0
  -23.6259  -29.8110   20.1645 C   0  0  0  0  0  0
  -25.4107  -36.3082   24.0339 C   0  0  1  0  0  0
  -20.5876  -28.3669   23.1311 C   0  0  2  0  0  0
  -20.6767  -26.9400   22.5419 C   0  0  0  0  0  0
  -19.5748  -26.6383   21.5219 C   0  0  0  0  0  0
  -18.1927  -26.7932   22.1627 C   0  0  0  0  0  0
  -19.1534  -28.8844   23.2893 C   0  0  0  0  0  0
  -18.9460  -30.1449   23.8899 C   0  0  0  0  0  0
  -17.6462  -30.6585   24.0568 C   0  0  0  0  0  0
  -25.9042  -34.9453   23.5115 C   0  0  0  0  0  0
  -16.5350  -29.9088   23.6333 C   0  0  0  0  0  0
  -16.7271  -28.6517   23.0335 C   0  0  0  0  0  0
  -26.4479  -31.6582   25.0706 C   0  0  0  0  0  0
  -25.3730  -31.3715   26.1448 C   0  0  0  0  0  0
  -27.0301  -30.3013   24.6095 C   0  0  0  0  0  0
  -27.6039  -32.4307   25.7478 C   0  0  0  0  0  0
  -27.5583  -37.1792   24.8456 C   0  0  0  0  0  0
  -21.4155  -29.3036   22.3708 N   0  0  0  0  0  0
  -26.4281  -37.3779   23.9421 N   0  0  0  0  0  0
  -24.6771  -31.0690   22.0969 N   0  0  0  0  0  0
  -23.4187  -28.8189   23.3032 O   0  0  0  0  0  0
  -28.3865  -26.6063   20.0346 O   0  0  0  0  0  0
  -26.5615  -34.8915   22.4680 O   0  0  0  0  0  0
  -23.5372  -32.1396   23.7412 O   0  0  0  0  0  0
  -29.4347  -18.1157   20.4169 C   0  0  0  0  0  0
  -31.2985  -17.3854   21.8009 C   0  0  0  0  0  0
  -29.7526  -19.4959   20.6533 C   0  0  0  0  0  0
  -30.2052  -17.0451   20.9743 C   0  0  0  0  0  0
  -31.6133  -18.7335   22.0610 C   0  0  0  0  0  0
  -30.8555  -19.7788   21.4943 C   0  0  0  0  0  0
  -29.0367  -20.6247   19.9085 C   0  0  0  0  0  0
  -28.4543  -23.0234   19.9930 C   0  0  0  0  0  0
  -28.6229  -26.1309   22.4203 C   0  0  0  0  0  0
  -27.9119  -24.1562   20.9239 C   0  0  0  0  0  0
  -28.6685  -25.5436   20.9966 C   0  0  1  0  0  0
  -29.8478  -15.6558   20.7741 N   0  0  0  0  0  0
  -28.8333  -21.8231   20.5354 N   0  0  0  0  0  0
  -28.6409  -20.3863   18.7615 O   0  0  0  0  0  0
  -28.4781  -23.2544   18.7793 O   0  0  0  0  0  0
  -32.6664  -19.0284   22.8601 F   0  0  0  0  0  0
  -31.2203  -21.0596   21.7489 F   0  0  0  0  0  0
  -31.4736  -12.4845   19.1312 H   0  0  0  0  0  0
  -30.3576  -11.3662   19.8690 H   0  0  0  0  0  0
  -29.7560  -11.7539   17.4581 H   0  0  0  0  0  0
  -29.6467  -13.4732   17.7410 H   0  0  0  0  0  0
  -27.8549  -11.2897   18.8530 H   0  0  0  0  0  0
  -27.3676  -12.5801   17.7881 H   0  0  0  0  0  0
  -27.6712  -14.2468   19.5203 H   0  0  0  0  0  0
  -28.6985  -12.0375   21.3728 H   0  0  0  0  0  0
  -28.4550  -13.6996   21.8348 H   0  0  0  0  0  0
  -25.2762   -9.5682   22.4762 H   0  0  0  0  0  0
  -24.0006   -7.4629   22.7473 H   0  0  0  0  0  0
  -21.0842   -8.8768   19.8951 H   0  0  0  0  0  0
  -22.3696  -10.9671   19.6168 H   0  0  0  0  0  0
  -21.2001   -7.6149   23.9720 H   0  0  0  0  0  0
  -21.1481   -6.0524   25.9080 H   0  0  0  0  0  0
  -22.0599   -2.7612   23.2845 H   0  0  0  0  0  0
  -22.4094  -11.9880   22.4793 H   0  0  0  0  0  0
  -21.1106  -13.1256   22.2618 H   0  0  0  0  0  0
  -24.6526  -15.8376   20.5060 H   0  0  0  0  0  0
  -26.2632  -15.6274   20.0470 H   0  0  0  0  0  0
  -26.7132  -32.5492   23.1113 H   0  0  0  0  0  0
  -25.0038  -33.9732   25.0428 H   0  0  0  0  0  0
  -22.7026  -31.3027   21.3989 H   0  0  0  0  0  0
  -23.3749  -35.9641   23.3283 H   0  0  0  0  0  0
  -24.3595  -36.8936   22.2059 H   0  0  0  0  0  0
  -23.7255  -37.6502   23.6666 H   0  0  0  0  0  0
  -26.0609  -31.5678   20.5895 H   0  0  0  0  0  0
  -26.8320  -30.8704   21.9846 H   0  0  0  0  0  0
  -28.1166  -29.0545   21.1655 H   0  0  0  0  0  0
  -26.0577  -25.9323   19.0301 H   0  0  0  0  0  0
  -23.9810  -27.2748   19.0477 H   0  0  0  0  0  0
  -23.7458  -30.5824   19.4029 H   0  0  0  0  0  0
  -22.7482  -29.2370   19.8623 H   0  0  0  0  0  0
  -25.1283  -36.1927   25.0832 H   0  0  0  0  0  0
  -20.9960  -28.3229   24.1436 H   0  0  0  0  0  0
  -20.5678  -26.2264   23.3600 H   0  0  0  0  0  0
  -21.6632  -26.7440   22.1208 H   0  0  0  0  0  0
  -19.6905  -25.6302   21.1236 H   0  0  0  0  0  0
  -19.6699  -27.3197   20.6754 H   0  0  0  0  0  0
  -17.4196  -26.6681   21.4030 H   0  0  0  0  0  0
  -18.0326  -26.0079   22.9025 H   0  0  0  0  0  0
  -19.7937  -30.7267   24.2258 H   0  0  0  0  0  0
  -17.5023  -31.6269   24.5165 H   0  0  0  0  0  0
  -15.5356  -30.2994   23.7658 H   0  0  0  0  0  0
  -15.8671  -28.0850   22.7024 H   0  0  0  0  0  0
  -24.5895  -30.7068   25.7789 H   0  0  0  0  0  0
  -24.8930  -32.2887   26.4879 H   0  0  0  0  0  0
  -25.8073  -30.8895   27.0215 H   0  0  0  0  0  0
  -26.2847  -29.6788   24.1131 H   0  0  0  0  0  0
  -27.4046  -29.7239   25.4555 H   0  0  0  0  0  0
  -27.8696  -30.4325   23.9262 H   0  0  0  0  0  0
  -27.2641  -33.3596   26.2073 H   0  0  0  0  0  0
  -28.3846  -32.6888   25.0308 H   0  0  0  0  0  0
  -28.0705  -31.8418   26.5385 H   0  0  0  0  0  0
  -28.2563  -38.0125   24.7529 H   0  0  0  0  0  0
  -28.1116  -36.2650   24.6235 H   0  0  0  0  0  0
  -27.2308  -37.1383   25.8861 H   0  0  0  0  0  0
  -20.9307  -29.8759   21.6933 H   0  0  0  0  0  0
  -26.0161  -38.2848   24.1442 H   0  0  0  0  0  0
  -28.6009  -17.8817   19.7696 H   0  0  0  0  0  0
  -31.9022  -16.6154   22.2583 H   0  0  0  0  0  0
  -29.0185  -25.4246   23.1511 H   0  0  0  0  0  0
  -27.6047  -26.3776   22.7236 H   0  0  0  0  0  0
  -29.2219  -27.0381   22.4930 H   0  0  0  0  0  0
  -27.8870  -23.7304   21.9270 H   0  0  0  0  0  0
  -26.8651  -24.3281   20.6761 H   0  0  0  0  0  0
  -29.7189  -25.3112   20.8147 H   0  0  0  0  0  0
  -28.8636  -15.4412   20.8149 H   0  0  0  0  0  0
  -28.9973  -21.8112   21.5296 H   0  0  0  0  0  0
  1 25  1  0  0  0
  1 30  2  0  0  0
  1 82  1  0  0  0
  2  3  1  0  0  0
  2 25  1  0  0  0
  2 88  1  0  0  0
  2 89  1  0  0  0
  3  4  1  0  0  0
  3 90  1  0  0  0
  3 91  1  0  0  0
  4  5  1  0  0  0
  4 92  1  0  0  0
  4 93  1  0  0  0
  5  6  1  0  0  0
  5 26  1  0  0  0
  5 94  1  0  0  0
  6 25  1  0  0  0
  6 95  1  0  0  0
  6 96  1  0  0  0
  7  8  2  0  0  0
  7 26  1  0  0  0
  7 29  1  0  0  0
  8  9  1  0  0  0
  8 22  1  0  0  0
  9 10  1  0  0  0
  9 27  2  0  0  0
 10 11  2  0  0  0
 10 15  1  0  0  0
 11 12  1  0  0  0
 11 97  1  0  0  0
 12 13  2  0  0  0
 12 98  1  0  0  0
 13 14  1  0  0  0
 13 31  1  0  0  0
 14 15  2  0  0  0
 14 99  1  0  0  0
 15100  1  0  0  0
 16 17  2  0  0  0
 16 21  1  0  0  0
 16 31  1  0  0  0
 17 18  1  0  0  0
 17101  1  0  0  0
 18 19  2  0  0  0
 18102  1  0  0  0
 19 20  1  0  0  0
 19 24  1  0  0  0
 20 21  2  0  0  0
 20103  1  0  0  0
 21 23  1  0  0  0
 22 28  1  0  0  0
 22 32  2  0  0  0
 26 27  1  0  0  0
 28104  1  0  0  0
 28105  1  0  0  0
 29106  1  0  0  0
 29107  1  0  0  0
 33 34  1  0  0  0
 33 66  1  0  0  0
 33 70  2  0  0  0
 34 36  1  0  0  0
 34 59  1  0  0  0
 34108  1  0  0  0
 35 44  2  0  0  0
 35 45  1  0  0  0
 35 68  1  0  0  0
 36 56  1  0  0  0
 36109  1  0  0  0
 37 39  1  0  0  0
 37 47  1  0  0  0
 37 66  1  0  0  0
 37110  1  0  0  0
 38 43  2  0  0  0
 38 46  1  0  0  0
 38 47  1  0  0  0
 39 64  1  0  0  0
 39 67  2  0  0  0
 40 52  1  0  0  0
 40 53  2  0  0  0
 40 58  1  0  0  0
 41111  1  0  0  0
 41112  1  0  0  0
 41113  1  0  0  0
 41 48  1  0  0  0
 42 43  1  0  0  0
 42 66  1  0  0  0
 42114  1  0  0  0
 42115  1  0  0  0
 43 44  1  0  0  0
 44116  1  0  0  0
 45 46  2  0  0  0
 45117  1  0  0  0
 46118  1  0  0  0
 47119  1  0  0  0
 47120  1  0  0  0
 48 56  1  0  0  0
 48 65  1  0  0  0
 48121  1  0  0  0
 49 50  1  0  0  0
 49 53  1  0  0  0
 49 64  1  0  0  0
 49122  1  0  0  0
 50 51  1  0  0  0
 50123  1  0  0  0
 50124  1  0  0  0
 51 52  1  0  0  0
 51125  1  0  0  0
 51126  1  0  0  0
 52127  1  0  0  0
 52128  1  0  0  0
 53 54  1  0  0  0
 54 55  2  0  0  0
 54129  1  0  0  0
 55 57  1  0  0  0
 55130  1  0  0  0
 56 69  2  0  0  0
 57 58  2  0  0  0
 57131  1  0  0  0
 58132  1  0  0  0
 59 60  1  0  0  0
 59 61  1  0  0  0
 59 62  1  0  0  0
 60133  1  0  0  0
 60134  1  0  0  0
 60135  1  0  0  0
 61136  1  0  0  0
 61137  1  0  0  0
 61138  1  0  0  0
 62139  1  0  0  0
 62140  1  0  0  0
 62141  1  0  0  0
 63 65  1  0  0  0
 63142  1  0  0  0
 63143  1  0  0  0
 63144  1  0  0  0
 64145  1  0  0  0
 65146  1  0  0  0
 68 81  1  0  0  0
 71 73  2  0  0  0
 71 74  1  0  0  0
 71147  1  0  0  0
 72 74  2  0  0  0
 72 75  1  0  0  0
 72148  1  0  0  0
 73 76  1  0  0  0
 73 77  1  0  0  0
 74 82  1  0  0  0
 75 76  2  0  0  0
 75 86  1  0  0  0
 76 87  1  0  0  0
 77 83  1  0  0  0
 77 84  2  0  0  0
 78 80  1  0  0  0
 78 83  1  0  0  0
 78 85  2  0  0  0
 79149  1  0  0  0
 79150  1  0  0  0
 79151  1  0  0  0
 79 81  1  0  0  0
 80 81  1  0  0  0
 80152  1  0  0  0
 80153  1  0  0  0
 81154  1  0  0  0
 82155  1  0  0  0
 83156  1  0  0  0
M  ISO  4   1 100  68 101  81 101  82 100
M  END
> <chiral flag>
0

> <version>
0

> <s_m_source_file>
/data/baiqing/PycharmProjects/Reinvent-master-3.2/result/LINK_invent/BTK/process_docking_weight1_custom_product_contain_oxygen_bond_distance_aromatic_linkinvent_7_9_3/rearranged_h_0170.sdf

> <i_m_source_file_index>
81

> <r_mmod_Potential_Energy-OPLS-2005>
-97.6175155639648

> <r_mmod_Stretch_Energy-OPLS-2005>
59.1614837646484

> <r_mmod_Bend_Energy-OPLS-2005>
129.601455688477

> <r_mmod_Torsional_Energy-OPLS-2005>
260.908264160156

> <r_mmod_Improper_Torsional_Energy-OPLS-2005>
6.96993064880371

> <r_mmod_Van_der_Waal_Energy-OPLS-2005>
144.614791870117

> <r_mmod_Electrostatic_Energy-OPLS-2005>
-465.391723632812

> <r_mmod_Solvation_Energy-OPLS-2005>
-262.590911865234

> <b_mmod_Minimization_Converged-OPLS-2005>
0

> <r_mmod_RMS_Derivative-OPLS-2005>
1.13840532302856

$$$$
82
                    3D
 Structure written by MMmdl.
154162  0  0  1  0            999 V2000
  -30.6213  -14.7714   20.4329 C   0  0  0  0  0  0
  -30.4454  -12.4643   19.4860 C   0  0  0  0  0  0
  -29.5274  -12.4937   18.2436 C   0  0  0  0  0  0
  -28.0495  -12.3336   18.6540 C   0  0  0  0  0  0
  -27.6479  -13.2385   19.8521 C   0  0  2  0  0  0
  -28.6939  -13.1911   20.9858 C   0  0  0  0  0  0
  -25.2539  -13.8206   20.5712 C   0  0  0  0  0  0
  -24.1814  -13.0460   20.9195 C   0  0  0  0  0  0
  -24.6421  -11.6933   20.8734 C   0  0  0  0  0  0
  -23.9084  -10.4301   21.0416 C   0  0  0  0  0  0
  -24.3621   -9.4210   21.9204 C   0  0  0  0  0  0
  -23.6269   -8.2266   22.0782 C   0  0  0  0  0  0
  -22.4262   -8.0288   21.3555 C   0  0  0  0  0  0
  -21.9894   -9.0275   20.4690 C   0  0  0  0  0  0
  -22.7246  -10.2141   20.3082 C   0  0  0  0  0  0
  -21.6842   -6.0719   22.5267 C   0  0  0  0  0  0
  -21.4023   -6.5624   23.8206 C   0  0  0  0  0  0
  -21.3660   -5.6780   24.9170 C   0  0  0  0  0  0
  -21.6042   -4.3041   24.7222 C   0  0  0  0  0  0
  -21.8820   -3.8126   23.4347 C   0  0  0  0  0  0
  -21.9184   -4.6942   22.3394 C   0  0  0  0  0  0
  -22.7835  -13.5257   21.1823 C   0  0  0  0  0  0
  -22.1653   -4.2135   21.0975 F   0  0  0  0  0  0
  -21.5620   -3.4522   25.7745 F   0  0  0  0  0  0
  -29.9898  -13.5441   20.3925 N   0  0  0  0  0  0
  -26.2977  -12.9438   20.3271 N   0  0  0  0  0  0
  -25.9354  -11.6571   20.5716 N   0  0  0  0  0  0
  -22.0424  -12.8289   22.0380 N   0  0  0  0  0  0
  -25.4214  -15.1961   20.4188 N   0  0  0  0  0  0
  -31.8199  -14.8305   20.1523 O   0  0  0  0  0  0
  -21.6623   -6.8875   21.4243 O   0  0  0  0  0  0
  -22.3539  -14.5535   20.6621 O   0  0  0  0  0  0
  -24.6302  -31.8584   23.1911 C   0  0  0  0  0  0
  -25.9117  -32.4789   23.8285 C   0  0  1  0  0  0
  -27.2373  -27.2723   20.1203 C   0  0  0  0  0  0
  -25.5905  -33.8580   24.2217 N   0  0  0  0  0  0
  -23.4294  -30.4737   21.5397 C   0  0  2  0  0  0
  -24.8778  -28.9068   20.1218 C   0  0  0  0  0  0
  -22.7494  -29.4633   22.4962 C   0  0  0  0  0  0
  -18.0278  -28.1416   22.8516 C   0  0  0  0  0  0
  -24.1477  -36.7279   23.2647 C   0  0  0  0  0  0
  -25.9738  -30.7709   21.3708 C   0  0  0  0  0  0
  -26.0509  -29.3891   20.7176 C   0  0  0  0  0  0
  -27.2369  -28.5865   20.6975 C   0  0  0  0  0  0
  -26.0400  -26.8446   19.5163 C   0  0  0  0  0  0
  -24.8758  -27.6405   19.5125 C   0  0  0  0  0  0
  -23.6455  -29.7907   20.1638 C   0  0  0  0  0  0
  -25.4119  -36.3094   24.0326 C   0  0  1  0  0  0
  -20.5891  -28.3720   23.1279 C   0  0  2  0  0  0
  -20.6762  -26.9450   22.5411 C   0  0  0  0  0  0
  -19.5726  -26.6422   21.5217 C   0  0  0  0  0  0
  -18.1911  -26.7975   22.1636 C   0  0  0  0  0  0
  -19.1541  -28.8891   23.2882 C   0  0  0  0  0  0
  -18.9468  -30.1489   23.8924 C   0  0  0  0  0  0
  -17.6481  -30.6625   24.0584 C   0  0  0  0  0  0
  -25.9068  -34.9470   23.5082 C   0  0  0  0  0  0
  -16.5368  -29.9131   23.6351 C   0  0  0  0  0  0
  -16.7272  -28.6526   23.0399 C   0  0  0  0  0  0
  -26.4483  -31.6632   25.0693 C   0  0  0  0  0  0
  -25.3680  -31.3821   26.1397 C   0  0  0  0  0  0
  -27.0345  -30.3046   24.6222 C   0  0  0  0  0  0
  -27.6029  -32.4392   25.7479 C   0  0  0  0  0  0
  -27.5584  -37.1784   24.8475 C   0  0  0  0  0  0
  -21.4211  -29.3069   22.3659 N   0  0  0  0  0  0
  -26.4291  -37.3790   23.9425 N   0  0  0  0  0  0
  -24.6964  -31.0526   22.0902 N   0  0  0  0  0  0
  -23.4175  -28.8204   23.3101 O   0  0  0  0  0  0
  -28.3570  -26.4158   20.0516 O   0  0  0  0  0  0
  -26.5655  -34.8955   22.4665 O   0  0  0  0  0  0
  -23.5434  -32.1419   23.7176 O   0  0  0  0  0  0
  -31.9204  -19.1265   20.8529 C   0  0  0  0  0  0
  -31.0085  -20.1641   20.5621 C   0  0  0  0  0  0
  -31.5358  -17.7695   20.8415 C   0  0  0  0  0  0
  -29.6675  -19.8828   20.2268 C   0  0  0  0  0  0
  -30.2153  -17.3762   20.5175 C   0  0  0  0  0  0
  -29.2917  -18.4672   20.2115 C   0  0  0  0  0  0
  -28.4459  -23.7414   19.8143 C   0  0  0  0  0  0
  -29.4550  -25.1115   21.7566 C   0  0  0  0  0  0
  -28.7255  -21.1056   19.7963 C   0  0  0  0  0  0
  -28.3262  -25.0724   20.7161 C   0  0  1  0  0  0
  -29.8440  -15.9258   20.5413 N   0  0  0  0  0  0
  -28.8901  -22.5311   20.3407 N   0  0  0  0  0  0
  -28.0545  -23.7984   18.6458 O   0  0  0  0  0  0
  -28.0214  -18.1387   19.8761 F   0  0  0  0  0  0
  -31.4859  -12.5867   19.1844 H   0  0  0  0  0  0
  -30.3973  -11.5002   19.9962 H   0  0  0  0  0  0
  -29.8159  -11.7030   17.5502 H   0  0  0  0  0  0
  -29.6644  -13.4330   17.7059 H   0  0  0  0  0  0
  -27.8976  -11.2842   18.9138 H   0  0  0  0  0  0
  -27.4050  -12.5315   17.7974 H   0  0  0  0  0  0
  -27.6372  -14.2588   19.4697 H   0  0  0  0  0  0
  -28.7392  -12.1990   21.4363 H   0  0  0  0  0  0
  -28.4270  -13.8808   21.7891 H   0  0  0  0  0  0
  -25.2771   -9.5650   22.4772 H   0  0  0  0  0  0
  -23.9953   -7.4648   22.7499 H   0  0  0  0  0  0
  -21.0807   -8.8820   19.8987 H   0  0  0  0  0  0
  -22.3727  -10.9685   19.6179 H   0  0  0  0  0  0
  -21.2047   -7.6138   23.9703 H   0  0  0  0  0  0
  -21.1473   -6.0519   25.9076 H   0  0  0  0  0  0
  -22.0601   -2.7587   23.2850 H   0  0  0  0  0  0
  -22.3989  -11.9995   22.4828 H   0  0  0  0  0  0
  -21.1067  -13.1405   22.2540 H   0  0  0  0  0  0
  -24.6572  -15.8473   20.5596 H   0  0  0  0  0  0
  -26.2574  -15.6378   20.0559 H   0  0  0  0  0  0
  -26.7207  -32.5468   23.1047 H   0  0  0  0  0  0
  -25.0035  -33.9710   25.0348 H   0  0  0  0  0  0
  -22.7229  -31.2902   21.3826 H   0  0  0  0  0  0
  -23.3771  -35.9578   23.3335 H   0  0  0  0  0  0
  -24.3548  -36.8881   22.2057 H   0  0  0  0  0  0
  -23.7168  -37.6461   23.6655 H   0  0  0  0  0  0
  -26.1095  -31.5299   20.5993 H   0  0  0  0  0  0
  -26.8483  -30.8236   22.0086 H   0  0  0  0  0  0
  -28.1486  -28.9622   21.1388 H   0  0  0  0  0  0
  -26.0109  -25.8768   19.0382 H   0  0  0  0  0  0
  -23.9780  -27.2629   19.0437 H   0  0  0  0  0  0
  -23.7550  -30.5532   19.3927 H   0  0  0  0  0  0
  -22.7685  -29.2105   19.8760 H   0  0  0  0  0  0
  -25.1283  -36.1976   25.0811 H   0  0  0  0  0  0
  -20.9950  -28.3339   24.1404 H   0  0  0  0  0  0
  -20.5664  -26.2360   23.3624 H   0  0  0  0  0  0
  -21.6624  -26.7479   22.1203 H   0  0  0  0  0  0
  -19.6871  -25.6324   21.1251 H   0  0  0  0  0  0
  -19.6654  -27.3232   20.6749 H   0  0  0  0  0  0
  -17.4163  -26.6750   21.4052 H   0  0  0  0  0  0
  -18.0296  -26.0105   22.9017 H   0  0  0  0  0  0
  -19.7959  -30.7273   24.2309 H   0  0  0  0  0  0
  -17.5051  -31.6307   24.5175 H   0  0  0  0  0  0
  -15.5366  -30.3035   23.7676 H   0  0  0  0  0  0
  -15.8663  -28.0818   22.7167 H   0  0  0  0  0  0
  -24.5819  -30.7222   25.7710 H   0  0  0  0  0  0
  -24.8908  -32.3020   26.4799 H   0  0  0  0  0  0
  -25.7938  -30.8991   27.0198 H   0  0  0  0  0  0
  -26.2950  -29.6794   24.1211 H   0  0  0  0  0  0
  -27.3981  -29.7325   25.4764 H   0  0  0  0  0  0
  -27.8833  -30.4325   23.9500 H   0  0  0  0  0  0
  -27.2627  -33.3701   26.2034 H   0  0  0  0  0  0
  -28.3846  -32.6953   25.0317 H   0  0  0  0  0  0
  -28.0699  -31.8547   26.5420 H   0  0  0  0  0  0
  -28.2609  -38.0079   24.7544 H   0  0  0  0  0  0
  -28.1059  -36.2604   24.6274 H   0  0  0  0  0  0
  -27.2299  -37.1418   25.8876 H   0  0  0  0  0  0
  -20.9394  -29.8764   21.6847 H   0  0  0  0  0  0
  -26.0200  -38.2871   24.1433 H   0  0  0  0  0  0
  -32.9453  -19.3751   21.0893 H   0  0  0  0  0  0
  -31.3628  -21.1839   20.5793 H   0  0  0  0  0  0
  -32.2898  -17.0384   21.0995 H   0  0  0  0  0  0
  -29.4560  -24.2201   22.3842 H   0  0  0  0  0  0
  -29.3498  -25.9693   22.4176 H   0  0  0  0  0  0
  -30.4337  -25.1795   21.2792 H   0  0  0  0  0  0
  -27.6946  -20.8080   19.9909 H   0  0  0  0  0  0
  -28.8014  -21.1716   18.7091 H   0  0  0  0  0  0
  -27.3799  -24.9834   21.2521 H   0  0  0  0  0  0
  -28.8528  -15.7596   20.6180 H   0  0  0  0  0  0
  -29.2538  -22.5893   21.2819 H   0  0  0  0  0  0
  1 25  1  0  0  0
  1 30  2  0  0  0
  1 81  1  0  0  0
  2  3  1  0  0  0
  2 25  1  0  0  0
  2 85  1  0  0  0
  2 86  1  0  0  0
  3  4  1  0  0  0
  3 87  1  0  0  0
  3 88  1  0  0  0
  4  5  1  0  0  0
  4 89  1  0  0  0
  4 90  1  0  0  0
  5  6  1  0  0  0
  5 26  1  0  0  0
  5 91  1  0  0  0
  6 25  1  0  0  0
  6 92  1  0  0  0
  6 93  1  0  0  0
  7  8  2  0  0  0
  7 26  1  0  0  0
  7 29  1  0  0  0
  8  9  1  0  0  0
  8 22  1  0  0  0
  9 10  1  0  0  0
  9 27  2  0  0  0
 10 11  2  0  0  0
 10 15  1  0  0  0
 11 12  1  0  0  0
 11 94  1  0  0  0
 12 13  2  0  0  0
 12 95  1  0  0  0
 13 14  1  0  0  0
 13 31  1  0  0  0
 14 15  2  0  0  0
 14 96  1  0  0  0
 15 97  1  0  0  0
 16 17  2  0  0  0
 16 21  1  0  0  0
 16 31  1  0  0  0
 17 18  1  0  0  0
 17 98  1  0  0  0
 18 19  2  0  0  0
 18 99  1  0  0  0
 19 20  1  0  0  0
 19 24  1  0  0  0
 20 21  2  0  0  0
 20100  1  0  0  0
 21 23  1  0  0  0
 22 28  1  0  0  0
 22 32  2  0  0  0
 26 27  1  0  0  0
 28101  1  0  0  0
 28102  1  0  0  0
 29103  1  0  0  0
 29104  1  0  0  0
 33 34  1  0  0  0
 33 66  1  0  0  0
 33 70  2  0  0  0
 34 36  1  0  0  0
 34 59  1  0  0  0
 34105  1  0  0  0
 35 44  2  0  0  0
 35 45  1  0  0  0
 35 68  1  0  0  0
 36 56  1  0  0  0
 36106  1  0  0  0
 37 39  1  0  0  0
 37 47  1  0  0  0
 37 66  1  0  0  0
 37107  1  0  0  0
 38 43  2  0  0  0
 38 46  1  0  0  0
 38 47  1  0  0  0
 39 64  1  0  0  0
 39 67  2  0  0  0
 40 52  1  0  0  0
 40 53  2  0  0  0
 40 58  1  0  0  0
 41108  1  0  0  0
 41109  1  0  0  0
 41110  1  0  0  0
 41 48  1  0  0  0
 42 43  1  0  0  0
 42 66  1  0  0  0
 42111  1  0  0  0
 42112  1  0  0  0
 43 44  1  0  0  0
 44113  1  0  0  0
 45 46  2  0  0  0
 45114  1  0  0  0
 46115  1  0  0  0
 47116  1  0  0  0
 47117  1  0  0  0
 48 56  1  0  0  0
 48 65  1  0  0  0
 48118  1  0  0  0
 49 50  1  0  0  0
 49 53  1  0  0  0
 49 64  1  0  0  0
 49119  1  0  0  0
 50 51  1  0  0  0
 50120  1  0  0  0
 50121  1  0  0  0
 51 52  1  0  0  0
 51122  1  0  0  0
 51123  1  0  0  0
 52124  1  0  0  0
 52125  1  0  0  0
 53 54  1  0  0  0
 54 55  2  0  0  0
 54126  1  0  0  0
 55 57  1  0  0  0
 55127  1  0  0  0
 56 69  2  0  0  0
 57 58  2  0  0  0
 57128  1  0  0  0
 58129  1  0  0  0
 59 60  1  0  0  0
 59 61  1  0  0  0
 59 62  1  0  0  0
 60130  1  0  0  0
 60131  1  0  0  0
 60132  1  0  0  0
 61133  1  0  0  0
 61134  1  0  0  0
 61135  1  0  0  0
 62136  1  0  0  0
 62137  1  0  0  0
 62138  1  0  0  0
 63 65  1  0  0  0
 63139  1  0  0  0
 63140  1  0  0  0
 63141  1  0  0  0
 64142  1  0  0  0
 65143  1  0  0  0
 68 80  1  0  0  0
 71 72  2  0  0  0
 71 73  1  0  0  0
 71144  1  0  0  0
 72 74  1  0  0  0
 72145  1  0  0  0
 73 75  2  0  0  0
 73146  1  0  0  0
 74 76  2  0  0  0
 74 79  1  0  0  0
 75 76  1  0  0  0
 75 81  1  0  0  0
 76 84  1  0  0  0
 77 80  1  0  0  0
 77 82  1  0  0  0
 77 83  2  0  0  0
 78147  1  0  0  0
 78148  1  0  0  0
 78149  1  0  0  0
 78 80  1  0  0  0
 79 82  1  0  0  0
 79150  1  0  0  0
 79151  1  0  0  0
 80152  1  0  0  0
 81153  1  0  0  0
 82154  1  0  0  0
M  ISO  4   1 100  68 101  80 101  81 100
M  END
> <chiral flag>
0

> <version>
0

> <s_m_source_file>
/data/baiqing/PycharmProjects/Reinvent-master-3.2/result/LINK_invent/BTK/process_docking_weight1_custom_product_contain_oxygen_bond_distance_aromatic_linkinvent_7_9_3/rearranged_h_0170.sdf

> <i_m_source_file_index>
82

> <r_mmod_Potential_Energy-OPLS-2005>
87.8238067626953

> <r_mmod_Stretch_Energy-OPLS-2005>
130.768844604492

> <r_mmod_Bend_Energy-OPLS-2005>
159.262817382812

> <r_mmod_Torsional_Energy-OPLS-2005>
246.278137207031

> <r_mmod_Improper_Torsional_Energy-OPLS-2005>
6.67749643325806

> <r_mmod_Van_der_Waal_Energy-OPLS-2005>
132.281234741211

> <r_mmod_Electrostatic_Energy-OPLS-2005>
-445.349334716797

> <r_mmod_Solvation_Energy-OPLS-2005>
-227.50276184082

> <b_mmod_Minimization_Converged-OPLS-2005>
0

> <r_mmod_RMS_Derivative-OPLS-2005>
4.65181970596313

$$$$
83
                    3D
 Structure written by MMmdl.
158166  0  0  1  0            999 V2000
  -30.6608  -14.5563   20.5326 C   0  0  0  0  0  0
  -30.4306  -12.3501   19.4314 C   0  0  0  0  0  0
  -29.4986  -12.4960   18.2099 C   0  0  0  0  0  0
  -28.0207  -12.3455   18.6247 C   0  0  0  0  0  0
  -27.6533  -13.2088   19.8616 C   0  0  2  0  0  0
  -28.6984  -13.0402   20.9866 C   0  0  0  0  0  0
  -25.2563  -13.8159   20.5666 C   0  0  0  0  0  0
  -24.1828  -13.0433   20.9188 C   0  0  0  0  0  0
  -24.6390  -11.6902   20.8746 C   0  0  0  0  0  0
  -23.9061  -10.4287   21.0415 C   0  0  0  0  0  0
  -24.3616   -9.4201   21.9190 C   0  0  0  0  0  0
  -23.6288   -8.2240   22.0759 C   0  0  0  0  0  0
  -22.4273   -8.0280   21.3544 C   0  0  0  0  0  0
  -21.9910   -9.0258   20.4649 C   0  0  0  0  0  0
  -22.7239  -10.2133   20.3058 C   0  0  0  0  0  0
  -21.6849   -6.0736   22.5278 C   0  0  0  0  0  0
  -21.4012   -6.5642   23.8213 C   0  0  0  0  0  0
  -21.3655   -5.6794   24.9176 C   0  0  0  0  0  0
  -21.6042   -4.3057   24.7226 C   0  0  0  0  0  0
  -21.8820   -3.8150   23.4346 C   0  0  0  0  0  0
  -21.9193   -4.6966   22.3402 C   0  0  0  0  0  0
  -22.7851  -13.5231   21.1850 C   0  0  0  0  0  0
  -22.1660   -4.2154   21.0978 F   0  0  0  0  0  0
  -21.5630   -3.4539   25.7738 F   0  0  0  0  0  0
  -30.0166  -13.3599   20.4192 N   0  0  0  0  0  0
  -26.2986  -12.9327   20.3311 N   0  0  0  0  0  0
  -25.9311  -11.6489   20.5758 N   0  0  0  0  0  0
  -22.0494  -12.8224   22.0409 N   0  0  0  0  0  0
  -25.4264  -15.1879   20.4053 N   0  0  0  0  0  0
  -31.8331  -14.7075   20.1762 O   0  0  0  0  0  0
  -21.6633   -6.8879   21.4241 O   0  0  0  0  0  0
  -22.3540  -14.5539   20.6699 O   0  0  0  0  0  0
  -24.6176  -31.8641   23.2055 C   0  0  0  0  0  0
  -25.9048  -32.4803   23.8365 C   0  0  1  0  0  0
  -27.2334  -27.3898   20.1168 C   0  0  0  0  0  0
  -25.5886  -33.8603   24.2293 N   0  0  0  0  0  0
  -23.4094  -30.4848   21.5467 C   0  0  2  0  0  0
  -24.8575  -28.9400   20.1202 C   0  0  0  0  0  0
  -22.7431  -29.4631   22.4969 C   0  0  0  0  0  0
  -18.0272  -28.1378   22.8487 C   0  0  0  0  0  0
  -24.1485  -36.7315   23.2641 C   0  0  0  0  0  0
  -25.9411  -30.8165   21.3649 C   0  0  0  0  0  0
  -26.0199  -29.4452   20.7179 C   0  0  0  0  0  0
  -27.2139  -28.6791   20.7089 C   0  0  0  0  0  0
  -26.0549  -26.9071   19.5129 C   0  0  0  0  0  0
  -24.8715  -27.6717   19.5135 C   0  0  0  0  0  0
  -23.6215  -29.8125   20.1639 C   0  0  0  0  0  0
  -25.4106  -36.3102   24.0333 C   0  0  1  0  0  0
  -20.5866  -28.3666   23.1299 C   0  0  2  0  0  0
  -20.6762  -26.9396   22.5415 C   0  0  0  0  0  0
  -19.5741  -26.6379   21.5215 C   0  0  0  0  0  0
  -18.1915  -26.7922   22.1622 C   0  0  0  0  0  0
  -19.1526  -28.8839   23.2885 C   0  0  0  0  0  0
  -18.9457  -30.1443   23.8898 C   0  0  0  0  0  0
  -17.6464  -30.6588   24.0561 C   0  0  0  0  0  0
  -25.9032  -34.9468   23.5114 C   0  0  0  0  0  0
  -16.5352  -29.9087   23.6333 C   0  0  0  0  0  0
  -16.7264  -28.6500   23.0356 C   0  0  0  0  0  0
  -26.4466  -31.6599   25.0713 C   0  0  0  0  0  0
  -25.3715  -31.3722   26.1451 C   0  0  0  0  0  0
  -27.0303  -30.3035   24.6116 C   0  0  0  0  0  0
  -27.6026  -32.4329   25.7486 C   0  0  0  0  0  0
  -27.5578  -37.1804   24.8464 C   0  0  0  0  0  0
  -21.4154  -29.3030   22.3705 N   0  0  0  0  0  0
  -26.4292  -37.3786   23.9407 N   0  0  0  0  0  0
  -24.6744  -31.0704   22.0975 N   0  0  0  0  0  0
  -23.4182  -28.8182   23.3035 O   0  0  0  0  0  0
  -28.3833  -26.6211   20.0661 O   0  0  0  0  0  0
  -26.5618  -34.8930   22.4687 O   0  0  0  0  0  0
  -23.5356  -32.1412   23.7421 O   0  0  0  0  0  0
  -31.2136  -17.2742   22.0562 C   0  0  0  0  0  0
  -31.5752  -18.6063   22.3369 C   0  0  0  0  0  0
  -29.6396  -18.0813   20.3768 C   0  0  0  0  0  0
  -30.0273  -19.4359   20.6295 C   0  0  0  0  0  0
  -30.2517  -16.9869   21.0638 C   0  0  0  0  0  0
  -31.0017  -19.6753   21.6213 C   0  0  0  0  0  0
  -28.3775  -24.0840   20.2954 C   0  0  0  0  0  0
  -28.8057  -22.8037   22.4924 C   0  0  0  0  0  0
  -29.5478  -20.6170   19.7459 C   0  0  0  0  0  0
  -28.4607  -25.4896   20.9763 C   0  0  0  0  0  0
  -29.0780  -22.8508   20.9752 C   0  0  1  0  0  0
  -29.8657  -15.6215   20.8211 N   0  0  0  0  0  0
  -28.5739  -21.6060   20.3101 N   0  3  0  0  0  0
  -27.7614  -23.9502   19.2320 O   0  0  0  0  0  0
  -31.4114  -20.9411   21.8720 F   0  0  0  0  0  0
  -31.4726  -12.4679   19.1280 H   0  0  0  0  0  0
  -30.3542  -11.3499   19.8607 H   0  0  0  0  0  0
  -29.7508  -11.7525   17.4527 H   0  0  0  0  0  0
  -29.6504  -13.4707   17.7433 H   0  0  0  0  0  0
  -27.8462  -11.2919   18.8456 H   0  0  0  0  0  0
  -27.3675  -12.5908   17.7867 H   0  0  0  0  0  0
  -27.6781  -14.2466   19.5295 H   0  0  0  0  0  0
  -28.6958  -12.0165   21.3629 H   0  0  0  0  0  0
  -28.4599  -13.6727   21.8431 H   0  0  0  0  0  0
  -25.2764   -9.5676   22.4763 H   0  0  0  0  0  0
  -23.9998   -7.4631   22.7475 H   0  0  0  0  0  0
  -21.0843   -8.8776   19.8953 H   0  0  0  0  0  0
  -22.3702  -10.9674   19.6167 H   0  0  0  0  0  0
  -21.2000   -7.6151   23.9718 H   0  0  0  0  0  0
  -21.1476   -6.0523   25.9076 H   0  0  0  0  0  0
  -22.0604   -2.7612   23.2844 H   0  0  0  0  0  0
  -22.4104  -11.9875   22.4788 H   0  0  0  0  0  0
  -21.1116  -13.1256   22.2625 H   0  0  0  0  0  0
  -24.6549  -15.8381   20.5084 H   0  0  0  0  0  0
  -26.2660  -15.6276   20.0517 H   0  0  0  0  0  0
  -26.7117  -32.5516   23.1125 H   0  0  0  0  0  0
  -25.0000  -33.9754   25.0415 H   0  0  0  0  0  0
  -22.7000  -31.3027   21.4031 H   0  0  0  0  0  0
  -23.3740  -35.9654   23.3312 H   0  0  0  0  0  0
  -24.3567  -36.8929   22.2051 H   0  0  0  0  0  0
  -23.7249  -37.6521   23.6661 H   0  0  0  0  0  0
  -26.0545  -31.5777   20.5916 H   0  0  0  0  0  0
  -26.8278  -30.8743   21.9847 H   0  0  0  0  0  0
  -28.1146  -29.0677   21.1630 H   0  0  0  0  0  0
  -26.0517  -25.9386   19.0338 H   0  0  0  0  0  0
  -23.9791  -27.2784   19.0454 H   0  0  0  0  0  0
  -23.7337  -30.5853   19.4021 H   0  0  0  0  0  0
  -22.7452  -29.2320   19.8688 H   0  0  0  0  0  0
  -25.1282  -36.1959   25.0825 H   0  0  0  0  0  0
  -20.9947  -28.3246   24.1428 H   0  0  0  0  0  0
  -20.5675  -26.2273   23.3605 H   0  0  0  0  0  0
  -21.6627  -26.7442   22.1199 H   0  0  0  0  0  0
  -19.6904  -25.6291   21.1240 H   0  0  0  0  0  0
  -19.6691  -27.3193   20.6746 H   0  0  0  0  0  0
  -17.4186  -26.6672   21.4022 H   0  0  0  0  0  0
  -18.0307  -26.0065   22.9020 H   0  0  0  0  0  0
  -19.7945  -30.7243   24.2276 H   0  0  0  0  0  0
  -17.5031  -31.6274   24.5150 H   0  0  0  0  0  0
  -15.5352  -30.2994   23.7665 H   0  0  0  0  0  0
  -15.8657  -28.0824   22.7080 H   0  0  0  0  0  0
  -24.5874  -30.7088   25.7780 H   0  0  0  0  0  0
  -24.8921  -32.2887   26.4902 H   0  0  0  0  0  0
  -25.8041  -30.8878   27.0214 H   0  0  0  0  0  0
  -26.2854  -29.6777   24.1183 H   0  0  0  0  0  0
  -27.4072  -29.7290   25.4588 H   0  0  0  0  0  0
  -27.8692  -30.4340   23.9270 H   0  0  0  0  0  0
  -27.2627  -33.3619   26.2080 H   0  0  0  0  0  0
  -28.3830  -32.6907   25.0313 H   0  0  0  0  0  0
  -28.0699  -31.8447   26.5392 H   0  0  0  0  0  0
  -28.2591  -38.0104   24.7504 H   0  0  0  0  0  0
  -28.1075  -36.2630   24.6297 H   0  0  0  0  0  0
  -27.2291  -37.1464   25.8867 H   0  0  0  0  0  0
  -20.9320  -29.8747   21.6916 H   0  0  0  0  0  0
  -26.0182  -38.2864   24.1414 H   0  0  0  0  0  0
  -31.6770  -16.4754   22.6183 H   0  0  0  0  0  0
  -32.3168  -18.8120   23.0949 H   0  0  0  0  0  0
  -28.9064  -17.8763   19.6087 H   0  0  0  0  0  0
  -29.2857  -23.6365   23.0075 H   0  0  0  0  0  0
  -29.2017  -21.8908   22.9384 H   0  0  0  0  0  0
  -27.7390  -22.8432   22.7179 H   0  0  0  0  0  0
  -29.0690  -20.1825   18.8684 H   0  0  0  0  0  0
  -30.4197  -21.1441   19.3557 H   0  0  0  0  0  0
  -29.4091  -25.5564   21.5095 H   0  0  0  0  0  0
  -27.6765  -25.5595   21.7309 H   0  0  0  0  0  0
  -30.1514  -22.9358   20.8052 H   0  0  0  0  0  0
  -28.8789  -15.4200   20.8680 H   0  0  0  0  0  0
  -27.8757  -21.1455   20.8680 H   0  0  0  0  0  0
  -28.0878  -21.9949   19.5115 H   0  0  0  0  0  0
  1 25  1  0  0  0
  1 30  2  0  0  0
  1 82  1  0  0  0
  2  3  1  0  0  0
  2 25  1  0  0  0
  2 86  1  0  0  0
  2 87  1  0  0  0
  3  4  1  0  0  0
  3 88  1  0  0  0
  3 89  1  0  0  0
  4  5  1  0  0  0
  4 90  1  0  0  0
  4 91  1  0  0  0
  5  6  1  0  0  0
  5 26  1  0  0  0
  5 92  1  0  0  0
  6 25  1  0  0  0
  6 93  1  0  0  0
  6 94  1  0  0  0
  7  8  2  0  0  0
  7 26  1  0  0  0
  7 29  1  0  0  0
  8  9  1  0  0  0
  8 22  1  0  0  0
  9 10  1  0  0  0
  9 27  2  0  0  0
 10 11  2  0  0  0
 10 15  1  0  0  0
 11 12  1  0  0  0
 11 95  1  0  0  0
 12 13  2  0  0  0
 12 96  1  0  0  0
 13 14  1  0  0  0
 13 31  1  0  0  0
 14 15  2  0  0  0
 14 97  1  0  0  0
 15 98  1  0  0  0
 16 17  2  0  0  0
 16 21  1  0  0  0
 16 31  1  0  0  0
 17 18  1  0  0  0
 17 99  1  0  0  0
 18 19  2  0  0  0
 18100  1  0  0  0
 19 20  1  0  0  0
 19 24  1  0  0  0
 20 21  2  0  0  0
 20101  1  0  0  0
 21 23  1  0  0  0
 22 28  1  0  0  0
 22 32  2  0  0  0
 26 27  1  0  0  0
 28102  1  0  0  0
 28103  1  0  0  0
 29104  1  0  0  0
 29105  1  0  0  0
 33 34  1  0  0  0
 33 66  1  0  0  0
 33 70  2  0  0  0
 34 36  1  0  0  0
 34 59  1  0  0  0
 34106  1  0  0  0
 35 44  2  0  0  0
 35 45  1  0  0  0
 35 68  1  0  0  0
 36 56  1  0  0  0
 36107  1  0  0  0
 37 39  1  0  0  0
 37 47  1  0  0  0
 37 66  1  0  0  0
 37108  1  0  0  0
 38 43  2  0  0  0
 38 46  1  0  0  0
 38 47  1  0  0  0
 39 64  1  0  0  0
 39 67  2  0  0  0
 40 52  1  0  0  0
 40 53  2  0  0  0
 40 58  1  0  0  0
 41109  1  0  0  0
 41110  1  0  0  0
 41111  1  0  0  0
 41 48  1  0  0  0
 42 43  1  0  0  0
 42 66  1  0  0  0
 42112  1  0  0  0
 42113  1  0  0  0
 43 44  1  0  0  0
 44114  1  0  0  0
 45 46  2  0  0  0
 45115  1  0  0  0
 46116  1  0  0  0
 47117  1  0  0  0
 47118  1  0  0  0
 48 56  1  0  0  0
 48 65  1  0  0  0
 48119  1  0  0  0
 49 50  1  0  0  0
 49 53  1  0  0  0
 49 64  1  0  0  0
 49120  1  0  0  0
 50 51  1  0  0  0
 50121  1  0  0  0
 50122  1  0  0  0
 51 52  1  0  0  0
 51123  1  0  0  0
 51124  1  0  0  0
 52125  1  0  0  0
 52126  1  0  0  0
 53 54  1  0  0  0
 54 55  2  0  0  0
 54127  1  0  0  0
 55 57  1  0  0  0
 55128  1  0  0  0
 56 69  2  0  0  0
 57 58  2  0  0  0
 57129  1  0  0  0
 58130  1  0  0  0
 59 60  1  0  0  0
 59 61  1  0  0  0
 59 62  1  0  0  0
 60131  1  0  0  0
 60132  1  0  0  0
 60133  1  0  0  0
 61134  1  0  0  0
 61135  1  0  0  0
 61136  1  0  0  0
 62137  1  0  0  0
 62138  1  0  0  0
 62139  1  0  0  0
 63 65  1  0  0  0
 63140  1  0  0  0
 63141  1  0  0  0
 63142  1  0  0  0
 64143  1  0  0  0
 65144  1  0  0  0
 68 80  1  0  0  0
 71 72  2  0  0  0
 71 75  1  0  0  0
 71145  1  0  0  0
 72 76  1  0  0  0
 72146  1  0  0  0
 73 74  1  0  0  0
 73 75  2  0  0  0
 73147  1  0  0  0
 74 76  2  0  0  0
 74 79  1  0  0  0
 75 82  1  0  0  0
 76 85  1  0  0  0
 77 80  1  0  0  0
 77 81  1  0  0  0
 77 84  2  0  0  0
 78148  1  0  0  0
 78149  1  0  0  0
 78150  1  0  0  0
 78 81  1  0  0  0
 79 83  1  0  0  0
 79151  1  0  0  0
 79152  1  0  0  0
 80153  1  0  0  0
 80154  1  0  0  0
 81 83  1  0  0  0
 81155  1  0  0  0
 82156  1  0  0  0
 83157  1  0  0  0
 83158  1  0  0  0
M  CHG  1  83   1
M  ISO  4   1 100  68 101  80 101  82 100
M  END
> <chiral flag>
0

> <version>
0

> <s_m_source_file>
/data/baiqing/PycharmProjects/Reinvent-master-3.2/result/LINK_invent/BTK/process_docking_weight1_custom_product_contain_oxygen_bond_distance_aromatic_linkinvent_7_9_3/rearranged_h_0170.sdf

> <i_m_source_file_index>
83

> <r_mmod_Potential_Energy-OPLS-2005>
-278.234039306641

> <r_mmod_Stretch_Energy-OPLS-2005>
51.326530456543

> <r_mmod_Bend_Energy-OPLS-2005>
110.640563964844

> <r_mmod_Torsional_Energy-OPLS-2005>
266.700408935547

> <r_mmod_Improper_Torsional_Energy-OPLS-2005>
6.41682767868042

> <r_mmod_Van_der_Waal_Energy-OPLS-2005>
138.101669311523

> <r_mmod_Electrostatic_Energy-OPLS-2005>
-399.656280517578

> <r_mmod_Solvation_Energy-OPLS-2005>
-476.226531982422

> <b_mmod_Minimization_Converged-OPLS-2005>
0

> <r_mmod_RMS_Derivative-OPLS-2005>
1.05829572677612

$$$$
84
                    3D
 Structure written by MMmdl.
150158  0  0  1  0            999 V2000
  -30.5904  -14.8018   20.4190 C   0  0  0  0  0  0
  -30.4294  -12.4828   19.4935 C   0  0  0  0  0  0
  -29.5133  -12.5065   18.2495 C   0  0  0  0  0  0
  -28.0413  -12.3215   18.6610 C   0  0  0  0  0  0
  -27.6363  -13.2360   19.8467 C   0  0  2  0  0  0
  -28.6774  -13.2035   20.9867 C   0  0  0  0  0  0
  -25.2485  -13.8208   20.5701 C   0  0  0  0  0  0
  -24.1777  -13.0445   20.9208 C   0  0  0  0  0  0
  -24.6373  -11.6924   20.8750 C   0  0  0  0  0  0
  -23.9052  -10.4292   21.0409 C   0  0  0  0  0  0
  -24.3613   -9.4211   21.9187 C   0  0  0  0  0  0
  -23.6292   -8.2246   22.0757 C   0  0  0  0  0  0
  -22.4275   -8.0279   21.3542 C   0  0  0  0  0  0
  -21.9904   -9.0248   20.4649 C   0  0  0  0  0  0
  -22.7223  -10.2131   20.3055 C   0  0  0  0  0  0
  -21.6861   -6.0734   22.5278 C   0  0  0  0  0  0
  -21.4012   -6.5639   23.8206 C   0  0  0  0  0  0
  -21.3661   -5.6796   24.9173 C   0  0  0  0  0  0
  -21.6037   -4.3056   24.7226 C   0  0  0  0  0  0
  -21.8818   -3.8143   23.4349 C   0  0  0  0  0  0
  -21.9190   -4.6959   22.3403 C   0  0  0  0  0  0
  -22.7800  -13.5219   21.1873 C   0  0  0  0  0  0
  -22.1662   -4.2146   21.0982 F   0  0  0  0  0  0
  -21.5632   -3.4539   25.7742 F   0  0  0  0  0  0
  -29.9761  -13.5638   20.4057 N   0  0  0  0  0  0
  -26.2900  -12.9417   20.3263 N   0  0  0  0  0  0
  -25.9302  -11.6561   20.5755 N   0  0  0  0  0  0
  -22.0449  -12.8210   22.0444 N   0  0  0  0  0  0
  -25.4169  -15.1935   20.4118 N   0  0  0  0  0  0
  -31.7854  -14.8699   20.1150 O   0  0  0  0  0  0
  -21.6638   -6.8878   21.4239 O   0  0  0  0  0  0
  -22.3477  -14.5520   20.6722 O   0  0  0  0  0  0
  -24.6336  -31.8513   23.1934 C   0  0  0  0  0  0
  -25.9151  -32.4725   23.8298 C   0  0  1  0  0  0
  -27.2203  -27.2278   20.1228 C   0  0  0  0  0  0
  -25.5930  -33.8532   24.2223 N   0  0  0  0  0  0
  -23.4330  -30.4726   21.5370 C   0  0  2  0  0  0
  -24.8797  -28.9118   20.1046 C   0  0  0  0  0  0
  -22.7529  -29.4582   22.4878 C   0  0  0  0  0  0
  -18.0299  -28.1399   22.8478 C   0  0  0  0  0  0
  -24.1488  -36.7275   23.2642 C   0  0  0  0  0  0
  -25.9814  -30.7511   21.3796 C   0  0  0  0  0  0
  -26.0514  -29.3718   20.7179 C   0  0  0  0  0  0
  -27.2203  -28.5401   20.7178 C   0  0  0  0  0  0
  -26.0224  -26.8407   19.4831 C   0  0  0  0  0  0
  -24.8709  -27.6559   19.4782 C   0  0  0  0  0  0
  -23.6539  -29.8045   20.1540 C   0  0  0  0  0  0
  -25.4117  -36.3049   24.0318 C   0  0  1  0  0  0
  -20.5906  -28.3715   23.1249 C   0  0  2  0  0  0
  -20.6785  -26.9422   22.5409 C   0  0  0  0  0  0
  -19.5755  -26.6383   21.5221 C   0  0  0  0  0  0
  -18.1939  -26.7938   22.1628 C   0  0  0  0  0  0
  -19.1555  -28.8875   23.2857 C   0  0  0  0  0  0
  -18.9471  -30.1476   23.8874 C   0  0  0  0  0  0
  -17.6474  -30.6592   24.0572 C   0  0  0  0  0  0
  -25.9055  -34.9425   23.5076 C   0  0  0  0  0  0
  -16.5364  -29.9093   23.6328 C   0  0  0  0  0  0
  -16.7289  -28.6514   23.0345 C   0  0  0  0  0  0
  -26.4511  -31.6573   25.0715 C   0  0  0  0  0  0
  -25.3729  -31.3764   26.1440 C   0  0  0  0  0  0
  -27.0372  -30.2965   24.6267 C   0  0  0  0  0  0
  -27.6044  -32.4343   25.7500 C   0  0  0  0  0  0
  -27.5568  -37.1794   24.8468 C   0  0  0  0  0  0
  -21.4232  -29.3046   22.3632 N   0  0  0  0  0  0
  -26.4288  -37.3751   23.9402 N   0  0  0  0  0  0
  -24.7018  -31.0446   22.0923 N   0  0  0  0  0  0
  -23.4217  -28.8128   23.2998 O   0  0  0  0  0  0
  -28.3037  -26.3133   20.2259 O   0  0  0  0  0  0
  -26.5643  -34.8917   22.4655 O   0  0  0  0  0  0
  -23.5475  -32.1356   23.7199 O   0  0  0  0  0  0
  -29.3879  -18.6067   20.5267 C   0  0  0  0  0  0
  -30.2924  -19.8983   18.6751 C   0  0  0  0  0  0
  -30.7363  -17.4852   18.8409 C   0  0  0  0  0  0
  -29.5245  -19.9161   19.8631 C   0  0  0  0  0  0
  -29.9874  -17.3525   20.0341 C   0  0  0  0  0  0
  -30.8833  -18.7201   18.1799 C   0  0  0  0  0  0
  -28.2903  -24.9706   19.7103 C   0  0  0  0  0  0
  -28.6338  -23.7696   20.3436 C   0  0  0  0  0  0
  -28.7126  -22.4230   19.6306 C   0  0  0  0  0  0
  -29.0302  -21.2582   20.3473 N   0  0  0  0  0  0
  -29.8277  -15.9656   20.6077 N   0  0  0  0  0  0
  -28.4825  -22.3386   18.4221 O   0  0  0  0  0  0
  -28.9419  -23.8018   21.6466 O   0  0  0  0  0  0
  -31.6123  -18.7757   17.0401 F   0  0  0  0  0  0
  -31.4713  -12.6029   19.1930 H   0  0  0  0  0  0
  -30.3765  -11.5155   19.9954 H   0  0  0  0  0  0
  -29.8091  -11.7253   17.5482 H   0  0  0  0  0  0
  -29.6306  -13.4537   17.7208 H   0  0  0  0  0  0
  -27.9103  -11.2764   18.9419 H   0  0  0  0  0  0
  -27.3822  -12.4907   17.8082 H   0  0  0  0  0  0
  -27.6220  -14.2502   19.4464 H   0  0  0  0  0  0
  -28.7223  -12.2151   21.4471 H   0  0  0  0  0  0
  -28.3989  -13.9000   21.7792 H   0  0  0  0  0  0
  -25.2758   -9.5697   22.4757 H   0  0  0  0  0  0
  -24.0005   -7.4639   22.7476 H   0  0  0  0  0  0
  -21.0843   -8.8751   19.8960 H   0  0  0  0  0  0
  -22.3669  -10.9667   19.6162 H   0  0  0  0  0  0
  -21.2001   -7.6146   23.9711 H   0  0  0  0  0  0
  -21.1489   -6.0527   25.9078 H   0  0  0  0  0  0
  -22.0595   -2.7604   23.2847 H   0  0  0  0  0  0
  -22.4078  -11.9870   22.4825 H   0  0  0  0  0  0
  -21.1061  -13.1227   22.2652 H   0  0  0  0  0  0
  -24.6478  -15.8458   20.5185 H   0  0  0  0  0  0
  -26.2613  -15.6335   20.0688 H   0  0  0  0  0  0
  -26.7234  -32.5347   23.1046 H   0  0  0  0  0  0
  -25.0067  -33.9670   25.0356 H   0  0  0  0  0  0
  -22.7305  -31.2949   21.3874 H   0  0  0  0  0  0
  -23.3739  -35.9619   23.3321 H   0  0  0  0  0  0
  -24.3559  -36.8883   22.2051 H   0  0  0  0  0  0
  -23.7274  -37.6493   23.6667 H   0  0  0  0  0  0
  -26.1298  -31.5110   20.6116 H   0  0  0  0  0  0
  -26.8561  -30.7953   22.0175 H   0  0  0  0  0  0
  -28.1143  -28.8815   21.2201 H   0  0  0  0  0  0
  -25.9423  -25.8723   19.0117 H   0  0  0  0  0  0
  -23.9702  -27.2965   19.0000 H   0  0  0  0  0  0
  -23.7845  -30.5798   19.3995 H   0  0  0  0  0  0
  -22.7711  -29.2430   19.8449 H   0  0  0  0  0  0
  -25.1305  -36.1878   25.0812 H   0  0  0  0  0  0
  -20.9998  -28.3302   24.1370 H   0  0  0  0  0  0
  -20.5676  -26.2330   23.3636 H   0  0  0  0  0  0
  -21.6653  -26.7433   22.1202 H   0  0  0  0  0  0
  -19.6911  -25.6294   21.1248 H   0  0  0  0  0  0
  -19.6679  -27.3194   20.6758 H   0  0  0  0  0  0
  -17.4206  -26.6692   21.4031 H   0  0  0  0  0  0
  -18.0314  -26.0096   22.9030 H   0  0  0  0  0  0
  -19.7953  -30.7304   24.2209 H   0  0  0  0  0  0
  -17.5028  -31.6254   24.5209 H   0  0  0  0  0  0
  -15.5360  -30.2996   23.7660 H   0  0  0  0  0  0
  -15.8693  -28.0841   22.7053 H   0  0  0  0  0  0
  -24.5894  -30.7111   25.7796 H   0  0  0  0  0  0
  -24.8936  -32.2955   26.4821 H   0  0  0  0  0  0
  -25.8023  -30.8985   27.0252 H   0  0  0  0  0  0
  -26.2979  -29.6697   24.1265 H   0  0  0  0  0  0
  -27.3999  -29.7243   25.4824 H   0  0  0  0  0  0
  -27.8879  -30.4213   23.9566 H   0  0  0  0  0  0
  -27.2624  -33.3648   26.2052 H   0  0  0  0  0  0
  -28.3871  -32.6901   25.0346 H   0  0  0  0  0  0
  -28.0717  -31.8506   26.5450 H   0  0  0  0  0  0
  -28.2603  -38.0070   24.7460 H   0  0  0  0  0  0
  -28.1047  -36.2592   24.6352 H   0  0  0  0  0  0
  -27.2279  -37.1515   25.8873 H   0  0  0  0  0  0
  -20.9426  -29.8785   21.6843 H   0  0  0  0  0  0
  -26.0155  -38.2821   24.1380 H   0  0  0  0  0  0
  -28.8090  -18.5656   21.4391 H   0  0  0  0  0  0
  -30.4709  -20.8086   18.1217 H   0  0  0  0  0  0
  -31.2021  -16.6255   18.3817 H   0  0  0  0  0  0
  -28.0174  -24.9774   18.6644 H   0  0  0  0  0  0
  -29.0035  -21.3847   21.3503 H   0  0  0  0  0  0
  -28.9424  -15.7963   21.0613 H   0  0  0  0  0  0
  -28.8605  -24.7058   21.9236 H   0  0  0  0  0  0
  1 25  1  0  0  0
  1 30  2  0  0  0
  1 81  1  0  0  0
  2  3  1  0  0  0
  2 25  1  0  0  0
  2 85  1  0  0  0
  2 86  1  0  0  0
  3  4  1  0  0  0
  3 87  1  0  0  0
  3 88  1  0  0  0
  4  5  1  0  0  0
  4 89  1  0  0  0
  4 90  1  0  0  0
  5  6  1  0  0  0
  5 26  1  0  0  0
  5 91  1  0  0  0
  6 25  1  0  0  0
  6 92  1  0  0  0
  6 93  1  0  0  0
  7  8  2  0  0  0
  7 26  1  0  0  0
  7 29  1  0  0  0
  8  9  1  0  0  0
  8 22  1  0  0  0
  9 10  1  0  0  0
  9 27  2  0  0  0
 10 11  2  0  0  0
 10 15  1  0  0  0
 11 12  1  0  0  0
 11 94  1  0  0  0
 12 13  2  0  0  0
 12 95  1  0  0  0
 13 14  1  0  0  0
 13 31  1  0  0  0
 14 15  2  0  0  0
 14 96  1  0  0  0
 15 97  1  0  0  0
 16 17  2  0  0  0
 16 21  1  0  0  0
 16 31  1  0  0  0
 17 18  1  0  0  0
 17 98  1  0  0  0
 18 19  2  0  0  0
 18 99  1  0  0  0
 19 20  1  0  0  0
 19 24  1  0  0  0
 20 21  2  0  0  0
 20100  1  0  0  0
 21 23  1  0  0  0
 22 28  1  0  0  0
 22 32  2  0  0  0
 26 27  1  0  0  0
 28101  1  0  0  0
 28102  1  0  0  0
 29103  1  0  0  0
 29104  1  0  0  0
 33 34  1  0  0  0
 33 66  1  0  0  0
 33 70  2  0  0  0
 34 36  1  0  0  0
 34 59  1  0  0  0
 34105  1  0  0  0
 35 44  2  0  0  0
 35 45  1  0  0  0
 35 68  1  0  0  0
 36 56  1  0  0  0
 36106  1  0  0  0
 37 39  1  0  0  0
 37 47  1  0  0  0
 37 66  1  0  0  0
 37107  1  0  0  0
 38 43  2  0  0  0
 38 46  1  0  0  0
 38 47  1  0  0  0
 39 64  1  0  0  0
 39 67  2  0  0  0
 40 52  1  0  0  0
 40 53  2  0  0  0
 40 58  1  0  0  0
 41108  1  0  0  0
 41109  1  0  0  0
 41110  1  0  0  0
 41 48  1  0  0  0
 42 43  1  0  0  0
 42 66  1  0  0  0
 42111  1  0  0  0
 42112  1  0  0  0
 43 44  1  0  0  0
 44113  1  0  0  0
 45 46  2  0  0  0
 45114  1  0  0  0
 46115  1  0  0  0
 47116  1  0  0  0
 47117  1  0  0  0
 48 56  1  0  0  0
 48 65  1  0  0  0
 48118  1  0  0  0
 49 50  1  0  0  0
 49 53  1  0  0  0
 49 64  1  0  0  0
 49119  1  0  0  0
 50 51  1  0  0  0
 50120  1  0  0  0
 50121  1  0  0  0
 51 52  1  0  0  0
 51122  1  0  0  0
 51123  1  0  0  0
 52124  1  0  0  0
 52125  1  0  0  0
 53 54  1  0  0  0
 54 55  2  0  0  0
 54126  1  0  0  0
 55 57  1  0  0  0
 55127  1  0  0  0
 56 69  2  0  0  0
 57 58  2  0  0  0
 57128  1  0  0  0
 58129  1  0  0  0
 59 60  1  0  0  0
 59 61  1  0  0  0
 59 62  1  0  0  0
 60130  1  0  0  0
 60131  1  0  0  0
 60132  1  0  0  0
 61133  1  0  0  0
 61134  1  0  0  0
 61135  1  0  0  0
 62136  1  0  0  0
 62137  1  0  0  0
 62138  1  0  0  0
 63 65  1  0  0  0
 63139  1  0  0  0
 63140  1  0  0  0
 63141  1  0  0  0
 64142  1  0  0  0
 65143  1  0  0  0
 68 77  1  0  0  0
 71 74  2  0  0  0
 71 75  1  0  0  0
 71144  1  0  0  0
 72 74  1  0  0  0
 72 76  2  0  0  0
 72145  1  0  0  0
 73 75  2  0  0  0
 73 76  1  0  0  0
 73146  1  0  0  0
 74 80  1  0  0  0
 75 81  1  0  0  0
 76 84  1  0  0  0
 77 78  2  0  0  0
 77147  1  0  0  0
 78 79  1  0  0  0
 78 83  1  0  0  0
 79 80  1  0  0  0
 79 82  2  0  0  0
 80148  1  0  0  0
 81149  1  0  0  0
 83150  1  0  0  0
M  ISO  4   1 100  68 101  77 101  81 100
M  END
> <chiral flag>
0

> <version>
0

> <s_m_source_file>
/data/baiqing/PycharmProjects/Reinvent-master-3.2/result/LINK_invent/BTK/process_docking_weight1_custom_product_contain_oxygen_bond_distance_aromatic_linkinvent_7_9_3/rearranged_h_0170.sdf

> <i_m_source_file_index>
84

> <r_mmod_Potential_Energy-OPLS-2005>
216.617080688477

> <r_mmod_Stretch_Energy-OPLS-2005>
154.33869934082

> <r_mmod_Bend_Energy-OPLS-2005>
168.503341674805

> <r_mmod_Torsional_Energy-OPLS-2005>
239.565368652344

> <r_mmod_Improper_Torsional_Energy-OPLS-2005>
5.22919082641602

> <r_mmod_Van_der_Waal_Energy-OPLS-2005>
142.711944580078

> <r_mmod_Electrostatic_Energy-OPLS-2005>
-380.899383544922

> <r_mmod_Solvation_Energy-OPLS-2005>
-224.927444458008

> <b_mmod_Minimization_Converged-OPLS-2005>
0

> <r_mmod_RMS_Derivative-OPLS-2005>
2.0337073802948

$$$$
85
                    3D
 Structure written by MMmdl.
148156  0  0  1  0            999 V2000
  -30.5900  -14.7131   20.4832 C   0  0  0  0  0  0
  -30.4442  -12.4352   19.4654 C   0  0  0  0  0  0
  -29.5135  -12.5121   18.2330 C   0  0  0  0  0  0
  -28.0377  -12.3371   18.6440 C   0  0  0  0  0  0
  -27.6497  -13.2198   19.8594 C   0  0  2  0  0  0
  -28.6943  -13.1050   20.9928 C   0  0  0  0  0  0
  -25.2549  -13.8170   20.5683 C   0  0  0  0  0  0
  -24.1825  -13.0435   20.9208 C   0  0  0  0  0  0
  -24.6396  -11.6906   20.8747 C   0  0  0  0  0  0
  -23.9065  -10.4290   21.0409 C   0  0  0  0  0  0
  -24.3616   -9.4204   21.9185 C   0  0  0  0  0  0
  -23.6291   -8.2241   22.0754 C   0  0  0  0  0  0
  -22.4273   -8.0280   21.3544 C   0  0  0  0  0  0
  -21.9908   -9.0255   20.4648 C   0  0  0  0  0  0
  -22.7237  -10.2134   20.3058 C   0  0  0  0  0  0
  -21.6852   -6.0734   22.5278 C   0  0  0  0  0  0
  -21.4014   -6.5639   23.8212 C   0  0  0  0  0  0
  -21.3659   -5.6792   24.9174 C   0  0  0  0  0  0
  -21.6044   -4.3055   24.7225 C   0  0  0  0  0  0
  -21.8819   -3.8146   23.4347 C   0  0  0  0  0  0
  -21.9193   -4.6962   22.3402 C   0  0  0  0  0  0
  -22.7848  -13.5229   21.1864 C   0  0  0  0  0  0
  -22.1661   -4.2147   21.0980 F   0  0  0  0  0  0
  -21.5628   -3.4539   25.7738 F   0  0  0  0  0  0
  -30.0032  -13.4691   20.4277 N   0  0  0  0  0  0
  -26.2970  -12.9353   20.3293 N   0  0  0  0  0  0
  -25.9324  -11.6509   20.5752 N   0  0  0  0  0  0
  -22.0485  -12.8224   22.0418 N   0  0  0  0  0  0
  -25.4253  -15.1891   20.4068 N   0  0  0  0  0  0
  -31.7578  -14.8682   20.1102 O   0  0  0  0  0  0
  -21.6638   -6.8877   21.4240 O   0  0  0  0  0  0
  -22.3538  -14.5535   20.6707 O   0  0  0  0  0  0
  -24.6290  -31.8567   23.1999 C   0  0  0  0  0  0
  -25.9122  -32.4764   23.8340 C   0  0  1  0  0  0
  -27.2254  -27.2850   20.1296 C   0  0  0  0  0  0
  -25.5925  -33.8565   24.2264 N   0  0  0  0  0  0
  -23.4256  -30.4784   21.5424 C   0  0  2  0  0  0
  -24.8751  -28.9269   20.1119 C   0  0  0  0  0  0
  -22.7493  -29.4605   22.4920 C   0  0  0  0  0  0
  -18.0290  -28.1386   22.8485 C   0  0  0  0  0  0
  -24.1489  -36.7289   23.2640 C   0  0  0  0  0  0
  -25.9694  -30.7757   21.3780 C   0  0  0  0  0  0
  -26.0443  -29.3988   20.7234 C   0  0  0  0  0  0
  -27.2232  -28.5885   20.7247 C   0  0  0  0  0  0
  -26.0376  -26.8774   19.4842 C   0  0  0  0  0  0
  -24.8747  -27.6721   19.4826 C   0  0  0  0  0  0
  -23.6441  -29.8110   20.1588 C   0  0  0  0  0  0
  -25.4115  -36.3076   24.0327 C   0  0  1  0  0  0
  -20.5892  -28.3694   23.1274 C   0  0  2  0  0  0
  -20.6778  -26.9414   22.5409 C   0  0  0  0  0  0
  -19.5753  -26.6383   21.5213 C   0  0  0  0  0  0
  -18.1934  -26.7928   22.1626 C   0  0  0  0  0  0
  -19.1543  -28.8858   23.2874 C   0  0  0  0  0  0
  -18.9464  -30.1459   23.8893 C   0  0  0  0  0  0
  -17.6464  -30.6588   24.0562 C   0  0  0  0  0  0
  -25.9053  -34.9445   23.5098 C   0  0  0  0  0  0
  -16.5355  -29.9085   23.6331 C   0  0  0  0  0  0
  -16.7276  -28.6503   23.0352 C   0  0  0  0  0  0
  -26.4497  -31.6585   25.0723 C   0  0  0  0  0  0
  -25.3722  -31.3730   26.1444 C   0  0  0  0  0  0
  -27.0349  -30.3004   24.6203 C   0  0  0  0  0  0
  -27.6049  -32.4328   25.7497 C   0  0  0  0  0  0
  -27.5578  -37.1801   24.8466 C   0  0  0  0  0  0
  -21.4202  -29.3042   22.3664 N   0  0  0  0  0  0
  -26.4292  -37.3771   23.9405 N   0  0  0  0  0  0
  -24.6934  -31.0546   22.0967 N   0  0  0  0  0  0
  -23.4199  -28.8148   23.3017 O   0  0  0  0  0  0
  -28.3189  -26.3953   20.1521 O   0  0  0  0  0  0
  -26.5626  -34.8916   22.4668 O   0  0  0  0  0  0
  -23.5444  -32.1381   23.7303 O   0  0  0  0  0  0
  -28.6494  -17.9627   21.1036 C   0  0  0  0  0  0
  -29.7960  -17.2309   20.6610 C   0  0  0  0  0  0
  -29.4940  -20.0749   20.4464 C   0  0  0  0  0  0
  -30.6504  -19.3505   20.0048 C   0  0  0  0  0  0
  -28.0894  -25.0194   20.4402 C   0  0  0  0  0  0
  -28.9216  -23.9398   20.1988 C   0  0  0  0  0  0
  -28.5532  -22.5200   20.5610 C   0  0  0  0  0  0
  -28.4955  -19.3259   21.0045 N   0  0  0  0  0  0
  -30.7972  -17.9806   20.1072 N   0  0  0  0  0  0
  -29.4787  -21.5429   20.2619 N   0  0  0  0  0  0
  -29.7603  -15.7616   20.8255 N   0  0  0  0  0  0
  -27.4810  -22.2324   21.0981 O   0  0  0  0  0  0
  -30.1096  -24.1583   19.6162 O   0  0  0  0  0  0
  -31.6705  -20.0453   19.4456 F   0  0  0  0  0  0
  -31.4832  -12.5734   19.1615 H   0  0  0  0  0  0
  -30.3969  -11.4462   19.9238 H   0  0  0  0  0  0
  -29.7904  -11.7503   17.5030 H   0  0  0  0  0  0
  -29.6429  -13.4740   17.7342 H   0  0  0  0  0  0
  -27.8872  -11.2853   18.8904 H   0  0  0  0  0  0
  -27.3815  -12.5473   17.7985 H   0  0  0  0  0  0
  -27.6574  -14.2490   19.5009 H   0  0  0  0  0  0
  -28.7229  -12.0882   21.3876 H   0  0  0  0  0  0
  -28.4272  -13.7430   21.8366 H   0  0  0  0  0  0
  -25.2762   -9.5679   22.4759 H   0  0  0  0  0  0
  -23.9999   -7.4632   22.7473 H   0  0  0  0  0  0
  -21.0839   -8.8775   19.8954 H   0  0  0  0  0  0
  -22.3696  -10.9673   19.6168 H   0  0  0  0  0  0
  -21.2008   -7.6147   23.9714 H   0  0  0  0  0  0
  -21.1481   -6.0523   25.9076 H   0  0  0  0  0  0
  -22.0599   -2.7608   23.2848 H   0  0  0  0  0  0
  -22.4098  -11.9885   22.4810 H   0  0  0  0  0  0
  -21.1104  -13.1253   22.2622 H   0  0  0  0  0  0
  -24.6465  -15.8332   20.4948 H   0  0  0  0  0  0
  -26.2452  -15.6174   19.9983 H   0  0  0  0  0  0
  -26.7190  -32.5425   23.1086 H   0  0  0  0  0  0
  -25.0063  -33.9705   25.0403 H   0  0  0  0  0  0
  -22.7211  -31.2998   21.3961 H   0  0  0  0  0  0
  -23.3748  -35.9625   23.3308 H   0  0  0  0  0  0
  -24.3577  -36.8905   22.2053 H   0  0  0  0  0  0
  -23.7248  -37.6494   23.6661 H   0  0  0  0  0  0
  -26.1051  -31.5360   20.6076 H   0  0  0  0  0  0
  -26.8479  -30.8265   22.0096 H   0  0  0  0  0  0
  -28.1198  -28.9432   21.2133 H   0  0  0  0  0  0
  -25.9981  -25.9157   18.9925 H   0  0  0  0  0  0
  -23.9809  -27.3063   18.9962 H   0  0  0  0  0  0
  -23.7666  -30.5866   19.4020 H   0  0  0  0  0  0
  -22.7636  -29.2421   19.8548 H   0  0  0  0  0  0
  -25.1298  -36.1926   25.0820 H   0  0  0  0  0  0
  -20.9984  -28.3272   24.1395 H   0  0  0  0  0  0
  -20.5679  -26.2304   23.3612 H   0  0  0  0  0  0
  -21.6646  -26.7440   22.1203 H   0  0  0  0  0  0
  -19.6915  -25.6293   21.1245 H   0  0  0  0  0  0
  -19.6690  -27.3191   20.6741 H   0  0  0  0  0  0
  -17.4202  -26.6672   21.4030 H   0  0  0  0  0  0
  -18.0336  -26.0072   22.9025 H   0  0  0  0  0  0
  -19.7940  -30.7276   24.2260 H   0  0  0  0  0  0
  -17.5018  -31.6268   24.5164 H   0  0  0  0  0  0
  -15.5355  -30.2986   23.7657 H   0  0  0  0  0  0
  -15.8676  -28.0820   22.7070 H   0  0  0  0  0  0
  -24.5900  -30.7076   25.7771 H   0  0  0  0  0  0
  -24.8910  -32.2898   26.4859 H   0  0  0  0  0  0
  -25.8040  -30.8914   27.0227 H   0  0  0  0  0  0
  -26.2934  -29.6748   24.1219 H   0  0  0  0  0  0
  -27.4027  -29.7269   25.4721 H   0  0  0  0  0  0
  -27.8811  -30.4284   23.9449 H   0  0  0  0  0  0
  -27.2653  -33.3629   26.2067 H   0  0  0  0  0  0
  -28.3862  -32.6888   25.0328 H   0  0  0  0  0  0
  -28.0715  -31.8460   26.5420 H   0  0  0  0  0  0
  -28.2600  -38.0093   24.7503 H   0  0  0  0  0  0
  -28.1069  -36.2624   24.6305 H   0  0  0  0  0  0
  -27.2294  -37.1466   25.8869 H   0  0  0  0  0  0
  -20.9387  -29.8762   21.6867 H   0  0  0  0  0  0
  -26.0173  -38.2847   24.1398 H   0  0  0  0  0  0
  -27.8160  -17.4378   21.5483 H   0  0  0  0  0  0
  -27.1269  -24.8725   20.9144 H   0  0  0  0  0  0
  -30.3132  -21.9127   19.8260 H   0  0  0  0  0  0
  -28.8772  -15.4273   21.1776 H   0  0  0  0  0  0
  -30.1709  -25.0930   19.4623 H   0  0  0  0  0  0
  1 25  1  0  0  0
  1 30  2  0  0  0
  1 81  1  0  0  0
  2  3  1  0  0  0
  2 25  1  0  0  0
  2 85  1  0  0  0
  2 86  1  0  0  0
  3  4  1  0  0  0
  3 87  1  0  0  0
  3 88  1  0  0  0
  4  5  1  0  0  0
  4 89  1  0  0  0
  4 90  1  0  0  0
  5  6  1  0  0  0
  5 26  1  0  0  0
  5 91  1  0  0  0
  6 25  1  0  0  0
  6 92  1  0  0  0
  6 93  1  0  0  0
  7  8  2  0  0  0
  7 26  1  0  0  0
  7 29  1  0  0  0
  8  9  1  0  0  0
  8 22  1  0  0  0
  9 10  1  0  0  0
  9 27  2  0  0  0
 10 11  2  0  0  0
 10 15  1  0  0  0
 11 12  1  0  0  0
 11 94  1  0  0  0
 12 13  2  0  0  0
 12 95  1  0  0  0
 13 14  1  0  0  0
 13 31  1  0  0  0
 14 15  2  0  0  0
 14 96  1  0  0  0
 15 97  1  0  0  0
 16 17  2  0  0  0
 16 21  1  0  0  0
 16 31  1  0  0  0
 17 18  1  0  0  0
 17 98  1  0  0  0
 18 19  2  0  0  0
 18 99  1  0  0  0
 19 20  1  0  0  0
 19 24  1  0  0  0
 20 21  2  0  0  0
 20100  1  0  0  0
 21 23  1  0  0  0
 22 28  1  0  0  0
 22 32  2  0  0  0
 26 27  1  0  0  0
 28101  1  0  0  0
 28102  1  0  0  0
 29103  1  0  0  0
 29104  1  0  0  0
 33 34  1  0  0  0
 33 66  1  0  0  0
 33 70  2  0  0  0
 34 36  1  0  0  0
 34 59  1  0  0  0
 34105  1  0  0  0
 35 44  2  0  0  0
 35 45  1  0  0  0
 35 68  1  0  0  0
 36 56  1  0  0  0
 36106  1  0  0  0
 37 39  1  0  0  0
 37 47  1  0  0  0
 37 66  1  0  0  0
 37107  1  0  0  0
 38 43  2  0  0  0
 38 46  1  0  0  0
 38 47  1  0  0  0
 39 64  1  0  0  0
 39 67  2  0  0  0
 40 52  1  0  0  0
 40 53  2  0  0  0
 40 58  1  0  0  0
 41108  1  0  0  0
 41109  1  0  0  0
 41110  1  0  0  0
 41 48  1  0  0  0
 42 43  1  0  0  0
 42 66  1  0  0  0
 42111  1  0  0  0
 42112  1  0  0  0
 43 44  1  0  0  0
 44113  1  0  0  0
 45 46  2  0  0  0
 45114  1  0  0  0
 46115  1  0  0  0
 47116  1  0  0  0
 47117  1  0  0  0
 48 56  1  0  0  0
 48 65  1  0  0  0
 48118  1  0  0  0
 49 50  1  0  0  0
 49 53  1  0  0  0
 49 64  1  0  0  0
 49119  1  0  0  0
 50 51  1  0  0  0
 50120  1  0  0  0
 50121  1  0  0  0
 51 52  1  0  0  0
 51122  1  0  0  0
 51123  1  0  0  0
 52124  1  0  0  0
 52125  1  0  0  0
 53 54  1  0  0  0
 54 55  2  0  0  0
 54126  1  0  0  0
 55 57  1  0  0  0
 55127  1  0  0  0
 56 69  2  0  0  0
 57 58  2  0  0  0
 57128  1  0  0  0
 58129  1  0  0  0
 59 60  1  0  0  0
 59 61  1  0  0  0
 59 62  1  0  0  0
 60130  1  0  0  0
 60131  1  0  0  0
 60132  1  0  0  0
 61133  1  0  0  0
 61134  1  0  0  0
 61135  1  0  0  0
 62136  1  0  0  0
 62137  1  0  0  0
 62138  1  0  0  0
 63 65  1  0  0  0
 63139  1  0  0  0
 63140  1  0  0  0
 63141  1  0  0  0
 64142  1  0  0  0
 65143  1  0  0  0
 68 75  1  0  0  0
 71 72  2  0  0  0
 71 78  1  0  0  0
 71144  1  0  0  0
 72 79  1  0  0  0
 72 81  1  0  0  0
 73 74  1  0  0  0
 73 78  2  0  0  0
 73 80  1  0  0  0
 74 79  2  0  0  0
 74 84  1  0  0  0
 75 76  2  0  0  0
 75145  1  0  0  0
 76 77  1  0  0  0
 76 83  1  0  0  0
 77 80  1  0  0  0
 77 82  2  0  0  0
 80146  1  0  0  0
 81147  1  0  0  0
 83148  1  0  0  0
M  ISO  4   1 100  68 101  75 101  81 100
M  END
> <chiral flag>
0

> <version>
0

> <s_m_source_file>
/data/baiqing/PycharmProjects/Reinvent-master-3.2/result/LINK_invent/BTK/process_docking_weight1_custom_product_contain_oxygen_bond_distance_aromatic_linkinvent_7_9_3/rearranged_h_0170.sdf

> <i_m_source_file_index>
85

> <r_mmod_Potential_Energy-OPLS-2005>
0.385978698730469

> <r_mmod_Stretch_Energy-OPLS-2005>
99.6834335327148

> <r_mmod_Bend_Energy-OPLS-2005>
148.640579223633

> <r_mmod_Torsional_Energy-OPLS-2005>
190.103500366211

> <r_mmod_Improper_Torsional_Energy-OPLS-2005>
4.00729751586914

> <r_mmod_Van_der_Waal_Energy-OPLS-2005>
146.726776123047

> <r_mmod_Electrostatic_Energy-OPLS-2005>
-410.020141601562

> <r_mmod_Solvation_Energy-OPLS-2005>
-249.684921264648

> <b_mmod_Minimization_Converged-OPLS-2005>
0

> <r_mmod_RMS_Derivative-OPLS-2005>
0.0815578475594521

$$$$
86
                    3D
 Structure written by MMmdl.
162170  0  0  1  0            999 V2000
  -30.6851  -14.4391   20.5625 C   0  0  0  0  0  0
  -30.4261  -12.2734   19.4315 C   0  0  0  0  0  0
  -29.4997  -12.4753   18.2138 C   0  0  0  0  0  0
  -28.0177  -12.3416   18.6211 C   0  0  0  0  0  0
  -27.6620  -13.1869   19.8746 C   0  0  2  0  0  0
  -28.6991  -12.9532   20.9980 C   0  0  0  0  0  0
  -25.2609  -13.8111   20.5670 C   0  0  0  0  0  0
  -24.1837  -13.0423   20.9177 C   0  0  0  0  0  0
  -24.6358  -11.6876   20.8736 C   0  0  0  0  0  0
  -23.9027  -10.4271   21.0395 C   0  0  0  0  0  0
  -24.3592   -9.4196   21.9168 C   0  0  0  0  0  0
  -23.6271   -8.2235   22.0758 C   0  0  0  0  0  0
  -22.4260   -8.0259   21.3543 C   0  0  0  0  0  0
  -21.9875   -9.0235   20.4661 C   0  0  0  0  0  0
  -22.7197  -10.2115   20.3064 C   0  0  0  0  0  0
  -21.6847   -6.0724   22.5282 C   0  0  0  0  0  0
  -21.4017   -6.5636   23.8216 C   0  0  0  0  0  0
  -21.3667   -5.6796   24.9179 C   0  0  0  0  0  0
  -21.6040   -4.3059   24.7235 C   0  0  0  0  0  0
  -21.8819   -3.8145   23.4359 C   0  0  0  0  0  0
  -21.9189   -4.6952   22.3407 C   0  0  0  0  0  0
  -22.7870  -13.5244   21.1834 C   0  0  0  0  0  0
  -22.1660   -4.2138   21.0988 F   0  0  0  0  0  0
  -21.5619   -3.4545   25.7750 F   0  0  0  0  0  0
  -30.0375  -13.2501   20.4571 N   0  0  0  0  0  0
  -26.3007  -12.9238   20.3338 N   0  0  0  0  0  0
  -25.9272  -11.6425   20.5761 N   0  0  0  0  0  0
  -22.0521  -12.8255   22.0414 N   0  0  0  0  0  0
  -25.4358  -15.1824   20.4103 N   0  0  0  0  0  0
  -31.7983  -14.6625   20.0814 O   0  0  0  0  0  0
  -21.6633   -6.8855   21.4238 O   0  0  0  0  0  0
  -22.3556  -14.5544   20.6665 O   0  0  0  0  0  0
  -24.6103  -31.8706   23.2120 C   0  0  0  0  0  0
  -25.9005  -32.4842   23.8400 C   0  0  1  0  0  0
  -27.2251  -27.4441   20.0993 C   0  0  0  0  0  0
  -25.5892  -33.8644   24.2340 N   0  0  0  0  0  0
  -23.3997  -30.4946   21.5542 C   0  0  2  0  0  0
  -24.8444  -28.9728   20.1148 C   0  0  0  0  0  0
  -22.7408  -29.4649   22.4995 C   0  0  0  0  0  0
  -18.0286  -28.1356   22.8496 C   0  0  0  0  0  0
  -24.1509  -36.7348   23.2624 C   0  0  0  0  0  0
  -25.9282  -30.8407   21.3662 C   0  0  0  0  0  0
  -26.0050  -29.4785   20.7135 C   0  0  0  0  0  0
  -27.1979  -28.7204   20.7057 C   0  0  0  0  0  0
  -26.0432  -26.9684   19.4761 C   0  0  0  0  0  0
  -24.8582  -27.7168   19.4951 C   0  0  0  0  0  0
  -23.6090  -29.8363   20.1667 C   0  0  0  0  0  0
  -25.4115  -36.3125   24.0326 C   0  0  1  0  0  0
  -20.5871  -28.3647   23.1320 C   0  0  2  0  0  0
  -20.6782  -26.9383   22.5415 C   0  0  0  0  0  0
  -19.5760  -26.6373   21.5211 C   0  0  0  0  0  0
  -18.1942  -26.7895   22.1635 C   0  0  0  0  0  0
  -19.1533  -28.8815   23.2907 C   0  0  0  0  0  0
  -18.9451  -30.1430   23.8891 C   0  0  0  0  0  0
  -17.6453  -30.6564   24.0554 C   0  0  0  0  0  0
  -25.9032  -34.9484   23.5126 C   0  0  0  0  0  0
  -16.5348  -29.9065   23.6307 C   0  0  0  0  0  0
  -16.7275  -28.6488   23.0320 C   0  0  0  0  0  0
  -26.4436  -31.6589   25.0708 C   0  0  0  0  0  0
  -25.3730  -31.3745   26.1488 C   0  0  0  0  0  0
  -27.0210  -30.3013   24.6059 C   0  0  0  0  0  0
  -27.6042  -32.4271   25.7458 C   0  0  0  0  0  0
  -27.5590  -37.1812   24.8441 C   0  0  0  0  0  0
  -21.4138  -29.3030   22.3738 N   0  0  0  0  0  0
  -26.4305  -37.3790   23.9402 N   0  0  0  0  0  0
  -24.6637  -31.0819   22.1031 N   0  0  0  0  0  0
  -23.4191  -28.8158   23.3000 O   0  0  0  0  0  0
  -28.3877  -26.6942   20.1478 O   0  0  0  0  0  0
  -26.5577  -34.8912   22.4678 O   0  0  0  0  0  0
  -23.5296  -32.1427   23.7521 O   0  0  0  0  0  0
  -30.2965  -17.8421   21.3770 C   0  0  0  0  0  0
  -29.3095  -18.2936   18.8428 C   0  0  0  0  0  0
  -29.9117  -16.7312   20.6072 C   0  0  0  0  0  0
  -29.4120  -16.9703   19.3124 C   0  0  0  0  0  0
  -29.7469  -19.3383   19.6846 C   0  0  0  0  0  0
  -31.5690  -22.1262   19.7938 C   0  0  0  0  0  0
  -28.7066  -18.5668   17.4670 C   0  0  0  0  0  0
  -32.3136  -22.8578   20.9016 C   0  0  0  0  0  0
  -29.4112  -24.3999   20.2471 C   0  0  0  0  0  0
  -29.1726  -23.0098   19.6146 C   0  0  0  0  0  0
  -28.2208  -25.2986   19.8852 C   0  0  0  0  0  0
  -30.0760  -21.8214   20.0210 C   0  0  1  0  0  0
  -30.2225  -19.1154   20.9279 N   0  0  0  0  0  0
  -29.9680  -15.4152   21.1374 N   0  0  0  0  0  0
  -29.6521  -20.6598   19.2368 N   0  0  0  0  0  0
  -32.1697  -21.8208   18.7594 O   0  0  0  0  0  0
  -29.0010  -15.9386   18.5362 F   0  0  0  0  0  0
  -31.4735  -12.3672   19.1390 H   0  0  0  0  0  0
  -30.3223  -11.2612   19.8269 H   0  0  0  0  0  0
  -29.7392  -11.7457   17.4400 H   0  0  0  0  0  0
  -29.6764  -13.4586   17.7753 H   0  0  0  0  0  0
  -27.8311  -11.2866   18.8258 H   0  0  0  0  0  0
  -27.3697  -12.6038   17.7839 H   0  0  0  0  0  0
  -27.7068  -14.2323   19.5778 H   0  0  0  0  0  0
  -28.6684  -11.9149   21.3340 H   0  0  0  0  0  0
  -28.4563  -13.5441   21.8818 H   0  0  0  0  0  0
  -25.2747   -9.5672   22.4725 H   0  0  0  0  0  0
  -23.9985   -7.4635   22.7483 H   0  0  0  0  0  0
  -21.0804   -8.8751   19.8977 H   0  0  0  0  0  0
  -22.3648  -10.9652   19.6179 H   0  0  0  0  0  0
  -21.2027   -7.6148   23.9720 H   0  0  0  0  0  0
  -21.1485   -6.0527   25.9082 H   0  0  0  0  0  0
  -22.0589   -2.7607   23.2861 H   0  0  0  0  0  0
  -22.4155  -11.9925   22.4809 H   0  0  0  0  0  0
  -21.1154  -13.1295   22.2655 H   0  0  0  0  0  0
  -24.6700  -15.8352   20.5336 H   0  0  0  0  0  0
  -26.2804  -15.6210   20.0674 H   0  0  0  0  0  0
  -26.7086  -32.5556   23.1175 H   0  0  0  0  0  0
  -25.0048  -33.9831   25.0487 H   0  0  0  0  0  0
  -22.6876  -31.3103   21.4142 H   0  0  0  0  0  0
  -23.3756  -35.9698   23.3276 H   0  0  0  0  0  0
  -24.3612  -36.8959   22.2039 H   0  0  0  0  0  0
  -23.7269  -37.6564   23.6629 H   0  0  0  0  0  0
  -26.0359  -31.6073   20.5973 H   0  0  0  0  0  0
  -26.8170  -30.8948   21.9823 H   0  0  0  0  0  0
  -28.0900  -29.1018   21.1837 H   0  0  0  0  0  0
  -25.9964  -26.0177   18.9670 H   0  0  0  0  0  0
  -23.9678  -27.3217   19.0274 H   0  0  0  0  0  0
  -23.7229  -30.6139   19.4103 H   0  0  0  0  0  0
  -22.7355  -29.2550   19.8655 H   0  0  0  0  0  0
  -25.1295  -36.2005   25.0816 H   0  0  0  0  0  0
  -20.9960  -28.3182   24.1443 H   0  0  0  0  0  0
  -20.5709  -26.2236   23.3595 H   0  0  0  0  0  0
  -21.6639  -26.7439   22.1172 H   0  0  0  0  0  0
  -19.6928  -25.6292   21.1221 H   0  0  0  0  0  0
  -19.6705  -27.3200   20.6751 H   0  0  0  0  0  0
  -17.4216  -26.6632   21.4047 H   0  0  0  0  0  0
  -18.0366  -26.0038   22.9042 H   0  0  0  0  0  0
  -19.7927  -30.7251   24.2247 H   0  0  0  0  0  0
  -17.5004  -31.6230   24.5178 H   0  0  0  0  0  0
  -15.5346  -30.2959   23.7617 H   0  0  0  0  0  0
  -15.8688  -28.0809   22.6997 H   0  0  0  0  0  0
  -24.5824  -30.7186   25.7828 H   0  0  0  0  0  0
  -24.9046  -32.2954   26.4977 H   0  0  0  0  0  0
  -25.8072  -30.8847   27.0215 H   0  0  0  0  0  0
  -26.2726  -29.6841   24.1078 H   0  0  0  0  0  0
  -27.3927  -29.7169   25.4485 H   0  0  0  0  0  0
  -27.8594  -30.4306   23.9212 H   0  0  0  0  0  0
  -27.2666  -33.3527   26.2128 H   0  0  0  0  0  0
  -28.3795  -32.6892   25.0253 H   0  0  0  0  0  0
  -28.0773  -31.8342   26.5295 H   0  0  0  0  0  0
  -28.2584  -38.0128   24.7480 H   0  0  0  0  0  0
  -28.1109  -36.2651   24.6276 H   0  0  0  0  0  0
  -27.2309  -37.1453   25.8842 H   0  0  0  0  0  0
  -20.9267  -29.8791   21.7008 H   0  0  0  0  0  0
  -26.0207  -38.2880   24.1397 H   0  0  0  0  0  0
  -30.6633  -17.7131   22.3854 H   0  0  0  0  0  0
  -28.2484  -17.6739   17.0401 H   0  0  0  0  0  0
  -29.4704  -18.9105   16.7691 H   0  0  0  0  0  0
  -27.9240  -19.3259   17.5232 H   0  0  0  0  0  0
  -31.6400  -23.1325   21.7136 H   0  0  0  0  0  0
  -32.7715  -23.7652   20.5097 H   0  0  0  0  0  0
  -33.0987  -22.2226   21.3084 H   0  0  0  0  0  0
  -30.3357  -24.8336   19.8668 H   0  0  0  0  0  0
  -29.5055  -24.3279   21.3319 H   0  0  0  0  0  0
  -29.2032  -23.1262   18.5290 H   0  0  0  0  0  0
  -28.1467  -22.7166   19.8427 H   0  0  0  0  0  0
  -27.3563  -24.9168   20.4349 H   0  0  0  0  0  0
  -28.0147  -25.1793   18.8212 H   0  0  0  0  0  0
  -29.9173  -21.6110   21.0795 H   0  0  0  0  0  0
  -29.1261  -15.0961   21.5923 H   0  0  0  0  0  0
  -29.5627  -20.8025   18.2381 H   0  0  0  0  0  0
  1 25  1  0  0  0
  1 30  2  0  0  0
  1 84  1  0  0  0
  2  3  1  0  0  0
  2 25  1  0  0  0
  2 88  1  0  0  0
  2 89  1  0  0  0
  3  4  1  0  0  0
  3 90  1  0  0  0
  3 91  1  0  0  0
  4  5  1  0  0  0
  4 92  1  0  0  0
  4 93  1  0  0  0
  5  6  1  0  0  0
  5 26  1  0  0  0
  5 94  1  0  0  0
  6 25  1  0  0  0
  6 95  1  0  0  0
  6 96  1  0  0  0
  7  8  2  0  0  0
  7 26  1  0  0  0
  7 29  1  0  0  0
  8  9  1  0  0  0
  8 22  1  0  0  0
  9 10  1  0  0  0
  9 27  2  0  0  0
 10 11  2  0  0  0
 10 15  1  0  0  0
 11 12  1  0  0  0
 11 97  1  0  0  0
 12 13  2  0  0  0
 12 98  1  0  0  0
 13 14  1  0  0  0
 13 31  1  0  0  0
 14 15  2  0  0  0
 14 99  1  0  0  0
 15100  1  0  0  0
 16 17  2  0  0  0
 16 21  1  0  0  0
 16 31  1  0  0  0
 17 18  1  0  0  0
 17101  1  0  0  0
 18 19  2  0  0  0
 18102  1  0  0  0
 19 20  1  0  0  0
 19 24  1  0  0  0
 20 21  2  0  0  0
 20103  1  0  0  0
 21 23  1  0  0  0
 22 28  1  0  0  0
 22 32  2  0  0  0
 26 27  1  0  0  0
 28104  1  0  0  0
 28105  1  0  0  0
 29106  1  0  0  0
 29107  1  0  0  0
 33 34  1  0  0  0
 33 66  1  0  0  0
 33 70  2  0  0  0
 34 36  1  0  0  0
 34 59  1  0  0  0
 34108  1  0  0  0
 35 44  2  0  0  0
 35 45  1  0  0  0
 35 68  1  0  0  0
 36 56  1  0  0  0
 36109  1  0  0  0
 37 39  1  0  0  0
 37 47  1  0  0  0
 37 66  1  0  0  0
 37110  1  0  0  0
 38 43  2  0  0  0
 38 46  1  0  0  0
 38 47  1  0  0  0
 39 64  1  0  0  0
 39 67  2  0  0  0
 40 52  1  0  0  0
 40 53  2  0  0  0
 40 58  1  0  0  0
 41111  1  0  0  0
 41112  1  0  0  0
 41113  1  0  0  0
 41 48  1  0  0  0
 42 43  1  0  0  0
 42 66  1  0  0  0
 42114  1  0  0  0
 42115  1  0  0  0
 43 44  1  0  0  0
 44116  1  0  0  0
 45 46  2  0  0  0
 45117  1  0  0  0
 46118  1  0  0  0
 47119  1  0  0  0
 47120  1  0  0  0
 48 56  1  0  0  0
 48 65  1  0  0  0
 48121  1  0  0  0
 49 50  1  0  0  0
 49 53  1  0  0  0
 49 64  1  0  0  0
 49122  1  0  0  0
 50 51  1  0  0  0
 50123  1  0  0  0
 50124  1  0  0  0
 51 52  1  0  0  0
 51125  1  0  0  0
 51126  1  0  0  0
 52127  1  0  0  0
 52128  1  0  0  0
 53 54  1  0  0  0
 54 55  2  0  0  0
 54129  1  0  0  0
 55 57  1  0  0  0
 55130  1  0  0  0
 56 69  2  0  0  0
 57 58  2  0  0  0
 57131  1  0  0  0
 58132  1  0  0  0
 59 60  1  0  0  0
 59 61  1  0  0  0
 59 62  1  0  0  0
 60133  1  0  0  0
 60134  1  0  0  0
 60135  1  0  0  0
 61136  1  0  0  0
 61137  1  0  0  0
 61138  1  0  0  0
 62139  1  0  0  0
 62140  1  0  0  0
 62141  1  0  0  0
 63 65  1  0  0  0
 63142  1  0  0  0
 63143  1  0  0  0
 63144  1  0  0  0
 64145  1  0  0  0
 65146  1  0  0  0
 68 81  1  0  0  0
 71 73  2  0  0  0
 71 83  1  0  0  0
 71147  1  0  0  0
 72 74  2  0  0  0
 72 75  1  0  0  0
 72 77  1  0  0  0
 73 74  1  0  0  0
 73 84  1  0  0  0
 74 87  1  0  0  0
 75 83  2  0  0  0
 75 85  1  0  0  0
 76 78  1  0  0  0
 76 82  1  0  0  0
 76 86  2  0  0  0
 77148  1  0  0  0
 77149  1  0  0  0
 77150  1  0  0  0
 78151  1  0  0  0
 78152  1  0  0  0
 78153  1  0  0  0
 79 80  1  0  0  0
 79 81  1  0  0  0
 79154  1  0  0  0
 79155  1  0  0  0
 80156  1  0  0  0
 80157  1  0  0  0
 80 82  1  0  0  0
 81158  1  0  0  0
 81159  1  0  0  0
 82 85  1  0  0  0
 82160  1  0  0  0
 84161  1  0  0  0
 85162  1  0  0  0
M  ISO  4   1 100  68 101  81 101  84 100
M  END
> <chiral flag>
0

> <version>
0

> <s_m_source_file>
/data/baiqing/PycharmProjects/Reinvent-master-3.2/result/LINK_invent/BTK/process_docking_weight1_custom_product_contain_oxygen_bond_distance_aromatic_linkinvent_7_9_3/rearranged_h_0170.sdf

> <i_m_source_file_index>
86

> <r_mmod_Potential_Energy-OPLS-2005>
-418.851959228516

> <r_mmod_Stretch_Energy-OPLS-2005>
33.0374870300293

> <r_mmod_Bend_Energy-OPLS-2005>
110.250434875488

> <r_mmod_Torsional_Energy-OPLS-2005>
227.330108642578

> <r_mmod_Improper_Torsional_Energy-OPLS-2005>
6.56172657012939

> <r_mmod_Van_der_Waal_Energy-OPLS-2005>
170.969619750977

> <r_mmod_Electrostatic_Energy-OPLS-2005>
-743.916015625

> <r_mmod_Solvation_Energy-OPLS-2005>
-235.849990844727

> <b_mmod_Minimization_Converged-OPLS-2005>
0

> <r_mmod_RMS_Derivative-OPLS-2005>
3.24419713020325

$$$$
87
                    3D
 Structure written by MMmdl.
158166  0  0  1  0            999 V2000
  -30.5022  -14.8473   20.4727 C   0  0  0  0  0  0
  -30.4511  -12.5383   19.4552 C   0  0  0  0  0  0
  -29.5045  -12.5130   18.2293 C   0  0  0  0  0  0
  -28.0381  -12.3021   18.6574 C   0  0  0  0  0  0
  -27.6345  -13.2068   19.8497 C   0  0  2  0  0  0
  -28.6839  -13.0785   20.9704 C   0  0  0  0  0  0
  -25.2429  -13.8115   20.5642 C   0  0  0  0  0  0
  -24.1732  -13.0377   20.9245 C   0  0  0  0  0  0
  -24.6328  -11.6867   20.8803 C   0  0  0  0  0  0
  -23.9004  -10.4250   21.0439 C   0  0  0  0  0  0
  -24.3569   -9.4182   21.9236 C   0  0  0  0  0  0
  -23.6243   -8.2222   22.0792 C   0  0  0  0  0  0
  -22.4236   -8.0265   21.3560 C   0  0  0  0  0  0
  -21.9872   -9.0233   20.4657 C   0  0  0  0  0  0
  -22.7193  -10.2122   20.3072 C   0  0  0  0  0  0
  -21.6819   -6.0714   22.5265 C   0  0  0  0  0  0
  -21.3975   -6.5624   23.8193 C   0  0  0  0  0  0
  -21.3665   -5.6806   24.9172 C   0  0  0  0  0  0
  -21.6050   -4.3058   24.7235 C   0  0  0  0  0  0
  -21.8803   -3.8142   23.4357 C   0  0  0  0  0  0
  -21.9171   -4.6941   22.3402 C   0  0  0  0  0  0
  -22.7752  -13.5178   21.1865 C   0  0  0  0  0  0
  -22.1637   -4.2123   21.0980 F   0  0  0  0  0  0
  -21.5660   -3.4554   25.7761 F   0  0  0  0  0  0
  -29.9456  -13.5723   20.4021 N   0  0  0  0  0  0
  -26.2849  -12.9277   20.3244 N   0  0  0  0  0  0
  -25.9252  -11.6452   20.5802 N   0  0  0  0  0  0
  -22.0365  -12.8194   22.0400 N   0  0  0  0  0  0
  -25.3929  -15.1802   20.3973 N   0  0  0  0  0  0
  -31.6784  -14.9628   20.1084 O   0  0  0  0  0  0
  -21.6619   -6.8850   21.4219 O   0  0  0  0  0  0
  -22.3435  -14.5494   20.6712 O   0  0  0  0  0  0
  -24.6319  -31.8520   23.1922 C   0  0  0  0  0  0
  -25.9105  -32.4719   23.8315 C   0  0  1  0  0  0
  -27.2343  -27.2575   20.1490 C   0  0  0  0  0  0
  -25.5899  -33.8533   24.2213 N   0  0  0  0  0  0
  -23.4337  -30.4747   21.5303 C   0  0  2  0  0  0
  -24.8853  -28.9118   20.1128 C   0  0  0  0  0  0
  -22.7564  -29.4588   22.4829 C   0  0  0  0  0  0
  -18.0308  -28.1399   22.8436 C   0  0  0  0  0  0
  -24.1503  -36.7286   23.2647 C   0  0  0  0  0  0
  -25.9793  -30.7700   21.3698 C   0  0  0  0  0  0
  -26.0553  -29.3866   20.7218 C   0  0  0  0  0  0
  -27.2356  -28.5768   20.7168 C   0  0  0  0  0  0
  -26.0406  -26.8371   19.5297 C   0  0  0  0  0  0
  -24.8803  -27.6417   19.5098 C   0  0  0  0  0  0
  -23.6615  -29.8057   20.1471 C   0  0  0  0  0  0
  -25.4129  -36.3058   24.0322 C   0  0  1  0  0  0
  -20.5930  -28.3695   23.1230 C   0  0  2  0  0  0
  -20.6814  -26.9393   22.5386 C   0  0  0  0  0  0
  -19.5764  -26.6362   21.5198 C   0  0  0  0  0  0
  -18.1945  -26.7932   22.1604 C   0  0  0  0  0  0
  -19.1568  -28.8852   23.2821 C   0  0  0  0  0  0
  -18.9520  -30.1469   23.8818 C   0  0  0  0  0  0
  -17.6523  -30.6568   24.0566 C   0  0  0  0  0  0
  -25.9071  -34.9415   23.5068 C   0  0  0  0  0  0
  -16.5405  -29.9077   23.6336 C   0  0  0  0  0  0
  -16.7308  -28.6530   23.0281 C   0  0  0  0  0  0
  -26.4450  -31.6607   25.0735 C   0  0  0  0  0  0
  -25.3681  -31.3812   26.1472 C   0  0  0  0  0  0
  -27.0308  -30.3043   24.6178 C   0  0  0  0  0  0
  -27.5950  -32.4435   25.7520 C   0  0  0  0  0  0
  -27.5587  -37.1780   24.8462 C   0  0  0  0  0  0
  -21.4258  -29.3068   22.3629 N   0  0  0  0  0  0
  -26.4288  -37.3758   23.9433 N   0  0  0  0  0  0
  -24.7001  -31.0515   22.0880 N   0  0  0  0  0  0
  -23.4286  -28.8077   23.2888 O   0  0  0  0  0  0
  -28.3702  -26.4214   20.0648 O   0  0  0  0  0  0
  -26.5664  -34.8868   22.4653 O   0  0  0  0  0  0
  -23.5464  -32.1298   23.7227 O   0  0  0  0  0  0
  -27.7799  -18.8344   19.6124 C   0  0  0  0  0  0
  -29.0686  -18.7211   20.1328 C   0  0  0  0  0  0
  -28.6377  -21.1079   20.3053 C   0  0  0  0  0  0
  -26.9371  -17.8425   18.9317 C   0  0  0  0  0  0
  -28.2057  -23.7090   20.2218 C   0  0  0  0  0  0
  -25.5289  -18.2200   18.4499 C   0  0  0  0  0  0
  -28.0149  -25.3170   22.2725 C   0  0  0  0  0  0
  -28.7134  -16.0754   21.7505 C   0  0  0  0  0  0
  -30.0434  -17.4293   20.1524 C   0  0  0  0  0  0
  -28.5780  -25.1495   20.8521 C   0  0  2  0  0  0
  -29.5137  -20.0603   20.5082 N   0  0  0  0  0  0
  -28.9041  -22.5500   20.5755 N   0  0  0  0  0  0
  -29.6922  -16.0032   20.6581 N   0  0  0  0  0  0
  -27.3398  -16.6985   18.7134 O   0  0  0  0  0  0
  -27.2803  -23.6644   19.4077 O   0  0  0  0  0  0
  -27.1125  -20.4780   19.7049 S   0  0  0  0  0  0
  -31.4671  -12.7478   19.1149 H   0  0  0  0  0  0
  -30.4968  -11.5612   19.9371 H   0  0  0  0  0  0
  -29.8077  -11.7206   17.5442 H   0  0  0  0  0  0
  -29.5873  -13.4502   17.6750 H   0  0  0  0  0  0
  -27.9339  -11.2562   18.9557 H   0  0  0  0  0  0
  -27.3636  -12.4426   17.8130 H   0  0  0  0  0  0
  -27.6394  -14.2325   19.4867 H   0  0  0  0  0  0
  -28.7776  -12.0325   21.2632 H   0  0  0  0  0  0
  -28.3944  -13.5740   21.8906 H   0  0  0  0  0  0
  -25.2680   -9.5688   22.4854 H   0  0  0  0  0  0
  -23.9938   -7.4604   22.7520 H   0  0  0  0  0  0
  -21.0810   -8.8753   19.8936 H   0  0  0  0  0  0
  -22.3632  -10.9692   19.6218 H   0  0  0  0  0  0
  -21.1935   -7.6128   23.9678 H   0  0  0  0  0  0
  -21.1515   -6.0546   25.9079 H   0  0  0  0  0  0
  -22.0576   -2.7588   23.2877 H   0  0  0  0  0  0
  -22.3880  -11.9834   22.4796 H   0  0  0  0  0  0
  -21.0982  -13.1256   22.2555 H   0  0  0  0  0  0
  -24.6183  -15.8211   20.5204 H   0  0  0  0  0  0
  -26.1834  -15.5923   19.9078 H   0  0  0  0  0  0
  -26.7185  -32.5334   23.1076 H   0  0  0  0  0  0
  -25.0015  -33.9679   25.0344 H   0  0  0  0  0  0
  -22.7319  -31.2947   21.3746 H   0  0  0  0  0  0
  -23.3720  -35.9663   23.3331 H   0  0  0  0  0  0
  -24.3552  -36.8904   22.2047 H   0  0  0  0  0  0
  -23.7311  -37.6494   23.6716 H   0  0  0  0  0  0
  -26.1182  -31.5288   20.5964 H   0  0  0  0  0  0
  -26.8574  -30.8237   22.0025 H   0  0  0  0  0  0
  -28.1482  -28.9470   21.1631 H   0  0  0  0  0  0
  -26.0020  -25.8699   19.0498 H   0  0  0  0  0  0
  -23.9880  -27.2647   19.0308 H   0  0  0  0  0  0
  -23.8139  -30.5827   19.3981 H   0  0  0  0  0  0
  -22.7798  -29.2489   19.8258 H   0  0  0  0  0  0
  -25.1322  -36.1889   25.0813 H   0  0  0  0  0  0
  -21.0018  -28.3272   24.1348 H   0  0  0  0  0  0
  -20.5758  -26.2267   23.3591 H   0  0  0  0  0  0
  -21.6669  -26.7424   22.1131 H   0  0  0  0  0  0
  -19.6921  -25.6263   21.1222 H   0  0  0  0  0  0
  -19.6712  -27.3189   20.6738 H   0  0  0  0  0  0
  -17.4243  -26.6691   21.3988 H   0  0  0  0  0  0
  -18.0289  -26.0098   22.9008 H   0  0  0  0  0  0
  -19.8026  -30.7283   24.2120 H   0  0  0  0  0  0
  -17.5107  -31.6232   24.5207 H   0  0  0  0  0  0
  -15.5410  -30.2969   23.7699 H   0  0  0  0  0  0
  -15.8722  -28.0889   22.6915 H   0  0  0  0  0  0
  -24.5815  -30.7181   25.7848 H   0  0  0  0  0  0
  -24.8877  -32.2992   26.4892 H   0  0  0  0  0  0
  -25.7970  -30.9029   27.0289 H   0  0  0  0  0  0
  -26.2870  -29.6740   24.1261 H   0  0  0  0  0  0
  -27.4077  -29.7360   25.4699 H   0  0  0  0  0  0
  -27.8697  -30.4326   23.9327 H   0  0  0  0  0  0
  -27.2481  -33.3751   26.2024 H   0  0  0  0  0  0
  -28.3773  -32.6960   25.0355 H   0  0  0  0  0  0
  -28.0601  -31.8633   26.5489 H   0  0  0  0  0  0
  -28.2555  -38.0131   24.7535 H   0  0  0  0  0  0
  -28.1119  -36.2619   24.6282 H   0  0  0  0  0  0
  -27.2292  -37.1451   25.8863 H   0  0  0  0  0  0
  -20.9433  -29.8874   21.6901 H   0  0  0  0  0  0
  -26.0134  -38.2798   24.1495 H   0  0  0  0  0  0
  -24.8682  -18.4155   19.2968 H   0  0  0  0  0  0
  -25.0977  -17.4038   17.8718 H   0  0  0  0  0  0
  -25.5419  -19.1051   17.8120 H   0  0  0  0  0  0
  -28.3618  -26.2494   22.7238 H   0  0  0  0  0  0
  -28.3371  -24.5003   22.9196 H   0  0  0  0  0  0
  -26.9272  -25.3390   22.2654 H   0  0  0  0  0  0
  -27.7788  -15.5931   21.4785 H   0  0  0  0  0  0
  -28.4534  -17.0951   22.0348 H   0  0  0  0  0  0
  -29.0968  -15.5991   22.6554 H   0  0  0  0  0  0
  -30.9542  -17.7078   20.6810 H   0  0  0  0  0  0
  -30.3724  -17.2827   19.1241 H   0  0  0  0  0  0
  -29.6633  -25.1125   20.9677 H   0  0  0  0  0  0
  -29.7161  -22.7223   21.1474 H   0  0  0  0  0  0
  1 25  1  0  0  0
  1 30  2  0  0  0
  1 83  1  0  0  0
  2  3  1  0  0  0
  2 25  1  0  0  0
  2 87  1  0  0  0
  2 88  1  0  0  0
  3  4  1  0  0  0
  3 89  1  0  0  0
  3 90  1  0  0  0
  4  5  1  0  0  0
  4 91  1  0  0  0
  4 92  1  0  0  0
  5  6  1  0  0  0
  5 26  1  0  0  0
  5 93  1  0  0  0
  6 25  1  0  0  0
  6 94  1  0  0  0
  6 95  1  0  0  0
  7  8  2  0  0  0
  7 26  1  0  0  0
  7 29  1  0  0  0
  8  9  1  0  0  0
  8 22  1  0  0  0
  9 10  1  0  0  0
  9 27  2  0  0  0
 10 11  2  0  0  0
 10 15  1  0  0  0
 11 12  1  0  0  0
 11 96  1  0  0  0
 12 13  2  0  0  0
 12 97  1  0  0  0
 13 14  1  0  0  0
 13 31  1  0  0  0
 14 15  2  0  0  0
 14 98  1  0  0  0
 15 99  1  0  0  0
 16 17  2  0  0  0
 16 21  1  0  0  0
 16 31  1  0  0  0
 17 18  1  0  0  0
 17100  1  0  0  0
 18 19  2  0  0  0
 18101  1  0  0  0
 19 20  1  0  0  0
 19 24  1  0  0  0
 20 21  2  0  0  0
 20102  1  0  0  0
 21 23  1  0  0  0
 22 28  1  0  0  0
 22 32  2  0  0  0
 26 27  1  0  0  0
 28103  1  0  0  0
 28104  1  0  0  0
 29105  1  0  0  0
 29106  1  0  0  0
 33 34  1  0  0  0
 33 66  1  0  0  0
 33 70  2  0  0  0
 34 36  1  0  0  0
 34 59  1  0  0  0
 34107  1  0  0  0
 35 44  2  0  0  0
 35 45  1  0  0  0
 35 68  1  0  0  0
 36 56  1  0  0  0
 36108  1  0  0  0
 37 39  1  0  0  0
 37 47  1  0  0  0
 37 66  1  0  0  0
 37109  1  0  0  0
 38 43  2  0  0  0
 38 46  1  0  0  0
 38 47  1  0  0  0
 39 64  1  0  0  0
 39 67  2  0  0  0
 40 52  1  0  0  0
 40 53  2  0  0  0
 40 58  1  0  0  0
 41110  1  0  0  0
 41111  1  0  0  0
 41112  1  0  0  0
 41 48  1  0  0  0
 42 43  1  0  0  0
 42 66  1  0  0  0
 42113  1  0  0  0
 42114  1  0  0  0
 43 44  1  0  0  0
 44115  1  0  0  0
 45 46  2  0  0  0
 45116  1  0  0  0
 46117  1  0  0  0
 47118  1  0  0  0
 47119  1  0  0  0
 48 56  1  0  0  0
 48 65  1  0  0  0
 48120  1  0  0  0
 49 50  1  0  0  0
 49 53  1  0  0  0
 49 64  1  0  0  0
 49121  1  0  0  0
 50 51  1  0  0  0
 50122  1  0  0  0
 50123  1  0  0  0
 51 52  1  0  0  0
 51124  1  0  0  0
 51125  1  0  0  0
 52126  1  0  0  0
 52127  1  0  0  0
 53 54  1  0  0  0
 54 55  2  0  0  0
 54128  1  0  0  0
 55 57  1  0  0  0
 55129  1  0  0  0
 56 69  2  0  0  0
 57 58  2  0  0  0
 57130  1  0  0  0
 58131  1  0  0  0
 59 60  1  0  0  0
 59 61  1  0  0  0
 59 62  1  0  0  0
 60132  1  0  0  0
 60133  1  0  0  0
 60134  1  0  0  0
 61135  1  0  0  0
 61136  1  0  0  0
 61137  1  0  0  0
 62138  1  0  0  0
 62139  1  0  0  0
 62140  1  0  0  0
 63 65  1  0  0  0
 63141  1  0  0  0
 63142  1  0  0  0
 63143  1  0  0  0
 64144  1  0  0  0
 65145  1  0  0  0
 68 80  1  0  0  0
 71 72  2  0  0  0
 71 74  1  0  0  0
 71 86  1  0  0  0
 72 79  1  0  0  0
 72 81  1  0  0  0
 73 81  2  0  0  0
 73 82  1  0  0  0
 73 86  1  0  0  0
 74 76  1  0  0  0
 74 84  2  0  0  0
 75 80  1  0  0  0
 75 82  1  0  0  0
 75 85  2  0  0  0
 76146  1  0  0  0
 76147  1  0  0  0
 76148  1  0  0  0
 77149  1  0  0  0
 77150  1  0  0  0
 77151  1  0  0  0
 77 80  1  0  0  0
 78 83  1  0  0  0
 78152  1  0  0  0
 78153  1  0  0  0
 78154  1  0  0  0
 79 83  1  0  0  0
 79155  1  0  0  0
 79156  1  0  0  0
 80157  1  0  0  0
 82158  1  0  0  0
M  ISO  4   1 100  68 101  80 101  83 100
M  END
> <chiral flag>
0

> <version>
0

> <s_m_source_file>
/data/baiqing/PycharmProjects/Reinvent-master-3.2/result/LINK_invent/BTK/process_docking_weight1_custom_product_contain_oxygen_bond_distance_aromatic_linkinvent_7_9_3/rearranged_h_0170.sdf

> <i_m_source_file_index>
87

> <r_mmod_Potential_Energy-OPLS-2005>
180.171142578125

> <r_mmod_Stretch_Energy-OPLS-2005>
157.888870239258

> <r_mmod_Bend_Energy-OPLS-2005>
207.179733276367

> <r_mmod_Torsional_Energy-OPLS-2005>
279.510986328125

> <r_mmod_Improper_Torsional_Energy-OPLS-2005>
10.2644815444946

> <r_mmod_Van_der_Waal_Energy-OPLS-2005>
114.353424072266

> <r_mmod_Electrostatic_Energy-OPLS-2005>
-474.712371826172

> <r_mmod_Solvation_Energy-OPLS-2005>
-219.837432861328

> <b_mmod_Minimization_Converged-OPLS-2005>
0

> <r_mmod_RMS_Derivative-OPLS-2005>
5.48320198059082

$$$$
88
                    3D
 Structure written by MMmdl.
156164  0  0  1  0            999 V2000
  -30.7128  -14.4474   20.5987 C   0  0  0  0  0  0
  -30.4279  -12.3038   19.4155 C   0  0  0  0  0  0
  -29.4912  -12.5114   18.2084 C   0  0  0  0  0  0
  -28.0128  -12.3713   18.6233 C   0  0  0  0  0  0
  -27.6642  -13.2043   19.8855 C   0  0  2  0  0  0
  -28.7085  -12.9621   21.0002 C   0  0  0  0  0  0
  -25.2567  -13.8137   20.5703 C   0  0  0  0  0  0
  -24.1803  -13.0415   20.9154 C   0  0  0  0  0  0
  -24.6363  -11.6887   20.8731 C   0  0  0  0  0  0
  -23.9030  -10.4277   21.0390 C   0  0  0  0  0  0
  -24.3580   -9.4203   21.9174 C   0  0  0  0  0  0
  -23.6269   -8.2229   22.0738 C   0  0  0  0  0  0
  -22.4252   -8.0263   21.3527 C   0  0  0  0  0  0
  -21.9882   -9.0233   20.4628 C   0  0  0  0  0  0
  -22.7200  -10.2117   20.3038 C   0  0  0  0  0  0
  -21.6854   -6.0723   22.5275 C   0  0  0  0  0  0
  -21.4005   -6.5619   23.8211 C   0  0  0  0  0  0
  -21.3648   -5.6770   24.9173 C   0  0  0  0  0  0
  -21.6043   -4.3038   24.7220 C   0  0  0  0  0  0
  -21.8835   -3.8137   23.4341 C   0  0  0  0  0  0
  -21.9204   -4.6953   22.3402 C   0  0  0  0  0  0
  -22.7833  -13.5244   21.1835 C   0  0  0  0  0  0
  -22.1686   -4.2143   21.0988 F   0  0  0  0  0  0
  -21.5617   -3.4521   25.7727 F   0  0  0  0  0  0
  -30.0440  -13.2725   20.4524 N   0  0  0  0  0  0
  -26.3034  -12.9321   20.3451 N   0  0  0  0  0  0
  -25.9301  -11.6473   20.5798 N   0  0  0  0  0  0
  -22.0444  -12.8248   22.0383 N   0  0  0  0  0  0
  -25.4271  -15.1861   20.4174 N   0  0  0  0  0  0
  -31.8178  -14.6614   20.0941 O   0  0  0  0  0  0
  -21.6622   -6.8857   21.4230 O   0  0  0  0  0  0
  -22.3541  -14.5573   20.6710 O   0  0  0  0  0  0
  -24.6136  -31.8671   23.2143 C   0  0  0  0  0  0
  -25.9033  -32.4815   23.8422 C   0  0  1  0  0  0
  -27.2342  -27.4303   20.0783 C   0  0  0  0  0  0
  -25.5886  -33.8611   24.2333 N   0  0  0  0  0  0
  -23.4015  -30.4939   21.5538 C   0  0  2  0  0  0
  -24.8472  -28.9663   20.1111 C   0  0  0  0  0  0
  -22.7416  -29.4635   22.4985 C   0  0  0  0  0  0
  -18.0250  -28.1380   22.8474 C   0  0  0  0  0  0
  -24.1466  -36.7309   23.2639 C   0  0  0  0  0  0
  -25.9331  -30.8288   21.3711 C   0  0  0  0  0  0
  -26.0082  -29.4649   20.7130 C   0  0  0  0  0  0
  -27.2024  -28.7050   20.6945 C   0  0  0  0  0  0
  -26.0466  -26.9510   19.4726 C   0  0  0  0  0  0
  -24.8624  -27.7083   19.4882 C   0  0  0  0  0  0
  -23.6114  -29.8346   20.1646 C   0  0  0  0  0  0
  -25.4081  -36.3108   24.0343 C   0  0  1  0  0  0
  -20.5842  -28.3639   23.1321 C   0  0  2  0  0  0
  -20.6715  -26.9375   22.5407 C   0  0  0  0  0  0
  -19.5704  -26.6382   21.5183 C   0  0  0  0  0  0
  -18.1886  -26.7934   22.1596 C   0  0  0  0  0  0
  -19.1507  -28.8824   23.2893 C   0  0  0  0  0  0
  -18.9445  -30.1430   23.8904 C   0  0  0  0  0  0
  -17.6456  -30.6591   24.0548 C   0  0  0  0  0  0
  -25.9033  -34.9470   23.5138 C   0  0  0  0  0  0
  -16.5336  -29.9096   23.6335 C   0  0  0  0  0  0
  -16.7241  -28.6512   23.0347 C   0  0  0  0  0  0
  -26.4454  -31.6599   25.0759 C   0  0  0  0  0  0
  -25.3733  -31.3667   26.1520 C   0  0  0  0  0  0
  -27.0271  -30.3046   24.6124 C   0  0  0  0  0  0
  -27.6039  -32.4308   25.7532 C   0  0  0  0  0  0
  -27.5573  -37.1779   24.8440 C   0  0  0  0  0  0
  -21.4135  -29.3023   22.3753 N   0  0  0  0  0  0
  -26.4245  -37.3813   23.9456 N   0  0  0  0  0  0
  -24.6676  -31.0774   22.1040 N   0  0  0  0  0  0
  -23.4204  -28.8148   23.2995 O   0  0  0  0  0  0
  -28.4125  -26.7002   20.0874 O   0  0  0  0  0  0
  -26.5609  -34.8929   22.4714 O   0  0  0  0  0  0
  -23.5332  -32.1417   23.7547 O   0  0  0  0  0  0
  -31.3910  -17.5001   21.1243 C   0  0  0  0  0  0
  -28.9879  -18.9459   21.1055 C   0  0  0  0  0  0
  -31.4430  -18.9173   21.0808 C   0  0  0  0  0  0
  -30.1586  -16.8061   21.1581 C   0  0  0  0  0  0
  -30.2122  -19.6502   21.0806 C   0  0  0  0  0  0
  -28.9611  -17.5408   21.1474 C   0  0  0  0  0  0
  -32.8024  -19.5275   21.0644 C   0  0  0  0  0  0
  -29.6108  -23.3889   20.7865 C   0  0  0  0  0  0
  -29.8912  -21.9588   20.2236 C   0  0  0  0  0  0
  -29.7005  -24.5827   19.8178 C   0  0  0  0  0  0
  -28.3638  -25.3382   19.6273 C   0  0  0  0  0  0
  -33.1037  -20.6965   20.6850 N   0  0  0  0  0  0
  -30.1379  -21.0699   21.2036 N   0  0  0  0  0  0
  -30.0316  -15.3932   21.2644 N   0  0  0  0  0  0
  -29.3307  -23.5697   21.9786 O   0  0  0  0  0  0
  -29.9195  -21.6912   19.0169 O   0  0  0  0  0  0
  -27.7766  -16.8851   21.1918 F   0  0  0  0  0  0
  -31.4700  -12.4137   19.1089 H   0  0  0  0  0  0
  -30.3378  -11.2888   19.8053 H   0  0  0  0  0  0
  -29.7264  -11.7942   17.4219 H   0  0  0  0  0  0
  -29.6590  -13.5018   17.7832 H   0  0  0  0  0  0
  -27.8213  -11.3150   18.8192 H   0  0  0  0  0  0
  -27.3611  -12.6534   17.7950 H   0  0  0  0  0  0
  -27.7153  -14.2553   19.5994 H   0  0  0  0  0  0
  -28.6821  -11.9183   21.3196 H   0  0  0  0  0  0
  -28.4666  -13.5372   21.8952 H   0  0  0  0  0  0
  -25.2712   -9.5699   22.4763 H   0  0  0  0  0  0
  -23.9973   -7.4623   22.7459 H   0  0  0  0  0  0
  -21.0817   -8.8747   19.8947 H   0  0  0  0  0  0
  -22.3642  -10.9648   19.6152 H   0  0  0  0  0  0
  -21.1990   -7.6116   23.9713 H   0  0  0  0  0  0
  -21.1456   -6.0492   25.9077 H   0  0  0  0  0  0
  -22.0634   -2.7604   23.2842 H   0  0  0  0  0  0
  -22.4000  -11.9884   22.4778 H   0  0  0  0  0  0
  -21.1088  -13.1343   22.2591 H   0  0  0  0  0  0
  -24.6696  -15.8414   20.5693 H   0  0  0  0  0  0
  -26.3216  -15.6450   20.2806 H   0  0  0  0  0  0
  -26.7102  -32.5514   23.1186 H   0  0  0  0  0  0
  -24.9975  -33.9757   25.0437 H   0  0  0  0  0  0
  -22.6886  -31.3104   21.4189 H   0  0  0  0  0  0
  -23.3753  -35.9615   23.3241 H   0  0  0  0  0  0
  -24.3580  -36.8988   22.2066 H   0  0  0  0  0  0
  -23.7166  -37.6473   23.6699 H   0  0  0  0  0  0
  -26.0515  -31.5989   20.6077 H   0  0  0  0  0  0
  -26.8193  -30.8753   21.9922 H   0  0  0  0  0  0
  -28.0985  -29.0901   21.1618 H   0  0  0  0  0  0
  -26.0064  -25.9933   18.9760 H   0  0  0  0  0  0
  -23.9730  -27.3217   19.0103 H   0  0  0  0  0  0
  -23.7285  -30.6136   19.4108 H   0  0  0  0  0  0
  -22.7334  -29.2619   19.8610 H   0  0  0  0  0  0
  -25.1237  -36.1946   25.0828 H   0  0  0  0  0  0
  -20.9908  -28.3168   24.1451 H   0  0  0  0  0  0
  -20.5562  -26.2236   23.3576 H   0  0  0  0  0  0
  -21.6592  -26.7397   22.1226 H   0  0  0  0  0  0
  -19.6852  -25.6295   21.1203 H   0  0  0  0  0  0
  -19.6654  -27.3197   20.6715 H   0  0  0  0  0  0
  -17.4142  -26.6679   21.4003 H   0  0  0  0  0  0
  -18.0295  -26.0074   22.8995 H   0  0  0  0  0  0
  -19.7928  -30.7219   24.2299 H   0  0  0  0  0  0
  -17.5028  -31.6283   24.5135 H   0  0  0  0  0  0
  -15.5339  -30.2999   23.7681 H   0  0  0  0  0  0
  -15.8630  -28.0842   22.7072 H   0  0  0  0  0  0
  -24.5947  -30.6953   25.7877 H   0  0  0  0  0  0
  -24.8867  -32.2782   26.4998 H   0  0  0  0  0  0
  -25.8134  -30.8852   27.0265 H   0  0  0  0  0  0
  -26.2793  -29.6837   24.1175 H   0  0  0  0  0  0
  -27.4018  -29.7256   25.4574 H   0  0  0  0  0  0
  -27.8654  -30.4372   23.9285 H   0  0  0  0  0  0
  -27.2678  -33.3600   26.2150 H   0  0  0  0  0  0
  -28.3852  -32.6862   25.0365 H   0  0  0  0  0  0
  -28.0712  -31.8392   26.5416 H   0  0  0  0  0  0
  -28.2506  -38.0158   24.7631 H   0  0  0  0  0  0
  -28.1138  -36.2694   24.6068 H   0  0  0  0  0  0
  -27.2326  -37.1217   25.8843 H   0  0  0  0  0  0
  -20.9293  -29.8800   21.7027 H   0  0  0  0  0  0
  -26.0112  -38.2864   24.1566 H   0  0  0  0  0  0
  -32.3155  -16.9401   21.1484 H   0  0  0  0  0  0
  -28.0498  -19.4799   21.1234 H   0  0  0  0  0  0
  -33.6116  -18.8757   21.4075 H   0  0  0  0  0  0
  -30.0496  -24.2256   18.8489 H   0  0  0  0  0  0
  -30.4697  -25.2626   20.1825 H   0  0  0  0  0  0
  -27.5618  -24.8092   20.1458 H   0  0  0  0  0  0
  -28.1135  -25.3270   18.5655 H   0  0  0  0  0  0
  -32.2807  -21.1962   20.3697 H   0  0  0  0  0  0
  -30.0738  -21.4533   22.1399 H   0  0  0  0  0  0
  -29.1298  -15.0860   21.5964 H   0  0  0  0  0  0
  1 25  1  0  0  0
  1 30  2  0  0  0
  1 84  1  0  0  0
  2  3  1  0  0  0
  2 25  1  0  0  0
  2 88  1  0  0  0
  2 89  1  0  0  0
  3  4  1  0  0  0
  3 90  1  0  0  0
  3 91  1  0  0  0
  4  5  1  0  0  0
  4 92  1  0  0  0
  4 93  1  0  0  0
  5  6  1  0  0  0
  5 26  1  0  0  0
  5 94  1  0  0  0
  6 25  1  0  0  0
  6 95  1  0  0  0
  6 96  1  0  0  0
  7  8  2  0  0  0
  7 26  1  0  0  0
  7 29  1  0  0  0
  8  9  1  0  0  0
  8 22  1  0  0  0
  9 10  1  0  0  0
  9 27  2  0  0  0
 10 11  2  0  0  0
 10 15  1  0  0  0
 11 12  1  0  0  0
 11 97  1  0  0  0
 12 13  2  0  0  0
 12 98  1  0  0  0
 13 14  1  0  0  0
 13 31  1  0  0  0
 14 15  2  0  0  0
 14 99  1  0  0  0
 15100  1  0  0  0
 16 17  2  0  0  0
 16 21  1  0  0  0
 16 31  1  0  0  0
 17 18  1  0  0  0
 17101  1  0  0  0
 18 19  2  0  0  0
 18102  1  0  0  0
 19 20  1  0  0  0
 19 24  1  0  0  0
 20 21  2  0  0  0
 20103  1  0  0  0
 21 23  1  0  0  0
 22 28  1  0  0  0
 22 32  2  0  0  0
 26 27  1  0  0  0
 28104  1  0  0  0
 28105  1  0  0  0
 29106  1  0  0  0
 29107  1  0  0  0
 33 34  1  0  0  0
 33 66  1  0  0  0
 33 70  2  0  0  0
 34 36  1  0  0  0
 34 59  1  0  0  0
 34108  1  0  0  0
 35 44  2  0  0  0
 35 45  1  0  0  0
 35 68  1  0  0  0
 36 56  1  0  0  0
 36109  1  0  0  0
 37 39  1  0  0  0
 37 47  1  0  0  0
 37 66  1  0  0  0
 37110  1  0  0  0
 38 43  2  0  0  0
 38 46  1  0  0  0
 38 47  1  0  0  0
 39 64  1  0  0  0
 39 67  2  0  0  0
 40 52  1  0  0  0
 40 53  2  0  0  0
 40 58  1  0  0  0
 41111  1  0  0  0
 41112  1  0  0  0
 41113  1  0  0  0
 41 48  1  0  0  0
 42 43  1  0  0  0
 42 66  1  0  0  0
 42114  1  0  0  0
 42115  1  0  0  0
 43 44  1  0  0  0
 44116  1  0  0  0
 45 46  2  0  0  0
 45117  1  0  0  0
 46118  1  0  0  0
 47119  1  0  0  0
 47120  1  0  0  0
 48 56  1  0  0  0
 48 65  1  0  0  0
 48121  1  0  0  0
 49 50  1  0  0  0
 49 53  1  0  0  0
 49 64  1  0  0  0
 49122  1  0  0  0
 50 51  1  0  0  0
 50123  1  0  0  0
 50124  1  0  0  0
 51 52  1  0  0  0
 51125  1  0  0  0
 51126  1  0  0  0
 52127  1  0  0  0
 52128  1  0  0  0
 53 54  1  0  0  0
 54 55  2  0  0  0
 54129  1  0  0  0
 55 57  1  0  0  0
 55130  1  0  0  0
 56 69  2  0  0  0
 57 58  2  0  0  0
 57131  1  0  0  0
 58132  1  0  0  0
 59 60  1  0  0  0
 59 61  1  0  0  0
 59 62  1  0  0  0
 60133  1  0  0  0
 60134  1  0  0  0
 60135  1  0  0  0
 61136  1  0  0  0
 61137  1  0  0  0
 61138  1  0  0  0
 62139  1  0  0  0
 62140  1  0  0  0
 62141  1  0  0  0
 63 65  1  0  0  0
 63142  1  0  0  0
 63143  1  0  0  0
 63144  1  0  0  0
 64145  1  0  0  0
 65146  1  0  0  0
 68 81  1  0  0  0
 71 73  2  0  0  0
 71 74  1  0  0  0
 71147  1  0  0  0
 72 75  2  0  0  0
 72 76  1  0  0  0
 72148  1  0  0  0
 73 75  1  0  0  0
 73 77  1  0  0  0
 74 76  2  0  0  0
 74 84  1  0  0  0
 75 83  1  0  0  0
 76 87  1  0  0  0
 77 82  2  0  0  0
 77149  1  0  0  0
 78 79  1  0  0  0
 78 80  1  0  0  0
 78 85  2  0  0  0
 79 83  1  0  0  0
 79 86  2  0  0  0
 80 81  1  0  0  0
 80150  1  0  0  0
 80151  1  0  0  0
 81152  1  0  0  0
 81153  1  0  0  0
 82154  1  0  0  0
 83155  1  0  0  0
 84156  1  0  0  0
M  ISO  4   1 100  68 101  81 101  84 100
M  END
> <chiral flag>
0

> <version>
0

> <s_m_source_file>
/data/baiqing/PycharmProjects/Reinvent-master-3.2/result/LINK_invent/BTK/process_docking_weight1_custom_product_contain_oxygen_bond_distance_aromatic_linkinvent_7_9_3/rearranged_h_0170.sdf

> <i_m_source_file_index>
88

> <r_mmod_Potential_Energy-OPLS-2005>
-65.3777618408203

> <r_mmod_Stretch_Energy-OPLS-2005>
40.5109672546387

> <r_mmod_Bend_Energy-OPLS-2005>
106.288360595703

> <r_mmod_Torsional_Energy-OPLS-2005>
261.721160888672

> <r_mmod_Improper_Torsional_Energy-OPLS-2005>
5.06355476379395

> <r_mmod_Van_der_Waal_Energy-OPLS-2005>
161.272094726562

> <r_mmod_Electrostatic_Energy-OPLS-2005>
-409.010284423828

> <r_mmod_Solvation_Energy-OPLS-2005>
-242.518814086914

> <b_mmod_Minimization_Converged-OPLS-2005>
0

> <r_mmod_RMS_Derivative-OPLS-2005>
2.29467940330505

$$$$
89
                    3D
 Structure written by MMmdl.
155163  0  0  1  0            999 V2000
  -30.5569  -14.7773   20.4486 C   0  0  0  0  0  0
  -30.4359  -12.4692   19.4850 C   0  0  0  0  0  0
  -29.5186  -12.5269   18.2409 C   0  0  0  0  0  0
  -28.0399  -12.3545   18.6433 C   0  0  0  0  0  0
  -27.6444  -13.2360   19.8578 C   0  0  2  0  0  0
  -28.6836  -13.1425   20.9972 C   0  0  0  0  0  0
  -25.2504  -13.8202   20.5697 C   0  0  0  0  0  0
  -24.1785  -13.0445   20.9194 C   0  0  0  0  0  0
  -24.6383  -11.6924   20.8718 C   0  0  0  0  0  0
  -23.9067  -10.4293   21.0400 C   0  0  0  0  0  0
  -24.3615   -9.4215   21.9180 C   0  0  0  0  0  0
  -23.6290   -8.2246   22.0755 C   0  0  0  0  0  0
  -22.4271   -8.0286   21.3547 C   0  0  0  0  0  0
  -21.9908   -9.0262   20.4650 C   0  0  0  0  0  0
  -22.7235  -10.2140   20.3055 C   0  0  0  0  0  0
  -21.6859   -6.0734   22.5276 C   0  0  0  0  0  0
  -21.4014   -6.5635   23.8208 C   0  0  0  0  0  0
  -21.3656   -5.6782   24.9170 C   0  0  0  0  0  0
  -21.6046   -4.3045   24.7217 C   0  0  0  0  0  0
  -21.8815   -3.8142   23.4333 C   0  0  0  0  0  0
  -21.9190   -4.6961   22.3397 C   0  0  0  0  0  0
  -22.7807  -13.5231   21.1853 C   0  0  0  0  0  0
  -22.1661   -4.2155   21.0971 F   0  0  0  0  0  0
  -21.5637   -3.4526   25.7728 F   0  0  0  0  0  0
  -29.9868  -13.5194   20.4337 N   0  0  0  0  0  0
  -26.2935  -12.9422   20.3274 N   0  0  0  0  0  0
  -25.9315  -11.6558   20.5698 N   0  0  0  0  0  0
  -22.0437  -12.8245   22.0412 N   0  0  0  0  0  0
  -25.4201  -15.1931   20.4145 N   0  0  0  0  0  0
  -31.7091  -14.9242   20.0278 O   0  0  0  0  0  0
  -21.6637   -6.8882   21.4238 O   0  0  0  0  0  0
  -22.3502  -14.5529   20.6686 O   0  0  0  0  0  0
  -24.6332  -31.8536   23.1967 C   0  0  0  0  0  0
  -25.9165  -32.4721   23.8309 C   0  0  1  0  0  0
  -27.2117  -27.2411   20.1291 C   0  0  0  0  0  0
  -25.5955  -33.8529   24.2218 N   0  0  0  0  0  0
  -23.4285  -30.4777   21.5409 C   0  0  2  0  0  0
  -24.8721  -28.9202   20.1080 C   0  0  0  0  0  0
  -22.7507  -29.4605   22.4907 C   0  0  0  0  0  0
  -18.0302  -28.1389   22.8493 C   0  0  0  0  0  0
  -24.1497  -36.7264   23.2640 C   0  0  0  0  0  0
  -25.9772  -30.7584   21.3816 C   0  0  0  0  0  0
  -26.0447  -29.3826   20.7156 C   0  0  0  0  0  0
  -27.2143  -28.5557   20.7137 C   0  0  0  0  0  0
  -26.0101  -26.8412   19.5039 C   0  0  0  0  0  0
  -24.8599  -27.6577   19.4948 C   0  0  0  0  0  0
  -23.6462  -29.8137   20.1558 C   0  0  0  0  0  0
  -25.4124  -36.3044   24.0317 C   0  0  1  0  0  0
  -20.5907  -28.3704   23.1268 C   0  0  2  0  0  0
  -20.6794  -26.9418   22.5419 C   0  0  0  0  0  0
  -19.5765  -26.6384   21.5227 C   0  0  0  0  0  0
  -18.1941  -26.7932   22.1632 C   0  0  0  0  0  0
  -19.1557  -28.8866   23.2872 C   0  0  0  0  0  0
  -18.9475  -30.1467   23.8882 C   0  0  0  0  0  0
  -17.6473  -30.6589   24.0566 C   0  0  0  0  0  0
  -25.9072  -34.9421   23.5066 C   0  0  0  0  0  0
  -16.5363  -29.9081   23.6344 C   0  0  0  0  0  0
  -16.7289  -28.6505   23.0354 C   0  0  0  0  0  0
  -26.4509  -31.6569   25.0732 C   0  0  0  0  0  0
  -25.3708  -31.3772   26.1442 C   0  0  0  0  0  0
  -27.0371  -30.2962   24.6300 C   0  0  0  0  0  0
  -27.6047  -32.4334   25.7512 C   0  0  0  0  0  0
  -27.5580  -37.1780   24.8459 C   0  0  0  0  0  0
  -21.4214  -29.3036   22.3639 N   0  0  0  0  0  0
  -26.4285  -37.3755   23.9411 N   0  0  0  0  0  0
  -24.6986  -31.0493   22.0944 N   0  0  0  0  0  0
  -23.4209  -28.8170   23.3027 O   0  0  0  0  0  0
  -28.3129  -26.3540   20.2311 O   0  0  0  0  0  0
  -26.5650  -34.8910   22.4642 O   0  0  0  0  0  0
  -23.5480  -32.1379   23.7255 O   0  0  0  0  0  0
  -29.4494  -18.4363   20.9145 C   0  0  0  0  0  0
  -29.0246  -19.5694   20.0484 C   0  0  0  0  0  0
  -28.7739  -19.0563   18.7862 C   0  0  0  0  0  0
  -29.6006  -17.1550   20.3236 C   0  0  0  0  0  0
  -28.1357  -19.6584   17.6195 C   0  0  0  0  0  0
  -28.3636  -23.6259   20.4006 C   0  0  0  0  0  0
  -29.0262  -22.2178   19.8934 C   0  0  0  0  0  0
  -30.9309  -21.4731   18.3527 C   0  0  0  0  0  0
  -28.3968  -25.0033   19.5539 C   0  0  0  0  0  0
  -27.3702  -20.6674   17.6244 N   0  0  0  0  0  0
  -28.7612  -20.9655   20.4880 N   0  0  0  0  0  0
  -29.7936  -15.8660   20.8718 N   0  0  0  0  0  0
  -29.9220  -22.3930   18.8956 N   0  3  0  0  0  0
  -27.7837  -23.6036   21.4921 O   0  0  0  0  0  0
  -29.2497  -17.3634   18.6231 S   0  0  0  0  0  0
  -31.4785  -12.5994   19.1904 H   0  0  0  0  0  0
  -30.3842  -11.4854   19.9538 H   0  0  0  0  0  0
  -29.8056  -11.7558   17.5232 H   0  0  0  0  0  0
  -29.6519  -13.4821   17.7279 H   0  0  0  0  0  0
  -27.8817  -11.3030   18.8838 H   0  0  0  0  0  0
  -27.3921  -12.5744   17.7947 H   0  0  0  0  0  0
  -27.6462  -14.2653   19.4979 H   0  0  0  0  0  0
  -28.7208  -12.1302   21.4043 H   0  0  0  0  0  0
  -28.4088  -13.7922   21.8286 H   0  0  0  0  0  0
  -25.2763   -9.5703   22.4748 H   0  0  0  0  0  0
  -24.0014   -7.4642   22.7465 H   0  0  0  0  0  0
  -21.0855   -8.8779   19.8949 H   0  0  0  0  0  0
  -22.3700  -10.9681   19.6159 H   0  0  0  0  0  0
  -21.2005   -7.6140   23.9716 H   0  0  0  0  0  0
  -21.1485   -6.0507   25.9074 H   0  0  0  0  0  0
  -22.0601   -2.7611   23.2819 H   0  0  0  0  0  0
  -22.4050  -11.9933   22.4853 H   0  0  0  0  0  0
  -21.1041  -13.1279   22.2555 H   0  0  0  0  0  0
  -24.6533  -15.8458   20.5286 H   0  0  0  0  0  0
  -26.2709  -15.6354   20.0920 H   0  0  0  0  0  0
  -26.7235  -32.5339   23.1045 H   0  0  0  0  0  0
  -25.0080  -33.9658   25.0347 H   0  0  0  0  0  0
  -22.7252  -31.3013   21.3971 H   0  0  0  0  0  0
  -23.3765  -35.9585   23.3278 H   0  0  0  0  0  0
  -24.3594  -36.8920   22.2059 H   0  0  0  0  0  0
  -23.7242  -37.6452   23.6689 H   0  0  0  0  0  0
  -26.1346  -31.5256   20.6223 H   0  0  0  0  0  0
  -26.8456  -30.7889   22.0281 H   0  0  0  0  0  0
  -28.1117  -28.9069   21.2033 H   0  0  0  0  0  0
  -25.9061  -25.8649   19.0580 H   0  0  0  0  0  0
  -23.9550  -27.2900   19.0320 H   0  0  0  0  0  0
  -23.7779  -30.5933   19.4042 H   0  0  0  0  0  0
  -22.7598  -29.2571   19.8465 H   0  0  0  0  0  0
  -25.1304  -36.1868   25.0806 H   0  0  0  0  0  0
  -21.0006  -28.3302   24.1388 H   0  0  0  0  0  0
  -20.5727  -26.2314   23.3635 H   0  0  0  0  0  0
  -21.6658  -26.7472   22.1190 H   0  0  0  0  0  0
  -19.6930  -25.6292   21.1262 H   0  0  0  0  0  0
  -19.6695  -27.3205   20.6760 H   0  0  0  0  0  0
  -17.4221  -26.6709   21.4015 H   0  0  0  0  0  0
  -18.0317  -26.0069   22.9021 H   0  0  0  0  0  0
  -19.7945  -30.7295   24.2244 H   0  0  0  0  0  0
  -17.5021  -31.6267   24.5169 H   0  0  0  0  0  0
  -15.5357  -30.2970   23.7678 H   0  0  0  0  0  0
  -15.8693  -28.0819   22.7060 H   0  0  0  0  0  0
  -24.5839  -30.7177   25.7766 H   0  0  0  0  0  0
  -24.8960  -32.2974   26.4850 H   0  0  0  0  0  0
  -25.7981  -30.8935   27.0231 H   0  0  0  0  0  0
  -26.2986  -29.6684   24.1298 H   0  0  0  0  0  0
  -27.3975  -29.7260   25.4871 H   0  0  0  0  0  0
  -27.8896  -30.4191   23.9619 H   0  0  0  0  0  0
  -27.2619  -33.3620   26.2085 H   0  0  0  0  0  0
  -28.3852  -32.6916   25.0346 H   0  0  0  0  0  0
  -28.0724  -31.8478   26.5435 H   0  0  0  0  0  0
  -28.2570  -38.0103   24.7527 H   0  0  0  0  0  0
  -28.1100  -36.2630   24.6241 H   0  0  0  0  0  0
  -27.2310  -37.1385   25.8866 H   0  0  0  0  0  0
  -20.9416  -29.8697   21.6779 H   0  0  0  0  0  0
  -26.0151  -38.2820   24.1420 H   0  0  0  0  0  0
  -29.5959  -18.6010   21.9713 H   0  0  0  0  0  0
  -28.3607  -19.1807   16.6616 H   0  0  0  0  0  0
  -31.7481  -22.0472   17.9157 H   0  0  0  0  0  0
  -30.5227  -20.8499   17.5606 H   0  0  0  0  0  0
  -31.3503  -20.8391   19.1337 H   0  0  0  0  0  0
  -27.6705  -24.9206   18.7485 H   0  0  0  0  0  0
  -29.3581  -25.0064   19.0420 H   0  0  0  0  0  0
  -27.1888  -21.0196   18.5553 H   0  0  0  0  0  0
  -28.4434  -21.0059   21.4469 H   0  0  0  0  0  0
  -29.0432  -15.5796   21.4838 H   0  0  0  0  0  0
  -29.9811  -23.3262   18.5136 H   0  0  0  0  0  0
  1 25  1  0  0  0
  1 30  2  0  0  0
  1 82  1  0  0  0
  2  3  1  0  0  0
  2 25  1  0  0  0
  2 86  1  0  0  0
  2 87  1  0  0  0
  3  4  1  0  0  0
  3 88  1  0  0  0
  3 89  1  0  0  0
  4  5  1  0  0  0
  4 90  1  0  0  0
  4 91  1  0  0  0
  5  6  1  0  0  0
  5 26  1  0  0  0
  5 92  1  0  0  0
  6 25  1  0  0  0
  6 93  1  0  0  0
  6 94  1  0  0  0
  7  8  2  0  0  0
  7 26  1  0  0  0
  7 29  1  0  0  0
  8  9  1  0  0  0
  8 22  1  0  0  0
  9 10  1  0  0  0
  9 27  2  0  0  0
 10 11  2  0  0  0
 10 15  1  0  0  0
 11 12  1  0  0  0
 11 95  1  0  0  0
 12 13  2  0  0  0
 12 96  1  0  0  0
 13 14  1  0  0  0
 13 31  1  0  0  0
 14 15  2  0  0  0
 14 97  1  0  0  0
 15 98  1  0  0  0
 16 17  2  0  0  0
 16 21  1  0  0  0
 16 31  1  0  0  0
 17 18  1  0  0  0
 17 99  1  0  0  0
 18 19  2  0  0  0
 18100  1  0  0  0
 19 20  1  0  0  0
 19 24  1  0  0  0
 20 21  2  0  0  0
 20101  1  0  0  0
 21 23  1  0  0  0
 22 28  1  0  0  0
 22 32  2  0  0  0
 26 27  1  0  0  0
 28102  1  0  0  0
 28103  1  0  0  0
 29104  1  0  0  0
 29105  1  0  0  0
 33 34  1  0  0  0
 33 66  1  0  0  0
 33 70  2  0  0  0
 34 36  1  0  0  0
 34 59  1  0  0  0
 34106  1  0  0  0
 35 44  2  0  0  0
 35 45  1  0  0  0
 35 68  1  0  0  0
 36 56  1  0  0  0
 36107  1  0  0  0
 37 39  1  0  0  0
 37 47  1  0  0  0
 37 66  1  0  0  0
 37108  1  0  0  0
 38 43  2  0  0  0
 38 46  1  0  0  0
 38 47  1  0  0  0
 39 64  1  0  0  0
 39 67  2  0  0  0
 40 52  1  0  0  0
 40 53  2  0  0  0
 40 58  1  0  0  0
 41109  1  0  0  0
 41110  1  0  0  0
 41111  1  0  0  0
 41 48  1  0  0  0
 42 43  1  0  0  0
 42 66  1  0  0  0
 42112  1  0  0  0
 42113  1  0  0  0
 43 44  1  0  0  0
 44114  1  0  0  0
 45 46  2  0  0  0
 45115  1  0  0  0
 46116  1  0  0  0
 47117  1  0  0  0
 47118  1  0  0  0
 48 56  1  0  0  0
 48 65  1  0  0  0
 48119  1  0  0  0
 49 50  1  0  0  0
 49 53  1  0  0  0
 49 64  1  0  0  0
 49120  1  0  0  0
 50 51  1  0  0  0
 50121  1  0  0  0
 50122  1  0  0  0
 51 52  1  0  0  0
 51123  1  0  0  0
 51124  1  0  0  0
 52125  1  0  0  0
 52126  1  0  0  0
 53 54  1  0  0  0
 54 55  2  0  0  0
 54127  1  0  0  0
 55 57  1  0  0  0
 55128  1  0  0  0
 56 69  2  0  0  0
 57 58  2  0  0  0
 57129  1  0  0  0
 58130  1  0  0  0
 59 60  1  0  0  0
 59 61  1  0  0  0
 59 62  1  0  0  0
 60131  1  0  0  0
 60132  1  0  0  0
 60133  1  0  0  0
 61134  1  0  0  0
 61135  1  0  0  0
 61136  1  0  0  0
 62137  1  0  0  0
 62138  1  0  0  0
 62139  1  0  0  0
 63 65  1  0  0  0
 63140  1  0  0  0
 63141  1  0  0  0
 63142  1  0  0  0
 64143  1  0  0  0
 65144  1  0  0  0
 68 79  1  0  0  0
 71 72  1  0  0  0
 71 74  2  0  0  0
 71145  1  0  0  0
 72 73  2  0  0  0
 72 81  1  0  0  0
 73 75  1  0  0  0
 73 85  1  0  0  0
 74 82  1  0  0  0
 74 85  1  0  0  0
 75 80  2  0  0  0
 75146  1  0  0  0
 76 77  1  0  0  0
 76 79  1  0  0  0
 76 84  2  0  0  0
 77 81  1  0  0  0
 77 83  2  0  0  0
 78 83  1  0  0  0
 78147  1  0  0  0
 78148  1  0  0  0
 78149  1  0  0  0
 79150  1  0  0  0
 79151  1  0  0  0
 80152  1  0  0  0
 81153  1  0  0  0
 82154  1  0  0  0
 83155  1  0  0  0
M  CHG  1  83   1
M  ISO  4   1 100  68 101  79 101  82 100
M  END
> <chiral flag>
0

> <version>
0

> <s_m_source_file>
/data/baiqing/PycharmProjects/Reinvent-master-3.2/result/LINK_invent/BTK/process_docking_weight1_custom_product_contain_oxygen_bond_distance_aromatic_linkinvent_7_9_3/rearranged_h_0170.sdf

> <i_m_source_file_index>
89

> <r_mmod_Potential_Energy-OPLS-2005>
95.2925415039062

> <r_mmod_Stretch_Energy-OPLS-2005>
142.441284179688

> <r_mmod_Bend_Energy-OPLS-2005>
193.706970214844

> <r_mmod_Torsional_Energy-OPLS-2005>
252.660903930664

> <r_mmod_Improper_Torsional_Energy-OPLS-2005>
5.92199516296387

> <r_mmod_Van_der_Waal_Energy-OPLS-2005>
112.094108581543

> <r_mmod_Electrostatic_Energy-OPLS-2005>
-213.531692504883

> <r_mmod_Solvation_Energy-OPLS-2005>
-497.586578369141

> <b_mmod_Minimization_Converged-OPLS-2005>
0

> <r_mmod_RMS_Derivative-OPLS-2005>
2.24052548408508

$$$$
90
                    3D
 Structure written by MMmdl.
155163  0  0  1  0            999 V2000
  -30.7203  -14.4390   20.6743 C   0  0  0  0  0  0
  -30.4396  -12.3235   19.4105 C   0  0  0  0  0  0
  -29.4990  -12.5343   18.2056 C   0  0  0  0  0  0
  -28.0224  -12.3785   18.6179 C   0  0  0  0  0  0
  -27.6724  -13.2017   19.8846 C   0  0  2  0  0  0
  -28.7125  -12.9384   20.9988 C   0  0  0  0  0  0
  -25.2602  -13.8129   20.5605 C   0  0  0  0  0  0
  -24.1860  -13.0429   20.9168 C   0  0  0  0  0  0
  -24.6413  -11.6897   20.8748 C   0  0  0  0  0  0
  -23.9069  -10.4292   21.0416 C   0  0  0  0  0  0
  -24.3617   -9.4205   21.9192 C   0  0  0  0  0  0
  -23.6293   -8.2242   22.0756 C   0  0  0  0  0  0
  -22.4277   -8.0284   21.3541 C   0  0  0  0  0  0
  -21.9913   -9.0262   20.4653 C   0  0  0  0  0  0
  -22.7241  -10.2140   20.3064 C   0  0  0  0  0  0
  -21.6849   -6.0745   22.5279 C   0  0  0  0  0  0
  -21.4013   -6.5647   23.8214 C   0  0  0  0  0  0
  -21.3656   -5.6793   24.9170 C   0  0  0  0  0  0
  -21.6044   -4.3058   24.7219 C   0  0  0  0  0  0
  -21.8818   -3.8157   23.4337 C   0  0  0  0  0  0
  -21.9195   -4.6975   22.3396 C   0  0  0  0  0  0
  -22.7883  -13.5246   21.1819 C   0  0  0  0  0  0
  -22.1665   -4.2165   21.0971 F   0  0  0  0  0  0
  -21.5622   -3.4539   25.7729 F   0  0  0  0  0  0
  -30.0564  -13.2627   20.4781 N   0  0  0  0  0  0
  -26.3077  -12.9309   20.3387 N   0  0  0  0  0  0
  -25.9347  -11.6474   20.5791 N   0  0  0  0  0  0
  -22.0499  -12.8270   22.0385 N   0  0  0  0  0  0
  -25.4239  -15.1826   20.3847 N   0  0  0  0  0  0
  -31.7303  -14.7556   20.0390 O   0  0  0  0  0  0
  -21.6631   -6.8891   21.4244 O   0  0  0  0  0  0
  -22.3583  -14.5547   20.6648 O   0  0  0  0  0  0
  -24.6137  -31.8685   23.2113 C   0  0  0  0  0  0
  -25.9028  -32.4831   23.8406 C   0  0  1  0  0  0
  -27.2468  -27.4369   20.1114 C   0  0  0  0  0  0
  -25.5889  -33.8626   24.2339 N   0  0  0  0  0  0
  -23.4045  -30.4905   21.5485 C   0  0  2  0  0  0
  -24.8591  -28.9540   20.1205 C   0  0  0  0  0  0
  -22.7411  -29.4662   22.4971 C   0  0  0  0  0  0
  -18.0272  -28.1386   22.8488 C   0  0  0  0  0  0
  -24.1485  -36.7323   23.2640 C   0  0  0  0  0  0
  -25.9324  -30.8334   21.3678 C   0  0  0  0  0  0
  -26.0152  -29.4624   20.7292 C   0  0  0  0  0  0
  -27.2122  -28.7068   20.7368 C   0  0  0  0  0  0
  -26.0811  -26.9501   19.4894 C   0  0  0  0  0  0
  -24.8851  -27.6927   19.5013 C   0  0  0  0  0  0
  -23.6195  -29.8205   20.1642 C   0  0  0  0  0  0
  -25.4102  -36.3117   24.0344 C   0  0  1  0  0  0
  -20.5866  -28.3677   23.1312 C   0  0  2  0  0  0
  -20.6762  -26.9410   22.5417 C   0  0  0  0  0  0
  -19.5742  -26.6392   21.5209 C   0  0  0  0  0  0
  -18.1921  -26.7931   22.1620 C   0  0  0  0  0  0
  -19.1523  -28.8841   23.2902 C   0  0  0  0  0  0
  -18.9452  -30.1447   23.8915 C   0  0  0  0  0  0
  -17.6458  -30.6589   24.0568 C   0  0  0  0  0  0
  -25.9028  -34.9479   23.5136 C   0  0  0  0  0  0
  -16.5347  -29.9097   23.6324 C   0  0  0  0  0  0
  -16.7264  -28.6514   23.0341 C   0  0  0  0  0  0
  -26.4473  -31.6598   25.0717 C   0  0  0  0  0  0
  -25.3758  -31.3700   26.1480 C   0  0  0  0  0  0
  -27.0304  -30.3042   24.6081 C   0  0  0  0  0  0
  -27.6062  -32.4308   25.7464 C   0  0  0  0  0  0
  -27.5581  -37.1811   24.8467 C   0  0  0  0  0  0
  -21.4136  -29.3043   22.3714 N   0  0  0  0  0  0
  -26.4295  -37.3795   23.9413 N   0  0  0  0  0  0
  -24.6678  -31.0787   22.1015 N   0  0  0  0  0  0
  -23.4177  -28.8199   23.3013 O   0  0  0  0  0  0
  -28.3686  -26.6389   20.0356 O   0  0  0  0  0  0
  -26.5589  -34.8928   22.4698 O   0  0  0  0  0  0
  -23.5325  -32.1432   23.7504 O   0  0  0  0  0  0
  -27.5803  -17.7802   21.5396 C   0  0  0  0  0  0
  -28.2995  -18.9615   21.2987 C   0  0  0  0  0  0
  -28.2552  -16.5569   21.6691 C   0  0  0  0  0  0
  -29.7124  -18.9421   21.2101 C   0  0  0  0  0  0
  -29.6537  -16.4852   21.5135 C   0  0  0  0  0  0
  -30.3868  -17.6874   21.2996 C   0  0  0  0  0  0
  -29.8347  -21.5614   21.4620 C   0  0  0  0  0  0
  -29.3735  -23.8151   21.4399 C   0  0  0  0  0  0
  -30.5017  -20.2518   21.0018 C   0  0  0  0  0  0
  -30.0297  -25.1758   21.1114 C   0  0  0  0  0  0
  -29.1318  -26.4456   21.2266 C   0  0  0  0  0  0
  -30.1195  -22.7216   20.9897 N   0  0  0  0  0  0
  -30.2379  -15.1935   21.6763 N   0  0  0  0  0  0
  -28.3124  -23.7899   22.0703 O   0  0  0  0  0  0
  -31.7375  -17.6475   21.2098 F   0  0  0  0  0  0
  -31.4791  -12.4526   19.1045 H   0  0  0  0  0  0
  -30.3675  -11.2982   19.7770 H   0  0  0  0  0  0
  -29.7410  -11.8268   17.4118 H   0  0  0  0  0  0
  -29.6584  -13.5300   17.7891 H   0  0  0  0  0  0
  -27.8381  -11.3201   18.8043 H   0  0  0  0  0  0
  -27.3680  -12.6584   17.7913 H   0  0  0  0  0  0
  -27.7304  -14.2560   19.6115 H   0  0  0  0  0  0
  -28.6857  -11.8871   21.2892 H   0  0  0  0  0  0
  -28.4497  -13.4825   21.9043 H   0  0  0  0  0  0
  -25.2755   -9.5684   22.4778 H   0  0  0  0  0  0
  -24.0004   -7.4632   22.7471 H   0  0  0  0  0  0
  -21.0845   -8.8784   19.8962 H   0  0  0  0  0  0
  -22.3699  -10.9684   19.6184 H   0  0  0  0  0  0
  -21.2001   -7.6155   23.9725 H   0  0  0  0  0  0
  -21.1479   -6.0516   25.9072 H   0  0  0  0  0  0
  -22.0601   -2.7624   23.2820 H   0  0  0  0  0  0
  -22.4085  -11.9946   22.4823 H   0  0  0  0  0  0
  -21.1118  -13.1329   22.2543 H   0  0  0  0  0  0
  -24.6447  -15.8269   20.4595 H   0  0  0  0  0  0
  -26.2576  -15.6130   20.0060 H   0  0  0  0  0  0
  -26.7101  -32.5566   23.1179 H   0  0  0  0  0  0
  -25.0040  -33.9787   25.0483 H   0  0  0  0  0  0
  -22.6934  -31.3070   21.4051 H   0  0  0  0  0  0
  -23.3738  -35.9668   23.3318 H   0  0  0  0  0  0
  -24.3585  -36.8918   22.2053 H   0  0  0  0  0  0
  -23.7248  -37.6539   23.6639 H   0  0  0  0  0  0
  -26.0390  -31.5921   20.5909 H   0  0  0  0  0  0
  -26.8224  -30.8986   21.9817 H   0  0  0  0  0  0
  -28.1013  -29.1045   21.2053 H   0  0  0  0  0  0
  -26.1015  -25.9843   19.0043 H   0  0  0  0  0  0
  -23.9998  -27.2930   19.0260 H   0  0  0  0  0  0
  -23.7335  -30.5943   19.4039 H   0  0  0  0  0  0
  -22.7452  -29.2404   19.8637 H   0  0  0  0  0  0
  -25.1278  -36.1986   25.0838 H   0  0  0  0  0  0
  -20.9965  -28.3245   24.1430 H   0  0  0  0  0  0
  -20.5659  -26.2286   23.3608 H   0  0  0  0  0  0
  -21.6635  -26.7446   22.1217 H   0  0  0  0  0  0
  -19.6910  -25.6306   21.1230 H   0  0  0  0  0  0
  -19.6688  -27.3208   20.6745 H   0  0  0  0  0  0
  -17.4195  -26.6680   21.4021 H   0  0  0  0  0  0
  -18.0326  -26.0072   22.9015 H   0  0  0  0  0  0
  -19.7931  -30.7249   24.2304 H   0  0  0  0  0  0
  -17.5017  -31.6272   24.5169 H   0  0  0  0  0  0
  -15.5351  -30.3007   23.7637 H   0  0  0  0  0  0
  -15.8663  -28.0843   22.7045 H   0  0  0  0  0  0
  -24.5923  -30.7054   25.7823 H   0  0  0  0  0  0
  -24.8964  -32.2858   26.4946 H   0  0  0  0  0  0
  -25.8131  -30.8856   27.0222 H   0  0  0  0  0  0
  -26.2838  -29.6788   24.1174 H   0  0  0  0  0  0
  -27.4125  -29.7285   25.4522 H   0  0  0  0  0  0
  -27.8649  -30.4362   23.9191 H   0  0  0  0  0  0
  -27.2695  -33.3592   26.2085 H   0  0  0  0  0  0
  -28.3842  -32.6893   25.0269 H   0  0  0  0  0  0
  -28.0768  -31.8409   26.5340 H   0  0  0  0  0  0
  -28.2610  -38.0095   24.7500 H   0  0  0  0  0  0
  -28.1063  -36.2630   24.6302 H   0  0  0  0  0  0
  -27.2307  -37.1476   25.8872 H   0  0  0  0  0  0
  -20.9296  -29.8778   21.6949 H   0  0  0  0  0  0
  -26.0189  -38.2878   24.1408 H   0  0  0  0  0  0
  -26.5037  -17.8111   21.6352 H   0  0  0  0  0  0
  -27.7405  -19.8821   21.2030 H   0  0  0  0  0  0
  -27.6781  -15.6689   21.8800 H   0  0  0  0  0  0
  -29.0942  -21.4134   22.2550 H   0  0  0  0  0  0
  -30.7350  -20.3346   19.9401 H   0  0  0  0  0  0
  -31.4582  -20.1678   21.5181 H   0  0  0  0  0  0
  -30.4882  -25.1389   20.1226 H   0  0  0  0  0  0
  -30.8532  -25.2843   21.8182 H   0  0  0  0  0  0
  -29.7698  -27.3191   21.3697 H   0  0  0  0  0  0
  -28.4839  -26.3902   22.1035 H   0  0  0  0  0  0
  -29.6835  -14.6106   22.2835 H   0  0  0  0  0  0
  1 25  1  0  0  0
  1 30  2  0  0  0
  1 83  1  0  0  0
  2  3  1  0  0  0
  2 25  1  0  0  0
  2 86  1  0  0  0
  2 87  1  0  0  0
  3  4  1  0  0  0
  3 88  1  0  0  0
  3 89  1  0  0  0
  4  5  1  0  0  0
  4 90  1  0  0  0
  4 91  1  0  0  0
  5  6  1  0  0  0
  5 26  1  0  0  0
  5 92  1  0  0  0
  6 25  1  0  0  0
  6 93  1  0  0  0
  6 94  1  0  0  0
  7  8  2  0  0  0
  7 26  1  0  0  0
  7 29  1  0  0  0
  8  9  1  0  0  0
  8 22  1  0  0  0
  9 10  1  0  0  0
  9 27  2  0  0  0
 10 11  2  0  0  0
 10 15  1  0  0  0
 11 12  1  0  0  0
 11 95  1  0  0  0
 12 13  2  0  0  0
 12 96  1  0  0  0
 13 14  1  0  0  0
 13 31  1  0  0  0
 14 15  2  0  0  0
 14 97  1  0  0  0
 15 98  1  0  0  0
 16 17  2  0  0  0
 16 21  1  0  0  0
 16 31  1  0  0  0
 17 18  1  0  0  0
 17 99  1  0  0  0
 18 19  2  0  0  0
 18100  1  0  0  0
 19 20  1  0  0  0
 19 24  1  0  0  0
 20 21  2  0  0  0
 20101  1  0  0  0
 21 23  1  0  0  0
 22 28  1  0  0  0
 22 32  2  0  0  0
 26 27  1  0  0  0
 28102  1  0  0  0
 28103  1  0  0  0
 29104  1  0  0  0
 29105  1  0  0  0
 33 34  1  0  0  0
 33 66  1  0  0  0
 33 70  2  0  0  0
 34 36  1  0  0  0
 34 59  1  0  0  0
 34106  1  0  0  0
 35 44  2  0  0  0
 35 45  1  0  0  0
 35 68  1  0  0  0
 36 56  1  0  0  0
 36107  1  0  0  0
 37 39  1  0  0  0
 37 47  1  0  0  0
 37 66  1  0  0  0
 37108  1  0  0  0
 38 43  2  0  0  0
 38 46  1  0  0  0
 38 47  1  0  0  0
 39 64  1  0  0  0
 39 67  2  0  0  0
 40 52  1  0  0  0
 40 53  2  0  0  0
 40 58  1  0  0  0
 41109  1  0  0  0
 41110  1  0  0  0
 41111  1  0  0  0
 41 48  1  0  0  0
 42 43  1  0  0  0
 42 66  1  0  0  0
 42112  1  0  0  0
 42113  1  0  0  0
 43 44  1  0  0  0
 44114  1  0  0  0
 45 46  2  0  0  0
 45115  1  0  0  0
 46116  1  0  0  0
 47117  1  0  0  0
 47118  1  0  0  0
 48 56  1  0  0  0
 48 65  1  0  0  0
 48119  1  0  0  0
 49 50  1  0  0  0
 49 53  1  0  0  0
 49 64  1  0  0  0
 49120  1  0  0  0
 50 51  1  0  0  0
 50121  1  0  0  0
 50122  1  0  0  0
 51 52  1  0  0  0
 51123  1  0  0  0
 51124  1  0  0  0
 52125  1  0  0  0
 52126  1  0  0  0
 53 54  1  0  0  0
 54 55  2  0  0  0
 54127  1  0  0  0
 55 57  1  0  0  0
 55128  1  0  0  0
 56 69  2  0  0  0
 57 58  2  0  0  0
 57129  1  0  0  0
 58130  1  0  0  0
 59 60  1  0  0  0
 59 61  1  0  0  0
 59 62  1  0  0  0
 60131  1  0  0  0
 60132  1  0  0  0
 60133  1  0  0  0
 61134  1  0  0  0
 61135  1  0  0  0
 61136  1  0  0  0
 62137  1  0  0  0
 62138  1  0  0  0
 62139  1  0  0  0
 63 65  1  0  0  0
 63140  1  0  0  0
 63141  1  0  0  0
 63142  1  0  0  0
 64143  1  0  0  0
 65144  1  0  0  0
 68 81  1  0  0  0
 71 72  2  0  0  0
 71 73  1  0  0  0
 71145  1  0  0  0
 72 74  1  0  0  0
 72146  1  0  0  0
 73 75  2  0  0  0
 73147  1  0  0  0
 74 76  2  0  0  0
 74 79  1  0  0  0
 75 76  1  0  0  0
 75 83  1  0  0  0
 76 85  1  0  0  0
 77 79  1  0  0  0
 77 82  2  0  0  0
 77148  1  0  0  0
 78 80  1  0  0  0
 78 82  1  0  0  0
 78 84  2  0  0  0
 79149  1  0  0  0
 79150  1  0  0  0
 80 81  1  0  0  0
 80151  1  0  0  0
 80152  1  0  0  0
 81153  1  0  0  0
 81154  1  0  0  0
 83155  1  0  0  0
M  ISO  4   1 100  68 101  81 101  83 100
M  END
> <chiral flag>
0

> <version>
0

> <s_m_source_file>
/data/baiqing/PycharmProjects/Reinvent-master-3.2/result/LINK_invent/BTK/process_docking_weight1_custom_product_contain_oxygen_bond_distance_aromatic_linkinvent_7_9_3/rearranged_h_0170.sdf

> <i_m_source_file_index>
90

> <r_mmod_Potential_Energy-OPLS-2005>
-67.0452117919922

> <r_mmod_Stretch_Energy-OPLS-2005>
42.4139099121094

> <r_mmod_Bend_Energy-OPLS-2005>
108.94295501709

> <r_mmod_Torsional_Energy-OPLS-2005>
241.639892578125

> <r_mmod_Improper_Torsional_Energy-OPLS-2005>
7.24109983444214

> <r_mmod_Van_der_Waal_Energy-OPLS-2005>
151.356460571289

> <r_mmod_Electrostatic_Energy-OPLS-2005>
-413.169830322266

> <r_mmod_Solvation_Energy-OPLS-2005>
-216.245452880859

> <b_mmod_Minimization_Converged-OPLS-2005>
0

> <r_mmod_RMS_Derivative-OPLS-2005>
1.13666260242462

$$$$
91
                    3D
 Structure written by MMmdl.
157165  0  0  1  0            999 V2000
  -30.6435  -14.4957   20.5490 C   0  0  0  0  0  0
  -30.4317  -12.3092   19.4434 C   0  0  0  0  0  0
  -29.5140  -12.5103   18.2200 C   0  0  0  0  0  0
  -28.0315  -12.3472   18.6149 C   0  0  0  0  0  0
  -27.6558  -13.1887   19.8674 C   0  0  2  0  0  0
  -28.6924  -13.0108   21.0005 C   0  0  0  0  0  0
  -25.2656  -13.8120   20.5649 C   0  0  0  0  0  0
  -24.1880  -13.0423   20.9154 C   0  0  0  0  0  0
  -24.6422  -11.6904   20.8683 C   0  0  0  0  0  0
  -23.9071  -10.4310   21.0387 C   0  0  0  0  0  0
  -24.3673   -9.4252   21.9152 C   0  0  0  0  0  0
  -23.6372   -8.2289   22.0733 C   0  0  0  0  0  0
  -22.4346   -8.0324   21.3539 C   0  0  0  0  0  0
  -21.9942   -9.0290   20.4648 C   0  0  0  0  0  0
  -22.7241  -10.2174   20.3050 C   0  0  0  0  0  0
  -21.6882   -6.0808   22.5289 C   0  0  0  0  0  0
  -21.3996   -6.5688   23.8216 C   0  0  0  0  0  0
  -21.3675   -5.6819   24.9170 C   0  0  0  0  0  0
  -21.6048   -4.3079   24.7195 C   0  0  0  0  0  0
  -21.8837   -3.8208   23.4303 C   0  0  0  0  0  0
  -21.9224   -4.7049   22.3384 C   0  0  0  0  0  0
  -22.7919  -13.5251   21.1836 C   0  0  0  0  0  0
  -22.1718   -4.2260   21.0946 F   0  0  0  0  0  0
  -21.5647   -3.4545   25.7679 F   0  0  0  0  0  0
  -30.0200  -13.3004   20.4349 N   0  0  0  0  0  0
  -26.2994  -12.9214   20.3267 N   0  0  0  0  0  0
  -25.9305  -11.6416   20.5673 N   0  0  0  0  0  0
  -22.0582  -12.8225   22.0416 N   0  0  0  0  0  0
  -25.4426  -15.1818   20.4145 N   0  0  0  0  0  0
  -31.8514  -14.6610   20.3347 O   0  0  0  0  0  0
  -21.6695   -6.8932   21.4254 O   0  0  0  0  0  0
  -22.3595  -14.5568   20.6714 O   0  0  0  0  0  0
  -24.6236  -31.8775   23.2263 C   0  0  0  0  0  0
  -25.9084  -32.4931   23.8503 C   0  0  1  0  0  0
  -27.2694  -27.4906   20.0774 C   0  0  0  0  0  0
  -25.5936  -33.8719   24.2416 N   0  0  0  0  0  0
  -23.4190  -30.5039   21.5849 C   0  0  2  0  0  0
  -24.8526  -28.9708   20.1185 C   0  0  0  0  0  0
  -22.7729  -29.4829   22.5388 C   0  0  0  0  0  0
  -17.9876  -28.1258   22.8495 C   0  0  0  0  0  0
  -24.1516  -36.7376   23.2622 C   0  0  0  0  0  0
  -25.9268  -30.8663   21.3512 C   0  0  0  0  0  0
  -26.0047  -29.4983   20.7064 C   0  0  0  0  0  0
  -27.2006  -28.7541   20.6943 C   0  0  0  0  0  0
  -26.0969  -26.9659   19.4694 C   0  0  0  0  0  0
  -24.8853  -27.6959   19.5297 C   0  0  0  0  0  0
  -23.6063  -29.8276   20.1959 C   0  0  0  0  0  0
  -25.4127  -36.3189   24.0357 C   0  0  1  0  0  0
  -20.4717  -28.4691   22.8038 C   0  0  2  0  0  0
  -20.6709  -26.9754   22.5259 C   0  0  0  0  0  0
  -19.5543  -26.5081   21.5613 C   0  0  0  0  0  0
  -18.1503  -26.7790   22.1487 C   0  0  0  0  0  0
  -19.1059  -28.8961   23.2583 C   0  0  0  0  0  0
  -18.9264  -30.1323   23.9027 C   0  0  0  0  0  0
  -17.6294  -30.6293   24.1000 C   0  0  0  0  0  0
  -25.9026  -34.9558   23.5182 C   0  0  0  0  0  0
  -16.5132  -29.8895   23.6660 C   0  0  0  0  0  0
  -16.6890  -28.6293   23.0678 C   0  0  0  0  0  0
  -26.4446  -31.6668   25.0801 C   0  0  0  0  0  0
  -25.3696  -31.3771   26.1543 C   0  0  0  0  0  0
  -27.0214  -30.3134   24.6079 C   0  0  0  0  0  0
  -27.6058  -32.4336   25.7566 C   0  0  0  0  0  0
  -27.5601  -37.1861   24.8445 C   0  0  0  0  0  0
  -21.4468  -29.4600   22.4409 N   0  0  0  0  0  0
  -26.4307  -37.3874   23.9393 N   0  0  0  0  0  0
  -24.6782  -31.0967   22.1166 N   0  0  0  0  0  0
  -23.4340  -28.7514   23.2681 O   0  0  0  0  0  0
  -28.5324  -26.9354   19.9983 O   0  0  0  0  0  0
  -26.5548  -34.8968   22.4716 O   0  0  0  0  0  0
  -23.5400  -32.1466   23.7632 O   0  0  0  0  0  0
  -28.9612  -19.3123   22.0267 C   0  0  0  0  0  0
  -30.1459  -17.1722   22.1879 C   0  0  0  0  0  0
  -28.4052  -18.9277   20.7796 C   0  0  0  0  0  0
  -29.6166  -16.7853   20.9332 C   0  0  0  0  0  0
  -29.8047  -18.4286   22.7316 C   0  0  0  0  0  0
  -28.7485  -17.6604   20.2502 C   0  0  0  0  0  0
  -28.2304  -22.1844   19.9647 C   0  0  0  0  0  0
  -27.4304  -19.8318   20.0247 C   0  0  0  0  0  0
  -28.8666  -23.2334   19.0596 C   0  0  0  0  0  0
  -28.1743  -24.5985   19.1867 C   0  0  0  0  0  0
  -28.7945  -25.5465   20.1942 C   0  0  0  0  0  0
  -29.7875  -15.5036   20.3361 N   0  0  0  0  0  0
  -28.0682  -20.9901   19.4191 N   0  0  0  0  0  0
  -27.8979  -22.4630   21.1141 O   0  0  0  0  0  0
  -30.2497  -18.7651   23.9687 F   0  0  0  0  0  0
  -28.2056  -17.2518   19.0750 F   0  0  0  0  0  0
  -31.4886  -12.4114   19.1749 H   0  0  0  0  0  0
  -30.3092  -11.3059   19.8497 H   0  0  0  0  0  0
  -29.7739  -11.7976   17.4340 H   0  0  0  0  0  0
  -29.6792  -13.5078   17.7993 H   0  0  0  0  0  0
  -27.8346  -11.2862   18.7883 H   0  0  0  0  0  0
  -27.3940  -12.6396   17.7811 H   0  0  0  0  0  0
  -27.6767  -14.2268   19.5471 H   0  0  0  0  0  0
  -28.6733  -11.9958   21.4025 H   0  0  0  0  0  0
  -28.4617  -13.6777   21.8352 H   0  0  0  0  0  0
  -25.2842   -9.5810   22.4682 H   0  0  0  0  0  0
  -24.0166   -7.4686   22.7414 H   0  0  0  0  0  0
  -21.0892   -8.8810   19.8929 H   0  0  0  0  0  0
  -22.3692  -10.9751   19.6201 H   0  0  0  0  0  0
  -21.1931   -7.6188   23.9752 H   0  0  0  0  0  0
  -21.1475   -6.0525   25.9079 H   0  0  0  0  0  0
  -22.0584   -2.7678   23.2734 H   0  0  0  0  0  0
  -22.4223  -11.9877   22.4759 H   0  0  0  0  0  0
  -21.1199  -13.1239   22.2641 H   0  0  0  0  0  0
  -24.6786  -15.8350   20.5596 H   0  0  0  0  0  0
  -26.3031  -15.6323   20.1271 H   0  0  0  0  0  0
  -26.7180  -32.5622   23.1277 H   0  0  0  0  0  0
  -25.0212  -33.9865   25.0660 H   0  0  0  0  0  0
  -22.6911  -31.3186   21.4568 H   0  0  0  0  0  0
  -23.3781  -35.9696   23.3289 H   0  0  0  0  0  0
  -24.3615  -36.8963   22.2029 H   0  0  0  0  0  0
  -23.7228  -37.6605   23.6587 H   0  0  0  0  0  0
  -26.0012  -31.6326   20.5761 H   0  0  0  0  0  0
  -26.8227  -30.9337   21.9616 H   0  0  0  0  0  0
  -28.1082  -29.1804   21.1058 H   0  0  0  0  0  0
  -26.0847  -26.0730   18.8463 H   0  0  0  0  0  0
  -23.9762  -27.2987   19.1091 H   0  0  0  0  0  0
  -23.6794  -30.6102   19.4417 H   0  0  0  0  0  0
  -22.7121  -29.2693   19.9157 H   0  0  0  0  0  0
  -25.1289  -36.2137   25.0855 H   0  0  0  0  0  0
  -20.1646  -28.7291   21.7907 H   0  0  0  0  0  0
  -20.6279  -26.4152   23.4610 H   0  0  0  0  0  0
  -21.6541  -26.7888   22.0962 H   0  0  0  0  0  0
  -19.6575  -27.0077   20.5956 H   0  0  0  0  0  0
  -19.6596  -25.4481   21.3229 H   0  0  0  0  0  0
  -17.4029  -26.7045   21.3607 H   0  0  0  0  0  0
  -17.9057  -26.0024   22.8784 H   0  0  0  0  0  0
  -19.7874  -30.7097   24.2176 H   0  0  0  0  0  0
  -17.4954  -31.5830   24.5907 H   0  0  0  0  0  0
  -15.5181  -30.2822   23.8105 H   0  0  0  0  0  0
  -15.8215  -28.0542   22.7611 H   0  0  0  0  0  0
  -24.5908  -30.7058   25.7912 H   0  0  0  0  0  0
  -24.8812  -32.2919   26.4948 H   0  0  0  0  0  0
  -25.8053  -30.9022   27.0348 H   0  0  0  0  0  0
  -26.2708  -29.6973   24.1125 H   0  0  0  0  0  0
  -27.4000  -29.7325   25.4498 H   0  0  0  0  0  0
  -27.8555  -30.4510   23.9186 H   0  0  0  0  0  0
  -27.2742  -33.3639   26.2186 H   0  0  0  0  0  0
  -28.3876  -32.6854   25.0394 H   0  0  0  0  0  0
  -28.0703  -31.8404   26.5448 H   0  0  0  0  0  0
  -28.2641  -38.0149   24.7542 H   0  0  0  0  0  0
  -28.1073  -36.2691   24.6245 H   0  0  0  0  0  0
  -27.2284  -37.1509   25.8832 H   0  0  0  0  0  0
  -21.0664  -30.2147   21.8831 H   0  0  0  0  0  0
  -26.0239  -38.2975   24.1408 H   0  0  0  0  0  0
  -28.7112  -20.2690   22.4672 H   0  0  0  0  0  0
  -30.7487  -16.4994   22.7694 H   0  0  0  0  0  0
  -26.5807  -20.1129   20.6594 H   0  0  0  0  0  0
  -26.9911  -19.2758   19.1911 H   0  0  0  0  0  0
  -29.9347  -23.2705   19.2495 H   0  0  0  0  0  0
  -28.8089  -22.9167   18.0183 H   0  0  0  0  0  0
  -27.1533  -24.4399   19.5174 H   0  0  0  0  0  0
  -28.2005  -25.0858   18.2166 H   0  0  0  0  0  0
  -28.5497  -25.2483   21.2015 H   0  0  0  0  0  0
  -29.8722  -25.4456   20.0670 H   0  0  0  0  0  0
  -29.0706  -15.2818   19.6662 H   0  0  0  0  0  0
  -28.3519  -20.9061   18.4586 H   0  0  0  0  0  0
  1 25  1  0  0  0
  1 30  2  0  0  0
  1 82  1  0  0  0
  2  3  1  0  0  0
  2 25  1  0  0  0
  2 87  1  0  0  0
  2 88  1  0  0  0
  3  4  1  0  0  0
  3 89  1  0  0  0
  3 90  1  0  0  0
  4  5  1  0  0  0
  4 91  1  0  0  0
  4 92  1  0  0  0
  5  6  1  0  0  0
  5 26  1  0  0  0
  5 93  1  0  0  0
  6 25  1  0  0  0
  6 94  1  0  0  0
  6 95  1  0  0  0
  7  8  2  0  0  0
  7 26  1  0  0  0
  7 29  1  0  0  0
  8  9  1  0  0  0
  8 22  1  0  0  0
  9 10  1  0  0  0
  9 27  2  0  0  0
 10 11  2  0  0  0
 10 15  1  0  0  0
 11 12  1  0  0  0
 11 96  1  0  0  0
 12 13  2  0  0  0
 12 97  1  0  0  0
 13 14  1  0  0  0
 13 31  1  0  0  0
 14 15  2  0  0  0
 14 98  1  0  0  0
 15 99  1  0  0  0
 16 17  2  0  0  0
 16 21  1  0  0  0
 16 31  1  0  0  0
 17 18  1  0  0  0
 17100  1  0  0  0
 18 19  2  0  0  0
 18101  1  0  0  0
 19 20  1  0  0  0
 19 24  1  0  0  0
 20 21  2  0  0  0
 20102  1  0  0  0
 21 23  1  0  0  0
 22 28  1  0  0  0
 22 32  2  0  0  0
 26 27  1  0  0  0
 28103  1  0  0  0
 28104  1  0  0  0
 29105  1  0  0  0
 29106  1  0  0  0
 33 34  1  0  0  0
 33 66  1  0  0  0
 33 70  2  0  0  0
 34 36  1  0  0  0
 34 59  1  0  0  0
 34107  1  0  0  0
 35 44  2  0  0  0
 35 45  1  0  0  0
 35 68  1  0  0  0
 36 56  1  0  0  0
 36108  1  0  0  0
 37 39  1  0  0  0
 37 47  1  0  0  0
 37 66  1  0  0  0
 37109  1  0  0  0
 38 43  2  0  0  0
 38 46  1  0  0  0
 38 47  1  0  0  0
 39 64  1  0  0  0
 39 67  2  0  0  0
 40 52  1  0  0  0
 40 53  2  0  0  0
 40 58  1  0  0  0
 41110  1  0  0  0
 41111  1  0  0  0
 41112  1  0  0  0
 41 48  1  0  0  0
 42 43  1  0  0  0
 42 66  1  0  0  0
 42113  1  0  0  0
 42114  1  0  0  0
 43 44  1  0  0  0
 44115  1  0  0  0
 45 46  2  0  0  0
 45116  1  0  0  0
 46117  1  0  0  0
 47118  1  0  0  0
 47119  1  0  0  0
 48 56  1  0  0  0
 48 65  1  0  0  0
 48120  1  0  0  0
 49 50  1  0  0  0
 49 53  1  0  0  0
 49 64  1  0  0  0
 49121  1  0  0  0
 50 51  1  0  0  0
 50122  1  0  0  0
 50123  1  0  0  0
 51 52  1  0  0  0
 51124  1  0  0  0
 51125  1  0  0  0
 52126  1  0  0  0
 52127  1  0  0  0
 53 54  1  0  0  0
 54 55  2  0  0  0
 54128  1  0  0  0
 55 57  1  0  0  0
 55129  1  0  0  0
 56 69  2  0  0  0
 57 58  2  0  0  0
 57130  1  0  0  0
 58131  1  0  0  0
 59 60  1  0  0  0
 59 61  1  0  0  0
 59 62  1  0  0  0
 60132  1  0  0  0
 60133  1  0  0  0
 60134  1  0  0  0
 61135  1  0  0  0
 61136  1  0  0  0
 61137  1  0  0  0
 62138  1  0  0  0
 62139  1  0  0  0
 62140  1  0  0  0
 63 65  1  0  0  0
 63141  1  0  0  0
 63142  1  0  0  0
 63143  1  0  0  0
 64144  1  0  0  0
 65145  1  0  0  0
 68 81  1  0  0  0
 71 73  2  0  0  0
 71 75  1  0  0  0
 71146  1  0  0  0
 72 74  1  0  0  0
 72 75  2  0  0  0
 72147  1  0  0  0
 73 76  1  0  0  0
 73 78  1  0  0  0
 74 76  2  0  0  0
 74 82  1  0  0  0
 75 85  1  0  0  0
 76 86  1  0  0  0
 77 79  1  0  0  0
 77 83  1  0  0  0
 77 84  2  0  0  0
 78 83  1  0  0  0
 78148  1  0  0  0
 78149  1  0  0  0
 79 80  1  0  0  0
 79150  1  0  0  0
 79151  1  0  0  0
 80 81  1  0  0  0
 80152  1  0  0  0
 80153  1  0  0  0
 81154  1  0  0  0
 81155  1  0  0  0
 82156  1  0  0  0
 83157  1  0  0  0
M  ISO  4   1 100  68 101  81 101  82 100
M  END
> <chiral flag>
0

> <version>
0

> <s_m_source_file>
/data/baiqing/PycharmProjects/Reinvent-master-3.2/result/LINK_invent/BTK/process_docking_weight1_custom_product_contain_oxygen_bond_distance_aromatic_linkinvent_7_9_3/rearranged_h_0170.sdf

> <i_m_source_file_index>
91

> <r_mmod_Potential_Energy-OPLS-2005>
32.8753967285156

> <r_mmod_Stretch_Energy-OPLS-2005>
30.5623359680176

> <r_mmod_Bend_Energy-OPLS-2005>
237.254287719727

> <r_mmod_Torsional_Energy-OPLS-2005>
266.755432128906

> <r_mmod_Improper_Torsional_Energy-OPLS-2005>
21.3417530059814

> <r_mmod_Van_der_Waal_Energy-OPLS-2005>
159.672897338867

> <r_mmod_Electrostatic_Energy-OPLS-2005>
-492.398498535156

> <r_mmod_Solvation_Energy-OPLS-2005>
-234.654510498047

> <b_mmod_Minimization_Converged-OPLS-2005>
0

> <r_mmod_RMS_Derivative-OPLS-2005>
16.4028186798096

$$$$
92
                    3D
 Structure written by MMmdl.
167175  0  0  1  0            999 V2000
  -30.7692  -14.3967   20.6171 C   0  0  0  0  0  0
  -30.4054  -12.2743   19.4205 C   0  0  0  0  0  0
  -29.4889  -12.5106   18.2055 C   0  0  0  0  0  0
  -28.0115  -12.3764   18.6178 C   0  0  0  0  0  0
  -27.6659  -13.2106   19.8804 C   0  0  2  0  0  0
  -28.7028  -12.9851   21.0050 C   0  0  0  0  0  0
  -25.2592  -13.8179   20.5698 C   0  0  0  0  0  0
  -24.1845  -13.0452   20.9180 C   0  0  0  0  0  0
  -24.6392  -11.6919   20.8720 C   0  0  0  0  0  0
  -23.9054  -10.4298   21.0380 C   0  0  0  0  0  0
  -24.3607   -9.4220   21.9164 C   0  0  0  0  0  0
  -23.6288   -8.2251   22.0743 C   0  0  0  0  0  0
  -22.4270   -8.0277   21.3539 C   0  0  0  0  0  0
  -21.9899   -9.0247   20.4638 C   0  0  0  0  0  0
  -22.7218  -10.2132   20.3041 C   0  0  0  0  0  0
  -21.6858   -6.0734   22.5280 C   0  0  0  0  0  0
  -21.4008   -6.5637   23.8212 C   0  0  0  0  0  0
  -21.3664   -5.6791   24.9172 C   0  0  0  0  0  0
  -21.6043   -4.3054   24.7223 C   0  0  0  0  0  0
  -21.8817   -3.8145   23.4343 C   0  0  0  0  0  0
  -21.9191   -4.6960   22.3399 C   0  0  0  0  0  0
  -22.7859  -13.5230   21.1843 C   0  0  0  0  0  0
  -22.1665   -4.2149   21.0977 F   0  0  0  0  0  0
  -21.5627   -3.4536   25.7734 F   0  0  0  0  0  0
  -30.0470  -13.2545   20.4615 N   0  0  0  0  0  0
  -26.3049  -12.9371   20.3394 N   0  0  0  0  0  0
  -25.9327  -11.6522   20.5760 N   0  0  0  0  0  0
  -22.0504  -12.8233   22.0404 N   0  0  0  0  0  0
  -25.4317  -15.1895   20.4117 N   0  0  0  0  0  0
  -31.8279  -14.5760   20.0131 O   0  0  0  0  0  0
  -21.6642   -6.8873   21.4239 O   0  0  0  0  0  0
  -22.3540  -14.5540   20.6692 O   0  0  0  0  0  0
  -24.6081  -31.8671   23.2154 C   0  0  0  0  0  0
  -25.8967  -32.4840   23.8442 C   0  0  1  0  0  0
  -27.2302  -27.4630   20.0866 C   0  0  0  0  0  0
  -25.5840  -33.8645   24.2377 N   0  0  0  0  0  0
  -23.3973  -30.4935   21.5511 C   0  0  2  0  0  0
  -24.8472  -28.9666   20.1131 C   0  0  0  0  0  0
  -22.7389  -29.4653   22.4979 C   0  0  0  0  0  0
  -18.0285  -28.1390   22.8523 C   0  0  0  0  0  0
  -24.1486  -36.7313   23.2642 C   0  0  0  0  0  0
  -25.9261  -30.8399   21.3675 C   0  0  0  0  0  0
  -26.0046  -29.4784   20.7131 C   0  0  0  0  0  0
  -27.2044  -28.7332   20.6959 C   0  0  0  0  0  0
  -26.0601  -26.9615   19.4764 C   0  0  0  0  0  0
  -24.8679  -27.7082   19.4900 C   0  0  0  0  0  0
  -23.6073  -29.8269   20.1651 C   0  0  0  0  0  0
  -25.4099  -36.3137   24.0370 C   0  0  1  0  0  0
  -20.5861  -28.3645   23.1341 C   0  0  2  0  0  0
  -20.6798  -26.9385   22.5421 C   0  0  0  0  0  0
  -19.5778  -26.6395   21.5220 C   0  0  0  0  0  0
  -18.1943  -26.7950   22.1625 C   0  0  0  0  0  0
  -19.1528  -28.8837   23.2942 C   0  0  0  0  0  0
  -18.9450  -30.1461   23.8932 C   0  0  0  0  0  0
  -17.6444  -30.6593   24.0574 C   0  0  0  0  0  0
  -25.9004  -34.9493   23.5178 C   0  0  0  0  0  0
  -16.5340  -29.9100   23.6327 C   0  0  0  0  0  0
  -16.7269  -28.6519   23.0350 C   0  0  0  0  0  0
  -26.4428  -31.6597   25.0737 C   0  0  0  0  0  0
  -25.3715  -31.3678   26.1494 C   0  0  0  0  0  0
  -27.0264  -30.3070   24.6052 C   0  0  0  0  0  0
  -27.6047  -32.4276   25.7453 C   0  0  0  0  0  0
  -27.5598  -37.1809   24.8476 C   0  0  0  0  0  0
  -21.4116  -29.3003   22.3726 N   0  0  0  0  0  0
  -26.4301  -37.3799   23.9428 N   0  0  0  0  0  0
  -24.6612  -31.0808   22.1033 N   0  0  0  0  0  0
  -23.4170  -28.8183   23.2996 O   0  0  0  0  0  0
  -28.3846  -26.7210   20.0879 O   0  0  0  0  0  0
  -26.5558  -34.8930   22.4727 O   0  0  0  0  0  0
  -23.5269  -32.1401   23.7558 O   0  0  0  0  0  0
  -31.7470  -17.2915   21.0290 C   0  0  0  0  0  0
  -32.0461  -18.6490   21.2175 C   0  0  0  0  0  0
  -29.7724  -17.5106   22.4547 C   0  0  0  0  0  0
  -30.6062  -16.6991   21.6326 C   0  0  0  0  0  0
  -30.0778  -18.8907   22.6416 C   0  0  0  0  0  0
  -31.2191  -19.4464   22.0157 C   0  0  0  0  0  0
  -29.1697  -22.2147   23.2221 C   0  0  0  0  0  0
  -28.5538  -16.8804   23.1308 C   0  0  0  0  0  0
  -29.4254  -22.4084   24.7057 C   0  0  0  0  0  0
  -27.0997  -20.7710   23.0544 C   0  0  0  0  0  0
  -29.3242  -24.4773   20.3528 C   0  0  0  0  0  0
  -29.1344  -23.1012   21.0165 C   0  0  0  0  0  0
  -28.2526  -25.4857   20.7911 C   0  0  0  0  0  0
  -28.6114  -20.8367   22.8023 C   0  0  2  0  0  0
  -29.3990  -23.1974   22.4413 N   0  0  0  0  0  0
  -30.2524  -15.3176   21.4543 N   0  0  0  0  0  0
  -29.2674  -19.7008   23.4543 N   0  0  0  0  0  0
  -31.5529  -20.7468   22.1975 F   0  0  0  0  0  0
  -31.4530  -12.3358   19.1207 H   0  0  0  0  0  0
  -30.2709  -11.2617   19.8031 H   0  0  0  0  0  0
  -29.7233  -11.7994   17.4118 H   0  0  0  0  0  0
  -29.6696  -13.5032   17.7902 H   0  0  0  0  0  0
  -27.8158  -11.3206   18.8080 H   0  0  0  0  0  0
  -27.3615  -12.6605   17.7900 H   0  0  0  0  0  0
  -27.7164  -14.2598   19.5899 H   0  0  0  0  0  0
  -28.6586  -11.9547   21.3589 H   0  0  0  0  0  0
  -28.4618  -13.5984   21.8733 H   0  0  0  0  0  0
  -25.2752   -9.5709   22.4741 H   0  0  0  0  0  0
  -24.0003   -7.4647   22.7468 H   0  0  0  0  0  0
  -21.0830   -8.8748   19.8954 H   0  0  0  0  0  0
  -22.3652  -10.9665   19.6152 H   0  0  0  0  0  0
  -21.2002   -7.6147   23.9712 H   0  0  0  0  0  0
  -21.1491   -6.0522   25.9077 H   0  0  0  0  0  0
  -22.0594   -2.7608   23.2840 H   0  0  0  0  0  0
  -22.4103  -11.9888   22.4806 H   0  0  0  0  0  0
  -21.1120  -13.1260   22.2596 H   0  0  0  0  0  0
  -24.6646  -15.8447   20.5153 H   0  0  0  0  0  0
  -26.2850  -15.6294   20.0907 H   0  0  0  0  0  0
  -26.7021  -32.5567   23.1199 H   0  0  0  0  0  0
  -25.0067  -33.9843   25.0576 H   0  0  0  0  0  0
  -22.6854  -31.3097   21.4144 H   0  0  0  0  0  0
  -23.3772  -35.9624   23.3309 H   0  0  0  0  0  0
  -24.3594  -36.8891   22.2052 H   0  0  0  0  0  0
  -23.7225  -37.6530   23.6618 H   0  0  0  0  0  0
  -26.0329  -31.6046   20.5971 H   0  0  0  0  0  0
  -26.8175  -30.8968   21.9803 H   0  0  0  0  0  0
  -28.1014  -29.1189   21.1604 H   0  0  0  0  0  0
  -26.0625  -25.9973   18.9877 H   0  0  0  0  0  0
  -23.9777  -27.3148   19.0186 H   0  0  0  0  0  0
  -23.7166  -30.6019   19.4065 H   0  0  0  0  0  0
  -22.7360  -29.2403   19.8662 H   0  0  0  0  0  0
  -25.1267  -36.2026   25.0869 H   0  0  0  0  0  0
  -20.9987  -28.3217   24.1453 H   0  0  0  0  0  0
  -20.5738  -26.2215   23.3583 H   0  0  0  0  0  0
  -21.6661  -26.7478   22.1166 H   0  0  0  0  0  0
  -19.6918  -25.6309   21.1237 H   0  0  0  0  0  0
  -19.6755  -27.3228   20.6775 H   0  0  0  0  0  0
  -17.4220  -26.6720   21.4015 H   0  0  0  0  0  0
  -18.0348  -26.0090   22.9015 H   0  0  0  0  0  0
  -19.7907  -30.7303   24.2291 H   0  0  0  0  0  0
  -17.4987  -31.6280   24.5169 H   0  0  0  0  0  0
  -15.5344  -30.3004   23.7648 H   0  0  0  0  0  0
  -15.8679  -28.0858   22.7028 H   0  0  0  0  0  0
  -24.5902  -30.6997   25.7847 H   0  0  0  0  0  0
  -24.8870  -32.2810   26.4955 H   0  0  0  0  0  0
  -25.8075  -30.8857   27.0251 H   0  0  0  0  0  0
  -26.2801  -29.6827   24.1116 H   0  0  0  0  0  0
  -27.4116  -29.7293   25.4468 H   0  0  0  0  0  0
  -27.8595  -30.4479   23.9163 H   0  0  0  0  0  0
  -27.2737  -33.3581   26.2079 H   0  0  0  0  0  0
  -28.3802  -32.6790   25.0208 H   0  0  0  0  0  0
  -28.0754  -31.8337   26.5301 H   0  0  0  0  0  0
  -28.2614  -38.0106   24.7527 H   0  0  0  0  0  0
  -28.1101  -36.2643   24.6293 H   0  0  0  0  0  0
  -27.2324  -37.1443   25.8881 H   0  0  0  0  0  0
  -20.9251  -29.8716   21.6957 H   0  0  0  0  0  0
  -26.0214  -38.2888   24.1430 H   0  0  0  0  0  0
  -32.4401  -16.7445   20.4129 H   0  0  0  0  0  0
  -32.9196  -19.0813   20.7529 H   0  0  0  0  0  0
  -27.9619  -16.3066   22.4180 H   0  0  0  0  0  0
  -27.8733  -17.6063   23.5744 H   0  0  0  0  0  0
  -28.8790  -16.2108   23.9270 H   0  0  0  0  0  0
  -29.6047  -21.4678   25.2258 H   0  0  0  0  0  0
  -28.5629  -22.8917   25.1632 H   0  0  0  0  0  0
  -30.2964  -23.0463   24.8631 H   0  0  0  0  0  0
  -26.8629  -20.8566   24.1170 H   0  0  0  0  0  0
  -26.6831  -19.8308   22.6913 H   0  0  0  0  0  0
  -26.5769  -21.5741   22.5348 H   0  0  0  0  0  0
  -30.3210  -24.8654   20.5652 H   0  0  0  0  0  0
  -29.2690  -24.3555   19.2692 H   0  0  0  0  0  0
  -28.1177  -22.7504   20.8285 H   0  0  0  0  0  0
  -29.8100  -22.3797   20.5520 H   0  0  0  0  0  0
  -28.3336  -25.6953   21.8588 H   0  0  0  0  0  0
  -27.2743  -25.0261   20.6499 H   0  0  0  0  0  0
  -28.7451  -20.7155   21.7263 H   0  0  0  0  0  0
  -29.4221  -15.0146   21.9385 H   0  0  0  0  0  0
  -28.6712  -19.2005   24.1010 H   0  0  0  0  0  0
  1 25  1  0  0  0
  1 30  2  0  0  0
  1 86  1  0  0  0
  2  3  1  0  0  0
  2 25  1  0  0  0
  2 89  1  0  0  0
  2 90  1  0  0  0
  3  4  1  0  0  0
  3 91  1  0  0  0
  3 92  1  0  0  0
  4  5  1  0  0  0
  4 93  1  0  0  0
  4 94  1  0  0  0
  5  6  1  0  0  0
  5 26  1  0  0  0
  5 95  1  0  0  0
  6 25  1  0  0  0
  6 96  1  0  0  0
  6 97  1  0  0  0
  7  8  2  0  0  0
  7 26  1  0  0  0
  7 29  1  0  0  0
  8  9  1  0  0  0
  8 22  1  0  0  0
  9 10  1  0  0  0
  9 27  2  0  0  0
 10 11  2  0  0  0
 10 15  1  0  0  0
 11 12  1  0  0  0
 11 98  1  0  0  0
 12 13  2  0  0  0
 12 99  1  0  0  0
 13 14  1  0  0  0
 13 31  1  0  0  0
 14 15  2  0  0  0
 14100  1  0  0  0
 15101  1  0  0  0
 16 17  2  0  0  0
 16 21  1  0  0  0
 16 31  1  0  0  0
 17 18  1  0  0  0
 17102  1  0  0  0
 18 19  2  0  0  0
 18103  1  0  0  0
 19 20  1  0  0  0
 19 24  1  0  0  0
 20 21  2  0  0  0
 20104  1  0  0  0
 21 23  1  0  0  0
 22 28  1  0  0  0
 22 32  2  0  0  0
 26 27  1  0  0  0
 28105  1  0  0  0
 28106  1  0  0  0
 29107  1  0  0  0
 29108  1  0  0  0
 33 34  1  0  0  0
 33 66  1  0  0  0
 33 70  2  0  0  0
 34 36  1  0  0  0
 34 59  1  0  0  0
 34109  1  0  0  0
 35 44  2  0  0  0
 35 45  1  0  0  0
 35 68  1  0  0  0
 36 56  1  0  0  0
 36110  1  0  0  0
 37 39  1  0  0  0
 37 47  1  0  0  0
 37 66  1  0  0  0
 37111  1  0  0  0
 38 43  2  0  0  0
 38 46  1  0  0  0
 38 47  1  0  0  0
 39 64  1  0  0  0
 39 67  2  0  0  0
 40 52  1  0  0  0
 40 53  2  0  0  0
 40 58  1  0  0  0
 41112  1  0  0  0
 41113  1  0  0  0
 41114  1  0  0  0
 41 48  1  0  0  0
 42 43  1  0  0  0
 42 66  1  0  0  0
 42115  1  0  0  0
 42116  1  0  0  0
 43 44  1  0  0  0
 44117  1  0  0  0
 45 46  2  0  0  0
 45118  1  0  0  0
 46119  1  0  0  0
 47120  1  0  0  0
 47121  1  0  0  0
 48 56  1  0  0  0
 48 65  1  0  0  0
 48122  1  0  0  0
 49 50  1  0  0  0
 49 53  1  0  0  0
 49 64  1  0  0  0
 49123  1  0  0  0
 50 51  1  0  0  0
 50124  1  0  0  0
 50125  1  0  0  0
 51 52  1  0  0  0
 51126  1  0  0  0
 51127  1  0  0  0
 52128  1  0  0  0
 52129  1  0  0  0
 53 54  1  0  0  0
 54 55  2  0  0  0
 54130  1  0  0  0
 55 57  1  0  0  0
 55131  1  0  0  0
 56 69  2  0  0  0
 57 58  2  0  0  0
 57132  1  0  0  0
 58133  1  0  0  0
 59 60  1  0  0  0
 59 61  1  0  0  0
 59 62  1  0  0  0
 60134  1  0  0  0
 60135  1  0  0  0
 60136  1  0  0  0
 61137  1  0  0  0
 61138  1  0  0  0
 61139  1  0  0  0
 62140  1  0  0  0
 62141  1  0  0  0
 62142  1  0  0  0
 63 65  1  0  0  0
 63143  1  0  0  0
 63144  1  0  0  0
 63145  1  0  0  0
 64146  1  0  0  0
 65147  1  0  0  0
 68 83  1  0  0  0
 71 72  2  0  0  0
 71 74  1  0  0  0
 71148  1  0  0  0
 72 76  1  0  0  0
 72149  1  0  0  0
 73 74  2  0  0  0
 73 75  1  0  0  0
 73 78  1  0  0  0
 74 86  1  0  0  0
 75 76  2  0  0  0
 75 87  1  0  0  0
 76 88  1  0  0  0
 77 79  1  0  0  0
 77 84  1  0  0  0
 77 85  2  0  0  0
 78150  1  0  0  0
 78151  1  0  0  0
 78152  1  0  0  0
 79153  1  0  0  0
 79154  1  0  0  0
 79155  1  0  0  0
 80156  1  0  0  0
 80157  1  0  0  0
 80158  1  0  0  0
 80 84  1  0  0  0
 81 82  1  0  0  0
 81 83  1  0  0  0
 81159  1  0  0  0
 81160  1  0  0  0
 82 85  1  0  0  0
 82161  1  0  0  0
 82162  1  0  0  0
 83163  1  0  0  0
 83164  1  0  0  0
 84 87  1  0  0  0
 84165  1  0  0  0
 86166  1  0  0  0
 87167  1  0  0  0
M  ISO  4   1 100  68 101  83 101  86 100
M  END
> <chiral flag>
0

> <version>
0

> <s_m_source_file>
/data/baiqing/PycharmProjects/Reinvent-master-3.2/result/LINK_invent/BTK/process_docking_weight1_custom_product_contain_oxygen_bond_distance_aromatic_linkinvent_7_9_3/rearranged_h_0170.sdf

> <i_m_source_file_index>
92

> <r_mmod_Potential_Energy-OPLS-2005>
-47.0308113098145

> <r_mmod_Stretch_Energy-OPLS-2005>
39.1288566589355

> <r_mmod_Bend_Energy-OPLS-2005>
104.183952331543

> <r_mmod_Torsional_Energy-OPLS-2005>
236.824066162109

> <r_mmod_Improper_Torsional_Energy-OPLS-2005>
6.03011083602905

> <r_mmod_Van_der_Waal_Energy-OPLS-2005>
174.685241699219

> <r_mmod_Electrostatic_Energy-OPLS-2005>
-399.851409912109

> <r_mmod_Solvation_Energy-OPLS-2005>
-217.414215087891

> <b_mmod_Minimization_Converged-OPLS-2005>
0

> <r_mmod_RMS_Derivative-OPLS-2005>
2.75987815856934

$$$$
93
                    3D
 Structure written by MMmdl.
154162  0  0  1  0            999 V2000
  -30.6908  -14.6852   20.4822 C   0  0  0  0  0  0
  -30.4269  -12.4250   19.4515 C   0  0  0  0  0  0
  -29.5015  -12.4739   18.2193 C   0  0  0  0  0  0
  -28.0337  -12.3044   18.6578 C   0  0  0  0  0  0
  -27.6436  -13.2265   19.8457 C   0  0  2  0  0  0
  -28.6959  -13.1874   20.9743 C   0  0  0  0  0  0
  -25.2549  -13.8180   20.5747 C   0  0  0  0  0  0
  -24.1809  -13.0445   20.9225 C   0  0  0  0  0  0
  -24.6383  -11.6919   20.8761 C   0  0  0  0  0  0
  -23.9062  -10.4297   21.0422 C   0  0  0  0  0  0
  -24.3617   -9.4230   21.9223 C   0  0  0  0  0  0
  -23.6297   -8.2249   22.0779 C   0  0  0  0  0  0
  -22.4293   -8.0273   21.3559 C   0  0  0  0  0  0
  -21.9914   -9.0263   20.4687 C   0  0  0  0  0  0
  -22.7212  -10.2137   20.3088 C   0  0  0  0  0  0
  -21.6860   -6.0721   22.5294 C   0  0  0  0  0  0
  -21.4028   -6.5623   23.8217 C   0  0  0  0  0  0
  -21.3656   -5.6783   24.9189 C   0  0  0  0  0  0
  -21.6048   -4.3051   24.7249 C   0  0  0  0  0  0
  -21.8812   -3.8139   23.4357 C   0  0  0  0  0  0
  -21.9201   -4.6954   22.3427 C   0  0  0  0  0  0
  -22.7846  -13.5260   21.1868 C   0  0  0  0  0  0
  -22.1669   -4.2125   21.1017 F   0  0  0  0  0  0
  -21.5626   -3.4536   25.7766 F   0  0  0  0  0  0
  -29.9896  -13.5068   20.3587 N   0  0  0  0  0  0
  -26.2980  -12.9396   20.3345 N   0  0  0  0  0  0
  -25.9327  -11.6534   20.5798 N   0  0  0  0  0  0
  -22.0470  -12.8249   22.0422 N   0  0  0  0  0  0
  -25.4274  -15.1907   20.4216 N   0  0  0  0  0  0
  -31.9024  -14.6943   20.2578 O   0  0  0  0  0  0
  -21.6645   -6.8860   21.4250 O   0  0  0  0  0  0
  -22.3563  -14.5575   20.6718 O   0  0  0  0  0  0
  -24.6293  -31.8541   23.2016 C   0  0  0  0  0  0
  -25.9131  -32.4759   23.8349 C   0  0  1  0  0  0
  -27.2418  -27.3206   20.1230 C   0  0  0  0  0  0
  -25.5947  -33.8556   24.2327 N   0  0  0  0  0  0
  -23.4276  -30.4794   21.5346 C   0  0  2  0  0  0
  -24.8849  -28.9320   20.1074 C   0  0  0  0  0  0
  -22.7499  -29.4578   22.4813 C   0  0  0  0  0  0
  -18.0272  -28.1420   22.8444 C   0  0  0  0  0  0
  -24.1460  -36.7294   23.2634 C   0  0  0  0  0  0
  -25.9669  -30.7884   21.3719 C   0  0  0  0  0  0
  -26.0468  -29.4087   20.7301 C   0  0  0  0  0  0
  -27.2321  -28.6123   20.7353 C   0  0  0  0  0  0
  -26.0634  -26.8938   19.4795 C   0  0  0  0  0  0
  -24.8895  -27.6777   19.4765 C   0  0  0  0  0  0
  -23.6547  -29.8171   20.1484 C   0  0  0  0  0  0
  -25.4075  -36.3055   24.0323 C   0  0  1  0  0  0
  -20.5886  -28.3700   23.1251 C   0  0  2  0  0  0
  -20.6773  -26.9413   22.5403 C   0  0  0  0  0  0
  -19.5766  -26.6389   21.5207 C   0  0  0  0  0  0
  -18.1935  -26.7943   22.1611 C   0  0  0  0  0  0
  -19.1526  -28.8876   23.2840 C   0  0  0  0  0  0
  -18.9474  -30.1480   23.8848 C   0  0  0  0  0  0
  -17.6471  -30.6592   24.0564 C   0  0  0  0  0  0
  -25.9020  -34.9422   23.5109 C   0  0  0  0  0  0
  -16.5354  -29.9088   23.6337 C   0  0  0  0  0  0
  -16.7268  -28.6541   23.0294 C   0  0  0  0  0  0
  -26.4574  -31.6550   25.0678 C   0  0  0  0  0  0
  -25.3866  -31.3681   26.1448 C   0  0  0  0  0  0
  -27.0463  -30.2976   24.6159 C   0  0  0  0  0  0
  -27.6129  -32.4285   25.7469 C   0  0  0  0  0  0
  -27.5554  -37.1793   24.8469 C   0  0  0  0  0  0
  -21.4194  -29.3059   22.3635 N   0  0  0  0  0  0
  -26.4251  -37.3774   23.9431 N   0  0  0  0  0  0
  -24.6937  -31.0595   22.0930 N   0  0  0  0  0  0
  -23.4220  -28.8054   23.2845 O   0  0  0  0  0  0
  -28.3281  -26.4376   20.0820 O   0  0  0  0  0  0
  -26.5556  -34.8897   22.4646 O   0  0  0  0  0  0
  -23.5464  -32.1293   23.7385 O   0  0  0  0  0  0
  -30.0814  -20.4339   19.1449 C   0  0  0  0  0  0
  -30.4909  -19.0567   19.1319 C   0  0  0  0  0  0
  -30.0870  -18.4598   20.3157 C   0  0  0  0  0  0
  -29.5478  -20.6954   20.3774 C   0  0  0  0  0  0
  -28.5799  -25.6368   21.1978 C   0  0  0  0  0  0
  -31.3130  -18.3665   18.1012 C   0  0  0  0  0  0
  -30.4872  -17.1027   20.9419 C   0  0  0  0  0  0
  -28.9137  -24.3018   21.3700 C   0  0  0  0  0  0
  -29.0846  -23.2108   20.3570 C   0  0  0  0  0  0
  -32.3005  -19.2285   17.3001 C   0  0  0  0  0  0
  -29.2009  -21.9419   20.9074 N   0  0  0  0  0  0
  -29.9972  -15.8768   20.5426 N   0  0  0  0  0  0
  -31.2525  -17.1539   17.8994 O   0  0  0  0  0  0
  -31.3187  -17.1649   21.8523 O   0  0  0  0  0  0
  -29.1064  -23.3925   19.1395 O   0  0  0  0  0  0
  -29.5369  -19.4952   21.1008 O   0  0  0  0  0  0
  -29.1735  -23.9614   22.6442 O   0  0  0  0  0  0
  -31.4648  -12.5419   19.1376 H   0  0  0  0  0  0
  -30.3615  -11.4526   19.9518 H   0  0  0  0  0  0
  -29.7679  -11.6848   17.5143 H   0  0  0  0  0  0
  -29.6285  -13.4191   17.6874 H   0  0  0  0  0  0
  -27.9115  -11.2615   18.9597 H   0  0  0  0  0  0
  -27.3559  -12.4634   17.8201 H   0  0  0  0  0  0
  -27.6356  -14.2382   19.4436 H   0  0  0  0  0  0
  -28.7168  -12.2129   21.4644 H   0  0  0  0  0  0
  -28.4584  -13.9149   21.7523 H   0  0  0  0  0  0
  -25.2758   -9.5701   22.4789 H   0  0  0  0  0  0
  -24.0025   -7.4645   22.7460 H   0  0  0  0  0  0
  -21.0840   -8.8783   19.9003 H   0  0  0  0  0  0
  -22.3681  -10.9695   19.6213 H   0  0  0  0  0  0
  -21.2021   -7.6144   23.9693 H   0  0  0  0  0  0
  -21.1491   -6.0544   25.9071 H   0  0  0  0  0  0
  -22.0589   -2.7590   23.2899 H   0  0  0  0  0  0
  -22.4089  -11.9909   22.4848 H   0  0  0  0  0  0
  -21.1128  -13.1306   22.2628 H   0  0  0  0  0  0
  -24.6731  -15.8486   20.5722 H   0  0  0  0  0  0
  -26.2838  -15.6385   20.1246 H   0  0  0  0  0  0
  -26.7170  -32.5492   23.1097 H   0  0  0  0  0  0
  -25.0183  -33.9683   25.0534 H   0  0  0  0  0  0
  -22.7213  -31.2960   21.3864 H   0  0  0  0  0  0
  -23.3705  -35.9649   23.3291 H   0  0  0  0  0  0
  -24.3587  -36.8926   22.2058 H   0  0  0  0  0  0
  -23.7231  -37.6498   23.6668 H   0  0  0  0  0  0
  -26.0867  -31.5466   20.5960 H   0  0  0  0  0  0
  -26.8525  -30.8534   21.9924 H   0  0  0  0  0  0
  -28.1299  -28.9761   21.2149 H   0  0  0  0  0  0
  -26.0559  -25.9318   18.9845 H   0  0  0  0  0  0
  -24.0006  -27.3134   18.9806 H   0  0  0  0  0  0
  -23.7951  -30.5968   19.3990 H   0  0  0  0  0  0
  -22.7788  -29.2504   19.8294 H   0  0  0  0  0  0
  -25.1259  -36.1887   25.0823 H   0  0  0  0  0  0
  -20.9991  -28.3290   24.1363 H   0  0  0  0  0  0
  -20.5685  -26.2302   23.3598 H   0  0  0  0  0  0
  -21.6636  -26.7406   22.1207 H   0  0  0  0  0  0
  -19.6913  -25.6296   21.1239 H   0  0  0  0  0  0
  -19.6729  -27.3192   20.6736 H   0  0  0  0  0  0
  -17.4199  -26.6632   21.4016 H   0  0  0  0  0  0
  -18.0326  -26.0115   22.9057 H   0  0  0  0  0  0
  -19.7965  -30.7320   24.2175 H   0  0  0  0  0  0
  -17.5033  -31.6264   24.5196 H   0  0  0  0  0  0
  -15.5363  -30.2987   23.7741 H   0  0  0  0  0  0
  -15.8659  -28.0923   22.6950 H   0  0  0  0  0  0
  -24.5958  -30.7124   25.7814 H   0  0  0  0  0  0
  -24.9177  -32.2844   26.5030 H   0  0  0  0  0  0
  -25.8221  -30.8743   27.0138 H   0  0  0  0  0  0
  -26.3043  -29.6622   24.1312 H   0  0  0  0  0  0
  -27.4300  -29.7346   25.4691 H   0  0  0  0  0  0
  -27.8847  -30.4283   23.9308 H   0  0  0  0  0  0
  -27.2737  -33.3578   26.2087 H   0  0  0  0  0  0
  -28.3952  -32.6863   25.0304 H   0  0  0  0  0  0
  -28.0788  -31.8368   26.5377 H   0  0  0  0  0  0
  -28.2566  -38.0099   24.7505 H   0  0  0  0  0  0
  -28.1038  -36.2620   24.6279 H   0  0  0  0  0  0
  -27.2280  -37.1433   25.8878 H   0  0  0  0  0  0
  -20.9345  -29.8861   21.6944 H   0  0  0  0  0  0
  -26.0102  -38.2826   24.1506 H   0  0  0  0  0  0
  -30.2682  -21.1580   18.3627 H   0  0  0  0  0  0
  -28.5151  -26.2597   22.0793 H   0  0  0  0  0  0
  -31.8982  -19.5168   16.3285 H   0  0  0  0  0  0
  -33.2315  -18.6910   17.1079 H   0  0  0  0  0  0
  -32.5658  -20.1378   17.8424 H   0  0  0  0  0  0
  -28.9903  -21.9315   21.8934 H   0  0  0  0  0  0
  -29.0584  -15.8696   20.1907 H   0  0  0  0  0  0
  -29.8608  -23.3020   22.6231 H   0  0  0  0  0  0
  1 25  1  0  0  0
  1 30  2  0  0  0
  1 82  1  0  0  0
  2  3  1  0  0  0
  2 25  1  0  0  0
  2 88  1  0  0  0
  2 89  1  0  0  0
  3  4  1  0  0  0
  3 90  1  0  0  0
  3 91  1  0  0  0
  4  5  1  0  0  0
  4 92  1  0  0  0
  4 93  1  0  0  0
  5  6  1  0  0  0
  5 26  1  0  0  0
  5 94  1  0  0  0
  6 25  1  0  0  0
  6 95  1  0  0  0
  6 96  1  0  0  0
  7  8  2  0  0  0
  7 26  1  0  0  0
  7 29  1  0  0  0
  8  9  1  0  0  0
  8 22  1  0  0  0
  9 10  1  0  0  0
  9 27  2  0  0  0
 10 11  2  0  0  0
 10 15  1  0  0  0
 11 12  1  0  0  0
 11 97  1  0  0  0
 12 13  2  0  0  0
 12 98  1  0  0  0
 13 14  1  0  0  0
 13 31  1  0  0  0
 14 15  2  0  0  0
 14 99  1  0  0  0
 15100  1  0  0  0
 16 17  2  0  0  0
 16 21  1  0  0  0
 16 31  1  0  0  0
 17 18  1  0  0  0
 17101  1  0  0  0
 18 19  2  0  0  0
 18102  1  0  0  0
 19 20  1  0  0  0
 19 24  1  0  0  0
 20 21  2  0  0  0
 20103  1  0  0  0
 21 23  1  0  0  0
 22 28  1  0  0  0
 22 32  2  0  0  0
 26 27  1  0  0  0
 28104  1  0  0  0
 28105  1  0  0  0
 29106  1  0  0  0
 29107  1  0  0  0
 33 34  1  0  0  0
 33 66  1  0  0  0
 33 70  2  0  0  0
 34 36  1  0  0  0
 34 59  1  0  0  0
 34108  1  0  0  0
 35 44  2  0  0  0
 35 45  1  0  0  0
 35 68  1  0  0  0
 36 56  1  0  0  0
 36109  1  0  0  0
 37 39  1  0  0  0
 37 47  1  0  0  0
 37 66  1  0  0  0
 37110  1  0  0  0
 38 43  2  0  0  0
 38 46  1  0  0  0
 38 47  1  0  0  0
 39 64  1  0  0  0
 39 67  2  0  0  0
 40 52  1  0  0  0
 40 53  2  0  0  0
 40 58  1  0  0  0
 41111  1  0  0  0
 41112  1  0  0  0
 41113  1  0  0  0
 41 48  1  0  0  0
 42 43  1  0  0  0
 42 66  1  0  0  0
 42114  1  0  0  0
 42115  1  0  0  0
 43 44  1  0  0  0
 44116  1  0  0  0
 45 46  2  0  0  0
 45117  1  0  0  0
 46118  1  0  0  0
 47119  1  0  0  0
 47120  1  0  0  0
 48 56  1  0  0  0
 48 65  1  0  0  0
 48121  1  0  0  0
 49 50  1  0  0  0
 49 53  1  0  0  0
 49 64  1  0  0  0
 49122  1  0  0  0
 50 51  1  0  0  0
 50123  1  0  0  0
 50124  1  0  0  0
 51 52  1  0  0  0
 51125  1  0  0  0
 51126  1  0  0  0
 52127  1  0  0  0
 52128  1  0  0  0
 53 54  1  0  0  0
 54 55  2  0  0  0
 54129  1  0  0  0
 55 57  1  0  0  0
 55130  1  0  0  0
 56 69  2  0  0  0
 57 58  2  0  0  0
 57131  1  0  0  0
 58132  1  0  0  0
 59 60  1  0  0  0
 59 61  1  0  0  0
 59 62  1  0  0  0
 60133  1  0  0  0
 60134  1  0  0  0
 60135  1  0  0  0
 61136  1  0  0  0
 61137  1  0  0  0
 61138  1  0  0  0
 62139  1  0  0  0
 62140  1  0  0  0
 62141  1  0  0  0
 63 65  1  0  0  0
 63142  1  0  0  0
 63143  1  0  0  0
 63144  1  0  0  0
 64145  1  0  0  0
 65146  1  0  0  0
 68 75  1  0  0  0
 71 72  1  0  0  0
 71 74  2  0  0  0
 71147  1  0  0  0
 72 73  2  0  0  0
 72 76  1  0  0  0
 73 77  1  0  0  0
 73 86  1  0  0  0
 74 81  1  0  0  0
 74 86  1  0  0  0
 75 78  2  0  0  0
 75148  1  0  0  0
 76 80  1  0  0  0
 76 83  2  0  0  0
 77 82  1  0  0  0
 77 84  2  0  0  0
 78 79  1  0  0  0
 78 87  1  0  0  0
 79 81  1  0  0  0
 79 85  2  0  0  0
 80149  1  0  0  0
 80150  1  0  0  0
 80151  1  0  0  0
 81152  1  0  0  0
 82153  1  0  0  0
 87154  1  0  0  0
M  ISO  4   1 100  68 101  75 101  82 100
M  END
> <chiral flag>
0

> <version>
0

> <s_m_source_file>
/data/baiqing/PycharmProjects/Reinvent-master-3.2/result/LINK_invent/BTK/process_docking_weight1_custom_product_contain_oxygen_bond_distance_aromatic_linkinvent_7_9_3/rearranged_h_0170.sdf

> <i_m_source_file_index>
93

> <r_mmod_Potential_Energy-OPLS-2005>
-41.3757629394531

> <r_mmod_Stretch_Energy-OPLS-2005>
88.1606292724609

> <r_mmod_Bend_Energy-OPLS-2005>
180.040069580078

> <r_mmod_Torsional_Energy-OPLS-2005>
337.395355224609

> <r_mmod_Improper_Torsional_Energy-OPLS-2005>
11.1933126449585

> <r_mmod_Van_der_Waal_Energy-OPLS-2005>
121.626708984375

> <r_mmod_Electrostatic_Energy-OPLS-2005>
-587.822204589844

> <r_mmod_Solvation_Energy-OPLS-2005>
-259.192199707031

> <b_mmod_Minimization_Converged-OPLS-2005>
0

> <r_mmod_RMS_Derivative-OPLS-2005>
7.26586484909058

$$$$
94
                    3D
 Structure written by MMmdl.
159167  0  0  1  0            999 V2000
  -30.6735  -14.6053   20.5262 C   0  0  0  0  0  0
  -30.4143  -12.3820   19.4253 C   0  0  0  0  0  0
  -29.4817  -12.4903   18.2011 C   0  0  0  0  0  0
  -28.0063  -12.3439   18.6234 C   0  0  0  0  0  0
  -27.6430  -13.2199   19.8527 C   0  0  2  0  0  0
  -28.6958  -13.0963   20.9757 C   0  0  0  0  0  0
  -25.2513  -13.8179   20.5722 C   0  0  0  0  0  0
  -24.1792  -13.0445   20.9200 C   0  0  0  0  0  0
  -24.6367  -11.6910   20.8761 C   0  0  0  0  0  0
  -23.9053  -10.4286   21.0409 C   0  0  0  0  0  0
  -24.3610   -9.4211   21.9193 C   0  0  0  0  0  0
  -23.6295   -8.2244   22.0769 C   0  0  0  0  0  0
  -22.4283   -8.0270   21.3543 C   0  0  0  0  0  0
  -21.9896   -9.0245   20.4654 C   0  0  0  0  0  0
  -22.7220  -10.2125   20.3069 C   0  0  0  0  0  0
  -21.6852   -6.0741   22.5289 C   0  0  0  0  0  0
  -21.4013   -6.5652   23.8221 C   0  0  0  0  0  0
  -21.3651   -5.6800   24.9178 C   0  0  0  0  0  0
  -21.6042   -4.3064   24.7225 C   0  0  0  0  0  0
  -21.8813   -3.8157   23.4349 C   0  0  0  0  0  0
  -21.9192   -4.6970   22.3405 C   0  0  0  0  0  0
  -22.7815  -13.5241   21.1842 C   0  0  0  0  0  0
  -22.1664   -4.2158   21.0984 F   0  0  0  0  0  0
  -21.5612   -3.4546   25.7734 F   0  0  0  0  0  0
  -29.9993  -13.4234   20.3846 N   0  0  0  0  0  0
  -26.2936  -12.9378   20.3330 N   0  0  0  0  0  0
  -25.9295  -11.6532   20.5788 N   0  0  0  0  0  0
  -22.0468  -12.8254   22.0402 N   0  0  0  0  0  0
  -25.4210  -15.1912   20.4186 N   0  0  0  0  0  0
  -31.8519  -14.7116   20.1792 O   0  0  0  0  0  0
  -21.6643   -6.8874   21.4247 O   0  0  0  0  0  0
  -22.3519  -14.5551   20.6675 O   0  0  0  0  0  0
  -24.6273  -31.8594   23.2017 C   0  0  0  0  0  0
  -25.9109  -32.4795   23.8338 C   0  0  1  0  0  0
  -27.2320  -27.3301   20.1220 C   0  0  0  0  0  0
  -25.5931  -33.8584   24.2299 N   0  0  0  0  0  0
  -23.4227  -30.4788   21.5447 C   0  0  2  0  0  0
  -24.8708  -28.9325   20.1127 C   0  0  0  0  0  0
  -22.7502  -29.4601   22.4934 C   0  0  0  0  0  0
  -18.0304  -28.1399   22.8487 C   0  0  0  0  0  0
  -24.1485  -36.7297   23.2642 C   0  0  0  0  0  0
  -25.9599  -30.7942   21.3687 C   0  0  0  0  0  0
  -26.0380  -29.4197   20.7153 C   0  0  0  0  0  0
  -27.2258  -28.6309   20.7079 C   0  0  0  0  0  0
  -26.0496  -26.8940   19.4883 C   0  0  0  0  0  0
  -24.8766  -27.6744   19.4895 C   0  0  0  0  0  0
  -23.6389  -29.8120   20.1602 C   0  0  0  0  0  0
  -25.4113  -36.3094   24.0343 C   0  0  1  0  0  0
  -20.5893  -28.3646   23.1158 C   0  0  2  0  0  0
  -20.6786  -26.9395   22.5170 C   0  0  0  0  0  0
  -19.5620  -26.6224   21.5186 C   0  0  0  0  0  0
  -18.1888  -26.7889   22.1756 C   0  0  0  0  0  0
  -19.1573  -28.8844   23.2813 C   0  0  0  0  0  0
  -18.9536  -30.1434   23.8859 C   0  0  0  0  0  0
  -17.6558  -30.6552   24.0638 C   0  0  0  0  0  0
  -25.9040  -34.9461   23.5117 C   0  0  0  0  0  0
  -16.5405  -29.9092   23.6423 C   0  0  0  0  0  0
  -16.7286  -28.6544   23.0363 C   0  0  0  0  0  0
  -26.4489  -31.6608   25.0705 C   0  0  0  0  0  0
  -25.3704  -31.3718   26.1413 C   0  0  0  0  0  0
  -27.0330  -30.3050   24.6140 C   0  0  0  0  0  0
  -27.6073  -32.4308   25.7485 C   0  0  0  0  0  0
  -27.5583  -37.1809   24.8475 C   0  0  0  0  0  0
  -21.4203  -29.3098   22.3693 N   0  0  0  0  0  0
  -26.4302  -37.3782   23.9406 N   0  0  0  0  0  0
  -24.6884  -31.0588   22.0977 N   0  0  0  0  0  0
  -23.4227  -28.8087   23.2972 O   0  0  0  0  0  0
  -28.3367  -26.4745   20.1519 O   0  0  0  0  0  0
  -26.5592  -34.8923   22.4674 O   0  0  0  0  0  0
  -23.5436  -32.1412   23.7352 O   0  0  0  0  0  0
  -30.7970  -18.5911   23.8872 C   0  0  0  0  0  0
  -31.2446  -16.5029   22.7583 C   0  0  0  0  0  0
  -29.9080  -18.9678   22.8662 C   0  0  0  0  0  0
  -30.3484  -16.8291   21.7081 C   0  0  0  0  0  0
  -29.7848  -18.1709   21.6811 C   0  0  0  0  0  0
  -31.5003  -17.3876   23.8127 C   0  0  0  0  0  0
  -28.9723  -23.9397   20.2055 C   0  0  0  0  0  0
  -28.8418  -19.8812   19.9530 C   0  0  0  0  0  0
  -29.0394  -20.1741   23.2039 C   0  0  0  0  0  0
  -28.5505  -22.4724   20.5885 C   0  0  0  0  0  0
  -28.0682  -25.1282   20.7031 C   0  0  0  0  0  0
  -29.5326  -21.2427   20.3223 C   0  0  0  0  0  0
  -29.0497  -18.6496   20.5328 N   0  0  0  0  0  0
  -29.9465  -15.7261   20.8408 N   0  0  0  0  0  0
  -29.9928  -24.1488   19.5431 O   0  0  0  0  0  0
  -28.0440  -19.9273   19.0160 O   0  0  0  0  0  0
  -32.3544  -17.0432   24.8015 F   0  0  0  0  0  0
  -31.4565  -12.4824   19.1171 H   0  0  0  0  0  0
  -30.3306  -11.3939   19.8811 H   0  0  0  0  0  0
  -29.7272  -11.7263   17.4591 H   0  0  0  0  0  0
  -29.6300  -13.4544   17.7090 H   0  0  0  0  0  0
  -27.8306  -11.2931   18.8585 H   0  0  0  0  0  0
  -27.3468  -12.5803   17.7868 H   0  0  0  0  0  0
  -27.6550  -14.2528   19.5021 H   0  0  0  0  0  0
  -28.7125  -12.0856   21.3907 H   0  0  0  0  0  0
  -28.4585  -13.7602   21.8095 H   0  0  0  0  0  0
  -25.2748   -9.5700   22.4766 H   0  0  0  0  0  0
  -24.0000   -7.4647   22.7507 H   0  0  0  0  0  0
  -21.0820   -8.8774   19.8968 H   0  0  0  0  0  0
  -22.3688  -10.9671   19.6188 H   0  0  0  0  0  0
  -21.2029   -7.6162   23.9717 H   0  0  0  0  0  0
  -21.1467   -6.0543   25.9077 H   0  0  0  0  0  0
  -22.0598   -2.7619   23.2860 H   0  0  0  0  0  0
  -22.4111  -11.9947   22.4821 H   0  0  0  0  0  0
  -21.1078  -13.1259   22.2564 H   0  0  0  0  0  0
  -24.6502  -15.8397   20.5413 H   0  0  0  0  0  0
  -26.2719  -15.6397   20.1073 H   0  0  0  0  0  0
  -26.7155  -32.5471   23.1065 H   0  0  0  0  0  0
  -25.0099  -33.9739   25.0456 H   0  0  0  0  0  0
  -22.7183  -31.3005   21.3988 H   0  0  0  0  0  0
  -23.3749  -35.9621   23.3309 H   0  0  0  0  0  0
  -24.3580  -36.8912   22.2057 H   0  0  0  0  0  0
  -23.7236  -37.6509   23.6638 H   0  0  0  0  0  0
  -26.0795  -31.5548   20.5967 H   0  0  0  0  0  0
  -26.8448  -30.8522   21.9904 H   0  0  0  0  0  0
  -28.1250  -29.0015   21.1774 H   0  0  0  0  0  0
  -26.0248  -25.9339   18.9902 H   0  0  0  0  0  0
  -23.9853  -27.2958   19.0074 H   0  0  0  0  0  0
  -23.7641  -30.5874   19.4043 H   0  0  0  0  0  0
  -22.7597  -29.2424   19.8563 H   0  0  0  0  0  0
  -25.1291  -36.1958   25.0836 H   0  0  0  0  0  0
  -20.9986  -28.3112   24.1268 H   0  0  0  0  0  0
  -21.6563  -26.7539   22.0726 H   0  0  0  0  0  0
  -20.5976  -26.2230   23.3359 H   0  0  0  0  0  0
  -19.6678  -25.5994   21.1522 H   0  0  0  0  0  0
  -19.6458  -27.2791   20.6502 H   0  0  0  0  0  0
  -17.4008  -26.6470   21.4335 H   0  0  0  0  0  0
  -18.0478  -26.0169   22.9319 H   0  0  0  0  0  0
  -19.8054  -30.7247   24.2161 H   0  0  0  0  0  0
  -17.5128  -31.6231   24.5271 H   0  0  0  0  0  0
  -15.5437  -30.2998   23.7846 H   0  0  0  0  0  0
  -15.8655  -28.0898   22.7098 H   0  0  0  0  0  0
  -24.5881  -30.7104   25.7687 H   0  0  0  0  0  0
  -24.8872  -32.2862   26.4852 H   0  0  0  0  0  0
  -25.8004  -30.8847   27.0171 H   0  0  0  0  0  0
  -26.2898  -29.6810   24.1178 H   0  0  0  0  0  0
  -27.4065  -29.7328   25.4640 H   0  0  0  0  0  0
  -27.8734  -30.4374   23.9330 H   0  0  0  0  0  0
  -27.2727  -33.3601   26.2096 H   0  0  0  0  0  0
  -28.3872  -32.6887   25.0308 H   0  0  0  0  0  0
  -28.0726  -31.8388   26.5381 H   0  0  0  0  0  0
  -28.2618  -38.0089   24.7499 H   0  0  0  0  0  0
  -28.1070  -36.2632   24.6319 H   0  0  0  0  0  0
  -27.2293  -37.1462   25.8876 H   0  0  0  0  0  0
  -20.9416  -29.8986   21.7030 H   0  0  0  0  0  0
  -26.0203  -38.2870   24.1374 H   0  0  0  0  0  0
  -30.9154  -19.2134   24.7645 H   0  0  0  0  0  0
  -31.7229  -15.5377   22.8110 H   0  0  0  0  0  0
  -29.6444  -21.0800   23.2664 H   0  0  0  0  0  0
  -28.2048  -20.3301   22.5261 H   0  0  0  0  0  0
  -28.6016  -20.0345   24.1925 H   0  0  0  0  0  0
  -27.6176  -22.2902   20.0565 H   0  0  0  0  0  0
  -28.2802  -22.4874   21.6436 H   0  0  0  0  0  0
  -28.1976  -25.1919   21.7835 H   0  0  0  0  0  0
  -27.0352  -24.8247   20.5467 H   0  0  0  0  0  0
  -30.1481  -21.4841   19.4550 H   0  0  0  0  0  0
  -30.2553  -21.1191   21.1224 H   0  0  0  0  0  0
  -28.6565  -17.9066   19.9733 H   0  0  0  0  0  0
  -28.9499  -15.6148   20.7342 H   0  0  0  0  0  0
  1 25  1  0  0  0
  1 30  2  0  0  0
  1 84  1  0  0  0
  2  3  1  0  0  0
  2 25  1  0  0  0
  2 88  1  0  0  0
  2 89  1  0  0  0
  3  4  1  0  0  0
  3 90  1  0  0  0
  3 91  1  0  0  0
  4  5  1  0  0  0
  4 92  1  0  0  0
  4 93  1  0  0  0
  5  6  1  0  0  0
  5 26  1  0  0  0
  5 94  1  0  0  0
  6 25  1  0  0  0
  6 95  1  0  0  0
  6 96  1  0  0  0
  7  8  2  0  0  0
  7 26  1  0  0  0
  7 29  1  0  0  0
  8  9  1  0  0  0
  8 22  1  0  0  0
  9 10  1  0  0  0
  9 27  2  0  0  0
 10 11  2  0  0  0
 10 15  1  0  0  0
 11 12  1  0  0  0
 11 97  1  0  0  0
 12 13  2  0  0  0
 12 98  1  0  0  0
 13 14  1  0  0  0
 13 31  1  0  0  0
 14 15  2  0  0  0
 14 99  1  0  0  0
 15100  1  0  0  0
 16 17  2  0  0  0
 16 21  1  0  0  0
 16 31  1  0  0  0
 17 18  1  0  0  0
 17101  1  0  0  0
 18 19  2  0  0  0
 18102  1  0  0  0
 19 20  1  0  0  0
 19 24  1  0  0  0
 20 21  2  0  0  0
 20103  1  0  0  0
 21 23  1  0  0  0
 22 28  1  0  0  0
 22 32  2  0  0  0
 26 27  1  0  0  0
 28104  1  0  0  0
 28105  1  0  0  0
 29106  1  0  0  0
 29107  1  0  0  0
 33 34  1  0  0  0
 33 66  1  0  0  0
 33 70  2  0  0  0
 34 36  1  0  0  0
 34 59  1  0  0  0
 34108  1  0  0  0
 35 44  2  0  0  0
 35 45  1  0  0  0
 35 68  1  0  0  0
 36 56  1  0  0  0
 36109  1  0  0  0
 37 39  1  0  0  0
 37 47  1  0  0  0
 37 66  1  0  0  0
 37110  1  0  0  0
 38 43  2  0  0  0
 38 46  1  0  0  0
 38 47  1  0  0  0
 39 64  1  0  0  0
 39 67  2  0  0  0
 40 52  1  0  0  0
 40 53  2  0  0  0
 40 58  1  0  0  0
 41111  1  0  0  0
 41112  1  0  0  0
 41113  1  0  0  0
 41 48  1  0  0  0
 42 43  1  0  0  0
 42 66  1  0  0  0
 42114  1  0  0  0
 42115  1  0  0  0
 43 44  1  0  0  0
 44116  1  0  0  0
 45 46  2  0  0  0
 45117  1  0  0  0
 46118  1  0  0  0
 47119  1  0  0  0
 47120  1  0  0  0
 48 56  1  0  0  0
 48 65  1  0  0  0
 48121  1  0  0  0
 49 50  1  0  0  0
 49 53  1  0  0  0
 49 64  1  0  0  0
 49122  1  0  0  0
 50 51  1  0  0  0
 50123  1  0  0  0
 50124  1  0  0  0
 51 52  1  0  0  0
 51125  1  0  0  0
 51126  1  0  0  0
 52127  1  0  0  0
 52128  1  0  0  0
 53 54  1  0  0  0
 54 55  2  0  0  0
 54129  1  0  0  0
 55 57  1  0  0  0
 55130  1  0  0  0
 56 69  2  0  0  0
 57 58  2  0  0  0
 57131  1  0  0  0
 58132  1  0  0  0
 59 60  1  0  0  0
 59 61  1  0  0  0
 59 62  1  0  0  0
 60133  1  0  0  0
 60134  1  0  0  0
 60135  1  0  0  0
 61136  1  0  0  0
 61137  1  0  0  0
 61138  1  0  0  0
 62139  1  0  0  0
 62140  1  0  0  0
 62141  1  0  0  0
 63 65  1  0  0  0
 63142  1  0  0  0
 63143  1  0  0  0
 63144  1  0  0  0
 64145  1  0  0  0
 65146  1  0  0  0
 68 81  1  0  0  0
 71 73  2  0  0  0
 71 76  1  0  0  0
 71147  1  0  0  0
 72 74  1  0  0  0
 72 76  2  0  0  0
 72148  1  0  0  0
 73 75  1  0  0  0
 73 79  1  0  0  0
 74 75  2  0  0  0
 74 84  1  0  0  0
 75 83  1  0  0  0
 76 87  1  0  0  0
 77 80  1  0  0  0
 77 81  1  0  0  0
 77 85  2  0  0  0
 78 82  1  0  0  0
 78 83  1  0  0  0
 78 86  2  0  0  0
 79149  1  0  0  0
 79150  1  0  0  0
 79151  1  0  0  0
 80 82  1  0  0  0
 80152  1  0  0  0
 80153  1  0  0  0
 81154  1  0  0  0
 81155  1  0  0  0
 82156  1  0  0  0
 82157  1  0  0  0
 83158  1  0  0  0
 84159  1  0  0  0
M  ISO  4   1 100  68 101  81 101  84 100
M  END
> <chiral flag>
0

> <version>
0

> <s_m_source_file>
/data/baiqing/PycharmProjects/Reinvent-master-3.2/result/LINK_invent/BTK/process_docking_weight1_custom_product_contain_oxygen_bond_distance_aromatic_linkinvent_7_9_3/rearranged_h_0170.sdf

> <i_m_source_file_index>
94

> <r_mmod_Potential_Energy-OPLS-2005>
-12.987753868103

> <r_mmod_Stretch_Energy-OPLS-2005>
79.8704147338867

> <r_mmod_Bend_Energy-OPLS-2005>
162.849273681641

> <r_mmod_Torsional_Energy-OPLS-2005>
291.335388183594

> <r_mmod_Improper_Torsional_Energy-OPLS-2005>
7.58092641830444

> <r_mmod_Van_der_Waal_Energy-OPLS-2005>
150.616180419922

> <r_mmod_Electrostatic_Energy-OPLS-2005>
-500.909698486328

> <r_mmod_Solvation_Energy-OPLS-2005>
-248.829315185547

> <b_mmod_Minimization_Converged-OPLS-2005>
0

> <r_mmod_RMS_Derivative-OPLS-2005>
3.98866152763367

$$$$
95
                    3D
 Structure written by MMmdl.
150158  0  0  1  0            999 V2000
  -30.6075  -14.7294   20.4504 C   0  0  0  0  0  0
  -30.4332  -12.4379   19.4818 C   0  0  0  0  0  0
  -29.5140  -12.5027   18.2415 C   0  0  0  0  0  0
  -28.0379  -12.3341   18.6488 C   0  0  0  0  0  0
  -27.6458  -13.2303   19.8539 C   0  0  2  0  0  0
  -28.6861  -13.1501   20.9928 C   0  0  0  0  0  0
  -25.2526  -13.8199   20.5687 C   0  0  0  0  0  0
  -24.1809  -13.0447   20.9196 C   0  0  0  0  0  0
  -24.6392  -11.6920   20.8726 C   0  0  0  0  0  0
  -23.9057  -10.4298   21.0392 C   0  0  0  0  0  0
  -24.3609   -9.4216   21.9171 C   0  0  0  0  0  0
  -23.6295   -8.2246   22.0744 C   0  0  0  0  0  0
  -22.4278   -8.0279   21.3536 C   0  0  0  0  0  0
  -21.9906   -9.0248   20.4637 C   0  0  0  0  0  0
  -22.7225  -10.2130   20.3046 C   0  0  0  0  0  0
  -21.6857   -6.0732   22.5277 C   0  0  0  0  0  0
  -21.4010   -6.5634   23.8209 C   0  0  0  0  0  0
  -21.3658   -5.6789   24.9172 C   0  0  0  0  0  0
  -21.6050   -4.3055   24.7223 C   0  0  0  0  0  0
  -21.8820   -3.8142   23.4346 C   0  0  0  0  0  0
  -21.9194   -4.6959   22.3401 C   0  0  0  0  0  0
  -22.7830  -13.5231   21.1864 C   0  0  0  0  0  0
  -22.1666   -4.2144   21.0978 F   0  0  0  0  0  0
  -21.5630   -3.4538   25.7736 F   0  0  0  0  0  0
  -29.9964  -13.4944   20.4254 N   0  0  0  0  0  0
  -26.2952  -12.9403   20.3272 N   0  0  0  0  0  0
  -25.9324  -11.6548   20.5725 N   0  0  0  0  0  0
  -22.0470  -12.8219   22.0411 N   0  0  0  0  0  0
  -25.4242  -15.1920   20.4131 N   0  0  0  0  0  0
  -31.7825  -14.8381   20.0841 O   0  0  0  0  0  0
  -21.6642   -6.8875   21.4242 O   0  0  0  0  0  0
  -22.3515  -14.5537   20.6711 O   0  0  0  0  0  0
  -24.6322  -31.8562   23.1987 C   0  0  0  0  0  0
  -25.9148  -32.4755   23.8330 C   0  0  1  0  0  0
  -27.2134  -27.2582   20.1206 C   0  0  0  0  0  0
  -25.5946  -33.8555   24.2252 N   0  0  0  0  0  0
  -23.4277  -30.4800   21.5442 C   0  0  2  0  0  0
  -24.8731  -28.9328   20.1076 C   0  0  0  0  0  0
  -22.7508  -29.4601   22.4922 C   0  0  0  0  0  0
  -18.0291  -28.1389   22.8481 C   0  0  0  0  0  0
  -24.1495  -36.7286   23.2633 C   0  0  0  0  0  0
  -25.9752  -30.7673   21.3797 C   0  0  0  0  0  0
  -26.0469  -29.3908   20.7202 C   0  0  0  0  0  0
  -27.2186  -28.5655   20.7186 C   0  0  0  0  0  0
  -26.0178  -26.8826   19.4624 C   0  0  0  0  0  0
  -24.8646  -27.6872   19.4683 C   0  0  0  0  0  0
  -23.6444  -29.8190   20.1590 C   0  0  0  0  0  0
  -25.4120  -36.3065   24.0319 C   0  0  1  0  0  0
  -20.5896  -28.3694   23.1277 C   0  0  2  0  0  0
  -20.6783  -26.9415   22.5407 C   0  0  0  0  0  0
  -19.5758  -26.6389   21.5211 C   0  0  0  0  0  0
  -18.1939  -26.7929   22.1627 C   0  0  0  0  0  0
  -19.1543  -28.8860   23.2873 C   0  0  0  0  0  0
  -18.9465  -30.1463   23.8886 C   0  0  0  0  0  0
  -17.6462  -30.6587   24.0563 C   0  0  0  0  0  0
  -25.9063  -34.9437   23.5086 C   0  0  0  0  0  0
  -16.5354  -29.9083   23.6331 C   0  0  0  0  0  0
  -16.7278  -28.6505   23.0345 C   0  0  0  0  0  0
  -26.4508  -31.6574   25.0718 C   0  0  0  0  0  0
  -25.3723  -31.3746   26.1436 C   0  0  0  0  0  0
  -27.0341  -30.2979   24.6209 C   0  0  0  0  0  0
  -27.6069  -32.4303   25.7498 C   0  0  0  0  0  0
  -27.5579  -37.1799   24.8460 C   0  0  0  0  0  0
  -21.4213  -29.3041   22.3667 N   0  0  0  0  0  0
  -26.4292  -37.3766   23.9402 N   0  0  0  0  0  0
  -24.6978  -31.0524   22.0972 N   0  0  0  0  0  0
  -23.4214  -28.8135   23.3011 O   0  0  0  0  0  0
  -28.2927  -26.3414   20.1998 O   0  0  0  0  0  0
  -26.5633  -34.8914   22.4654 O   0  0  0  0  0  0
  -23.5473  -32.1386   23.7284 O   0  0  0  0  0  0
  -29.6156  -18.4600   20.7997 C   0  0  0  0  0  0
  -29.6527  -18.4981   18.0818 C   0  0  0  0  0  0
  -29.8068  -17.1788   20.1318 C   0  0  0  0  0  0
  -29.8039  -17.2475   18.7199 C   0  0  0  0  0  0
  -29.4641  -19.7049   20.0662 C   0  0  0  0  0  0
  -28.9252  -23.7213   20.4491 C   0  0  0  0  0  0
  -28.7903  -22.2317   19.8688 C   0  0  0  0  0  0
  -28.0268  -24.9001   19.8420 C   0  0  0  0  0  0
  -29.4890  -19.6827   18.7209 N   0  0  0  0  0  0
  -29.8547  -15.8448   20.7848 N   0  0  0  0  0  0
  -29.2932  -21.0198   20.6399 N   0  0  0  0  0  0
  -29.7110  -23.9445   21.3765 O   0  0  0  0  0  0
  -29.8912  -16.1230   17.9679 F   0  0  0  0  0  0
  -31.4763  -12.5542   19.1807 H   0  0  0  0  0  0
  -30.3700  -11.4578   19.9575 H   0  0  0  0  0  0
  -29.7931  -11.7303   17.5236 H   0  0  0  0  0  0
  -29.6483  -13.4575   17.7310 H   0  0  0  0  0  0
  -27.8866  -11.2851   18.9049 H   0  0  0  0  0  0
  -27.3847  -12.5354   17.7986 H   0  0  0  0  0  0
  -27.6462  -14.2537   19.4786 H   0  0  0  0  0  0
  -28.7104  -12.1485   21.4248 H   0  0  0  0  0  0
  -28.4170  -13.8245   21.8070 H   0  0  0  0  0  0
  -25.2753   -9.5701   22.4744 H   0  0  0  0  0  0
  -24.0008   -7.4641   22.7467 H   0  0  0  0  0  0
  -21.0833   -8.8764   19.8945 H   0  0  0  0  0  0
  -22.3680  -10.9668   19.6156 H   0  0  0  0  0  0
  -21.2000   -7.6143   23.9709 H   0  0  0  0  0  0
  -21.1482   -6.0517   25.9073 H   0  0  0  0  0  0
  -22.0601   -2.7607   23.2841 H   0  0  0  0  0  0
  -22.4086  -11.9879   22.4806 H   0  0  0  0  0  0
  -21.1080  -13.1229   22.2597 H   0  0  0  0  0  0
  -24.6584  -15.8472   20.5255 H   0  0  0  0  0  0
  -26.2743  -15.6306   20.0838 H   0  0  0  0  0  0
  -26.7210  -32.5398   23.1069 H   0  0  0  0  0  0
  -25.0081  -33.9695   25.0388 H   0  0  0  0  0  0
  -22.7230  -31.3019   21.4008 H   0  0  0  0  0  0
  -23.3756  -35.9619   23.3283 H   0  0  0  0  0  0
  -24.3588  -36.8923   22.2050 H   0  0  0  0  0  0
  -23.7254  -37.6484   23.6668 H   0  0  0  0  0  0
  -26.1128  -31.5284   20.6103 H   0  0  0  0  0  0
  -26.8535  -30.8162   22.0115 H   0  0  0  0  0  0
  -28.1137  -28.9090   21.2180 H   0  0  0  0  0  0
  -25.9266  -25.9413   18.9426 H   0  0  0  0  0  0
  -23.9686  -27.3342   18.9760 H   0  0  0  0  0  0
  -23.7663  -30.5967   19.4041 H   0  0  0  0  0  0
  -22.7624  -29.2523   19.8544 H   0  0  0  0  0  0
  -25.1302  -36.1907   25.0811 H   0  0  0  0  0  0
  -20.9982  -28.3266   24.1400 H   0  0  0  0  0  0
  -20.5689  -26.2300   23.3606 H   0  0  0  0  0  0
  -21.6650  -26.7447   22.1195 H   0  0  0  0  0  0
  -19.6919  -25.6300   21.1242 H   0  0  0  0  0  0
  -19.6695  -27.3199   20.6741 H   0  0  0  0  0  0
  -17.4206  -26.6664   21.4034 H   0  0  0  0  0  0
  -18.0347  -26.0080   22.9033 H   0  0  0  0  0  0
  -19.7940  -30.7284   24.2249 H   0  0  0  0  0  0
  -17.5015  -31.6262   24.5170 H   0  0  0  0  0  0
  -15.5354  -30.2979   23.7663 H   0  0  0  0  0  0
  -15.8681  -28.0826   22.7054 H   0  0  0  0  0  0
  -24.5874  -30.7129   25.7755 H   0  0  0  0  0  0
  -24.8950  -32.2931   26.4858 H   0  0  0  0  0  0
  -25.8021  -30.8904   27.0212 H   0  0  0  0  0  0
  -26.2915  -29.6734   24.1226 H   0  0  0  0  0  0
  -27.3999  -29.7241   25.4733 H   0  0  0  0  0  0
  -27.8810  -30.4237   23.9462 H   0  0  0  0  0  0
  -27.2685  -33.3614   26.2057 H   0  0  0  0  0  0
  -28.3899  -32.6836   25.0336 H   0  0  0  0  0  0
  -28.0710  -31.8427   26.5431 H   0  0  0  0  0  0
  -28.2588  -38.0103   24.7504 H   0  0  0  0  0  0
  -28.1085  -36.2631   24.6287 H   0  0  0  0  0  0
  -27.2296  -37.1449   25.8863 H   0  0  0  0  0  0
  -20.9400  -29.8766   21.6872 H   0  0  0  0  0  0
  -26.0167  -38.2839   24.1399 H   0  0  0  0  0  0
  -29.5819  -18.4801   21.8799 H   0  0  0  0  0  0
  -29.6350  -18.5460   17.0039 H   0  0  0  0  0  0
  -29.2880  -22.2440   18.8989 H   0  0  0  0  0  0
  -27.7350  -22.0665   19.6513 H   0  0  0  0  0  0
  -27.0182  -24.6429   20.1654 H   0  0  0  0  0  0
  -28.0404  -24.8071   18.7561 H   0  0  0  0  0  0
  -29.0300  -15.6283   21.3210 H   0  0  0  0  0  0
  -29.2303  -21.0919   21.6510 H   0  0  0  0  0  0
  1 25  1  0  0  0
  1 30  2  0  0  0
  1 80  1  0  0  0
  2  3  1  0  0  0
  2 25  1  0  0  0
  2 84  1  0  0  0
  2 85  1  0  0  0
  3  4  1  0  0  0
  3 86  1  0  0  0
  3 87  1  0  0  0
  4  5  1  0  0  0
  4 88  1  0  0  0
  4 89  1  0  0  0
  5  6  1  0  0  0
  5 26  1  0  0  0
  5 90  1  0  0  0
  6 25  1  0  0  0
  6 91  1  0  0  0
  6 92  1  0  0  0
  7  8  2  0  0  0
  7 26  1  0  0  0
  7 29  1  0  0  0
  8  9  1  0  0  0
  8 22  1  0  0  0
  9 10  1  0  0  0
  9 27  2  0  0  0
 10 11  2  0  0  0
 10 15  1  0  0  0
 11 12  1  0  0  0
 11 93  1  0  0  0
 12 13  2  0  0  0
 12 94  1  0  0  0
 13 14  1  0  0  0
 13 31  1  0  0  0
 14 15  2  0  0  0
 14 95  1  0  0  0
 15 96  1  0  0  0
 16 17  2  0  0  0
 16 21  1  0  0  0
 16 31  1  0  0  0
 17 18  1  0  0  0
 17 97  1  0  0  0
 18 19  2  0  0  0
 18 98  1  0  0  0
 19 20  1  0  0  0
 19 24  1  0  0  0
 20 21  2  0  0  0
 20 99  1  0  0  0
 21 23  1  0  0  0
 22 28  1  0  0  0
 22 32  2  0  0  0
 26 27  1  0  0  0
 28100  1  0  0  0
 28101  1  0  0  0
 29102  1  0  0  0
 29103  1  0  0  0
 33 34  1  0  0  0
 33 66  1  0  0  0
 33 70  2  0  0  0
 34 36  1  0  0  0
 34 59  1  0  0  0
 34104  1  0  0  0
 35 44  2  0  0  0
 35 45  1  0  0  0
 35 68  1  0  0  0
 36 56  1  0  0  0
 36105  1  0  0  0
 37 39  1  0  0  0
 37 47  1  0  0  0
 37 66  1  0  0  0
 37106  1  0  0  0
 38 43  2  0  0  0
 38 46  1  0  0  0
 38 47  1  0  0  0
 39 64  1  0  0  0
 39 67  2  0  0  0
 40 52  1  0  0  0
 40 53  2  0  0  0
 40 58  1  0  0  0
 41107  1  0  0  0
 41108  1  0  0  0
 41109  1  0  0  0
 41 48  1  0  0  0
 42 43  1  0  0  0
 42 66  1  0  0  0
 42110  1  0  0  0
 42111  1  0  0  0
 43 44  1  0  0  0
 44112  1  0  0  0
 45 46  2  0  0  0
 45113  1  0  0  0
 46114  1  0  0  0
 47115  1  0  0  0
 47116  1  0  0  0
 48 56  1  0  0  0
 48 65  1  0  0  0
 48117  1  0  0  0
 49 50  1  0  0  0
 49 53  1  0  0  0
 49 64  1  0  0  0
 49118  1  0  0  0
 50 51  1  0  0  0
 50119  1  0  0  0
 50120  1  0  0  0
 51 52  1  0  0  0
 51121  1  0  0  0
 51122  1  0  0  0
 52123  1  0  0  0
 52124  1  0  0  0
 53 54  1  0  0  0
 54 55  2  0  0  0
 54125  1  0  0  0
 55 57  1  0  0  0
 55126  1  0  0  0
 56 69  2  0  0  0
 57 58  2  0  0  0
 57127  1  0  0  0
 58128  1  0  0  0
 59 60  1  0  0  0
 59 61  1  0  0  0
 59 62  1  0  0  0
 60129  1  0  0  0
 60130  1  0  0  0
 60131  1  0  0  0
 61132  1  0  0  0
 61133  1  0  0  0
 61134  1  0  0  0
 62135  1  0  0  0
 62136  1  0  0  0
 62137  1  0  0  0
 63 65  1  0  0  0
 63138  1  0  0  0
 63139  1  0  0  0
 63140  1  0  0  0
 64141  1  0  0  0
 65142  1  0  0  0
 68 78  1  0  0  0
 71 73  2  0  0  0
 71 75  1  0  0  0
 71143  1  0  0  0
 72 74  2  0  0  0
 72 79  1  0  0  0
 72144  1  0  0  0
 73 74  1  0  0  0
 73 80  1  0  0  0
 74 83  1  0  0  0
 75 79  2  0  0  0
 75 81  1  0  0  0
 76 77  1  0  0  0
 76 78  1  0  0  0
 76 82  2  0  0  0
 77 81  1  0  0  0
 77145  1  0  0  0
 77146  1  0  0  0
 78147  1  0  0  0
 78148  1  0  0  0
 80149  1  0  0  0
 81150  1  0  0  0
M  ISO  4   1 100  68 101  78 101  80 100
M  END
> <chiral flag>
0

> <version>
0

> <s_m_source_file>
/data/baiqing/PycharmProjects/Reinvent-master-3.2/result/LINK_invent/BTK/process_docking_weight1_custom_product_contain_oxygen_bond_distance_aromatic_linkinvent_7_9_3/rearranged_h_0170.sdf

> <i_m_source_file_index>
95

> <r_mmod_Potential_Energy-OPLS-2005>
-40.5392303466797

> <r_mmod_Stretch_Energy-OPLS-2005>
117.612060546875

> <r_mmod_Bend_Energy-OPLS-2005>
161.444061279297

> <r_mmod_Torsional_Energy-OPLS-2005>
227.852142333984

> <r_mmod_Improper_Torsional_Energy-OPLS-2005>
5.54428768157959

> <r_mmod_Van_der_Waal_Energy-OPLS-2005>
146.623672485352

> <r_mmod_Electrostatic_Energy-OPLS-2005>
-517.703125

> <r_mmod_Solvation_Energy-OPLS-2005>
-266.419128417969

> <b_mmod_Minimization_Converged-OPLS-2005>
0

> <r_mmod_RMS_Derivative-OPLS-2005>
1.23374783992767

$$$$
96
                    3D
 Structure written by MMmdl.
149157  0  0  1  0            999 V2000
  -30.5537  -15.1422   20.3963 C   0  0  0  0  0  0
  -30.4186  -12.7241   19.5203 C   0  0  0  0  0  0
  -29.5191  -12.5533   18.2758 C   0  0  0  0  0  0
  -28.0643  -12.3056   18.7033 C   0  0  0  0  0  0
  -27.6119  -13.2749   19.8253 C   0  0  2  0  0  0
  -28.6508  -13.4327   20.9582 C   0  0  0  0  0  0
  -25.2384  -13.8263   20.5763 C   0  0  0  0  0  0
  -24.1735  -13.0446   20.9263 C   0  0  0  0  0  0
  -24.6391  -11.6944   20.8773 C   0  0  0  0  0  0
  -23.9091  -10.4298   21.0410 C   0  0  0  0  0  0
  -24.3637   -9.4209   21.9185 C   0  0  0  0  0  0
  -23.6306   -8.2246   22.0754 C   0  0  0  0  0  0
  -22.4288   -8.0285   21.3544 C   0  0  0  0  0  0
  -21.9929   -9.0259   20.4645 C   0  0  0  0  0  0
  -22.7263  -10.2136   20.3056 C   0  0  0  0  0  0
  -21.6857   -6.0739   22.5278 C   0  0  0  0  0  0
  -21.4017   -6.5642   23.8212 C   0  0  0  0  0  0
  -21.3660   -5.6794   24.9174 C   0  0  0  0  0  0
  -21.6044   -4.3057   24.7224 C   0  0  0  0  0  0
  -21.8818   -3.8149   23.4345 C   0  0  0  0  0  0
  -21.9194   -4.6966   22.3401 C   0  0  0  0  0  0
  -22.7750  -13.5193   21.1903 C   0  0  0  0  0  0
  -22.1662   -4.2151   21.0979 F   0  0  0  0  0  0
  -21.5628   -3.4540   25.7737 F   0  0  0  0  0  0
  -29.8990  -13.8875   20.3281 N   0  0  0  0  0  0
  -26.2817  -12.9542   20.3254 N   0  0  0  0  0  0
  -25.9331  -11.6645   20.5753 N   0  0  0  0  0  0
  -22.0411  -12.8172   22.0456 N   0  0  0  0  0  0
  -25.4019  -15.1998   20.4199 N   0  0  0  0  0  0
  -31.7661  -15.0245   20.1643 O   0  0  0  0  0  0
  -21.6647   -6.8884   21.4241 O   0  0  0  0  0  0
  -22.3428  -14.5493   20.6741 O   0  0  0  0  0  0
  -24.6557  -31.8328   23.1812 C   0  0  0  0  0  0
  -25.9278  -32.4635   23.8235 C   0  0  1  0  0  0
  -27.2026  -26.9979   20.1733 C   0  0  0  0  0  0
  -25.5979  -33.8448   24.2136 N   0  0  0  0  0  0
  -23.4668  -30.4506   21.5282 C   0  0  2  0  0  0
  -24.9203  -28.8626   20.1074 C   0  0  0  0  0  0
  -22.7635  -29.4487   22.4805 C   0  0  0  0  0  0
  -18.0318  -28.1404   22.8471 C   0  0  0  0  0  0
  -24.1492  -36.7226   23.2644 C   0  0  0  0  0  0
  -26.0335  -30.6581   21.4089 C   0  0  0  0  0  0
  -26.0998  -29.2566   20.7529 C   0  0  0  0  0  0
  -27.2371  -28.3391   20.7777 C   0  0  0  0  0  0
  -26.0144  -26.7711   19.4390 C   0  0  0  0  0  0
  -24.8988  -27.6368   19.4310 C   0  0  0  0  0  0
  -23.7033  -29.7802   20.1489 C   0  0  0  0  0  0
  -25.4129  -36.2996   24.0306 C   0  0  1  0  0  0
  -20.5940  -28.3745   23.1198 C   0  0  2  0  0  0
  -20.6797  -26.9433   22.5398 C   0  0  0  0  0  0
  -19.5768  -26.6379   21.5212 C   0  0  0  0  0  0
  -18.1951  -26.7939   22.1624 C   0  0  0  0  0  0
  -19.1579  -28.8895   23.2824 C   0  0  0  0  0  0
  -18.9490  -30.1486   23.8856 C   0  0  0  0  0  0
  -17.6483  -30.6596   24.0557 C   0  0  0  0  0  0
  -25.9090  -34.9375   23.5035 C   0  0  0  0  0  0
  -16.5374  -29.9085   23.6342 C   0  0  0  0  0  0
  -16.7300  -28.6505   23.0362 C   0  0  0  0  0  0
  -26.4552  -31.6552   25.0732 C   0  0  0  0  0  0
  -25.3694  -31.3786   26.1398 C   0  0  0  0  0  0
  -27.0441  -30.2922   24.6433 C   0  0  0  0  0  0
  -27.6054  -32.4349   25.7526 C   0  0  0  0  0  0
  -27.5571  -37.1772   24.8466 C   0  0  0  0  0  0
  -21.4313  -29.3049   22.3554 N   0  0  0  0  0  0
  -26.4282  -37.3722   23.9408 N   0  0  0  0  0  0
  -24.7390  -31.0055   22.0926 N   0  0  0  0  0  0
  -23.4216  -28.8037   23.3006 O   0  0  0  0  0  0
  -28.1592  -25.8704   20.2517 O   0  0  0  0  0  0
  -26.5686  -34.8892   22.4620 O   0  0  0  0  0  0
  -23.5644  -32.1275   23.6940 O   0  0  0  0  0  0
  -31.4151  -20.0857   19.6729 C   0  0  0  0  0  0
  -32.8929  -18.4876   20.6008 C   0  0  0  0  0  0
  -30.2694  -19.4323   20.2191 C   0  0  0  0  0  0
  -32.7235  -19.6429   19.8582 C   0  0  0  0  0  0
  -30.5790  -17.9198   20.5307 C   0  0  0  0  0  0
  -27.6718  -24.4462   20.3396 C   0  0  0  0  0  0
  -27.9904  -23.0113   20.3784 C   0  0  0  0  0  0
  -29.2257  -22.0282   20.3934 C   0  0  0  0  0  0
  -31.8607  -17.6946   20.9140 N   0  0  0  0  0  0
  -29.1369  -20.5452   20.3170 N   0  0  0  0  0  0
  -29.9231  -16.4801   20.4836 N   0  0  0  0  0  0
  -30.3329  -22.5408   20.5525 O   0  0  0  0  0  0
  -26.8645  -22.2854   20.4575 O   0  0  0  0  0  0
  -33.7828  -20.3553   19.4016 F   0  0  0  0  0  0
  -31.4497  -12.8635   19.1936 H   0  0  0  0  0  0
  -30.4294  -11.8108   20.1175 H   0  0  0  0  0  0
  -29.8748  -11.7282   17.6572 H   0  0  0  0  0  0
  -29.5750  -13.4503   17.6571 H   0  0  0  0  0  0
  -27.9995  -11.2768   19.0594 H   0  0  0  0  0  0
  -27.3958  -12.3741   17.8442 H   0  0  0  0  0  0
  -27.5344  -14.2476   19.3382 H   0  0  0  0  0  0
  -28.7893  -12.5001   21.5072 H   0  0  0  0  0  0
  -28.3127  -14.1748   21.6831 H   0  0  0  0  0  0
  -25.2778   -9.5684   22.4767 H   0  0  0  0  0  0
  -24.0011   -7.4637   22.7475 H   0  0  0  0  0  0
  -21.0860   -8.8782   19.8950 H   0  0  0  0  0  0
  -22.3720  -10.9677   19.6168 H   0  0  0  0  0  0
  -21.2012   -7.6150   23.9716 H   0  0  0  0  0  0
  -21.1483   -6.0525   25.9077 H   0  0  0  0  0  0
  -22.0596   -2.7611   23.2845 H   0  0  0  0  0  0
  -22.4050  -11.9845   22.4848 H   0  0  0  0  0  0
  -21.1018  -13.1169   22.2656 H   0  0  0  0  0  0
  -24.6312  -15.8495   20.5332 H   0  0  0  0  0  0
  -26.2447  -15.6424   20.0780 H   0  0  0  0  0  0
  -26.7345  -32.5195   23.0952 H   0  0  0  0  0  0
  -25.0093  -33.9544   25.0262 H   0  0  0  0  0  0
  -22.7761  -31.2809   21.3672 H   0  0  0  0  0  0
  -23.3764  -35.9547   23.3286 H   0  0  0  0  0  0
  -24.3572  -36.8886   22.2062 H   0  0  0  0  0  0
  -23.7239  -37.6408   23.6704 H   0  0  0  0  0  0
  -26.2107  -31.4029   20.6319 H   0  0  0  0  0  0
  -26.8957  -30.7100   22.0617 H   0  0  0  0  0  0
  -28.1217  -28.6274   21.3277 H   0  0  0  0  0  0
  -25.9056  -25.8494   18.8862 H   0  0  0  0  0  0
  -24.0107  -27.3381   18.8910 H   0  0  0  0  0  0
  -23.8527  -30.5554   19.3964 H   0  0  0  0  0  0
  -22.8147  -29.2325   19.8301 H   0  0  0  0  0  0
  -25.1323  -36.1806   25.0798 H   0  0  0  0  0  0
  -21.0033  -28.3346   24.1320 H   0  0  0  0  0  0
  -20.5682  -26.2363   23.3634 H   0  0  0  0  0  0
  -21.6660  -26.7417   22.1201 H   0  0  0  0  0  0
  -19.6927  -25.6279   21.1269 H   0  0  0  0  0  0
  -19.6703  -27.3166   20.6723 H   0  0  0  0  0  0
  -17.4218  -26.6682   21.4030 H   0  0  0  0  0  0
  -18.0349  -26.0088   22.9030 H   0  0  0  0  0  0
  -19.7964  -30.7316   24.2206 H   0  0  0  0  0  0
  -17.5034  -31.6271   24.5168 H   0  0  0  0  0  0
  -15.5373  -30.2974   23.7687 H   0  0  0  0  0  0
  -15.8701  -28.0809   22.7102 H   0  0  0  0  0  0
  -24.5890  -30.7118   25.7715 H   0  0  0  0  0  0
  -24.8866  -32.2983   26.4712 H   0  0  0  0  0  0
  -25.7940  -30.9032   27.0248 H   0  0  0  0  0  0
  -26.3100  -29.6611   24.1411 H   0  0  0  0  0  0
  -27.3956  -29.7270   25.5075 H   0  0  0  0  0  0
  -27.9053  -30.4113   23.9856 H   0  0  0  0  0  0
  -27.2630  -33.3688   26.1995 H   0  0  0  0  0  0
  -28.3921  -32.6848   25.0394 H   0  0  0  0  0  0
  -28.0661  -31.8549   26.5533 H   0  0  0  0  0  0
  -28.2576  -38.0078   24.7511 H   0  0  0  0  0  0
  -28.1078  -36.2606   24.6298 H   0  0  0  0  0  0
  -27.2286  -37.1420   25.8868 H   0  0  0  0  0  0
  -20.9549  -29.8758   21.6712 H   0  0  0  0  0  0
  -26.0137  -38.2785   24.1414 H   0  0  0  0  0  0
  -31.3364  -21.0165   19.1381 H   0  0  0  0  0  0
  -33.8779  -18.1349   20.8685 H   0  0  0  0  0  0
  -26.6013  -24.5522   20.4267 H   0  0  0  0  0  0
  -28.2020  -20.1641   20.3196 H   0  0  0  0  0  0
  -28.9154  -16.4744   20.4854 H   0  0  0  0  0  0
  -27.1192  -21.3886   20.6224 H   0  0  0  0  0  0
  1 25  1  0  0  0
  1 30  2  0  0  0
  1 81  1  0  0  0
  2  3  1  0  0  0
  2 25  1  0  0  0
  2 85  1  0  0  0
  2 86  1  0  0  0
  3  4  1  0  0  0
  3 87  1  0  0  0
  3 88  1  0  0  0
  4  5  1  0  0  0
  4 89  1  0  0  0
  4 90  1  0  0  0
  5  6  1  0  0  0
  5 26  1  0  0  0
  5 91  1  0  0  0
  6 25  1  0  0  0
  6 92  1  0  0  0
  6 93  1  0  0  0
  7  8  2  0  0  0
  7 26  1  0  0  0
  7 29  1  0  0  0
  8  9  1  0  0  0
  8 22  1  0  0  0
  9 10  1  0  0  0
  9 27  2  0  0  0
 10 11  2  0  0  0
 10 15  1  0  0  0
 11 12  1  0  0  0
 11 94  1  0  0  0
 12 13  2  0  0  0
 12 95  1  0  0  0
 13 14  1  0  0  0
 13 31  1  0  0  0
 14 15  2  0  0  0
 14 96  1  0  0  0
 15 97  1  0  0  0
 16 17  2  0  0  0
 16 21  1  0  0  0
 16 31  1  0  0  0
 17 18  1  0  0  0
 17 98  1  0  0  0
 18 19  2  0  0  0
 18 99  1  0  0  0
 19 20  1  0  0  0
 19 24  1  0  0  0
 20 21  2  0  0  0
 20100  1  0  0  0
 21 23  1  0  0  0
 22 28  1  0  0  0
 22 32  2  0  0  0
 26 27  1  0  0  0
 28101  1  0  0  0
 28102  1  0  0  0
 29103  1  0  0  0
 29104  1  0  0  0
 33 34  1  0  0  0
 33 66  1  0  0  0
 33 70  2  0  0  0
 34 36  1  0  0  0
 34 59  1  0  0  0
 34105  1  0  0  0
 35 44  2  0  0  0
 35 45  1  0  0  0
 35 68  1  0  0  0
 36 56  1  0  0  0
 36106  1  0  0  0
 37 39  1  0  0  0
 37 47  1  0  0  0
 37 66  1  0  0  0
 37107  1  0  0  0
 38 43  2  0  0  0
 38 46  1  0  0  0
 38 47  1  0  0  0
 39 64  1  0  0  0
 39 67  2  0  0  0
 40 52  1  0  0  0
 40 53  2  0  0  0
 40 58  1  0  0  0
 41108  1  0  0  0
 41109  1  0  0  0
 41110  1  0  0  0
 41 48  1  0  0  0
 42 43  1  0  0  0
 42 66  1  0  0  0
 42111  1  0  0  0
 42112  1  0  0  0
 43 44  1  0  0  0
 44113  1  0  0  0
 45 46  2  0  0  0
 45114  1  0  0  0
 46115  1  0  0  0
 47116  1  0  0  0
 47117  1  0  0  0
 48 56  1  0  0  0
 48 65  1  0  0  0
 48118  1  0  0  0
 49 50  1  0  0  0
 49 53  1  0  0  0
 49 64  1  0  0  0
 49119  1  0  0  0
 50 51  1  0  0  0
 50120  1  0  0  0
 50121  1  0  0  0
 51 52  1  0  0  0
 51122  1  0  0  0
 51123  1  0  0  0
 52124  1  0  0  0
 52125  1  0  0  0
 53 54  1  0  0  0
 54 55  2  0  0  0
 54126  1  0  0  0
 55 57  1  0  0  0
 55127  1  0  0  0
 56 69  2  0  0  0
 57 58  2  0  0  0
 57128  1  0  0  0
 58129  1  0  0  0
 59 60  1  0  0  0
 59 61  1  0  0  0
 59 62  1  0  0  0
 60130  1  0  0  0
 60131  1  0  0  0
 60132  1  0  0  0
 61133  1  0  0  0
 61134  1  0  0  0
 61135  1  0  0  0
 62136  1  0  0  0
 62137  1  0  0  0
 62138  1  0  0  0
 63 65  1  0  0  0
 63139  1  0  0  0
 63140  1  0  0  0
 63141  1  0  0  0
 64142  1  0  0  0
 65143  1  0  0  0
 68 76  1  0  0  0
 71 73  2  0  0  0
 71 74  1  0  0  0
 71144  1  0  0  0
 72 74  2  0  0  0
 72 79  1  0  0  0
 72145  1  0  0  0
 73 75  1  0  0  0
 73 80  1  0  0  0
 74 84  1  0  0  0
 75 79  2  0  0  0
 75 81  1  0  0  0
 76 77  2  0  0  0
 76146  1  0  0  0
 77 78  1  0  0  0
 77 83  1  0  0  0
 78 80  1  0  0  0
 78 82  2  0  0  0
 80147  1  0  0  0
 81148  1  0  0  0
 83149  1  0  0  0
M  ISO  4   1 100  68 101  76 101  81 100
M  END
> <chiral flag>
0

> <version>
0

> <s_m_source_file>
/data/baiqing/PycharmProjects/Reinvent-master-3.2/result/LINK_invent/BTK/process_docking_weight1_custom_product_contain_oxygen_bond_distance_aromatic_linkinvent_7_9_3/rearranged_h_0170.sdf

> <i_m_source_file_index>
96

> <r_mmod_Potential_Energy-OPLS-2005>
1055.76477050781

> <r_mmod_Stretch_Energy-OPLS-2005>
460.899230957031

> <r_mmod_Bend_Energy-OPLS-2005>
534.775634765625

> <r_mmod_Torsional_Energy-OPLS-2005>
294.668853759766

> <r_mmod_Improper_Torsional_Energy-OPLS-2005>
6.00790500640869

> <r_mmod_Van_der_Waal_Energy-OPLS-2005>
172.984619140625

> <r_mmod_Electrostatic_Energy-OPLS-2005>
-487.795593261719

> <r_mmod_Solvation_Energy-OPLS-2005>
-278.975280761719

> <b_mmod_Minimization_Converged-OPLS-2005>
0

> <r_mmod_RMS_Derivative-OPLS-2005>
0.178496599197388

$$$$
