0
                    3D
 Structure written by MMmdl.
155163  0  0  1  0            999 V2000
  -30.7118  -14.5256   20.5071 C   0  0  0  0  0  0
  -30.4347  -12.3414   19.4263 C   0  0  0  0  0  0
  -29.4948  -12.4724   18.2120 C   0  0  0  0  0  0
  -28.0243  -12.3135   18.6429 C   0  0  0  0  0  0
  -27.6525  -13.2090   19.8542 C   0  0  2  0  0  0
  -28.6984  -13.0611   20.9772 C   0  0  0  0  0  0
  -25.2561  -13.8167   20.5683 C   0  0  0  0  0  0
  -24.1800  -13.0453   20.9167 C   0  0  0  0  0  0
  -24.6356  -11.6926   20.8748 C   0  0  0  0  0  0
  -23.9035  -10.4304   21.0417 C   0  0  0  0  0  0
  -24.3586   -9.4204   21.9201 C   0  0  0  0  0  0
  -23.6288   -8.2219   22.0749 C   0  0  0  0  0  0
  -22.4269   -8.0257   21.3528 C   0  0  0  0  0  0
  -21.9891   -9.0219   20.4613 C   0  0  0  0  0  0
  -22.7213  -10.2118   20.3040 C   0  0  0  0  0  0
  -21.6850   -6.0711   22.5276 C   0  0  0  0  0  0
  -21.4006   -6.5619   23.8205 C   0  0  0  0  0  0
  -21.3667   -5.6787   24.9183 C   0  0  0  0  0  0
  -21.6062   -4.3042   24.7241 C   0  0  0  0  0  0
  -21.8831   -3.8119   23.4358 C   0  0  0  0  0  0
  -21.9187   -4.6937   22.3408 C   0  0  0  0  0  0
  -22.7818  -13.5257   21.1835 C   0  0  0  0  0  0
  -22.1670   -4.2121   21.0984 F   0  0  0  0  0  0
  -21.5627   -3.4517   25.7746 F   0  0  0  0  0  0
  -30.0252  -13.3523   20.4160 N   0  0  0  0  0  0
  -26.2984  -12.9335   20.3299 N   0  0  0  0  0  0
  -25.9278  -11.6511   20.5784 N   0  0  0  0  0  0
  -22.0442  -12.8226   22.0364 N   0  0  0  0  0  0
  -25.4331  -15.1896   20.4113 N   0  0  0  0  0  0
  -31.8906  -14.6267   20.1628 O   0  0  0  0  0  0
  -21.6641   -6.8837   21.4233 O   0  0  0  0  0  0
  -22.3508  -14.5575   20.6695 O   0  0  0  0  0  0
  -24.6142  -31.8689   23.2075 C   0  0  0  0  0  0
  -25.9014  -32.4870   23.8368 C   0  0  1  0  0  0
  -27.2413  -27.4591   20.0788 C   0  0  0  0  0  0
  -25.5849  -33.8654   24.2313 N   0  0  0  0  0  0
  -23.4000  -30.4919   21.5508 C   0  0  2  0  0  0
  -24.8450  -28.9553   20.1194 C   0  0  0  0  0  0
  -22.7385  -29.4675   22.5001 C   0  0  0  0  0  0
  -18.0293  -28.1348   22.8517 C   0  0  0  0  0  0
  -24.1496  -36.7405   23.2638 C   0  0  0  0  0  0
  -25.9205  -30.8470   21.3447 C   0  0  0  0  0  0
  -26.0063  -29.4741   20.7079 C   0  0  0  0  0  0
  -27.2089  -28.7326   20.6855 C   0  0  0  0  0  0
  -26.0665  -26.9469   19.4919 C   0  0  0  0  0  0
  -24.8669  -27.6848   19.5165 C   0  0  0  0  0  0
  -23.6077  -29.8208   20.1668 C   0  0  0  0  0  0
  -25.4107  -36.3158   24.0335 C   0  0  1  0  0  0
  -20.5867  -28.3664   23.1333 C   0  0  2  0  0  0
  -20.6773  -26.9428   22.5374 C   0  0  0  0  0  0
  -19.5735  -26.6383   21.5204 C   0  0  0  0  0  0
  -18.1926  -26.7891   22.1637 C   0  0  0  0  0  0
  -19.1531  -28.8818   23.2923 C   0  0  0  0  0  0
  -18.9457  -30.1427   23.8921 C   0  0  0  0  0  0
  -17.6460  -30.6583   24.0552 C   0  0  0  0  0  0
  -25.9019  -34.9521   23.5140 C   0  0  0  0  0  0
  -16.5351  -29.9090   23.6310 C   0  0  0  0  0  0
  -16.7284  -28.6489   23.0373 C   0  0  0  0  0  0
  -26.4433  -31.6629   25.0689 C   0  0  0  0  0  0
  -25.3710  -31.3698   26.1440 C   0  0  0  0  0  0
  -27.0197  -30.3077   24.5966 C   0  0  0  0  0  0
  -27.6003  -32.4304   25.7501 C   0  0  0  0  0  0
  -27.5586  -37.1846   24.8443 C   0  0  0  0  0  0
  -21.4111  -29.3069   22.3747 N   0  0  0  0  0  0
  -26.4298  -37.3833   23.9397 N   0  0  0  0  0  0
  -24.6660  -31.0805   22.0973 N   0  0  0  0  0  0
  -23.4168  -28.8174   23.3002 O   0  0  0  0  0  0
  -28.3904  -26.7051   20.0598 O   0  0  0  0  0  0
  -26.5593  -34.8962   22.4714 O   0  0  0  0  0  0
  -23.5330  -32.1394   23.7489 O   0  0  0  0  0  0
  -29.5809  -16.9351   20.6189 C   0  0  0  0  0  0
  -29.9944  -15.7860   20.7246 C   0  0  0  0  0  0
  -28.5423  -20.9310   19.3570 C   0  0  0  0  0  0
  -27.9515  -19.8185   18.7315 C   0  0  0  0  0  0
  -29.7321  -19.4312   20.8625 C   0  0  0  0  0  0
  -29.1651  -18.2955   20.2225 C   0  0  0  0  0  0
  -29.4253  -20.7517   20.4379 C   0  0  0  0  0  0
  -28.2514  -18.5027   19.1499 C   0  0  0  0  0  0
  -29.2816  -24.4544   20.6011 C   0  0  0  0  0  0
  -27.5589  -17.3565   18.4194 C   0  0  0  0  0  0
  -30.0911  -21.9689   21.0900 C   0  0  0  0  0  0
  -29.1528  -23.1672   21.4378 C   0  0  0  0  0  0
  -28.3385  -25.6127   20.9886 C   0  0  0  0  0  0
  -30.1311  -24.5794   19.7111 O   0  0  0  0  0  0
  -31.4670  -12.4747   19.0945 H   0  0  0  0  0  0
  -30.3873  -11.3426   19.8594 H   0  0  0  0  0  0
  -29.7482  -11.7128   17.4700 H   0  0  0  0  0  0
  -29.6377  -13.4389   17.7243 H   0  0  0  0  0  0
  -27.8785  -11.2654   18.9036 H   0  0  0  0  0  0
  -27.3545  -12.4955   17.8038 H   0  0  0  0  0  0
  -27.6759  -14.2385   19.5021 H   0  0  0  0  0  0
  -28.6897  -12.0413   21.3619 H   0  0  0  0  0  0
  -28.4646  -13.7116   21.8205 H   0  0  0  0  0  0
  -25.2714   -9.5699   22.4793 H   0  0  0  0  0  0
  -23.9997   -7.4600   22.7451 H   0  0  0  0  0  0
  -21.0835   -8.8711   19.8885 H   0  0  0  0  0  0
  -22.3670  -10.9643   19.6116 H   0  0  0  0  0  0
  -21.1990   -7.6124   23.9724 H   0  0  0  0  0  0
  -21.1505   -6.0496   25.9100 H   0  0  0  0  0  0
  -22.0611   -2.7575   23.2866 H   0  0  0  0  0  0
  -22.4050  -11.9872   22.4722 H   0  0  0  0  0  0
  -21.1018  -13.1148   22.2536 H   0  0  0  0  0  0
  -24.6804  -15.8597   20.5297 H   0  0  0  0  0  0
  -26.3109  -15.6171   20.1446 H   0  0  0  0  0  0
  -26.7118  -32.5633   23.1166 H   0  0  0  0  0  0
  -24.9886  -33.9782   25.0373 H   0  0  0  0  0  0
  -22.6916  -31.3105   21.4095 H   0  0  0  0  0  0
  -23.3721  -35.9778   23.3295 H   0  0  0  0  0  0
  -24.3578  -36.9011   22.2046 H   0  0  0  0  0  0
  -23.7285  -37.6628   23.6647 H   0  0  0  0  0  0
  -25.9826  -31.6012   20.5585 H   0  0  0  0  0  0
  -26.8243  -30.9408   21.9318 H   0  0  0  0  0  0
  -28.1057  -29.1311   21.1375 H   0  0  0  0  0  0
  -26.0802  -25.9755   19.0193 H   0  0  0  0  0  0
  -23.9738  -27.2718   19.0699 H   0  0  0  0  0  0
  -23.7207  -30.5920   19.4048 H   0  0  0  0  0  0
  -22.7301  -29.2415   19.8711 H   0  0  0  0  0  0
  -25.1277  -36.2030   25.0824 H   0  0  0  0  0  0
  -20.9975  -28.3235   24.1444 H   0  0  0  0  0  0
  -20.5688  -26.2299   23.3556 H   0  0  0  0  0  0
  -21.6639  -26.7505   22.1114 H   0  0  0  0  0  0
  -19.6926  -25.6315   21.1202 H   0  0  0  0  0  0
  -19.6618  -27.3238   20.6778 H   0  0  0  0  0  0
  -17.4158  -26.6648   21.4078 H   0  0  0  0  0  0
  -18.0377  -25.9991   22.8999 H   0  0  0  0  0  0
  -19.7945  -30.7230   24.2285 H   0  0  0  0  0  0
  -17.5056  -31.6305   24.5085 H   0  0  0  0  0  0
  -15.5352  -30.3014   23.7572 H   0  0  0  0  0  0
  -15.8681  -28.0819   22.7096 H   0  0  0  0  0  0
  -24.5904  -30.7022   25.7780 H   0  0  0  0  0  0
  -24.8894  -32.2845   26.4904 H   0  0  0  0  0  0
  -25.8104  -30.8865   27.0182 H   0  0  0  0  0  0
  -26.2678  -29.6932   24.1009 H   0  0  0  0  0  0
  -27.3938  -29.7220   25.4367 H   0  0  0  0  0  0
  -27.8531  -30.4377   23.9070 H   0  0  0  0  0  0
  -27.2591  -33.3546   26.2178 H   0  0  0  0  0  0
  -28.3823  -32.6946   25.0375 H   0  0  0  0  0  0
  -28.0673  -31.8360   26.5348 H   0  0  0  0  0  0
  -28.2613  -38.0135   24.7484 H   0  0  0  0  0  0
  -28.1066  -36.2661   24.6279 H   0  0  0  0  0  0
  -27.2296  -37.1533   25.8842 H   0  0  0  0  0  0
  -20.9234  -29.8814   21.6997 H   0  0  0  0  0  0
  -26.0206  -38.2923   24.1377 H   0  0  0  0  0  0
  -28.3169  -21.9263   18.9996 H   0  0  0  0  0  0
  -27.2700  -19.9911   17.9086 H   0  0  0  0  0  0
  -30.4332  -19.2871   21.6728 H   0  0  0  0  0  0
  -27.7865  -17.3678   17.3545 H   0  0  0  0  0  0
  -26.4769  -17.4394   18.5375 H   0  0  0  0  0  0
  -27.8410  -16.3751   18.7882 H   0  0  0  0  0  0
  -30.9150  -22.2841   20.4470 H   0  0  0  0  0  0
  -30.5638  -21.6397   22.0186 H   0  0  0  0  0  0
  -28.1071  -22.8635   21.4747 H   0  0  0  0  0  0
  -29.4049  -23.4851   22.4471 H   0  0  0  0  0  0
  -28.6406  -25.9933   21.9631 H   0  0  0  0  0  0
  -27.3192  -25.2418   21.1069 H   0  0  0  0  0  0
  1 25  1  0  0  0
  1 30  2  0  0  0
  1 72  1  0  0  0
  2  3  1  0  0  0
  2 25  1  0  0  0
  2 85  1  0  0  0
  2 86  1  0  0  0
  3  4  1  0  0  0
  3 87  1  0  0  0
  3 88  1  0  0  0
  4  5  1  0  0  0
  4 89  1  0  0  0
  4 90  1  0  0  0
  5  6  1  0  0  0
  5 26  1  0  0  0
  5 91  1  0  0  0
  6 25  1  0  0  0
  6 92  1  0  0  0
  6 93  1  0  0  0
  7  8  2  0  0  0
  7 26  1  0  0  0
  7 29  1  0  0  0
  8  9  1  0  0  0
  8 22  1  0  0  0
  9 10  1  0  0  0
  9 27  2  0  0  0
 10 11  2  0  0  0
 10 15  1  0  0  0
 11 12  1  0  0  0
 11 94  1  0  0  0
 12 13  2  0  0  0
 12 95  1  0  0  0
 13 14  1  0  0  0
 13 31  1  0  0  0
 14 15  2  0  0  0
 14 96  1  0  0  0
 15 97  1  0  0  0
 16 17  2  0  0  0
 16 21  1  0  0  0
 16 31  1  0  0  0
 17 18  1  0  0  0
 17 98  1  0  0  0
 18 19  2  0  0  0
 18 99  1  0  0  0
 19 20  1  0  0  0
 19 24  1  0  0  0
 20 21  2  0  0  0
 20100  1  0  0  0
 21 23  1  0  0  0
 22 28  1  0  0  0
 22 32  2  0  0  0
 26 27  1  0  0  0
 28101  1  0  0  0
 28102  1  0  0  0
 29103  1  0  0  0
 29104  1  0  0  0
 33 34  1  0  0  0
 33 66  1  0  0  0
 33 70  2  0  0  0
 34 36  1  0  0  0
 34 59  1  0  0  0
 34105  1  0  0  0
 35 44  2  0  0  0
 35 45  1  0  0  0
 35 68  1  0  0  0
 36 56  1  0  0  0
 36106  1  0  0  0
 37 39  1  0  0  0
 37 47  1  0  0  0
 37 66  1  0  0  0
 37107  1  0  0  0
 38 43  2  0  0  0
 38 46  1  0  0  0
 38 47  1  0  0  0
 39 64  1  0  0  0
 39 67  2  0  0  0
 40 52  1  0  0  0
 40 53  2  0  0  0
 40 58  1  0  0  0
 41108  1  0  0  0
 41109  1  0  0  0
 41110  1  0  0  0
 41 48  1  0  0  0
 42 43  1  0  0  0
 42 66  1  0  0  0
 42111  1  0  0  0
 42112  1  0  0  0
 43 44  1  0  0  0
 44113  1  0  0  0
 45 46  2  0  0  0
 45114  1  0  0  0
 46115  1  0  0  0
 47116  1  0  0  0
 47117  1  0  0  0
 48 56  1  0  0  0
 48 65  1  0  0  0
 48118  1  0  0  0
 49 50  1  0  0  0
 49 53  1  0  0  0
 49 64  1  0  0  0
 49119  1  0  0  0
 50 51  1  0  0  0
 50120  1  0  0  0
 50121  1  0  0  0
 51 52  1  0  0  0
 51122  1  0  0  0
 51123  1  0  0  0
 52124  1  0  0  0
 52125  1  0  0  0
 53 54  1  0  0  0
 54 55  2  0  0  0
 54126  1  0  0  0
 55 57  1  0  0  0
 55127  1  0  0  0
 56 69  2  0  0  0
 57 58  2  0  0  0
 57128  1  0  0  0
 58129  1  0  0  0
 59 60  1  0  0  0
 59 61  1  0  0  0
 59 62  1  0  0  0
 60130  1  0  0  0
 60131  1  0  0  0
 60132  1  0  0  0
 61133  1  0  0  0
 61134  1  0  0  0
 61135  1  0  0  0
 62136  1  0  0  0
 62137  1  0  0  0
 62138  1  0  0  0
 63 65  1  0  0  0
 63139  1  0  0  0
 63140  1  0  0  0
 63141  1  0  0  0
 64142  1  0  0  0
 65143  1  0  0  0
 68 83  1  0  0  0
 71 72  3  0  0  0
 71 76  1  0  0  0
 73 74  2  0  0  0
 73 77  1  0  0  0
 73144  1  0  0  0
 74 78  1  0  0  0
 74145  1  0  0  0
 75 76  1  0  0  0
 75 77  2  0  0  0
 75146  1  0  0  0
 76 78  2  0  0  0
 77 81  1  0  0  0
 78 80  1  0  0  0
 79 82  1  0  0  0
 79 83  1  0  0  0
 79 84  2  0  0  0
 80147  1  0  0  0
 80148  1  0  0  0
 80149  1  0  0  0
 81 82  1  0  0  0
 81150  1  0  0  0
 81151  1  0  0  0
 82152  1  0  0  0
 82153  1  0  0  0
 83154  1  0  0  0
 83155  1  0  0  0
M  ISO  4   1 100  68 101  72 100  83 101
M  END
> <chiral flag>
0

> <version>
0

> <s_m_source_file>
/data/baiqing/PycharmProjects/Reinvent-master-3.2/result/LINK_invent/BTK/process_docking_weight1_custom_product_contain_oxygen_bond_distance_aromatic_linkinvent_7_9_3/rearranged_h_0130.sdf

> <i_m_source_file_index>
1

> <r_mmod_Potential_Energy-OPLS-2005>
19.7566165924072

> <r_mmod_Stretch_Energy-OPLS-2005>
38.5909957885742

> <r_mmod_Bend_Energy-OPLS-2005>
109.642486572266

> <r_mmod_Torsional_Energy-OPLS-2005>
211.924606323242

> <r_mmod_Improper_Torsional_Energy-OPLS-2005>
6.97900152206421

> <r_mmod_Van_der_Waal_Energy-OPLS-2005>
142.233428955078

> <r_mmod_Electrostatic_Energy-OPLS-2005>
-297.860565185547

> <r_mmod_Solvation_Energy-OPLS-2005>
-212.291656494141

> <b_mmod_Minimization_Converged-OPLS-2005>
0

> <r_mmod_RMS_Derivative-OPLS-2005>
5.66245555877686

$$$$
1
                    3D
 Structure written by MMmdl.
161169  0  0  1  0            999 V2000
  -30.7046  -14.4995   20.6026 C   0  0  0  0  0  0
  -30.4150  -12.3391   19.4381 C   0  0  0  0  0  0
  -29.5025  -12.5574   18.2163 C   0  0  0  0  0  0
  -28.0217  -12.3988   18.6156 C   0  0  0  0  0  0
  -27.6611  -13.2182   19.8843 C   0  0  2  0  0  0
  -28.6970  -12.9993   21.0085 C   0  0  0  0  0  0
  -25.2595  -13.8181   20.5743 C   0  0  0  0  0  0
  -24.1844  -13.0437   20.9182 C   0  0  0  0  0  0
  -24.6394  -11.6903   20.8702 C   0  0  0  0  0  0
  -23.9070  -10.4301   21.0394 C   0  0  0  0  0  0
  -24.3639   -9.4225   21.9176 C   0  0  0  0  0  0
  -23.6329   -8.2250   22.0745 C   0  0  0  0  0  0
  -22.4299   -8.0293   21.3551 C   0  0  0  0  0  0
  -21.9942   -9.0251   20.4642 C   0  0  0  0  0  0
  -22.7254  -10.2133   20.3041 C   0  0  0  0  0  0
  -21.6862   -6.0756   22.5289 C   0  0  0  0  0  0
  -21.3999   -6.5636   23.8212 C   0  0  0  0  0  0
  -21.3653   -5.6804   24.9182 C   0  0  0  0  0  0
  -21.6055   -4.3064   24.7234 C   0  0  0  0  0  0
  -21.8813   -3.8165   23.4353 C   0  0  0  0  0  0
  -21.9184   -4.6986   22.3408 C   0  0  0  0  0  0
  -22.7860  -13.5225   21.1848 C   0  0  0  0  0  0
  -22.1649   -4.2157   21.0986 F   0  0  0  0  0  0
  -21.5638   -3.4548   25.7746 F   0  0  0  0  0  0
  -30.0278  -13.3196   20.4711 N   0  0  0  0  0  0
  -26.3024  -12.9355   20.3397 N   0  0  0  0  0  0
  -25.9322  -11.6493   20.5721 N   0  0  0  0  0  0
  -22.0509  -12.8210   22.0396 N   0  0  0  0  0  0
  -25.4364  -15.1883   20.4191 N   0  0  0  0  0  0
  -31.7958  -14.6671   20.0487 O   0  0  0  0  0  0
  -21.6651   -6.8892   21.4248 O   0  0  0  0  0  0
  -22.3525  -14.5511   20.6670 O   0  0  0  0  0  0
  -24.6141  -31.8707   23.2111 C   0  0  0  0  0  0
  -25.9047  -32.4830   23.8429 C   0  0  1  0  0  0
  -27.2297  -27.4269   20.1199 C   0  0  0  0  0  0
  -25.5936  -33.8623   24.2368 N   0  0  0  0  0  0
  -23.4024  -30.4931   21.5520 C   0  0  2  0  0  0
  -24.8533  -28.9581   20.1161 C   0  0  0  0  0  0
  -22.7400  -29.4675   22.4986 C   0  0  0  0  0  0
  -18.0276  -28.1369   22.8497 C   0  0  0  0  0  0
  -24.1483  -36.7268   23.2658 C   0  0  0  0  0  0
  -25.9316  -30.8357   21.3643 C   0  0  0  0  0  0
  -26.0101  -29.4669   20.7187 C   0  0  0  0  0  0
  -27.2051  -28.7087   20.7187 C   0  0  0  0  0  0
  -26.0634  -26.9366   19.5001 C   0  0  0  0  0  0
  -24.8758  -27.6939   19.4986 C   0  0  0  0  0  0
  -23.6131  -29.8246   20.1668 C   0  0  0  0  0  0
  -25.4101  -36.3111   24.0371 C   0  0  1  0  0  0
  -20.5865  -28.3662   23.1336 C   0  0  2  0  0  0
  -20.6760  -26.9394   22.5435 C   0  0  0  0  0  0
  -19.5739  -26.6393   21.5215 C   0  0  0  0  0  0
  -18.1911  -26.7935   22.1610 C   0  0  0  0  0  0
  -19.1522  -28.8823   23.2924 C   0  0  0  0  0  0
  -18.9453  -30.1437   23.8916 C   0  0  0  0  0  0
  -17.6459  -30.6591   24.0548 C   0  0  0  0  0  0
  -25.9045  -34.9478   23.5158 C   0  0  0  0  0  0
  -16.5344  -29.9074   23.6336 C   0  0  0  0  0  0
  -16.7272  -28.6488   23.0355 C   0  0  0  0  0  0
  -26.4478  -31.6571   25.0720 C   0  0  0  0  0  0
  -25.3746  -31.3608   26.1451 C   0  0  0  0  0  0
  -27.0332  -30.3051   24.6019 C   0  0  0  0  0  0
  -27.6099  -32.4245   25.7477 C   0  0  0  0  0  0
  -27.5588  -37.1793   24.8479 C   0  0  0  0  0  0
  -21.4119  -29.3033   22.3729 N   0  0  0  0  0  0
  -26.4277  -37.3812   23.9455 N   0  0  0  0  0  0
  -24.6671  -31.0811   22.1004 N   0  0  0  0  0  0
  -23.4187  -28.8190   23.3010 O   0  0  0  0  0  0
  -28.3712  -26.6569   20.1221 O   0  0  0  0  0  0
  -26.5561  -34.8933   22.4692 O   0  0  0  0  0  0
  -23.5332  -32.1456   23.7497 O   0  0  0  0  0  0
  -29.2236  -20.5379   23.0011 C   0  0  0  0  0  0
  -29.8804  -18.1898   23.0066 C   0  0  0  0  0  0
  -29.0029  -20.4989   21.6051 C   0  0  0  0  0  0
  -29.7471  -18.1243   21.6037 C   0  0  0  0  0  0
  -29.6305  -19.3872   23.7063 C   0  0  0  0  0  0
  -29.2583  -19.2761   20.9040 C   0  0  0  0  0  0
  -28.5591  -21.7413   20.9006 C   0  0  0  0  0  0
  -30.1672  -16.8648   20.9199 C   0  0  0  0  0  0
  -28.7955  -23.0268   21.2668 C   0  0  0  0  0  0
  -30.0661  -15.5849   21.3628 C   0  0  0  0  0  0
  -28.2927  -24.1825   20.4734 C   0  0  0  0  0  0
  -29.8274  -19.4264   25.2117 C   0  0  0  0  0  0
  -27.5141  -18.8305   19.1078 C   0  0  0  0  0  0
  -28.9767  -19.1996   19.3977 C   0  0  0  0  0  0
  -28.3698  -25.5962   21.1024 C   0  0  0  0  0  0
  -27.8127  -24.0479   19.3431 O   0  0  0  0  0  0
  -31.4621  -12.4234   19.1463 H   0  0  0  0  0  0
  -30.3002  -11.3221   19.8148 H   0  0  0  0  0  0
  -29.7614  -11.8625   17.4164 H   0  0  0  0  0  0
  -29.6739  -13.5588   17.8156 H   0  0  0  0  0  0
  -27.8324  -11.3405   18.7926 H   0  0  0  0  0  0
  -27.3757  -12.6875   17.7868 H   0  0  0  0  0  0
  -27.7015  -14.2703   19.6027 H   0  0  0  0  0  0
  -28.6789  -11.9602   21.3392 H   0  0  0  0  0  0
  -28.4353  -13.5812   21.8922 H   0  0  0  0  0  0
  -25.2804   -9.5698   22.4720 H   0  0  0  0  0  0
  -24.0067   -7.4631   22.7418 H   0  0  0  0  0  0
  -21.0899   -8.8762   19.8910 H   0  0  0  0  0  0
  -22.3751  -10.9670   19.6115 H   0  0  0  0  0  0
  -21.1989   -7.6157   23.9708 H   0  0  0  0  0  0
  -21.1460   -6.0538   25.9075 H   0  0  0  0  0  0
  -22.0593   -2.7637   23.2835 H   0  0  0  0  0  0
  -22.4136  -11.9875   22.4806 H   0  0  0  0  0  0
  -21.1095  -13.1189   22.2533 H   0  0  0  0  0  0
  -24.6842  -15.8579   20.5329 H   0  0  0  0  0  0
  -26.3130  -15.6193   20.1532 H   0  0  0  0  0  0
  -26.7117  -32.5567   23.1203 H   0  0  0  0  0  0
  -25.0143  -33.9808   25.0544 H   0  0  0  0  0  0
  -22.6886  -31.3084   21.4132 H   0  0  0  0  0  0
  -23.3805  -35.9542   23.3281 H   0  0  0  0  0  0
  -24.3597  -36.8894   22.2077 H   0  0  0  0  0  0
  -23.7163  -37.6441   23.6651 H   0  0  0  0  0  0
  -26.0423  -31.5971   20.5908 H   0  0  0  0  0  0
  -26.8217  -30.8974   21.9779 H   0  0  0  0  0  0
  -28.0971  -29.0944   21.1895 H   0  0  0  0  0  0
  -26.0756  -25.9710   19.0170 H   0  0  0  0  0  0
  -23.9892  -27.3011   19.0212 H   0  0  0  0  0  0
  -23.7175  -30.5989   19.4050 H   0  0  0  0  0  0
  -22.7392  -29.2407   19.8733 H   0  0  0  0  0  0
  -25.1269  -36.1975   25.0868 H   0  0  0  0  0  0
  -20.9997  -28.3254   24.1445 H   0  0  0  0  0  0
  -20.5688  -26.2267   23.3622 H   0  0  0  0  0  0
  -21.6627  -26.7444   22.1233 H   0  0  0  0  0  0
  -19.6894  -25.6310   21.1230 H   0  0  0  0  0  0
  -19.6692  -27.3206   20.6742 H   0  0  0  0  0  0
  -17.4218  -26.6757   21.3965 H   0  0  0  0  0  0
  -18.0241  -26.0055   22.8963 H   0  0  0  0  0  0
  -19.7929  -30.7220   24.2323 H   0  0  0  0  0  0
  -17.5022  -31.6277   24.5124 H   0  0  0  0  0  0
  -15.5344  -30.2965   23.7653 H   0  0  0  0  0  0
  -15.8686  -28.0804   22.7054 H   0  0  0  0  0  0
  -24.5996  -30.6863   25.7762 H   0  0  0  0  0  0
  -24.8797  -32.2702   26.4876 H   0  0  0  0  0  0
  -25.8112  -30.8822   27.0229 H   0  0  0  0  0  0
  -26.2849  -29.6782   24.1141 H   0  0  0  0  0  0
  -27.4259  -29.7286   25.4409 H   0  0  0  0  0  0
  -27.8606  -30.4436   23.9054 H   0  0  0  0  0  0
  -27.2814  -33.3590   26.2032 H   0  0  0  0  0  0
  -28.3926  -32.6715   25.0289 H   0  0  0  0  0  0
  -28.0739  -31.8346   26.5390 H   0  0  0  0  0  0
  -28.2596  -38.0103   24.7597 H   0  0  0  0  0  0
  -28.1088  -36.2648   24.6204 H   0  0  0  0  0  0
  -27.2334  -37.1352   25.8889 H   0  0  0  0  0  0
  -20.9254  -29.8755   21.6961 H   0  0  0  0  0  0
  -26.0166  -38.2897   24.1443 H   0  0  0  0  0  0
  -29.0417  -21.4490   23.5532 H   0  0  0  0  0  0
  -30.2249  -17.3291   23.5605 H   0  0  0  0  0  0
  -27.9599  -21.5835   20.0153 H   0  0  0  0  0  0
  -30.6814  -17.0176   19.9811 H   0  0  0  0  0  0
  -29.3767  -23.2513   22.1500 H   0  0  0  0  0  0
  -29.5538  -15.3821   22.2932 H   0  0  0  0  0  0
  -29.6977  -20.4311   25.6149 H   0  0  0  0  0  0
  -30.8316  -19.0881   25.4738 H   0  0  0  0  0  0
  -29.1122  -18.7695   25.7082 H   0  0  0  0  0  0
  -27.3120  -18.8259   18.0375 H   0  0  0  0  0  0
  -26.8230  -19.5358   19.5682 H   0  0  0  0  0  0
  -27.2728  -17.8392   19.4923 H   0  0  0  0  0  0
  -29.6341  -18.4921   18.8977 H   0  0  0  0  0  0
  -29.2158  -20.1483   18.9172 H   0  0  0  0  0  0
  -29.2803  -25.6702   21.6972 H   0  0  0  0  0  0
  -27.5341  -25.7112   21.7949 H   0  0  0  0  0  0
  1 25  1  0  0  0
  1 30  2  0  0  0
  1 80  1  0  0  0
  2  3  1  0  0  0
  2 25  1  0  0  0
  2 87  1  0  0  0
  2 88  1  0  0  0
  3  4  1  0  0  0
  3 89  1  0  0  0
  3 90  1  0  0  0
  4  5  1  0  0  0
  4 91  1  0  0  0
  4 92  1  0  0  0
  5  6  1  0  0  0
  5 26  1  0  0  0
  5 93  1  0  0  0
  6 25  1  0  0  0
  6 94  1  0  0  0
  6 95  1  0  0  0
  7  8  2  0  0  0
  7 26  1  0  0  0
  7 29  1  0  0  0
  8  9  1  0  0  0
  8 22  1  0  0  0
  9 10  1  0  0  0
  9 27  2  0  0  0
 10 11  2  0  0  0
 10 15  1  0  0  0
 11 12  1  0  0  0
 11 96  1  0  0  0
 12 13  2  0  0  0
 12 97  1  0  0  0
 13 14  1  0  0  0
 13 31  1  0  0  0
 14 15  2  0  0  0
 14 98  1  0  0  0
 15 99  1  0  0  0
 16 17  2  0  0  0
 16 21  1  0  0  0
 16 31  1  0  0  0
 17 18  1  0  0  0
 17100  1  0  0  0
 18 19  2  0  0  0
 18101  1  0  0  0
 19 20  1  0  0  0
 19 24  1  0  0  0
 20 21  2  0  0  0
 20102  1  0  0  0
 21 23  1  0  0  0
 22 28  1  0  0  0
 22 32  2  0  0  0
 26 27  1  0  0  0
 28103  1  0  0  0
 28104  1  0  0  0
 29105  1  0  0  0
 29106  1  0  0  0
 33 34  1  0  0  0
 33 66  1  0  0  0
 33 70  2  0  0  0
 34 36  1  0  0  0
 34 59  1  0  0  0
 34107  1  0  0  0
 35 44  2  0  0  0
 35 45  1  0  0  0
 35 68  1  0  0  0
 36 56  1  0  0  0
 36108  1  0  0  0
 37 39  1  0  0  0
 37 47  1  0  0  0
 37 66  1  0  0  0
 37109  1  0  0  0
 38 43  2  0  0  0
 38 46  1  0  0  0
 38 47  1  0  0  0
 39 64  1  0  0  0
 39 67  2  0  0  0
 40 52  1  0  0  0
 40 53  2  0  0  0
 40 58  1  0  0  0
 41110  1  0  0  0
 41111  1  0  0  0
 41112  1  0  0  0
 41 48  1  0  0  0
 42 43  1  0  0  0
 42 66  1  0  0  0
 42113  1  0  0  0
 42114  1  0  0  0
 43 44  1  0  0  0
 44115  1  0  0  0
 45 46  2  0  0  0
 45116  1  0  0  0
 46117  1  0  0  0
 47118  1  0  0  0
 47119  1  0  0  0
 48 56  1  0  0  0
 48 65  1  0  0  0
 48120  1  0  0  0
 49 50  1  0  0  0
 49 53  1  0  0  0
 49 64  1  0  0  0
 49121  1  0  0  0
 50 51  1  0  0  0
 50122  1  0  0  0
 50123  1  0  0  0
 51 52  1  0  0  0
 51124  1  0  0  0
 51125  1  0  0  0
 52126  1  0  0  0
 52127  1  0  0  0
 53 54  1  0  0  0
 54 55  2  0  0  0
 54128  1  0  0  0
 55 57  1  0  0  0
 55129  1  0  0  0
 56 69  2  0  0  0
 57 58  2  0  0  0
 57130  1  0  0  0
 58131  1  0  0  0
 59 60  1  0  0  0
 59 61  1  0  0  0
 59 62  1  0  0  0
 60132  1  0  0  0
 60133  1  0  0  0
 60134  1  0  0  0
 61135  1  0  0  0
 61136  1  0  0  0
 61137  1  0  0  0
 62138  1  0  0  0
 62139  1  0  0  0
 62140  1  0  0  0
 63 65  1  0  0  0
 63141  1  0  0  0
 63142  1  0  0  0
 63143  1  0  0  0
 64144  1  0  0  0
 65145  1  0  0  0
 68 85  1  0  0  0
 71 73  2  0  0  0
 71 75  1  0  0  0
 71146  1  0  0  0
 72 74  1  0  0  0
 72 75  2  0  0  0
 72147  1  0  0  0
 73 76  1  0  0  0
 73 77  1  0  0  0
 74 76  2  0  0  0
 74 78  1  0  0  0
 75 82  1  0  0  0
 76 84  1  0  0  0
 77 79  2  0  0  0
 77148  1  0  0  0
 78 80  2  0  0  0
 78149  1  0  0  0
 79 81  1  0  0  0
 79150  1  0  0  0
 80151  1  0  0  0
 81 85  1  0  0  0
 81 86  2  0  0  0
 82152  1  0  0  0
 82153  1  0  0  0
 82154  1  0  0  0
 83 84  1  0  0  0
 83155  1  0  0  0
 83156  1  0  0  0
 83157  1  0  0  0
 84158  1  0  0  0
 84159  1  0  0  0
 85160  1  0  0  0
 85161  1  0  0  0
M  ISO  4   1 100  68 101  80 100  85 101
M  END
> <chiral flag>
0

> <version>
0

> <s_m_source_file>
/data/baiqing/PycharmProjects/Reinvent-master-3.2/result/LINK_invent/BTK/process_docking_weight1_custom_product_contain_oxygen_bond_distance_aromatic_linkinvent_7_9_3/rearranged_h_0130.sdf

> <i_m_source_file_index>
2

> <r_mmod_Potential_Energy-OPLS-2005>
5.52941751480103

> <r_mmod_Stretch_Energy-OPLS-2005>
46.0518684387207

> <r_mmod_Bend_Energy-OPLS-2005>
96.8819808959961

> <r_mmod_Torsional_Energy-OPLS-2005>
227.498306274414

> <r_mmod_Improper_Torsional_Energy-OPLS-2005>
3.31158375740051

> <r_mmod_Van_der_Waal_Energy-OPLS-2005>
154.48014831543

> <r_mmod_Electrostatic_Energy-OPLS-2005>
-333.144073486328

> <r_mmod_Solvation_Energy-OPLS-2005>
-203.877014160156

> <b_mmod_Minimization_Converged-OPLS-2005>
0

> <r_mmod_RMS_Derivative-OPLS-2005>
3.94276976585388

$$$$
2
                    3D
 Structure written by MMmdl.
152160  0  0  1  0            999 V2000
  -30.5675  -14.6935   20.6007 C   0  0  0  0  0  0
  -30.4376  -12.4592   19.4682 C   0  0  0  0  0  0
  -29.5104  -12.5802   18.2325 C   0  0  0  0  0  0
  -28.0306  -12.4109   18.6236 C   0  0  0  0  0  0
  -27.6536  -13.2298   19.8887 C   0  0  2  0  0  0
  -28.6959  -13.0313   21.0124 C   0  0  0  0  0  0
  -25.2516  -13.8184   20.5674 C   0  0  0  0  0  0
  -24.1790  -13.0408   20.9171 C   0  0  0  0  0  0
  -24.6347  -11.6904   20.8665 C   0  0  0  0  0  0
  -23.9051  -10.4286   21.0374 C   0  0  0  0  0  0
  -24.3611   -9.4232   21.9176 C   0  0  0  0  0  0
  -23.6296   -8.2258   22.0748 C   0  0  0  0  0  0
  -22.4303   -8.0268   21.3504 C   0  0  0  0  0  0
  -21.9901   -9.0257   20.4632 C   0  0  0  0  0  0
  -22.7218  -10.2140   20.3048 C   0  0  0  0  0  0
  -21.6872   -6.0750   22.5294 C   0  0  0  0  0  0
  -21.4023   -6.5639   23.8224 C   0  0  0  0  0  0
  -21.3653   -5.6778   24.9172 C   0  0  0  0  0  0
  -21.6065   -4.3048   24.7219 C   0  0  0  0  0  0
  -21.8814   -3.8151   23.4326 C   0  0  0  0  0  0
  -21.9197   -4.6980   22.3393 C   0  0  0  0  0  0
  -22.7828  -13.5196   21.1849 C   0  0  0  0  0  0
  -22.1678   -4.2137   21.0980 F   0  0  0  0  0  0
  -21.5616   -3.4546   25.7743 F   0  0  0  0  0  0
  -30.0096  -13.4376   20.4926 N   0  0  0  0  0  0
  -26.2963  -12.9373   20.3391 N   0  0  0  0  0  0
  -25.9281  -11.6490   20.5718 N   0  0  0  0  0  0
  -22.0476  -12.8194   22.0418 N   0  0  0  0  0  0
  -25.4109  -15.1871   20.4043 N   0  0  0  0  0  0
  -31.6381  -14.9560   20.0438 O   0  0  0  0  0  0
  -21.6647   -6.8889   21.4244 O   0  0  0  0  0  0
  -22.3530  -14.5496   20.6719 O   0  0  0  0  0  0
  -24.6395  -31.8571   23.1982 C   0  0  0  0  0  0
  -25.9204  -32.4762   23.8359 C   0  0  1  0  0  0
  -27.2148  -27.2512   20.1235 C   0  0  0  0  0  0
  -25.5961  -33.8568   24.2281 N   0  0  0  0  0  0
  -23.4327  -30.4915   21.5466 C   0  0  2  0  0  0
  -24.8730  -28.9316   20.1069 C   0  0  0  0  0  0
  -22.7510  -29.4731   22.4930 C   0  0  0  0  0  0
  -18.0249  -28.1380   22.8404 C   0  0  0  0  0  0
  -24.1500  -36.7294   23.2634 C   0  0  0  0  0  0
  -25.9852  -30.7638   21.3794 C   0  0  0  0  0  0
  -26.0529  -29.3873   20.7144 C   0  0  0  0  0  0
  -27.2241  -28.5624   20.7049 C   0  0  0  0  0  0
  -26.0196  -26.8798   19.4639 C   0  0  0  0  0  0
  -24.8685  -27.6890   19.4525 C   0  0  0  0  0  0
  -23.6463  -29.8250   20.1602 C   0  0  0  0  0  0
  -25.4111  -36.3085   24.0345 C   0  0  1  0  0  0
  -20.5841  -28.3908   23.1239 C   0  0  2  0  0  0
  -20.6883  -26.9737   22.5202 C   0  0  0  0  0  0
  -19.5787  -26.6464   21.5222 C   0  0  0  0  0  0
  -18.2026  -26.7895   22.1716 C   0  0  0  0  0  0
  -19.1428  -28.8911   23.2837 C   0  0  0  0  0  0
  -18.9191  -30.1448   23.8960 C   0  0  0  0  0  0
  -17.6118  -30.6464   24.0608 C   0  0  0  0  0  0
  -25.9062  -34.9447   23.5118 C   0  0  0  0  0  0
  -16.5102  -29.8920   23.6178 C   0  0  0  0  0  0
  -16.7162  -28.6414   23.0105 C   0  0  0  0  0  0
  -26.4535  -31.6576   25.0747 C   0  0  0  0  0  0
  -25.3732  -31.3729   26.1434 C   0  0  0  0  0  0
  -27.0371  -30.2990   24.6266 C   0  0  0  0  0  0
  -27.6089  -32.4313   25.7538 C   0  0  0  0  0  0
  -27.5588  -37.1816   24.8465 C   0  0  0  0  0  0
  -21.4148  -29.3427   22.3856 N   0  0  0  0  0  0
  -26.4277  -37.3779   23.9417 N   0  0  0  0  0  0
  -24.7040  -31.0512   22.1012 N   0  0  0  0  0  0
  -23.4210  -28.7956   23.2800 O   0  0  0  0  0  0
  -28.2858  -26.3197   20.2178 O   0  0  0  0  0  0
  -26.5605  -34.8915   22.4693 O   0  0  0  0  0  0
  -23.5544  -32.1386   23.7249 O   0  0  0  0  0  0
  -27.1843  -18.0477   22.0119 C   0  0  0  0  0  0
  -27.6733  -19.3011   21.5972 C   0  0  0  0  0  0
  -27.9635  -16.8817   21.8819 C   0  0  0  0  0  0
  -29.7410  -18.2091   20.8789 C   0  0  0  0  0  0
  -28.9555  -19.4370   21.0228 C   0  0  0  0  0  0
  -29.2555  -16.9022   21.3156 C   0  0  0  0  0  0
  -28.9142  -23.7010   20.5752 C   0  0  0  0  0  0
  -29.4385  -20.9129   20.6434 C   0  0  0  0  0  0
  -28.4110  -22.1782   20.6453 C   0  0  0  0  0  0
  -27.9678  -24.8529   19.9816 C   0  0  0  0  0  0
  -29.9260  -15.5826   21.4430 N   0  0  0  0  0  0
  -30.0357  -23.9759   21.0091 O   0  0  0  0  0  0
  -31.4767  -12.6124   19.1781 H   0  0  0  0  0  0
  -30.3996  -11.4481   19.8721 H   0  0  0  0  0  0
  -29.7869  -11.8468   17.4667 H   0  0  0  0  0  0
  -29.6488  -13.5626   17.7812 H   0  0  0  0  0  0
  -27.8379  -11.3481   18.7868 H   0  0  0  0  0  0
  -27.3905  -12.7086   17.7951 H   0  0  0  0  0  0
  -27.6838  -14.2794   19.6019 H   0  0  0  0  0  0
  -28.7192  -11.9861   21.3076 H   0  0  0  0  0  0
  -28.4098  -13.5731   21.9138 H   0  0  0  0  0  0
  -25.2761   -9.5736   22.4733 H   0  0  0  0  0  0
  -24.0026   -7.4668   22.7461 H   0  0  0  0  0  0
  -21.0833   -8.8750   19.8949 H   0  0  0  0  0  0
  -22.3647  -10.9659   19.6149 H   0  0  0  0  0  0
  -21.2034   -7.6151   23.9698 H   0  0  0  0  0  0
  -21.1480   -6.0533   25.9059 H   0  0  0  0  0  0
  -22.0595   -2.7612   23.2839 H   0  0  0  0  0  0
  -22.4119  -11.9893   22.4820 H   0  0  0  0  0  0
  -21.1107  -13.1195   22.2624 H   0  0  0  0  0  0
  -24.6337  -15.8293   20.5133 H   0  0  0  0  0  0
  -26.2714  -15.6459   20.1214 H   0  0  0  0  0  0
  -26.7251  -32.5401   23.1079 H   0  0  0  0  0  0
  -25.0158  -33.9722   25.0467 H   0  0  0  0  0  0
  -22.7402  -31.3244   21.4044 H   0  0  0  0  0  0
  -23.3762  -35.9624   23.3282 H   0  0  0  0  0  0
  -24.3577  -36.8936   22.2044 H   0  0  0  0  0  0
  -23.7242  -37.6504   23.6662 H   0  0  0  0  0  0
  -26.1355  -31.5251   20.6111 H   0  0  0  0  0  0
  -26.8599  -30.8002   22.0116 H   0  0  0  0  0  0
  -28.1318  -28.9148   21.1759 H   0  0  0  0  0  0
  -25.9397  -25.9408   18.9450 H   0  0  0  0  0  0
  -23.9759  -27.3480   18.9369 H   0  0  0  0  0  0
  -23.7674  -30.6144   19.4129 H   0  0  0  0  0  0
  -22.7614  -29.2725   19.8454 H   0  0  0  0  0  0
  -25.1296  -36.1947   25.0834 H   0  0  0  0  0  0
  -20.9861  -28.3442   24.1357 H   0  0  0  0  0  0
  -20.6076  -26.2556   23.3360 H   0  0  0  0  0  0
  -21.6708  -26.8068   22.0653 H   0  0  0  0  0  0
  -19.7004  -25.6365   21.1464 H   0  0  0  0  0  0
  -19.6554  -27.3241   20.6719 H   0  0  0  0  0  0
  -17.4163  -26.6310   21.4317 H   0  0  0  0  0  0
  -18.0972  -26.0143   22.9265 H   0  0  0  0  0  0
  -19.7625  -30.7349   24.2313 H   0  0  0  0  0  0
  -17.4564  -31.6086   24.5261 H   0  0  0  0  0  0
  -15.5012  -30.2721   23.7259 H   0  0  0  0  0  0
  -15.8751  -28.0626   22.6558 H   0  0  0  0  0  0
  -24.5916  -30.7077   25.7741 H   0  0  0  0  0  0
  -24.8872  -32.2888   26.4842 H   0  0  0  0  0  0
  -25.7982  -30.8917   27.0244 H   0  0  0  0  0  0
  -26.2964  -29.6738   24.1247 H   0  0  0  0  0  0
  -27.4010  -29.7253   25.4802 H   0  0  0  0  0  0
  -27.8885  -30.4251   23.9544 H   0  0  0  0  0  0
  -27.2722  -33.3641   26.2082 H   0  0  0  0  0  0
  -28.3925  -32.6831   25.0372 H   0  0  0  0  0  0
  -28.0733  -31.8445   26.5489 H   0  0  0  0  0  0
  -28.2608  -38.0118   24.7517 H   0  0  0  0  0  0
  -28.1092  -36.2653   24.6291 H   0  0  0  0  0  0
  -27.2301  -37.1460   25.8866 H   0  0  0  0  0  0
  -20.9245  -29.9617   21.7538 H   0  0  0  0  0  0
  -26.0184  -38.2872   24.1404 H   0  0  0  0  0  0
  -26.2037  -17.9919   22.4623 H   0  0  0  0  0  0
  -27.0465  -20.1681   21.7515 H   0  0  0  0  0  0
  -27.5412  -15.9644   22.2673 H   0  0  0  0  0  0
  -30.7371  -18.2731   20.4724 H   0  0  0  0  0  0
  -29.8614  -20.8536   19.6436 H   0  0  0  0  0  0
  -30.2767  -21.1491   21.3022 H   0  0  0  0  0  0
  -27.6601  -22.0360   19.8719 H   0  0  0  0  0  0
  -27.8681  -22.1460   21.5910 H   0  0  0  0  0  0
  -26.9591  -24.6317   20.3339 H   0  0  0  0  0  0
  -27.9651  -24.6946   18.9020 H   0  0  0  0  0  0
  -29.4338  -15.0237   22.1267 H   0  0  0  0  0  0
  1 25  1  0  0  0
  1 30  2  0  0  0
  1 81  1  0  0  0
  2  3  1  0  0  0
  2 25  1  0  0  0
  2 83  1  0  0  0
  2 84  1  0  0  0
  3  4  1  0  0  0
  3 85  1  0  0  0
  3 86  1  0  0  0
  4  5  1  0  0  0
  4 87  1  0  0  0
  4 88  1  0  0  0
  5  6  1  0  0  0
  5 26  1  0  0  0
  5 89  1  0  0  0
  6 25  1  0  0  0
  6 90  1  0  0  0
  6 91  1  0  0  0
  7  8  2  0  0  0
  7 26  1  0  0  0
  7 29  1  0  0  0
  8  9  1  0  0  0
  8 22  1  0  0  0
  9 10  1  0  0  0
  9 27  2  0  0  0
 10 11  2  0  0  0
 10 15  1  0  0  0
 11 12  1  0  0  0
 11 92  1  0  0  0
 12 13  2  0  0  0
 12 93  1  0  0  0
 13 14  1  0  0  0
 13 31  1  0  0  0
 14 15  2  0  0  0
 14 94  1  0  0  0
 15 95  1  0  0  0
 16 17  2  0  0  0
 16 21  1  0  0  0
 16 31  1  0  0  0
 17 18  1  0  0  0
 17 96  1  0  0  0
 18 19  2  0  0  0
 18 97  1  0  0  0
 19 20  1  0  0  0
 19 24  1  0  0  0
 20 21  2  0  0  0
 20 98  1  0  0  0
 21 23  1  0  0  0
 22 28  1  0  0  0
 22 32  2  0  0  0
 26 27  1  0  0  0
 28 99  1  0  0  0
 28100  1  0  0  0
 29101  1  0  0  0
 29102  1  0  0  0
 33 34  1  0  0  0
 33 66  1  0  0  0
 33 70  2  0  0  0
 34 36  1  0  0  0
 34 59  1  0  0  0
 34103  1  0  0  0
 35 44  2  0  0  0
 35 45  1  0  0  0
 35 68  1  0  0  0
 36 56  1  0  0  0
 36104  1  0  0  0
 37 39  1  0  0  0
 37 47  1  0  0  0
 37 66  1  0  0  0
 37105  1  0  0  0
 38 43  2  0  0  0
 38 46  1  0  0  0
 38 47  1  0  0  0
 39 64  1  0  0  0
 39 67  2  0  0  0
 40 52  1  0  0  0
 40 53  2  0  0  0
 40 58  1  0  0  0
 41106  1  0  0  0
 41107  1  0  0  0
 41108  1  0  0  0
 41 48  1  0  0  0
 42 43  1  0  0  0
 42 66  1  0  0  0
 42109  1  0  0  0
 42110  1  0  0  0
 43 44  1  0  0  0
 44111  1  0  0  0
 45 46  2  0  0  0
 45112  1  0  0  0
 46113  1  0  0  0
 47114  1  0  0  0
 47115  1  0  0  0
 48 56  1  0  0  0
 48 65  1  0  0  0
 48116  1  0  0  0
 49 50  1  0  0  0
 49 53  1  0  0  0
 49 64  1  0  0  0
 49117  1  0  0  0
 50 51  1  0  0  0
 50118  1  0  0  0
 50119  1  0  0  0
 51 52  1  0  0  0
 51120  1  0  0  0
 51121  1  0  0  0
 52122  1  0  0  0
 52123  1  0  0  0
 53 54  1  0  0  0
 54 55  2  0  0  0
 54124  1  0  0  0
 55 57  1  0  0  0
 55125  1  0  0  0
 56 69  2  0  0  0
 57 58  2  0  0  0
 57126  1  0  0  0
 58127  1  0  0  0
 59 60  1  0  0  0
 59 61  1  0  0  0
 59 62  1  0  0  0
 60128  1  0  0  0
 60129  1  0  0  0
 60130  1  0  0  0
 61131  1  0  0  0
 61132  1  0  0  0
 61133  1  0  0  0
 62134  1  0  0  0
 62135  1  0  0  0
 62136  1  0  0  0
 63 65  1  0  0  0
 63137  1  0  0  0
 63138  1  0  0  0
 63139  1  0  0  0
 64140  1  0  0  0
 65141  1  0  0  0
 68 80  1  0  0  0
 71 72  2  0  0  0
 71 73  1  0  0  0
 71142  1  0  0  0
 72 75  1  0  0  0
 72143  1  0  0  0
 73 76  2  0  0  0
 73144  1  0  0  0
 74 75  2  0  0  0
 74 76  1  0  0  0
 74145  1  0  0  0
 75 78  1  0  0  0
 76 81  1  0  0  0
 77 79  1  0  0  0
 77 80  1  0  0  0
 77 82  2  0  0  0
 78 79  1  0  0  0
 78146  1  0  0  0
 78147  1  0  0  0
 79148  1  0  0  0
 79149  1  0  0  0
 80150  1  0  0  0
 80151  1  0  0  0
 81152  1  0  0  0
M  ISO  4   1 100  68 101  80 101  81 100
M  END
> <chiral flag>
0

> <version>
0

> <s_m_source_file>
/data/baiqing/PycharmProjects/Reinvent-master-3.2/result/LINK_invent/BTK/process_docking_weight1_custom_product_contain_oxygen_bond_distance_aromatic_linkinvent_7_9_3/rearranged_h_0130.sdf

> <i_m_source_file_index>
3

> <r_mmod_Potential_Energy-OPLS-2005>
203.905075073242

> <r_mmod_Stretch_Energy-OPLS-2005>
132.182846069336

> <r_mmod_Bend_Energy-OPLS-2005>
194.071517944336

> <r_mmod_Torsional_Energy-OPLS-2005>
237.493041992188

> <r_mmod_Improper_Torsional_Energy-OPLS-2005>
6.79424142837524

> <r_mmod_Van_der_Waal_Energy-OPLS-2005>
134.060775756836

> <r_mmod_Electrostatic_Energy-OPLS-2005>
-356.272277832031

> <r_mmod_Solvation_Energy-OPLS-2005>
-229.333587646484

> <b_mmod_Minimization_Converged-OPLS-2005>
0

> <r_mmod_RMS_Derivative-OPLS-2005>
11.0035257339478

$$$$
3
                    3D
 Structure written by MMmdl.
156164  0  0  1  0            999 V2000
  -30.6620  -14.8060   20.2991 C   0  0  0  0  0  0
  -30.4099  -12.4662   19.4826 C   0  0  0  0  0  0
  -29.5205  -12.4268   18.2156 C   0  0  0  0  0  0
  -28.0079  -12.5615   18.5205 C   0  0  0  0  0  0
  -27.7052  -12.7653   20.0193 C   0  0  2  0  0  0
  -28.6907  -13.4441   20.9724 C   0  0  0  0  0  0
  -25.3029  -13.7518   20.5676 C   0  0  0  0  0  0
  -24.1809  -13.0372   20.9125 C   0  0  0  0  0  0
  -24.5690  -11.6677   20.8889 C   0  0  0  0  0  0
  -23.8422  -10.4198   21.0612 C   0  0  0  0  0  0
  -24.3191   -9.4157   21.9331 C   0  0  0  0  0  0
  -23.6044   -8.2113   22.0789 C   0  0  0  0  0  0
  -22.4056   -8.0131   21.3535 C   0  0  0  0  0  0
  -21.9583   -9.0066   20.4659 C   0  0  0  0  0  0
  -22.6730  -10.2025   20.3141 C   0  0  0  0  0  0
  -21.6805   -6.0601   22.5274 C   0  0  0  0  0  0
  -21.3961   -6.5541   23.8184 C   0  0  0  0  0  0
  -21.3646   -5.6722   24.9170 C   0  0  0  0  0  0
  -21.6050   -4.2993   24.7265 C   0  0  0  0  0  0
  -21.8839   -3.8056   23.4414 C   0  0  0  0  0  0
  -21.9175   -4.6837   22.3430 C   0  0  0  0  0  0
  -22.7956  -13.5531   21.1764 C   0  0  0  0  0  0
  -22.1642   -4.1997   21.1020 F   0  0  0  0  0  0
  -21.5659   -3.4522   25.7828 F   0  0  0  0  0  0
  -29.9834  -13.6168   20.3116 N   0  0  0  0  0  0
  -26.3013  -12.7892   20.3903 N   0  0  0  0  0  0
  -25.8318  -11.5535   20.5958 N   0  0  0  0  0  0
  -22.0394  -12.8697   22.0309 N   0  0  0  0  0  0
  -25.5457  -15.1112   20.3940 N   0  0  0  0  0  0
  -31.8867  -14.8055   20.1938 O   0  0  0  0  0  0
  -21.6519   -6.8714   21.4230 O   0  0  0  0  0  0
  -22.3840  -14.5893   20.6566 O   0  0  0  0  0  0
  -24.6294  -31.8562   23.1961 C   0  0  0  0  0  0
  -25.9103  -32.4765   23.8332 C   0  0  1  0  0  0
  -27.2437  -27.3272   20.0967 C   0  0  0  0  0  0
  -25.5911  -33.8566   24.2284 N   0  0  0  0  0  0
  -23.4249  -30.4744   21.5393 C   0  0  2  0  0  0
  -24.8703  -28.9137   20.1181 C   0  0  0  0  0  0
  -22.7487  -29.4601   22.4920 C   0  0  0  0  0  0
  -18.0301  -28.1388   22.8475 C   0  0  0  0  0  0
  -24.1457  -36.7302   23.2640 C   0  0  0  0  0  0
  -25.9620  -30.7861   21.3561 C   0  0  0  0  0  0
  -26.0385  -29.4082   20.7117 C   0  0  0  0  0  0
  -27.2311  -28.6281   20.6839 C   0  0  0  0  0  0
  -26.0513  -26.8715   19.4979 C   0  0  0  0  0  0
  -24.8740  -27.6490   19.5061 C   0  0  0  0  0  0
  -23.6383  -29.7930   20.1604 C   0  0  0  0  0  0
  -25.4069  -36.3088   24.0340 C   0  0  1  0  0  0
  -20.5887  -28.3691   23.1272 C   0  0  2  0  0  0
  -20.6775  -26.9405   22.5400 C   0  0  0  0  0  0
  -19.5748  -26.6376   21.5209 C   0  0  0  0  0  0
  -18.1936  -26.7942   22.1631 C   0  0  0  0  0  0
  -19.1547  -28.8872   23.2873 C   0  0  0  0  0  0
  -18.9475  -30.1489   23.8875 C   0  0  0  0  0  0
  -17.6469  -30.6590   24.0573 C   0  0  0  0  0  0
  -25.9012  -34.9450   23.5110 C   0  0  0  0  0  0
  -16.5363  -29.9081   23.6339 C   0  0  0  0  0  0
  -16.7292  -28.6504   23.0348 C   0  0  0  0  0  0
  -26.4454  -31.6579   25.0719 C   0  0  0  0  0  0
  -25.3704  -31.3688   26.1465 C   0  0  0  0  0  0
  -27.0281  -30.3018   24.6133 C   0  0  0  0  0  0
  -27.6023  -32.4298   25.7498 C   0  0  0  0  0  0
  -27.5546  -37.1792   24.8468 C   0  0  0  0  0  0
  -21.4197  -29.3041   22.3647 N   0  0  0  0  0  0
  -26.4258  -37.3790   23.9418 N   0  0  0  0  0  0
  -24.6926  -31.0539   22.0910 N   0  0  0  0  0  0
  -23.4197  -28.8139   23.3011 O   0  0  0  0  0  0
  -28.3935  -26.5323   20.0307 O   0  0  0  0  0  0
  -26.5589  -34.8962   22.4680 O   0  0  0  0  0  0
  -23.5443  -32.1333   23.7292 O   0  0  0  0  0  0
  -29.6319  -18.5579   20.0231 C   0  0  0  0  0  0
  -30.7972  -19.9836   21.6036 C   0  0  0  0  0  0
  -31.1259  -17.5351   21.6381 C   0  0  0  0  0  0
  -29.8973  -19.8866   20.5210 C   0  0  0  0  0  0
  -30.2295  -17.3450   20.5615 C   0  0  0  0  0  0
  -31.4090  -18.8270   22.1353 C   0  0  0  0  0  0
  -29.0959  -15.9806   18.8346 C   0  0  0  0  0  0
  -29.3282  -21.1875   19.8295 C   0  0  0  0  0  0
  -29.1178  -22.5598   20.6265 C   0  0  0  0  0  0
  -28.7312  -23.8792   19.8005 C   0  0  0  0  0  0
  -28.3815  -25.1885   20.6433 C   0  0  0  0  0  0
  -29.9422  -15.9830   20.0397 N   0  0  0  0  0  0
  -32.3131  -18.9607   23.1327 F   0  0  0  0  0  0
  -31.4633  -12.5248   19.2010 H   0  0  0  0  0  0
  -30.3020  -11.5441   20.0529 H   0  0  0  0  0  0
  -29.6996  -11.4990   17.6661 H   0  0  0  0  0  0
  -29.8241  -13.2189   17.5312 H   0  0  0  0  0  0
  -27.5125  -11.6480   18.1844 H   0  0  0  0  0  0
  -27.5541  -13.3468   17.9158 H   0  0  0  0  0  0
  -28.0168  -11.7584   20.3166 H   0  0  0  0  0  0
  -28.8202  -12.8734   21.8919 H   0  0  0  0  0  0
  -28.2893  -14.4110   21.2835 H   0  0  0  0  0  0
  -25.2320   -9.5699   22.4944 H   0  0  0  0  0  0
  -23.9805   -7.4473   22.7431 H   0  0  0  0  0  0
  -21.0537   -8.8490   19.8962 H   0  0  0  0  0  0
  -22.3134  -10.9600   19.6305 H   0  0  0  0  0  0
  -21.1892   -7.6039   23.9642 H   0  0  0  0  0  0
  -21.1518   -6.0469   25.9052 H   0  0  0  0  0  0
  -22.0655   -2.7513   23.2947 H   0  0  0  0  0  0
  -22.3787  -12.0356   22.4872 H   0  0  0  0  0  0
  -21.1078  -13.1986   22.2424 H   0  0  0  0  0  0
  -24.8303  -15.8233   20.4872 H   0  0  0  0  0  0
  -26.4437  -15.4859   20.1261 H   0  0  0  0  0  0
  -26.7178  -32.5422   23.1104 H   0  0  0  0  0  0
  -25.0144  -33.9717   25.0494 H   0  0  0  0  0  0
  -22.7268  -31.2981   21.3788 H   0  0  0  0  0  0
  -23.3747  -35.9616   23.3307 H   0  0  0  0  0  0
  -24.3557  -36.8905   22.2051 H   0  0  0  0  0  0
  -23.7181  -37.6500   23.6661 H   0  0  0  0  0  0
  -26.0851  -31.5358   20.5741 H   0  0  0  0  0  0
  -26.8496  -30.8510   21.9753 H   0  0  0  0  0  0
  -28.1420  -29.0137   21.1224 H   0  0  0  0  0  0
  -26.0293  -25.9062   19.0094 H   0  0  0  0  0  0
  -23.9739  -27.2627   19.0433 H   0  0  0  0  0  0
  -23.7684  -30.5615   19.3940 H   0  0  0  0  0  0
  -22.7584  -29.2149   19.8568 H   0  0  0  0  0  0
  -25.1243  -36.1952   25.0834 H   0  0  0  0  0  0
  -21.0031  -28.3272   24.1381 H   0  0  0  0  0  0
  -20.5668  -26.2315   23.3627 H   0  0  0  0  0  0
  -21.6640  -26.7410   22.1172 H   0  0  0  0  0  0
  -19.6900  -25.6286   21.1241 H   0  0  0  0  0  0
  -19.6681  -27.3206   20.6750 H   0  0  0  0  0  0
  -17.4195  -26.6720   21.4041 H   0  0  0  0  0  0
  -18.0312  -26.0090   22.9025 H   0  0  0  0  0  0
  -19.7940  -30.7307   24.2207 H   0  0  0  0  0  0
  -17.5023  -31.6273   24.5181 H   0  0  0  0  0  0
  -15.5370  -30.2980   23.7668 H   0  0  0  0  0  0
  -15.8698  -28.0835   22.7047 H   0  0  0  0  0  0
  -24.5951  -30.6956   25.7806 H   0  0  0  0  0  0
  -24.8855  -32.2836   26.4863 H   0  0  0  0  0  0
  -25.8070  -30.8920   27.0253 H   0  0  0  0  0  0
  -26.2818  -29.6805   24.1192 H   0  0  0  0  0  0
  -27.4018  -29.7231   25.4588 H   0  0  0  0  0  0
  -27.8662  -30.4322   23.9303 H   0  0  0  0  0  0
  -27.2644  -33.3611   26.2037 H   0  0  0  0  0  0
  -28.3849  -32.6785   25.0333 H   0  0  0  0  0  0
  -28.0672  -31.8449   26.5454 H   0  0  0  0  0  0
  -28.2557  -38.0101   24.7540 H   0  0  0  0  0  0
  -28.1051  -36.2637   24.6246 H   0  0  0  0  0  0
  -27.2308  -37.1360   25.8891 H   0  0  0  0  0  0
  -20.9415  -29.8744   21.6808 H   0  0  0  0  0  0
  -26.0152  -38.2868   24.1482 H   0  0  0  0  0  0
  -28.9537  -18.4959   19.1822 H   0  0  0  0  0  0
  -31.0668  -20.9435   22.0226 H   0  0  0  0  0  0
  -31.6299  -16.6977   22.0965 H   0  0  0  0  0  0
  -29.6109  -16.4850   18.0112 H   0  0  0  0  0  0
  -28.1418  -16.4767   19.0040 H   0  0  0  0  0  0
  -28.8492  -15.0028   18.4495 H   0  0  0  0  0  0
  -28.3786  -20.9206   19.3682 H   0  0  0  0  0  0
  -30.0056  -21.3865   18.9992 H   0  0  0  0  0  0
  -30.0332  -22.7977   21.1682 H   0  0  0  0  0  0
  -28.3585  -22.4023   21.3936 H   0  0  0  0  0  0
  -27.8857  -23.6546   19.1437 H   0  0  0  0  0  0
  -29.5581  -24.1200   19.1305 H   0  0  0  0  0  0
  -29.1434  -25.2467   21.4239 H   0  0  0  0  0  0
  -27.4410  -25.0380   21.1755 H   0  0  0  0  0  0
  1 25  1  0  0  0
  1 30  2  0  0  0
  1 82  1  0  0  0
  2  3  1  0  0  0
  2 25  1  0  0  0
  2 84  1  0  0  0
  2 85  1  0  0  0
  3  4  1  0  0  0
  3 86  1  0  0  0
  3 87  1  0  0  0
  4  5  1  0  0  0
  4 88  1  0  0  0
  4 89  1  0  0  0
  5  6  1  0  0  0
  5 26  1  0  0  0
  5 90  1  0  0  0
  6 25  1  0  0  0
  6 91  1  0  0  0
  6 92  1  0  0  0
  7  8  2  0  0  0
  7 26  1  0  0  0
  7 29  1  0  0  0
  8  9  1  0  0  0
  8 22  1  0  0  0
  9 10  1  0  0  0
  9 27  2  0  0  0
 10 11  2  0  0  0
 10 15  1  0  0  0
 11 12  1  0  0  0
 11 93  1  0  0  0
 12 13  2  0  0  0
 12 94  1  0  0  0
 13 14  1  0  0  0
 13 31  1  0  0  0
 14 15  2  0  0  0
 14 95  1  0  0  0
 15 96  1  0  0  0
 16 17  2  0  0  0
 16 21  1  0  0  0
 16 31  1  0  0  0
 17 18  1  0  0  0
 17 97  1  0  0  0
 18 19  2  0  0  0
 18 98  1  0  0  0
 19 20  1  0  0  0
 19 24  1  0  0  0
 20 21  2  0  0  0
 20 99  1  0  0  0
 21 23  1  0  0  0
 22 28  1  0  0  0
 22 32  2  0  0  0
 26 27  1  0  0  0
 28100  1  0  0  0
 28101  1  0  0  0
 29102  1  0  0  0
 29103  1  0  0  0
 33 34  1  0  0  0
 33 66  1  0  0  0
 33 70  2  0  0  0
 34 36  1  0  0  0
 34 59  1  0  0  0
 34104  1  0  0  0
 35 44  2  0  0  0
 35 45  1  0  0  0
 35 68  1  0  0  0
 36 56  1  0  0  0
 36105  1  0  0  0
 37 39  1  0  0  0
 37 47  1  0  0  0
 37 66  1  0  0  0
 37106  1  0  0  0
 38 43  2  0  0  0
 38 46  1  0  0  0
 38 47  1  0  0  0
 39 64  1  0  0  0
 39 67  2  0  0  0
 40 52  1  0  0  0
 40 53  2  0  0  0
 40 58  1  0  0  0
 41107  1  0  0  0
 41108  1  0  0  0
 41109  1  0  0  0
 41 48  1  0  0  0
 42 43  1  0  0  0
 42 66  1  0  0  0
 42110  1  0  0  0
 42111  1  0  0  0
 43 44  1  0  0  0
 44112  1  0  0  0
 45 46  2  0  0  0
 45113  1  0  0  0
 46114  1  0  0  0
 47115  1  0  0  0
 47116  1  0  0  0
 48 56  1  0  0  0
 48 65  1  0  0  0
 48117  1  0  0  0
 49 50  1  0  0  0
 49 53  1  0  0  0
 49 64  1  0  0  0
 49118  1  0  0  0
 50 51  1  0  0  0
 50119  1  0  0  0
 50120  1  0  0  0
 51 52  1  0  0  0
 51121  1  0  0  0
 51122  1  0  0  0
 52123  1  0  0  0
 52124  1  0  0  0
 53 54  1  0  0  0
 54 55  2  0  0  0
 54125  1  0  0  0
 55 57  1  0  0  0
 55126  1  0  0  0
 56 69  2  0  0  0
 57 58  2  0  0  0
 57127  1  0  0  0
 58128  1  0  0  0
 59 60  1  0  0  0
 59 61  1  0  0  0
 59 62  1  0  0  0
 60129  1  0  0  0
 60130  1  0  0  0
 60131  1  0  0  0
 61132  1  0  0  0
 61133  1  0  0  0
 61134  1  0  0  0
 62135  1  0  0  0
 62136  1  0  0  0
 62137  1  0  0  0
 63 65  1  0  0  0
 63138  1  0  0  0
 63139  1  0  0  0
 63140  1  0  0  0
 64141  1  0  0  0
 65142  1  0  0  0
 68 81  1  0  0  0
 71 74  2  0  0  0
 71 75  1  0  0  0
 71143  1  0  0  0
 72 74  1  0  0  0
 72 76  2  0  0  0
 72144  1  0  0  0
 73 75  2  0  0  0
 73 76  1  0  0  0
 73145  1  0  0  0
 74 78  1  0  0  0
 75 82  1  0  0  0
 76 83  1  0  0  0
 77 82  1  0  0  0
 77146  1  0  0  0
 77147  1  0  0  0
 77148  1  0  0  0
 78 79  1  0  0  0
 78149  1  0  0  0
 78150  1  0  0  0
 79 80  1  0  0  0
 79151  1  0  0  0
 79152  1  0  0  0
 80 81  1  0  0  0
 80153  1  0  0  0
 80154  1  0  0  0
 81155  1  0  0  0
 81156  1  0  0  0
M  ISO  4   1 100  68 101  81 101  82 100
M  END
> <chiral flag>
0

> <version>
0

> <s_m_source_file>
/data/baiqing/PycharmProjects/Reinvent-master-3.2/result/LINK_invent/BTK/process_docking_weight1_custom_product_contain_oxygen_bond_distance_aromatic_linkinvent_7_9_3/rearranged_h_0130.sdf

> <i_m_source_file_index>
4

> <r_mmod_Potential_Energy-OPLS-2005>
472.691802978516

> <r_mmod_Stretch_Energy-OPLS-2005>
97.9668655395508

> <r_mmod_Bend_Energy-OPLS-2005>
195.195831298828

> <r_mmod_Torsional_Energy-OPLS-2005>
329.977783203125

> <r_mmod_Improper_Torsional_Energy-OPLS-2005>
10.3659524917603

> <r_mmod_Van_der_Waal_Energy-OPLS-2005>
156.186874389648

> <r_mmod_Electrostatic_Energy-OPLS-2005>
-277.57763671875

> <r_mmod_Solvation_Energy-OPLS-2005>
-184.894424438477

> <b_mmod_Minimization_Converged-OPLS-2005>
0

> <r_mmod_RMS_Derivative-OPLS-2005>
6.32171535491943

$$$$
4
                    3D
 Structure written by MMmdl.
161169  0  0  1  0            999 V2000
  -30.6903  -14.5050   20.5787 C   0  0  0  0  0  0
  -30.4208  -12.3288   19.4375 C   0  0  0  0  0  0
  -29.5010  -12.5215   18.2139 C   0  0  0  0  0  0
  -28.0198  -12.3761   18.6164 C   0  0  0  0  0  0
  -27.6592  -13.2135   19.8745 C   0  0  2  0  0  0
  -28.6964  -12.9936   20.9980 C   0  0  0  0  0  0
  -25.2577  -13.8173   20.5689 C   0  0  0  0  0  0
  -24.1835  -13.0428   20.9172 C   0  0  0  0  0  0
  -24.6400  -11.6896   20.8709 C   0  0  0  0  0  0
  -23.9067  -10.4292   21.0389 C   0  0  0  0  0  0
  -24.3620   -9.4211   21.9172 C   0  0  0  0  0  0
  -23.6311   -8.2239   22.0747 C   0  0  0  0  0  0
  -22.4292   -8.0283   21.3542 C   0  0  0  0  0  0
  -21.9911   -9.0245   20.4633 C   0  0  0  0  0  0
  -22.7234  -10.2126   20.3046 C   0  0  0  0  0  0
  -21.6853   -6.0748   22.5293 C   0  0  0  0  0  0
  -21.4003   -6.5641   23.8225 C   0  0  0  0  0  0
  -21.3656   -5.6788   24.9186 C   0  0  0  0  0  0
  -21.6047   -4.3051   24.7231 C   0  0  0  0  0  0
  -21.8817   -3.8150   23.4341 C   0  0  0  0  0  0
  -21.9181   -4.6973   22.3406 C   0  0  0  0  0  0
  -22.7849  -13.5218   21.1832 C   0  0  0  0  0  0
  -22.1652   -4.2160   21.0981 F   0  0  0  0  0  0
  -21.5632   -3.4533   25.7739 F   0  0  0  0  0  0
  -30.0271  -13.3162   20.4594 N   0  0  0  0  0  0
  -26.3008  -12.9341   20.3344 N   0  0  0  0  0  0
  -25.9325  -11.6492   20.5723 N   0  0  0  0  0  0
  -22.0492  -12.8241   22.0401 N   0  0  0  0  0  0
  -25.4319  -15.1896   20.4141 N   0  0  0  0  0  0
  -31.7971  -14.6723   20.0572 O   0  0  0  0  0  0
  -21.6642   -6.8892   21.4254 O   0  0  0  0  0  0
  -22.3516  -14.5507   20.6668 O   0  0  0  0  0  0
  -24.6155  -31.8685   23.2079 C   0  0  0  0  0  0
  -25.9047  -32.4823   23.8385 C   0  0  1  0  0  0
  -27.2242  -27.4203   20.1101 C   0  0  0  0  0  0
  -25.5905  -33.8624   24.2326 N   0  0  0  0  0  0
  -23.4032  -30.4898   21.5499 C   0  0  2  0  0  0
  -24.8487  -28.9524   20.1155 C   0  0  0  0  0  0
  -22.7410  -29.4660   22.4997 C   0  0  0  0  0  0
  -18.0267  -28.1359   22.8501 C   0  0  0  0  0  0
  -24.1489  -36.7309   23.2639 C   0  0  0  0  0  0
  -25.9319  -30.8304   21.3621 C   0  0  0  0  0  0
  -26.0093  -29.4629   20.7122 C   0  0  0  0  0  0
  -27.2038  -28.7038   20.7053 C   0  0  0  0  0  0
  -26.0522  -26.9263   19.5029 C   0  0  0  0  0  0
  -24.8664  -27.6856   19.5040 C   0  0  0  0  0  0
  -23.6099  -29.8189   20.1656 C   0  0  0  0  0  0
  -25.4109  -36.3116   24.0345 C   0  0  1  0  0  0
  -20.5858  -28.3656   23.1328 C   0  0  2  0  0  0
  -20.6762  -26.9399   22.5419 C   0  0  0  0  0  0
  -19.5743  -26.6374   21.5214 C   0  0  0  0  0  0
  -18.1917  -26.7914   22.1619 C   0  0  0  0  0  0
  -19.1515  -28.8824   23.2904 C   0  0  0  0  0  0
  -18.9444  -30.1432   23.8901 C   0  0  0  0  0  0
  -17.6454  -30.6586   24.0541 C   0  0  0  0  0  0
  -25.9042  -34.9482   23.5131 C   0  0  0  0  0  0
  -16.5341  -29.9083   23.6325 C   0  0  0  0  0  0
  -16.7255  -28.6487   23.0364 C   0  0  0  0  0  0
  -26.4462  -31.6594   25.0714 C   0  0  0  0  0  0
  -25.3737  -31.3719   26.1471 C   0  0  0  0  0  0
  -27.0273  -30.3033   24.6074 C   0  0  0  0  0  0
  -27.6062  -32.4291   25.7461 C   0  0  0  0  0  0
  -27.5588  -37.1801   24.8460 C   0  0  0  0  0  0
  -21.4136  -29.3030   22.3744 N   0  0  0  0  0  0
  -26.4296  -37.3802   23.9418 N   0  0  0  0  0  0
  -24.6683  -31.0778   22.0981 N   0  0  0  0  0  0
  -23.4179  -28.8220   23.3052 O   0  0  0  0  0  0
  -28.3603  -26.6425   20.1141 O   0  0  0  0  0  0
  -26.5602  -34.8942   22.4686 O   0  0  0  0  0  0
  -23.5344  -32.1428   23.7471 O   0  0  0  0  0  0
  -28.9748  -19.3086   23.5172 C   0  0  0  0  0  0
  -29.3956  -18.1450   22.8514 C   0  0  0  0  0  0
  -28.7210  -20.4886   22.7989 C   0  0  0  0  0  0
  -29.5688  -18.1283   21.4508 C   0  0  0  0  0  0
  -29.2531  -19.3221   20.7180 C   0  0  0  0  0  0
  -28.8609  -20.5235   21.3897 C   0  0  0  0  0  0
  -30.0806  -16.8747   20.8125 C   0  0  0  0  0  0
  -30.0021  -15.5985   21.2803 C   0  0  0  0  0  0
  -28.3207  -24.1461   20.4025 C   0  0  0  0  0  0
  -27.9610  -18.6836   17.0914 C   0  0  0  0  0  0
  -29.2778  -19.3189   19.1918 C   0  0  0  0  0  0
  -28.3174  -25.5495   21.0613 C   0  0  0  0  0  0
  -28.3896  -22.9240   21.3532 C   0  0  0  0  0  0
  -27.9894  -18.7012   18.6219 C   0  0  0  0  0  0
  -28.2638  -24.0080   19.1731 O   0  0  0  0  0  0
  -28.6227  -21.6814   20.6521 O   0  0  0  0  0  0
  -31.4672  -12.4190   19.1408 H   0  0  0  0  0  0
  -30.3174  -11.3166   19.8325 H   0  0  0  0  0  0
  -29.7544  -11.7998   17.4377 H   0  0  0  0  0  0
  -29.6682  -13.5087   17.7782 H   0  0  0  0  0  0
  -27.8307  -11.3189   18.8051 H   0  0  0  0  0  0
  -27.3744  -12.6529   17.7820 H   0  0  0  0  0  0
  -27.7040  -14.2632   19.5815 H   0  0  0  0  0  0
  -28.6826  -11.9534   21.3249 H   0  0  0  0  0  0
  -28.4370  -13.5697   21.8845 H   0  0  0  0  0  0
  -25.2777   -9.5688   22.4723 H   0  0  0  0  0  0
  -24.0036   -7.4622   22.7445 H   0  0  0  0  0  0
  -21.0846   -8.8742   19.8941 H   0  0  0  0  0  0
  -22.3696  -10.9647   19.6136 H   0  0  0  0  0  0
  -21.2006   -7.6146   23.9742 H   0  0  0  0  0  0
  -21.1471   -6.0511   25.9092 H   0  0  0  0  0  0
  -22.0598   -2.7616   23.2829 H   0  0  0  0  0  0
  -22.4099  -11.9940   22.4863 H   0  0  0  0  0  0
  -21.1088  -13.1245   22.2530 H   0  0  0  0  0  0
  -24.6756  -15.8526   20.5451 H   0  0  0  0  0  0
  -26.3033  -15.6274   20.1420 H   0  0  0  0  0  0
  -26.7120  -32.5529   23.1156 H   0  0  0  0  0  0
  -25.0077  -33.9780   25.0488 H   0  0  0  0  0  0
  -22.6920  -31.3067   21.4118 H   0  0  0  0  0  0
  -23.3773  -35.9613   23.3270 H   0  0  0  0  0  0
  -24.3600  -36.8946   22.2058 H   0  0  0  0  0  0
  -23.7208  -37.6496   23.6666 H   0  0  0  0  0  0
  -26.0452  -31.5941   20.5916 H   0  0  0  0  0  0
  -26.8200  -30.8842   21.9803 H   0  0  0  0  0  0
  -28.1005  -29.0922   21.1682 H   0  0  0  0  0  0
  -26.0570  -25.9519   19.0333 H   0  0  0  0  0  0
  -23.9756  -27.2894   19.0355 H   0  0  0  0  0  0
  -23.7130  -30.5911   19.4025 H   0  0  0  0  0  0
  -22.7338  -29.2355   19.8764 H   0  0  0  0  0  0
  -25.1282  -36.1980   25.0839 H   0  0  0  0  0  0
  -20.9936  -28.3206   24.1454 H   0  0  0  0  0  0
  -20.5675  -26.2260   23.3598 H   0  0  0  0  0  0
  -21.6629  -26.7456   22.1203 H   0  0  0  0  0  0
  -19.6908  -25.6290   21.1236 H   0  0  0  0  0  0
  -19.6690  -27.3178   20.6740 H   0  0  0  0  0  0
  -17.4201  -26.6679   21.4000 H   0  0  0  0  0  0
  -18.0302  -26.0038   22.8996 H   0  0  0  0  0  0
  -19.7926  -30.7233   24.2278 H   0  0  0  0  0  0
  -17.5018  -31.6276   24.5117 H   0  0  0  0  0  0
  -15.5342  -30.2981   23.7655 H   0  0  0  0  0  0
  -15.8654  -28.0799   22.7101 H   0  0  0  0  0  0
  -24.5859  -30.7129   25.7799 H   0  0  0  0  0  0
  -24.8993  -32.2890   26.4974 H   0  0  0  0  0  0
  -25.8079  -30.8823   27.0197 H   0  0  0  0  0  0
  -26.2795  -29.6808   24.1144 H   0  0  0  0  0  0
  -27.4057  -29.7259   25.4519 H   0  0  0  0  0  0
  -27.8629  -30.4349   23.9199 H   0  0  0  0  0  0
  -27.2723  -33.3611   26.2029 H   0  0  0  0  0  0
  -28.3874  -32.6801   25.0278 H   0  0  0  0  0  0
  -28.0712  -31.8403   26.5376 H   0  0  0  0  0  0
  -28.2594  -38.0116   24.7553 H   0  0  0  0  0  0
  -28.1101  -36.2652   24.6226 H   0  0  0  0  0  0
  -27.2322  -37.1374   25.8868 H   0  0  0  0  0  0
  -20.9297  -29.8759   21.6978 H   0  0  0  0  0  0
  -26.0186  -38.2881   24.1426 H   0  0  0  0  0  0
  -28.8604  -19.2996   24.5922 H   0  0  0  0  0  0
  -29.6144  -17.2679   23.4422 H   0  0  0  0  0  0
  -28.4126  -21.3573   23.3621 H   0  0  0  0  0  0
  -30.6272  -17.0162   19.8928 H   0  0  0  0  0  0
  -29.4633  -15.3985   22.1927 H   0  0  0  0  0  0
  -27.0331  -18.2397   16.7296 H   0  0  0  0  0  0
  -28.7878  -18.1003   16.6865 H   0  0  0  0  0  0
  -28.0278  -19.6926   16.6830 H   0  0  0  0  0  0
  -30.1560  -18.7939   18.8216 H   0  0  0  0  0  0
  -29.3910  -20.3345   18.8119 H   0  0  0  0  0  0
  -29.1970  -25.6267   21.7005 H   0  0  0  0  0  0
  -27.4520  -25.6335   21.7202 H   0  0  0  0  0  0
  -27.4513  -22.8622   21.9058 H   0  0  0  0  0  0
  -29.1874  -23.1011   22.0750 H   0  0  0  0  0  0
  -27.8701  -17.6822   18.9929 H   0  0  0  0  0  0
  -27.1286  -19.2633   18.9887 H   0  0  0  0  0  0
  1 25  1  0  0  0
  1 30  2  0  0  0
  1 78  1  0  0  0
  2  3  1  0  0  0
  2 25  1  0  0  0
  2 87  1  0  0  0
  2 88  1  0  0  0
  3  4  1  0  0  0
  3 89  1  0  0  0
  3 90  1  0  0  0
  4  5  1  0  0  0
  4 91  1  0  0  0
  4 92  1  0  0  0
  5  6  1  0  0  0
  5 26  1  0  0  0
  5 93  1  0  0  0
  6 25  1  0  0  0
  6 94  1  0  0  0
  6 95  1  0  0  0
  7  8  2  0  0  0
  7 26  1  0  0  0
  7 29  1  0  0  0
  8  9  1  0  0  0
  8 22  1  0  0  0
  9 10  1  0  0  0
  9 27  2  0  0  0
 10 11  2  0  0  0
 10 15  1  0  0  0
 11 12  1  0  0  0
 11 96  1  0  0  0
 12 13  2  0  0  0
 12 97  1  0  0  0
 13 14  1  0  0  0
 13 31  1  0  0  0
 14 15  2  0  0  0
 14 98  1  0  0  0
 15 99  1  0  0  0
 16 17  2  0  0  0
 16 21  1  0  0  0
 16 31  1  0  0  0
 17 18  1  0  0  0
 17100  1  0  0  0
 18 19  2  0  0  0
 18101  1  0  0  0
 19 20  1  0  0  0
 19 24  1  0  0  0
 20 21  2  0  0  0
 20102  1  0  0  0
 21 23  1  0  0  0
 22 28  1  0  0  0
 22 32  2  0  0  0
 26 27  1  0  0  0
 28103  1  0  0  0
 28104  1  0  0  0
 29105  1  0  0  0
 29106  1  0  0  0
 33 34  1  0  0  0
 33 66  1  0  0  0
 33 70  2  0  0  0
 34 36  1  0  0  0
 34 59  1  0  0  0
 34107  1  0  0  0
 35 44  2  0  0  0
 35 45  1  0  0  0
 35 68  1  0  0  0
 36 56  1  0  0  0
 36108  1  0  0  0
 37 39  1  0  0  0
 37 47  1  0  0  0
 37 66  1  0  0  0
 37109  1  0  0  0
 38 43  2  0  0  0
 38 46  1  0  0  0
 38 47  1  0  0  0
 39 64  1  0  0  0
 39 67  2  0  0  0
 40 52  1  0  0  0
 40 53  2  0  0  0
 40 58  1  0  0  0
 41110  1  0  0  0
 41111  1  0  0  0
 41112  1  0  0  0
 41 48  1  0  0  0
 42 43  1  0  0  0
 42 66  1  0  0  0
 42113  1  0  0  0
 42114  1  0  0  0
 43 44  1  0  0  0
 44115  1  0  0  0
 45 46  2  0  0  0
 45116  1  0  0  0
 46117  1  0  0  0
 47118  1  0  0  0
 47119  1  0  0  0
 48 56  1  0  0  0
 48 65  1  0  0  0
 48120  1  0  0  0
 49 50  1  0  0  0
 49 53  1  0  0  0
 49 64  1  0  0  0
 49121  1  0  0  0
 50 51  1  0  0  0
 50122  1  0  0  0
 50123  1  0  0  0
 51 52  1  0  0  0
 51124  1  0  0  0
 51125  1  0  0  0
 52126  1  0  0  0
 52127  1  0  0  0
 53 54  1  0  0  0
 54 55  2  0  0  0
 54128  1  0  0  0
 55 57  1  0  0  0
 55129  1  0  0  0
 56 69  2  0  0  0
 57 58  2  0  0  0
 57130  1  0  0  0
 58131  1  0  0  0
 59 60  1  0  0  0
 59 61  1  0  0  0
 59 62  1  0  0  0
 60132  1  0  0  0
 60133  1  0  0  0
 60134  1  0  0  0
 61135  1  0  0  0
 61136  1  0  0  0
 61137  1  0  0  0
 62138  1  0  0  0
 62139  1  0  0  0
 62140  1  0  0  0
 63 65  1  0  0  0
 63141  1  0  0  0
 63142  1  0  0  0
 63143  1  0  0  0
 64144  1  0  0  0
 65145  1  0  0  0
 68 82  1  0  0  0
 71 72  2  0  0  0
 71 73  1  0  0  0
 71146  1  0  0  0
 72 74  1  0  0  0
 72147  1  0  0  0
 73 76  2  0  0  0
 73148  1  0  0  0
 74 75  2  0  0  0
 74 77  1  0  0  0
 75 76  1  0  0  0
 75 81  1  0  0  0
 76 86  1  0  0  0
 77 78  2  0  0  0
 77149  1  0  0  0
 78150  1  0  0  0
 79 82  1  0  0  0
 79 83  1  0  0  0
 79 85  2  0  0  0
 80 84  1  0  0  0
 80151  1  0  0  0
 80152  1  0  0  0
 80153  1  0  0  0
 81 84  1  0  0  0
 81154  1  0  0  0
 81155  1  0  0  0
 82156  1  0  0  0
 82157  1  0  0  0
 83 86  1  0  0  0
 83158  1  0  0  0
 83159  1  0  0  0
 84160  1  0  0  0
 84161  1  0  0  0
M  ISO  4   1 100  68 101  78 100  82 101
M  END
> <chiral flag>
0

> <version>
0

> <s_m_source_file>
/data/baiqing/PycharmProjects/Reinvent-master-3.2/result/LINK_invent/BTK/process_docking_weight1_custom_product_contain_oxygen_bond_distance_aromatic_linkinvent_7_9_3/rearranged_h_0130.sdf

> <i_m_source_file_index>
5

> <r_mmod_Potential_Energy-OPLS-2005>
17.0010471343994

> <r_mmod_Stretch_Energy-OPLS-2005>
47.8480949401855

> <r_mmod_Bend_Energy-OPLS-2005>
101.899345397949

> <r_mmod_Torsional_Energy-OPLS-2005>
211.860885620117

> <r_mmod_Improper_Torsional_Energy-OPLS-2005>
2.89100241661072

> <r_mmod_Van_der_Waal_Energy-OPLS-2005>
151.232406616211

> <r_mmod_Electrostatic_Energy-OPLS-2005>
-295.727569580078

> <r_mmod_Solvation_Energy-OPLS-2005>
-218.448944091797

> <b_mmod_Minimization_Converged-OPLS-2005>
0

> <r_mmod_RMS_Derivative-OPLS-2005>
2.46529793739319

$$$$
5
                    3D
 Structure written by MMmdl.
155163  0  0  1  0            999 V2000
  -30.7726  -14.4539   20.5234 C   0  0  0  0  0  0
  -30.3945  -12.2782   19.4538 C   0  0  0  0  0  0
  -29.4960  -12.4792   18.2191 C   0  0  0  0  0  0
  -28.0152  -12.3540   18.6219 C   0  0  0  0  0  0
  -27.6534  -13.2199   19.8601 C   0  0  2  0  0  0
  -28.6940  -13.0721   20.9935 C   0  0  0  0  0  0
  -25.2564  -13.8201   20.5683 C   0  0  0  0  0  0
  -24.1835  -13.0457   20.9189 C   0  0  0  0  0  0
  -24.6396  -11.6929   20.8735 C   0  0  0  0  0  0
  -23.9066  -10.4311   21.0400 C   0  0  0  0  0  0
  -24.3626   -9.4225   21.9174 C   0  0  0  0  0  0
  -23.6313   -8.2251   22.0741 C   0  0  0  0  0  0
  -22.4291   -8.0289   21.3536 C   0  0  0  0  0  0
  -21.9922   -9.0258   20.4636 C   0  0  0  0  0  0
  -22.7239  -10.2141   20.3048 C   0  0  0  0  0  0
  -21.6854   -6.0747   22.5283 C   0  0  0  0  0  0
  -21.4010   -6.5646   23.8221 C   0  0  0  0  0  0
  -21.3663   -5.6795   24.9182 C   0  0  0  0  0  0
  -21.6042   -4.3059   24.7225 C   0  0  0  0  0  0
  -21.8820   -3.8150   23.4347 C   0  0  0  0  0  0
  -21.9192   -4.6973   22.3406 C   0  0  0  0  0  0
  -22.7853  -13.5244   21.1845 C   0  0  0  0  0  0
  -22.1659   -4.2162   21.0989 F   0  0  0  0  0  0
  -21.5639   -3.4543   25.7734 F   0  0  0  0  0  0
  -30.0276  -13.3183   20.4317 N   0  0  0  0  0  0
  -26.2992  -12.9381   20.3308 N   0  0  0  0  0  0
  -25.9325  -11.6530   20.5752 N   0  0  0  0  0  0
  -22.0485  -12.8247   22.0401 N   0  0  0  0  0  0
  -25.4298  -15.1920   20.4119 N   0  0  0  0  0  0
  -31.9346  -14.4735   20.1114 O   0  0  0  0  0  0
  -21.6647   -6.8890   21.4243 O   0  0  0  0  0  0
  -22.3540  -14.5541   20.6683 O   0  0  0  0  0  0
  -24.6104  -31.8703   23.2129 C   0  0  0  0  0  0
  -25.9011  -32.4833   23.8411 C   0  0  1  0  0  0
  -27.2280  -27.4650   20.0927 C   0  0  0  0  0  0
  -25.5873  -33.8628   24.2337 N   0  0  0  0  0  0
  -23.3975  -30.4940   21.5532 C   0  0  2  0  0  0
  -24.8438  -28.9633   20.1166 C   0  0  0  0  0  0
  -22.7387  -29.4663   22.5005 C   0  0  0  0  0  0
  -18.0263  -28.1392   22.8494 C   0  0  0  0  0  0
  -24.1484  -36.7331   23.2635 C   0  0  0  0  0  0
  -25.9232  -30.8443   21.3629 C   0  0  0  0  0  0
  -26.0024  -29.4820   20.7092 C   0  0  0  0  0  0
  -27.2023  -28.7394   20.6942 C   0  0  0  0  0  0
  -26.0583  -26.9510   19.4980 C   0  0  0  0  0  0
  -24.8635  -27.6942   19.5111 C   0  0  0  0  0  0
  -23.6050  -29.8271   20.1672 C   0  0  0  0  0  0
  -25.4102  -36.3117   24.0340 C   0  0  1  0  0  0
  -20.5848  -28.3654   23.1339 C   0  0  2  0  0  0
  -20.6759  -26.9400   22.5425 C   0  0  0  0  0  0
  -19.5743  -26.6387   21.5221 C   0  0  0  0  0  0
  -18.1918  -26.7939   22.1621 C   0  0  0  0  0  0
  -19.1510  -28.8841   23.2915 C   0  0  0  0  0  0
  -18.9444  -30.1452   23.8919 C   0  0  0  0  0  0
  -17.6449  -30.6597   24.0571 C   0  0  0  0  0  0
  -25.9022  -34.9478   23.5138 C   0  0  0  0  0  0
  -16.5340  -29.9102   23.6327 C   0  0  0  0  0  0
  -16.7255  -28.6524   23.0341 C   0  0  0  0  0  0
  -26.4449  -31.6611   25.0733 C   0  0  0  0  0  0
  -25.3734  -31.3742   26.1502 C   0  0  0  0  0  0
  -27.0256  -30.3041   24.6103 C   0  0  0  0  0  0
  -27.6037  -32.4328   25.7491 C   0  0  0  0  0  0
  -27.5589  -37.1810   24.8449 C   0  0  0  0  0  0
  -21.4117  -29.3028   22.3750 N   0  0  0  0  0  0
  -26.4287  -37.3806   23.9416 N   0  0  0  0  0  0
  -24.6622  -31.0825   22.1023 N   0  0  0  0  0  0
  -23.4177  -28.8201   23.3030 O   0  0  0  0  0  0
  -28.3760  -26.7185   20.0851 O   0  0  0  0  0  0
  -26.5591  -34.8927   22.4704 O   0  0  0  0  0  0
  -23.5304  -32.1449   23.7538 O   0  0  0  0  0  0
  -29.5041  -18.8603   20.6812 C   0  0  0  0  0  0
  -29.4709  -20.2708   20.5613 C   0  0  0  0  0  0
  -31.6729  -19.0242   21.7545 C   0  0  0  0  0  0
  -30.6474  -18.2255   21.2120 C   0  0  0  0  0  0
  -30.5682  -21.0667   20.9808 C   0  0  0  0  0  0
  -31.6491  -20.4293   21.6505 C   0  0  0  0  0  0
  -30.9191  -16.7797   21.1091 C   0  0  0  0  0  0
  -30.1103  -15.7169   20.8719 C   0  0  0  0  0  0
  -29.4170  -23.3565   20.8716 C   0  0  0  0  0  0
  -29.4934  -24.7033   20.8171 C   0  0  0  0  0  0
  -30.6221  -22.5327   20.6625 C   0  0  0  0  0  0
  -32.8242  -21.2023   22.2400 C   0  0  0  0  0  0
  -28.3371  -25.6509   21.0284 C   0  0  0  0  0  0
  -31.6644  -23.0418   20.2344 O   0  0  0  0  0  0
  -31.4466  -12.3026   19.1673 H   0  0  0  0  0  0
  -30.2367  -11.2877   19.8842 H   0  0  0  0  0  0
  -29.7421  -11.7431   17.4531 H   0  0  0  0  0  0
  -29.6819  -13.4595   17.7760 H   0  0  0  0  0  0
  -27.8225  -11.3015   18.8343 H   0  0  0  0  0  0
  -27.3721  -12.6132   17.7806 H   0  0  0  0  0  0
  -27.6783  -14.2567   19.5236 H   0  0  0  0  0  0
  -28.6574  -12.0679   21.4184 H   0  0  0  0  0  0
  -28.4728  -13.7538   21.8154 H   0  0  0  0  0  0
  -25.2772   -9.5720   22.4741 H   0  0  0  0  0  0
  -24.0041   -7.4643   22.7456 H   0  0  0  0  0  0
  -21.0853   -8.8764   19.8942 H   0  0  0  0  0  0
  -22.3690  -10.9678   19.6161 H   0  0  0  0  0  0
  -21.1993   -7.6149   23.9732 H   0  0  0  0  0  0
  -21.1486   -6.0520   25.9092 H   0  0  0  0  0  0
  -22.0593   -2.7612   23.2830 H   0  0  0  0  0  0
  -22.4094  -11.9940   22.4846 H   0  0  0  0  0  0
  -21.1085  -13.1261   22.2557 H   0  0  0  0  0  0
  -24.6670  -15.8500   20.5285 H   0  0  0  0  0  0
  -26.2890  -15.6305   20.1051 H   0  0  0  0  0  0
  -26.7082  -32.5551   23.1181 H   0  0  0  0  0  0
  -24.9993  -33.9801   25.0455 H   0  0  0  0  0  0
  -22.6855  -31.3103   21.4153 H   0  0  0  0  0  0
  -23.3741  -35.9666   23.3284 H   0  0  0  0  0  0
  -24.3586  -36.8958   22.2053 H   0  0  0  0  0  0
  -23.7233  -37.6533   23.6657 H   0  0  0  0  0  0
  -26.0316  -31.6132   20.5968 H   0  0  0  0  0  0
  -26.8129  -30.8967   21.9796 H   0  0  0  0  0  0
  -28.0993  -29.1343   21.1505 H   0  0  0  0  0  0
  -26.0710  -25.9769   19.0292 H   0  0  0  0  0  0
  -23.9704  -27.2890   19.0558 H   0  0  0  0  0  0
  -23.7128  -30.6032   19.4079 H   0  0  0  0  0  0
  -22.7303  -29.2455   19.8699 H   0  0  0  0  0  0
  -25.1276  -36.1987   25.0832 H   0  0  0  0  0  0
  -20.9937  -28.3215   24.1461 H   0  0  0  0  0  0
  -20.5682  -26.2261   23.3603 H   0  0  0  0  0  0
  -21.6626  -26.7471   22.1205 H   0  0  0  0  0  0
  -19.6903  -25.6300   21.1247 H   0  0  0  0  0  0
  -19.6698  -27.3197   20.6755 H   0  0  0  0  0  0
  -17.4197  -26.6695   21.4013 H   0  0  0  0  0  0
  -18.0308  -26.0081   22.9017 H   0  0  0  0  0  0
  -19.7925  -30.7261   24.2292 H   0  0  0  0  0  0
  -17.5012  -31.6286   24.5161 H   0  0  0  0  0  0
  -15.5344  -30.3021   23.7645 H   0  0  0  0  0  0
  -15.8651  -28.0865   22.7029 H   0  0  0  0  0  0
  -24.5837  -30.7172   25.7840 H   0  0  0  0  0  0
  -24.9012  -32.2922   26.5014 H   0  0  0  0  0  0
  -25.8077  -30.8840   27.0224 H   0  0  0  0  0  0
  -26.2790  -29.6845   24.1116 H   0  0  0  0  0  0
  -27.3962  -29.7237   25.4563 H   0  0  0  0  0  0
  -27.8660  -30.4342   23.9283 H   0  0  0  0  0  0
  -27.2638  -33.3585   26.2156 H   0  0  0  0  0  0
  -28.3795  -32.6974   25.0294 H   0  0  0  0  0  0
  -28.0771  -31.8414   26.5341 H   0  0  0  0  0  0
  -28.2580  -38.0134   24.7532 H   0  0  0  0  0  0
  -28.1113  -36.2667   24.6218 H   0  0  0  0  0  0
  -27.2326  -37.1387   25.8856 H   0  0  0  0  0  0
  -20.9266  -29.8763   21.6986 H   0  0  0  0  0  0
  -26.0177  -38.2880   24.1450 H   0  0  0  0  0  0
  -28.6968  -18.2716   20.2678 H   0  0  0  0  0  0
  -28.6261  -20.7288   20.0635 H   0  0  0  0  0  0
  -32.5374  -18.5490   22.1970 H   0  0  0  0  0  0
  -31.9836  -16.5878   21.1557 H   0  0  0  0  0  0
  -29.0361  -15.8208   20.8604 H   0  0  0  0  0  0
  -28.4824  -22.8600   21.0836 H   0  0  0  0  0  0
  -30.4417  -25.1856   20.6219 H   0  0  0  0  0  0
  -33.3960  -20.5880   22.9356 H   0  0  0  0  0  0
  -32.4846  -22.0792   22.7928 H   0  0  0  0  0  0
  -33.5049  -21.5308   21.4534 H   0  0  0  0  0  0
  -28.4143  -26.0681   22.0339 H   0  0  0  0  0  0
  -27.3995  -25.0936   20.9799 H   0  0  0  0  0  0
  1 25  1  0  0  0
  1 30  2  0  0  0
  1 78  1  0  0  0
  2  3  1  0  0  0
  2 25  1  0  0  0
  2 85  1  0  0  0
  2 86  1  0  0  0
  3  4  1  0  0  0
  3 87  1  0  0  0
  3 88  1  0  0  0
  4  5  1  0  0  0
  4 89  1  0  0  0
  4 90  1  0  0  0
  5  6  1  0  0  0
  5 26  1  0  0  0
  5 91  1  0  0  0
  6 25  1  0  0  0
  6 92  1  0  0  0
  6 93  1  0  0  0
  7  8  2  0  0  0
  7 26  1  0  0  0
  7 29  1  0  0  0
  8  9  1  0  0  0
  8 22  1  0  0  0
  9 10  1  0  0  0
  9 27  2  0  0  0
 10 11  2  0  0  0
 10 15  1  0  0  0
 11 12  1  0  0  0
 11 94  1  0  0  0
 12 13  2  0  0  0
 12 95  1  0  0  0
 13 14  1  0  0  0
 13 31  1  0  0  0
 14 15  2  0  0  0
 14 96  1  0  0  0
 15 97  1  0  0  0
 16 17  2  0  0  0
 16 21  1  0  0  0
 16 31  1  0  0  0
 17 18  1  0  0  0
 17 98  1  0  0  0
 18 19  2  0  0  0
 18 99  1  0  0  0
 19 20  1  0  0  0
 19 24  1  0  0  0
 20 21  2  0  0  0
 20100  1  0  0  0
 21 23  1  0  0  0
 22 28  1  0  0  0
 22 32  2  0  0  0
 26 27  1  0  0  0
 28101  1  0  0  0
 28102  1  0  0  0
 29103  1  0  0  0
 29104  1  0  0  0
 33 34  1  0  0  0
 33 66  1  0  0  0
 33 70  2  0  0  0
 34 36  1  0  0  0
 34 59  1  0  0  0
 34105  1  0  0  0
 35 44  2  0  0  0
 35 45  1  0  0  0
 35 68  1  0  0  0
 36 56  1  0  0  0
 36106  1  0  0  0
 37 39  1  0  0  0
 37 47  1  0  0  0
 37 66  1  0  0  0
 37107  1  0  0  0
 38 43  2  0  0  0
 38 46  1  0  0  0
 38 47  1  0  0  0
 39 64  1  0  0  0
 39 67  2  0  0  0
 40 52  1  0  0  0
 40 53  2  0  0  0
 40 58  1  0  0  0
 41108  1  0  0  0
 41109  1  0  0  0
 41110  1  0  0  0
 41 48  1  0  0  0
 42 43  1  0  0  0
 42 66  1  0  0  0
 42111  1  0  0  0
 42112  1  0  0  0
 43 44  1  0  0  0
 44113  1  0  0  0
 45 46  2  0  0  0
 45114  1  0  0  0
 46115  1  0  0  0
 47116  1  0  0  0
 47117  1  0  0  0
 48 56  1  0  0  0
 48 65  1  0  0  0
 48118  1  0  0  0
 49 50  1  0  0  0
 49 53  1  0  0  0
 49 64  1  0  0  0
 49119  1  0  0  0
 50 51  1  0  0  0
 50120  1  0  0  0
 50121  1  0  0  0
 51 52  1  0  0  0
 51122  1  0  0  0
 51123  1  0  0  0
 52124  1  0  0  0
 52125  1  0  0  0
 53 54  1  0  0  0
 54 55  2  0  0  0
 54126  1  0  0  0
 55 57  1  0  0  0
 55127  1  0  0  0
 56 69  2  0  0  0
 57 58  2  0  0  0
 57128  1  0  0  0
 58129  1  0  0  0
 59 60  1  0  0  0
 59 61  1  0  0  0
 59 62  1  0  0  0
 60130  1  0  0  0
 60131  1  0  0  0
 60132  1  0  0  0
 61133  1  0  0  0
 61134  1  0  0  0
 61135  1  0  0  0
 62136  1  0  0  0
 62137  1  0  0  0
 62138  1  0  0  0
 63 65  1  0  0  0
 63139  1  0  0  0
 63140  1  0  0  0
 63141  1  0  0  0
 64142  1  0  0  0
 65143  1  0  0  0
 68 83  1  0  0  0
 71 72  2  0  0  0
 71 74  1  0  0  0
 71144  1  0  0  0
 72 75  1  0  0  0
 72145  1  0  0  0
 73 74  2  0  0  0
 73 76  1  0  0  0
 73146  1  0  0  0
 74 77  1  0  0  0
 75 76  2  0  0  0
 75 81  1  0  0  0
 76 82  1  0  0  0
 77 78  2  0  0  0
 77147  1  0  0  0
 78148  1  0  0  0
 79 80  2  0  0  0
 79 81  1  0  0  0
 79149  1  0  0  0
 80 83  1  0  0  0
 80150  1  0  0  0
 81 84  2  0  0  0
 82151  1  0  0  0
 82152  1  0  0  0
 82153  1  0  0  0
 83154  1  0  0  0
 83155  1  0  0  0
M  ISO  4   1 100  68 101  78 100  83 101
M  END
> <chiral flag>
0

> <version>
0

> <s_m_source_file>
/data/baiqing/PycharmProjects/Reinvent-master-3.2/result/LINK_invent/BTK/process_docking_weight1_custom_product_contain_oxygen_bond_distance_aromatic_linkinvent_7_9_3/rearranged_h_0130.sdf

> <i_m_source_file_index>
6

> <r_mmod_Potential_Energy-OPLS-2005>
47.2176513671875

> <r_mmod_Stretch_Energy-OPLS-2005>
35.4350624084473

> <r_mmod_Bend_Energy-OPLS-2005>
104.201065063477

> <r_mmod_Torsional_Energy-OPLS-2005>
229.759918212891

> <r_mmod_Improper_Torsional_Energy-OPLS-2005>
8.10762119293213

> <r_mmod_Van_der_Waal_Energy-OPLS-2005>
168.402160644531

> <r_mmod_Electrostatic_Energy-OPLS-2005>
-315.195617675781

> <r_mmod_Solvation_Energy-OPLS-2005>
-203.77555847168

> <b_mmod_Minimization_Converged-OPLS-2005>
0

> <r_mmod_RMS_Derivative-OPLS-2005>
1.68128514289856

$$$$
6
                    3D
 Structure written by MMmdl.
152160  0  0  1  0            999 V2000
  -30.6310  -14.5373   20.7002 C   0  0  0  0  0  0
  -30.4633  -12.4141   19.3973 C   0  0  0  0  0  0
  -29.5095  -12.6013   18.1959 C   0  0  0  0  0  0
  -28.0275  -12.4413   18.5949 C   0  0  0  0  0  0
  -27.6709  -13.2127   19.8917 C   0  0  2  0  0  0
  -28.7127  -12.8882   20.9815 C   0  0  0  0  0  0
  -25.2614  -13.8136   20.5657 C   0  0  0  0  0  0
  -24.1892  -13.0432   20.9206 C   0  0  0  0  0  0
  -24.6466  -11.6899   20.8726 C   0  0  0  0  0  0
  -23.9139  -10.4273   21.0407 C   0  0  0  0  0  0
  -24.3663   -9.4166   21.9173 C   0  0  0  0  0  0
  -23.6309   -8.2231   22.0746 C   0  0  0  0  0  0
  -22.4268   -8.0300   21.3573 C   0  0  0  0  0  0
  -21.9942   -9.0279   20.4660 C   0  0  0  0  0  0
  -22.7316  -10.2119   20.3062 C   0  0  0  0  0  0
  -21.6827   -6.0752   22.5295 C   0  0  0  0  0  0
  -21.3994   -6.5647   23.8243 C   0  0  0  0  0  0
  -21.3666   -5.6789   24.9210 C   0  0  0  0  0  0
  -21.6053   -4.3060   24.7228 C   0  0  0  0  0  0
  -21.8807   -3.8157   23.4353 C   0  0  0  0  0  0
  -21.9173   -4.6975   22.3416 C   0  0  0  0  0  0
  -22.7886  -13.5192   21.1859 C   0  0  0  0  0  0
  -22.1645   -4.2177   21.0992 F   0  0  0  0  0  0
  -21.5640   -3.4529   25.7754 F   0  0  0  0  0  0
  -30.0337  -13.3202   20.4779 N   0  0  0  0  0  0
  -26.3092  -12.9348   20.3377 N   0  0  0  0  0  0
  -25.9383  -11.6497   20.5757 N   0  0  0  0  0  0
  -22.0503  -12.8238   22.0427 N   0  0  0  0  0  0
  -25.4282  -15.1875   20.4049 N   0  0  0  0  0  0
  -31.6790  -14.8500   20.1253 O   0  0  0  0  0  0
  -21.6622   -6.8898   21.4273 O   0  0  0  0  0  0
  -22.3578  -14.5489   20.6672 O   0  0  0  0  0  0
  -24.6223  -31.8583   23.2038 C   0  0  0  0  0  0
  -25.9086  -32.4746   23.8383 C   0  0  1  0  0  0
  -27.2277  -27.3443   20.1272 C   0  0  0  0  0  0
  -25.5908  -33.8551   24.2307 N   0  0  0  0  0  0
  -23.4202  -30.4853   21.5344 C   0  0  2  0  0  0
  -24.8739  -28.9439   20.1079 C   0  0  0  0  0  0
  -22.7486  -29.4632   22.4817 C   0  0  0  0  0  0
  -18.0278  -28.1429   22.8467 C   0  0  0  0  0  0
  -24.1473  -36.7237   23.2646 C   0  0  0  0  0  0
  -25.9599  -30.8013   21.3784 C   0  0  0  0  0  0
  -26.0371  -29.4302   20.7213 C   0  0  0  0  0  0
  -27.2201  -28.6377   20.7284 C   0  0  0  0  0  0
  -26.0527  -26.9132   19.4800 C   0  0  0  0  0  0
  -24.8815  -27.6886   19.4821 C   0  0  0  0  0  0
  -23.6447  -29.8203   20.1503 C   0  0  0  0  0  0
  -25.4095  -36.3045   24.0354 C   0  0  1  0  0  0
  -20.5911  -28.3731   23.1248 C   0  0  2  0  0  0
  -20.6806  -26.9455   22.5398 C   0  0  0  0  0  0
  -19.5780  -26.6432   21.5209 C   0  0  0  0  0  0
  -18.1936  -26.7967   22.1618 C   0  0  0  0  0  0
  -19.1544  -28.8884   23.2872 C   0  0  0  0  0  0
  -18.9463  -30.1481   23.8913 C   0  0  0  0  0  0
  -17.6454  -30.6614   24.0569 C   0  0  0  0  0  0
  -25.9044  -34.9412   23.5123 C   0  0  0  0  0  0
  -16.5349  -29.9121   23.6325 C   0  0  0  0  0  0
  -16.7274  -28.6552   23.0343 C   0  0  0  0  0  0
  -26.4522  -31.6532   25.0715 C   0  0  0  0  0  0
  -25.3811  -31.3601   26.1474 C   0  0  0  0  0  0
  -27.0363  -30.2959   24.6125 C   0  0  0  0  0  0
  -27.6103  -32.4253   25.7454 C   0  0  0  0  0  0
  -27.5555  -37.1764   24.8475 C   0  0  0  0  0  0
  -21.4188  -29.3079   22.3615 N   0  0  0  0  0  0
  -26.4244  -37.3758   23.9447 N   0  0  0  0  0  0
  -24.6841  -31.0673   22.0949 N   0  0  0  0  0  0
  -23.4205  -28.8165   23.2912 O   0  0  0  0  0  0
  -28.3173  -26.4739   20.1762 O   0  0  0  0  0  0
  -26.5584  -34.8882   22.4672 O   0  0  0  0  0  0
  -23.5390  -32.1337   23.7378 O   0  0  0  0  0  0
  -31.5266  -19.7048   20.4395 C   0  0  0  0  0  0
  -30.4921  -20.6402   20.2117 C   0  0  0  0  0  0
  -31.2446  -18.3908   20.8718 C   0  0  0  0  0  0
  -28.8804  -18.9314   20.8146 C   0  0  0  0  0  0
  -29.1408  -20.2855   20.3977 C   0  0  0  0  0  0
  -29.9173  -17.9755   21.0749 C   0  0  0  0  0  0
  -27.9945  -21.2617   20.2388 C   0  0  0  0  0  0
  -29.6505  -16.6969   21.8146 C   0  0  0  0  0  0
  -27.7650  -22.6187   20.1340 C   0  0  0  0  0  0
  -29.9480  -15.3611   21.7212 C   0  0  0  0  0  0
  -28.6139  -23.8686   20.1201 C   0  0  0  0  0  0
  -27.9999  -25.1623   20.7799 C   0  0  0  0  0  0
  -29.7281  -23.9215   19.5908 O   0  0  0  0  0  0
  -31.4854  -12.6212   19.0853 H   0  0  0  0  0  0
  -30.4613  -11.3793   19.7419 H   0  0  0  0  0  0
  -29.7593  -11.8980   17.4014 H   0  0  0  0  0  0
  -29.6695  -13.5955   17.7716 H   0  0  0  0  0  0
  -27.8194  -11.3784   18.7226 H   0  0  0  0  0  0
  -27.3926  -12.7886   17.7787 H   0  0  0  0  0  0
  -27.7415  -14.2825   19.6859 H   0  0  0  0  0  0
  -28.7308  -11.8113   21.1551 H   0  0  0  0  0  0
  -28.4114  -13.3078   21.9391 H   0  0  0  0  0  0
  -25.2792   -9.5606   22.4772 H   0  0  0  0  0  0
  -23.9997   -7.4581   22.7428 H   0  0  0  0  0  0
  -21.0882   -8.8830   19.8944 H   0  0  0  0  0  0
  -22.3797  -10.9687   19.6178 H   0  0  0  0  0  0
  -21.1977   -7.6149   23.9768 H   0  0  0  0  0  0
  -21.1503   -6.0509   25.9111 H   0  0  0  0  0  0
  -22.0575   -2.7626   23.2846 H   0  0  0  0  0  0
  -22.4093  -11.9923   22.4905 H   0  0  0  0  0  0
  -21.1112  -13.1291   22.2583 H   0  0  0  0  0  0
  -24.6549  -15.8366   20.5041 H   0  0  0  0  0  0
  -26.2841  -15.6330   20.0991 H   0  0  0  0  0  0
  -26.7133  -32.5457   23.1134 H   0  0  0  0  0  0
  -25.0145  -33.9682   25.0513 H   0  0  0  0  0  0
  -22.7135  -31.3036   21.3789 H   0  0  0  0  0  0
  -23.3744  -35.9557   23.3313 H   0  0  0  0  0  0
  -24.3593  -36.8826   22.2062 H   0  0  0  0  0  0
  -23.7198  -37.6436   23.6653 H   0  0  0  0  0  0
  -26.0998  -31.5726   20.6186 H   0  0  0  0  0  0
  -26.8398  -30.8428   22.0114 H   0  0  0  0  0  0
  -28.1056  -28.9957   21.2341 H   0  0  0  0  0  0
  -26.0295  -25.9546   18.9824 H   0  0  0  0  0  0
  -23.9918  -27.3093   19.0024 H   0  0  0  0  0  0
  -23.7776  -30.5904   19.3901 H   0  0  0  0  0  0
  -22.7752  -29.2420   19.8357 H   0  0  0  0  0  0
  -25.1259  -36.1878   25.0837 H   0  0  0  0  0  0
  -21.0008  -28.3340   24.1385 H   0  0  0  0  0  0
  -20.5716  -26.2352   23.3615 H   0  0  0  0  0  0
  -21.6658  -26.7505   22.1186 H   0  0  0  0  0  0
  -19.6958  -25.6350   21.1227 H   0  0  0  0  0  0
  -19.6718  -27.3257   20.6759 H   0  0  0  0  0  0
  -17.4219  -26.6696   21.4020 H   0  0  0  0  0  0
  -18.0351  -26.0118   22.9034 H   0  0  0  0  0  0
  -19.7953  -30.7281   24.2326 H   0  0  0  0  0  0
  -17.5035  -31.6302   24.5178 H   0  0  0  0  0  0
  -15.5377  -30.3040   23.7673 H   0  0  0  0  0  0
  -15.8676  -28.0889   22.7065 H   0  0  0  0  0  0
  -24.6082  -30.6804   25.7862 H   0  0  0  0  0  0
  -24.8906  -32.2717   26.4895 H   0  0  0  0  0  0
  -25.8264  -30.8862   27.0237 H   0  0  0  0  0  0
  -26.2901  -29.6685   24.1233 H   0  0  0  0  0  0
  -27.4176  -29.7216   25.4588 H   0  0  0  0  0  0
  -27.8729  -30.4266   23.9258 H   0  0  0  0  0  0
  -27.2766  -33.3614   26.1953 H   0  0  0  0  0  0
  -28.3966  -32.6692   25.0288 H   0  0  0  0  0  0
  -28.0703  -31.8391   26.5432 H   0  0  0  0  0  0
  -28.2554  -38.0079   24.7550 H   0  0  0  0  0  0
  -28.1058  -36.2617   24.6247 H   0  0  0  0  0  0
  -27.2287  -37.1318   25.8876 H   0  0  0  0  0  0
  -20.9373  -29.8751   21.6762 H   0  0  0  0  0  0
  -26.0109  -38.2791   24.1548 H   0  0  0  0  0  0
  -32.5577  -20.0131   20.3292 H   0  0  0  0  0  0
  -30.7468  -21.6373   19.8953 H   0  0  0  0  0  0
  -32.0596  -17.7289   21.1260 H   0  0  0  0  0  0
  -27.8561  -18.6342   20.9984 H   0  0  0  0  0  0
  -27.0580  -20.7219   20.1945 H   0  0  0  0  0  0
  -29.1262  -16.9095   22.7356 H   0  0  0  0  0  0
  -26.7152  -22.8607   20.0430 H   0  0  0  0  0  0
  -29.6245  -14.8144   22.5939 H   0  0  0  0  0  0
  -28.3152  -25.1826   21.8258 H   0  0  0  0  0  0
  -26.9237  -25.0120   20.8243 H   0  0  0  0  0  0
  1 25  1  0  0  0
  1 30  2  0  0  0
  1 80  1  0  0  0
  2  3  1  0  0  0
  2 25  1  0  0  0
  2 84  1  0  0  0
  2 85  1  0  0  0
  3  4  1  0  0  0
  3 86  1  0  0  0
  3 87  1  0  0  0
  4  5  1  0  0  0
  4 88  1  0  0  0
  4 89  1  0  0  0
  5  6  1  0  0  0
  5 26  1  0  0  0
  5 90  1  0  0  0
  6 25  1  0  0  0
  6 91  1  0  0  0
  6 92  1  0  0  0
  7  8  2  0  0  0
  7 26  1  0  0  0
  7 29  1  0  0  0
  8  9  1  0  0  0
  8 22  1  0  0  0
  9 10  1  0  0  0
  9 27  2  0  0  0
 10 11  2  0  0  0
 10 15  1  0  0  0
 11 12  1  0  0  0
 11 93  1  0  0  0
 12 13  2  0  0  0
 12 94  1  0  0  0
 13 14  1  0  0  0
 13 31  1  0  0  0
 14 15  2  0  0  0
 14 95  1  0  0  0
 15 96  1  0  0  0
 16 17  2  0  0  0
 16 21  1  0  0  0
 16 31  1  0  0  0
 17 18  1  0  0  0
 17 97  1  0  0  0
 18 19  2  0  0  0
 18 98  1  0  0  0
 19 20  1  0  0  0
 19 24  1  0  0  0
 20 21  2  0  0  0
 20 99  1  0  0  0
 21 23  1  0  0  0
 22 28  1  0  0  0
 22 32  2  0  0  0
 26 27  1  0  0  0
 28100  1  0  0  0
 28101  1  0  0  0
 29102  1  0  0  0
 29103  1  0  0  0
 33 34  1  0  0  0
 33 66  1  0  0  0
 33 70  2  0  0  0
 34 36  1  0  0  0
 34 59  1  0  0  0
 34104  1  0  0  0
 35 44  2  0  0  0
 35 45  1  0  0  0
 35 68  1  0  0  0
 36 56  1  0  0  0
 36105  1  0  0  0
 37 39  1  0  0  0
 37 47  1  0  0  0
 37 66  1  0  0  0
 37106  1  0  0  0
 38 43  2  0  0  0
 38 46  1  0  0  0
 38 47  1  0  0  0
 39 64  1  0  0  0
 39 67  2  0  0  0
 40 52  1  0  0  0
 40 53  2  0  0  0
 40 58  1  0  0  0
 41107  1  0  0  0
 41108  1  0  0  0
 41109  1  0  0  0
 41 48  1  0  0  0
 42 43  1  0  0  0
 42 66  1  0  0  0
 42110  1  0  0  0
 42111  1  0  0  0
 43 44  1  0  0  0
 44112  1  0  0  0
 45 46  2  0  0  0
 45113  1  0  0  0
 46114  1  0  0  0
 47115  1  0  0  0
 47116  1  0  0  0
 48 56  1  0  0  0
 48 65  1  0  0  0
 48117  1  0  0  0
 49 50  1  0  0  0
 49 53  1  0  0  0
 49 64  1  0  0  0
 49118  1  0  0  0
 50 51  1  0  0  0
 50119  1  0  0  0
 50120  1  0  0  0
 51 52  1  0  0  0
 51121  1  0  0  0
 51122  1  0  0  0
 52123  1  0  0  0
 52124  1  0  0  0
 53 54  1  0  0  0
 54 55  2  0  0  0
 54125  1  0  0  0
 55 57  1  0  0  0
 55126  1  0  0  0
 56 69  2  0  0  0
 57 58  2  0  0  0
 57127  1  0  0  0
 58128  1  0  0  0
 59 60  1  0  0  0
 59 61  1  0  0  0
 59 62  1  0  0  0
 60129  1  0  0  0
 60130  1  0  0  0
 60131  1  0  0  0
 61132  1  0  0  0
 61133  1  0  0  0
 61134  1  0  0  0
 62135  1  0  0  0
 62136  1  0  0  0
 62137  1  0  0  0
 63 65  1  0  0  0
 63138  1  0  0  0
 63139  1  0  0  0
 63140  1  0  0  0
 64141  1  0  0  0
 65142  1  0  0  0
 68 82  1  0  0  0
 71 72  2  0  0  0
 71 73  1  0  0  0
 71143  1  0  0  0
 72 75  1  0  0  0
 72144  1  0  0  0
 73 76  2  0  0  0
 73145  1  0  0  0
 74 75  2  0  0  0
 74 76  1  0  0  0
 74146  1  0  0  0
 75 77  1  0  0  0
 76 78  1  0  0  0
 77 79  2  0  0  0
 77147  1  0  0  0
 78 80  2  0  0  0
 78148  1  0  0  0
 79 81  1  0  0  0
 79149  1  0  0  0
 80150  1  0  0  0
 81 82  1  0  0  0
 81 83  2  0  0  0
 82151  1  0  0  0
 82152  1  0  0  0
M  ISO  4   1 100  68 101  80 100  82 101
M  END
> <chiral flag>
0

> <version>
0

> <s_m_source_file>
/data/baiqing/PycharmProjects/Reinvent-master-3.2/result/LINK_invent/BTK/process_docking_weight1_custom_product_contain_oxygen_bond_distance_aromatic_linkinvent_7_9_3/rearranged_h_0130.sdf

> <i_m_source_file_index>
7

> <r_mmod_Potential_Energy-OPLS-2005>
172.644515991211

> <r_mmod_Stretch_Energy-OPLS-2005>
70.3236770629883

> <r_mmod_Bend_Energy-OPLS-2005>
205.721130371094

> <r_mmod_Torsional_Energy-OPLS-2005>
236.550323486328

> <r_mmod_Improper_Torsional_Energy-OPLS-2005>
5.13242721557617

> <r_mmod_Van_der_Waal_Energy-OPLS-2005>
144.397155761719

> <r_mmod_Electrostatic_Energy-OPLS-2005>
-308.760711669922

> <r_mmod_Solvation_Energy-OPLS-2005>
-219.375091552734

> <b_mmod_Minimization_Converged-OPLS-2005>
0

> <r_mmod_RMS_Derivative-OPLS-2005>
6.44451522827148

$$$$
7
                    3D
 Structure written by MMmdl.
161169  0  0  1  0            999 V2000
  -30.7383  -14.4772   20.5444 C   0  0  0  0  0  0
  -30.4070  -12.3013   19.4445 C   0  0  0  0  0  0
  -29.4965  -12.4933   18.2153 C   0  0  0  0  0  0
  -28.0177  -12.3513   18.6229 C   0  0  0  0  0  0
  -27.6541  -13.2143   19.8615 C   0  0  2  0  0  0
  -28.6941  -13.0517   20.9928 C   0  0  0  0  0  0
  -25.2576  -13.8172   20.5669 C   0  0  0  0  0  0
  -24.1838  -13.0440   20.9171 C   0  0  0  0  0  0
  -24.6399  -11.6910   20.8741 C   0  0  0  0  0  0
  -23.9075  -10.4298   21.0410 C   0  0  0  0  0  0
  -24.3632   -9.4212   21.9180 C   0  0  0  0  0  0
  -23.6307   -8.2255   22.0761 C   0  0  0  0  0  0
  -22.4289   -8.0293   21.3549 C   0  0  0  0  0  0
  -21.9925   -9.0261   20.4641 C   0  0  0  0  0  0
  -22.7258  -10.2140   20.3052 C   0  0  0  0  0  0
  -21.6857   -6.0747   22.5286 C   0  0  0  0  0  0
  -21.4014   -6.5649   23.8218 C   0  0  0  0  0  0
  -21.3660   -5.6802   24.9178 C   0  0  0  0  0  0
  -21.6049   -4.3062   24.7226 C   0  0  0  0  0  0
  -21.8826   -3.8155   23.4350 C   0  0  0  0  0  0
  -21.9192   -4.6971   22.3403 C   0  0  0  0  0  0
  -22.7853  -13.5236   21.1838 C   0  0  0  0  0  0
  -22.1658   -4.2152   21.0981 F   0  0  0  0  0  0
  -21.5632   -3.4549   25.7742 F   0  0  0  0  0  0
  -30.0252  -13.3223   20.4356 N   0  0  0  0  0  0
  -26.2999  -12.9355   20.3321 N   0  0  0  0  0  0
  -25.9322  -11.6509   20.5756 N   0  0  0  0  0  0
  -22.0485  -12.8227   22.0389 N   0  0  0  0  0  0
  -25.4324  -15.1888   20.4062 N   0  0  0  0  0  0
  -31.9038  -14.5409   20.1430 O   0  0  0  0  0  0
  -21.6654   -6.8888   21.4248 O   0  0  0  0  0  0
  -22.3530  -14.5545   20.6698 O   0  0  0  0  0  0
  -24.6113  -31.8701   23.2106 C   0  0  0  0  0  0
  -25.9012  -32.4836   23.8405 C   0  0  1  0  0  0
  -27.2304  -27.4501   20.1050 C   0  0  0  0  0  0
  -25.5879  -33.8630   24.2344 N   0  0  0  0  0  0
  -23.3990  -30.4921   21.5501 C   0  0  2  0  0  0
  -24.8481  -28.9593   20.1146 C   0  0  0  0  0  0
  -22.7397  -29.4669   22.5003 C   0  0  0  0  0  0
  -18.0261  -28.1379   22.8499 C   0  0  0  0  0  0
  -24.1489  -36.7321   23.2644 C   0  0  0  0  0  0
  -25.9246  -30.8412   21.3610 C   0  0  0  0  0  0
  -26.0047  -29.4744   20.7152 C   0  0  0  0  0  0
  -27.2011  -28.7231   20.7149 C   0  0  0  0  0  0
  -26.0677  -26.9497   19.4884 C   0  0  0  0  0  0
  -24.8732  -27.6946   19.5005 C   0  0  0  0  0  0
  -23.6077  -29.8224   20.1651 C   0  0  0  0  0  0
  -25.4106  -36.3121   24.0348 C   0  0  1  0  0  0
  -20.5853  -28.3662   23.1327 C   0  0  2  0  0  0
  -20.6755  -26.9401   22.5417 C   0  0  0  0  0  0
  -19.5733  -26.6386   21.5215 C   0  0  0  0  0  0
  -18.1910  -26.7927   22.1627 C   0  0  0  0  0  0
  -19.1513  -28.8838   23.2914 C   0  0  0  0  0  0
  -18.9441  -30.1448   23.8918 C   0  0  0  0  0  0
  -17.6448  -30.6591   24.0567 C   0  0  0  0  0  0
  -25.9033  -34.9484   23.5147 C   0  0  0  0  0  0
  -16.5340  -29.9093   23.6328 C   0  0  0  0  0  0
  -16.7254  -28.6507   23.0356 C   0  0  0  0  0  0
  -26.4436  -31.6589   25.0717 C   0  0  0  0  0  0
  -25.3705  -31.3681   26.1472 C   0  0  0  0  0  0
  -27.0254  -30.3037   24.6062 C   0  0  0  0  0  0
  -27.6033  -32.4275   25.7481 C   0  0  0  0  0  0
  -27.5581  -37.1818   24.8464 C   0  0  0  0  0  0
  -21.4129  -29.3036   22.3747 N   0  0  0  0  0  0
  -26.4298  -37.3795   23.9405 N   0  0  0  0  0  0
  -24.6631  -31.0820   22.0994 N   0  0  0  0  0  0
  -23.4188  -28.8221   23.3038 O   0  0  0  0  0  0
  -28.3603  -26.6712   20.0956 O   0  0  0  0  0  0
  -26.5604  -34.8927   22.4715 O   0  0  0  0  0  0
  -23.5312  -32.1447   23.7514 O   0  0  0  0  0  0
  -29.5872  -18.8046   20.3373 C   0  0  0  0  0  0
  -29.4948  -20.2108   20.2185 C   0  0  0  0  0  0
  -30.7517  -20.4568   22.2782 C   0  0  0  0  0  0
  -30.3422  -18.2121   21.3767 C   0  0  0  0  0  0
  -30.1401  -21.0472   21.1525 C   0  0  0  0  0  0
  -30.8612  -19.0513   22.3986 C   0  0  0  0  0  0
  -30.7442  -16.7905   21.2632 C   0  0  0  0  0  0
  -30.0169  -15.7050   20.9039 C   0  0  0  0  0  0
  -30.6229  -18.1827   24.7621 C   0  0  0  0  0  0
  -30.3496  -22.5373   20.8725 C   0  0  0  0  0  0
  -31.5909  -18.4931   23.6136 C   0  0  0  0  0  0
  -29.1966  -23.5115   21.2012 C   0  0  0  0  0  0
  -29.7145  -24.9741   21.2376 C   0  0  0  0  0  0
  -28.6483  -26.0835   21.3647 C   0  0  0  0  0  0
  -31.4564  -12.3600   19.1511 H   0  0  0  0  0  0
  -30.2776  -11.3045   19.8676 H   0  0  0  0  0  0
  -29.7447  -11.7640   17.4439 H   0  0  0  0  0  0
  -29.6690  -13.4771   17.7757 H   0  0  0  0  0  0
  -27.8380  -11.2974   18.8379 H   0  0  0  0  0  0
  -27.3709  -12.6052   17.7826 H   0  0  0  0  0  0
  -27.6822  -14.2519   19.5298 H   0  0  0  0  0  0
  -28.6660  -12.0380   21.3961 H   0  0  0  0  0  0
  -28.4667  -13.7124   21.8307 H   0  0  0  0  0  0
  -25.2779   -9.5685   22.4750 H   0  0  0  0  0  0
  -24.0009   -7.4654   22.7495 H   0  0  0  0  0  0
  -21.0858   -8.8782   19.8940 H   0  0  0  0  0  0
  -22.3722  -10.9678   19.6164 H   0  0  0  0  0  0
  -21.2004   -7.6149   23.9717 H   0  0  0  0  0  0
  -21.1476   -6.0533   25.9081 H   0  0  0  0  0  0
  -22.0598   -2.7614   23.2864 H   0  0  0  0  0  0
  -22.4093  -11.9893   22.4791 H   0  0  0  0  0  0
  -21.1097  -13.1244   22.2576 H   0  0  0  0  0  0
  -24.6768  -15.8554   20.5222 H   0  0  0  0  0  0
  -26.2954  -15.6195   20.0993 H   0  0  0  0  0  0
  -26.7090  -32.5572   23.1185 H   0  0  0  0  0  0
  -24.9982  -33.9781   25.0460 H   0  0  0  0  0  0
  -22.6863  -31.3076   21.4108 H   0  0  0  0  0  0
  -23.3738  -35.9667   23.3317 H   0  0  0  0  0  0
  -24.3581  -36.8916   22.2051 H   0  0  0  0  0  0
  -23.7242  -37.6538   23.6635 H   0  0  0  0  0  0
  -26.0278  -31.6048   20.5888 H   0  0  0  0  0  0
  -26.8159  -30.9032   21.9730 H   0  0  0  0  0  0
  -28.0948  -29.1171   21.1778 H   0  0  0  0  0  0
  -26.0862  -25.9777   19.0155 H   0  0  0  0  0  0
  -23.9834  -27.2933   19.0358 H   0  0  0  0  0  0
  -23.7113  -30.5962   19.4040 H   0  0  0  0  0  0
  -22.7328  -29.2391   19.8732 H   0  0  0  0  0  0
  -25.1277  -36.2002   25.0838 H   0  0  0  0  0  0
  -20.9937  -28.3213   24.1449 H   0  0  0  0  0  0
  -20.5643  -26.2273   23.3603 H   0  0  0  0  0  0
  -21.6626  -26.7438   22.1218 H   0  0  0  0  0  0
  -19.6897  -25.6302   21.1234 H   0  0  0  0  0  0
  -19.6669  -27.3207   20.6754 H   0  0  0  0  0  0
  -17.4180  -26.6693   21.4021 H   0  0  0  0  0  0
  -18.0301  -26.0061   22.9009 H   0  0  0  0  0  0
  -19.7913  -30.7268   24.2289 H   0  0  0  0  0  0
  -17.4997  -31.6266   24.5168 H   0  0  0  0  0  0
  -15.5342  -30.3014   23.7622 H   0  0  0  0  0  0
  -15.8655  -28.0837   22.7064 H   0  0  0  0  0  0
  -24.5880  -30.7032   25.7790 H   0  0  0  0  0  0
  -24.8898  -32.2838   26.4936 H   0  0  0  0  0  0
  -25.8072  -30.8828   27.0214 H   0  0  0  0  0  0
  -26.2795  -29.6833   24.1085 H   0  0  0  0  0  0
  -27.3993  -29.7229   25.4499 H   0  0  0  0  0  0
  -27.8636  -30.4352   23.9217 H   0  0  0  0  0  0
  -27.2677  -33.3557   26.2112 H   0  0  0  0  0  0
  -28.3830  -32.6855   25.0301 H   0  0  0  0  0  0
  -28.0714  -31.8355   26.5356 H   0  0  0  0  0  0
  -28.2612  -38.0102   24.7505 H   0  0  0  0  0  0
  -28.1070  -36.2639   24.6304 H   0  0  0  0  0  0
  -27.2304  -37.1483   25.8871 H   0  0  0  0  0  0
  -20.9291  -29.8774   21.6986 H   0  0  0  0  0  0
  -26.0200  -38.2884   24.1392 H   0  0  0  0  0  0
  -29.1753  -18.1854   19.5521 H   0  0  0  0  0  0
  -29.0079  -20.6383   19.3531 H   0  0  0  0  0  0
  -31.2231  -21.0901   23.0176 H   0  0  0  0  0  0
  -31.8109  -16.6517   21.3861 H   0  0  0  0  0  0
  -28.9460  -15.7759   20.8044 H   0  0  0  0  0  0
  -31.1583  -17.8120   25.6367 H   0  0  0  0  0  0
  -29.8970  -17.4224   24.4712 H   0  0  0  0  0  0
  -30.0729  -19.0755   25.0635 H   0  0  0  0  0  0
  -30.6187  -22.6481   19.8200 H   0  0  0  0  0  0
  -31.2400  -22.8446   21.4242 H   0  0  0  0  0  0
  -32.3283  -19.2219   23.9521 H   0  0  0  0  0  0
  -32.1645  -17.6025   23.3601 H   0  0  0  0  0  0
  -28.7713  -23.2624   22.1743 H   0  0  0  0  0  0
  -28.3933  -23.4006   20.4720 H   0  0  0  0  0  0
  -30.3333  -25.1763   20.3625 H   0  0  0  0  0  0
  -30.3863  -25.0591   22.0939 H   0  0  0  0  0  0
  -29.0264  -26.8696   22.0200 H   0  0  0  0  0  0
  -27.7458  -25.6901   21.8376 H   0  0  0  0  0  0
  1 25  1  0  0  0
  1 30  2  0  0  0
  1 78  1  0  0  0
  2  3  1  0  0  0
  2 25  1  0  0  0
  2 85  1  0  0  0
  2 86  1  0  0  0
  3  4  1  0  0  0
  3 87  1  0  0  0
  3 88  1  0  0  0
  4  5  1  0  0  0
  4 89  1  0  0  0
  4 90  1  0  0  0
  5  6  1  0  0  0
  5 26  1  0  0  0
  5 91  1  0  0  0
  6 25  1  0  0  0
  6 92  1  0  0  0
  6 93  1  0  0  0
  7  8  2  0  0  0
  7 26  1  0  0  0
  7 29  1  0  0  0
  8  9  1  0  0  0
  8 22  1  0  0  0
  9 10  1  0  0  0
  9 27  2  0  0  0
 10 11  2  0  0  0
 10 15  1  0  0  0
 11 12  1  0  0  0
 11 94  1  0  0  0
 12 13  2  0  0  0
 12 95  1  0  0  0
 13 14  1  0  0  0
 13 31  1  0  0  0
 14 15  2  0  0  0
 14 96  1  0  0  0
 15 97  1  0  0  0
 16 17  2  0  0  0
 16 21  1  0  0  0
 16 31  1  0  0  0
 17 18  1  0  0  0
 17 98  1  0  0  0
 18 19  2  0  0  0
 18 99  1  0  0  0
 19 20  1  0  0  0
 19 24  1  0  0  0
 20 21  2  0  0  0
 20100  1  0  0  0
 21 23  1  0  0  0
 22 28  1  0  0  0
 22 32  2  0  0  0
 26 27  1  0  0  0
 28101  1  0  0  0
 28102  1  0  0  0
 29103  1  0  0  0
 29104  1  0  0  0
 33 34  1  0  0  0
 33 66  1  0  0  0
 33 70  2  0  0  0
 34 36  1  0  0  0
 34 59  1  0  0  0
 34105  1  0  0  0
 35 44  2  0  0  0
 35 45  1  0  0  0
 35 68  1  0  0  0
 36 56  1  0  0  0
 36106  1  0  0  0
 37 39  1  0  0  0
 37 47  1  0  0  0
 37 66  1  0  0  0
 37107  1  0  0  0
 38 43  2  0  0  0
 38 46  1  0  0  0
 38 47  1  0  0  0
 39 64  1  0  0  0
 39 67  2  0  0  0
 40 52  1  0  0  0
 40 53  2  0  0  0
 40 58  1  0  0  0
 41108  1  0  0  0
 41109  1  0  0  0
 41110  1  0  0  0
 41 48  1  0  0  0
 42 43  1  0  0  0
 42 66  1  0  0  0
 42111  1  0  0  0
 42112  1  0  0  0
 43 44  1  0  0  0
 44113  1  0  0  0
 45 46  2  0  0  0
 45114  1  0  0  0
 46115  1  0  0  0
 47116  1  0  0  0
 47117  1  0  0  0
 48 56  1  0  0  0
 48 65  1  0  0  0
 48118  1  0  0  0
 49 50  1  0  0  0
 49 53  1  0  0  0
 49 64  1  0  0  0
 49119  1  0  0  0
 50 51  1  0  0  0
 50120  1  0  0  0
 50121  1  0  0  0
 51 52  1  0  0  0
 51122  1  0  0  0
 51123  1  0  0  0
 52124  1  0  0  0
 52125  1  0  0  0
 53 54  1  0  0  0
 54 55  2  0  0  0
 54126  1  0  0  0
 55 57  1  0  0  0
 55127  1  0  0  0
 56 69  2  0  0  0
 57 58  2  0  0  0
 57128  1  0  0  0
 58129  1  0  0  0
 59 60  1  0  0  0
 59 61  1  0  0  0
 59 62  1  0  0  0
 60130  1  0  0  0
 60131  1  0  0  0
 60132  1  0  0  0
 61133  1  0  0  0
 61134  1  0  0  0
 61135  1  0  0  0
 62136  1  0  0  0
 62137  1  0  0  0
 62138  1  0  0  0
 63 65  1  0  0  0
 63139  1  0  0  0
 63140  1  0  0  0
 63141  1  0  0  0
 64142  1  0  0  0
 65143  1  0  0  0
 68 84  1  0  0  0
 71 72  2  0  0  0
 71 74  1  0  0  0
 71144  1  0  0  0
 72 75  1  0  0  0
 72145  1  0  0  0
 73 75  2  0  0  0
 73 76  1  0  0  0
 73146  1  0  0  0
 74 76  2  0  0  0
 74 77  1  0  0  0
 75 80  1  0  0  0
 76 81  1  0  0  0
 77 78  2  0  0  0
 77147  1  0  0  0
 78148  1  0  0  0
 79 81  1  0  0  0
 79149  1  0  0  0
 79150  1  0  0  0
 79151  1  0  0  0
 80 82  1  0  0  0
 80152  1  0  0  0
 80153  1  0  0  0
 81154  1  0  0  0
 81155  1  0  0  0
 82 83  1  0  0  0
 82156  1  0  0  0
 82157  1  0  0  0
 83 84  1  0  0  0
 83158  1  0  0  0
 83159  1  0  0  0
 84160  1  0  0  0
 84161  1  0  0  0
M  ISO  4   1 100  68 101  78 100  84 101
M  END
> <chiral flag>
0

> <version>
0

> <s_m_source_file>
/data/baiqing/PycharmProjects/Reinvent-master-3.2/result/LINK_invent/BTK/process_docking_weight1_custom_product_contain_oxygen_bond_distance_aromatic_linkinvent_7_9_3/rearranged_h_0130.sdf

> <i_m_source_file_index>
8

> <r_mmod_Potential_Energy-OPLS-2005>
35.5952491760254

> <r_mmod_Stretch_Energy-OPLS-2005>
35.7522811889648

> <r_mmod_Bend_Energy-OPLS-2005>
99.7222595214844

> <r_mmod_Torsional_Energy-OPLS-2005>
251.647750854492

> <r_mmod_Improper_Torsional_Energy-OPLS-2005>
10.0197696685791

> <r_mmod_Van_der_Waal_Energy-OPLS-2005>
150.330322265625

> <r_mmod_Electrostatic_Energy-OPLS-2005>
-344.735595703125

> <r_mmod_Solvation_Energy-OPLS-2005>
-184.878326416016

> <b_mmod_Minimization_Converged-OPLS-2005>
0

> <r_mmod_RMS_Derivative-OPLS-2005>
1.88810801506042

$$$$
8
                    3D
 Structure written by MMmdl.
155163  0  0  1  0            999 V2000
  -30.7110  -14.4499   20.5891 C   0  0  0  0  0  0
  -30.4181  -12.2998   19.4174 C   0  0  0  0  0  0
  -29.4910  -12.5201   18.2032 C   0  0  0  0  0  0
  -28.0092  -12.3854   18.6093 C   0  0  0  0  0  0
  -27.6618  -13.2063   19.8803 C   0  0  2  0  0  0
  -28.7015  -12.9488   20.9924 C   0  0  0  0  0  0
  -25.2570  -13.8164   20.5694 C   0  0  0  0  0  0
  -24.1818  -13.0438   20.9183 C   0  0  0  0  0  0
  -24.6374  -11.6906   20.8745 C   0  0  0  0  0  0
  -23.9045  -10.4291   21.0406 C   0  0  0  0  0  0
  -24.3610   -9.4210   21.9181 C   0  0  0  0  0  0
  -23.6301   -8.2237   22.0753 C   0  0  0  0  0  0
  -22.4276   -8.0273   21.3550 C   0  0  0  0  0  0
  -21.9900   -9.0241   20.4649 C   0  0  0  0  0  0
  -22.7217  -10.2129   20.3053 C   0  0  0  0  0  0
  -21.6853   -6.0735   22.5290 C   0  0  0  0  0  0
  -21.4007   -6.5645   23.8222 C   0  0  0  0  0  0
  -21.3658   -5.6799   24.9186 C   0  0  0  0  0  0
  -21.6046   -4.3060   24.7238 C   0  0  0  0  0  0
  -21.8816   -3.8150   23.4360 C   0  0  0  0  0  0
  -21.9188   -4.6963   22.3413 C   0  0  0  0  0  0
  -22.7837  -13.5238   21.1853 C   0  0  0  0  0  0
  -22.1658   -4.2146   21.0994 F   0  0  0  0  0  0
  -21.5631   -3.4544   25.7749 F   0  0  0  0  0  0
  -30.0348  -13.2727   20.4560 N   0  0  0  0  0  0
  -26.3014  -12.9336   20.3388 N   0  0  0  0  0  0
  -25.9298  -11.6494   20.5774 N   0  0  0  0  0  0
  -22.0479  -12.8241   22.0419 N   0  0  0  0  0  0
  -25.4292  -15.1882   20.4122 N   0  0  0  0  0  0
  -31.8177  -14.6216   20.0664 O   0  0  0  0  0  0
  -21.6645   -6.8869   21.4248 O   0  0  0  0  0  0
  -22.3526  -14.5547   20.6713 O   0  0  0  0  0  0
  -24.6139  -31.8680   23.2103 C   0  0  0  0  0  0
  -25.9033  -32.4823   23.8400 C   0  0  1  0  0  0
  -27.2370  -27.4508   20.1043 C   0  0  0  0  0  0
  -25.5898  -33.8622   24.2329 N   0  0  0  0  0  0
  -23.4015  -30.4908   21.5500 C   0  0  2  0  0  0
  -24.8510  -28.9590   20.1130 C   0  0  0  0  0  0
  -22.7407  -29.4656   22.4992 C   0  0  0  0  0  0
  -18.0269  -28.1378   22.8494 C   0  0  0  0  0  0
  -24.1484  -36.7318   23.2632 C   0  0  0  0  0  0
  -25.9283  -30.8410   21.3596 C   0  0  0  0  0  0
  -26.0090  -29.4764   20.7083 C   0  0  0  0  0  0
  -27.2086  -28.7304   20.6983 C   0  0  0  0  0  0
  -26.0673  -26.9431   19.5005 C   0  0  0  0  0  0
  -24.8745  -27.6915   19.5036 C   0  0  0  0  0  0
  -23.6094  -29.8207   20.1644 C   0  0  0  0  0  0
  -25.4100  -36.3112   24.0334 C   0  0  1  0  0  0
  -20.5858  -28.3662   23.1324 C   0  0  2  0  0  0
  -20.6759  -26.9399   22.5421 C   0  0  0  0  0  0
  -19.5738  -26.6384   21.5217 C   0  0  0  0  0  0
  -18.1917  -26.7925   22.1625 C   0  0  0  0  0  0
  -19.1519  -28.8837   23.2906 C   0  0  0  0  0  0
  -18.9446  -30.1447   23.8914 C   0  0  0  0  0  0
  -17.6445  -30.6582   24.0565 C   0  0  0  0  0  0
  -25.9034  -34.9477   23.5130 C   0  0  0  0  0  0
  -16.5338  -29.9086   23.6327 C   0  0  0  0  0  0
  -16.7256  -28.6505   23.0346 C   0  0  0  0  0  0
  -26.4470  -31.6598   25.0718 C   0  0  0  0  0  0
  -25.3750  -31.3691   26.1476 C   0  0  0  0  0  0
  -27.0291  -30.3043   24.6077 C   0  0  0  0  0  0
  -27.6052  -32.4311   25.7477 C   0  0  0  0  0  0
  -27.5590  -37.1792   24.8445 C   0  0  0  0  0  0
  -21.4136  -29.3029   22.3735 N   0  0  0  0  0  0
  -26.4279  -37.3804   23.9428 N   0  0  0  0  0  0
  -24.6659  -31.0803   22.0989 N   0  0  0  0  0  0
  -23.4188  -28.8205   23.3029 O   0  0  0  0  0  0
  -28.3856  -26.6951   20.1141 O   0  0  0  0  0  0
  -26.5593  -34.8925   22.4691 O   0  0  0  0  0  0
  -23.5336  -32.1421   23.7516 O   0  0  0  0  0  0
  -28.4035  -19.1951   23.2718 C   0  0  0  0  0  0
  -28.9224  -18.0072   22.7227 C   0  0  0  0  0  0
  -28.6166  -20.4311   22.6326 C   0  0  0  0  0  0
  -29.8706  -19.2910   20.8876 C   0  0  0  0  0  0
  -29.6715  -18.0418   21.5254 C   0  0  0  0  0  0
  -29.3519  -20.4925   21.4272 C   0  0  0  0  0  0
  -30.2433  -16.8190   20.9198 C   0  0  0  0  0  0
  -30.0190  -15.5350   21.2875 C   0  0  0  0  0  0
  -29.6082  -21.8141   20.6913 C   0  0  0  0  0  0
  -28.8842  -23.0615   21.2518 C   0  0  0  0  0  0
  -29.0654  -24.3378   20.3966 C   0  0  0  0  0  0
  -28.3120  -25.5514   20.9766 C   0  0  0  0  0  0
  -31.4621  -12.3914   19.1137 H   0  0  0  0  0  0
  -30.3156  -11.2824   19.7975 H   0  0  0  0  0  0
  -29.7288  -11.8065   17.4133 H   0  0  0  0  0  0
  -29.6661  -13.5114   17.7817 H   0  0  0  0  0  0
  -27.8069  -11.3286   18.7843 H   0  0  0  0  0  0
  -27.3630  -12.6847   17.7830 H   0  0  0  0  0  0
  -27.7164  -14.2606   19.6097 H   0  0  0  0  0  0
  -28.6799  -11.8966   21.2801 H   0  0  0  0  0  0
  -28.4463  -13.4854   21.9034 H   0  0  0  0  0  0
  -25.2752   -9.5700   22.4762 H   0  0  0  0  0  0
  -24.0019   -7.4625   22.7461 H   0  0  0  0  0  0
  -21.0830   -8.8748   19.8957 H   0  0  0  0  0  0
  -22.3660  -10.9669   19.6170 H   0  0  0  0  0  0
  -21.2003   -7.6150   23.9730 H   0  0  0  0  0  0
  -21.1482   -6.0528   25.9089 H   0  0  0  0  0  0
  -22.0598   -2.7612   23.2867 H   0  0  0  0  0  0
  -22.4097  -11.9924   22.4848 H   0  0  0  0  0  0
  -21.1087  -13.1254   22.2613 H   0  0  0  0  0  0
  -24.6689  -15.8482   20.5326 H   0  0  0  0  0  0
  -26.2991  -15.6290   20.1385 H   0  0  0  0  0  0
  -26.7111  -32.5544   23.1174 H   0  0  0  0  0  0
  -25.0057  -33.9788   25.0481 H   0  0  0  0  0  0
  -22.6899  -31.3071   21.4102 H   0  0  0  0  0  0
  -23.3751  -35.9642   23.3264 H   0  0  0  0  0  0
  -24.3598  -36.8966   22.2054 H   0  0  0  0  0  0
  -23.7218  -37.6505   23.6671 H   0  0  0  0  0  0
  -26.0352  -31.6075   20.5907 H   0  0  0  0  0  0
  -26.8180  -30.8974   21.9749 H   0  0  0  0  0  0
  -28.1040  -29.1253   21.1583 H   0  0  0  0  0  0
  -26.0796  -25.9673   19.0358 H   0  0  0  0  0  0
  -23.9860  -27.2882   19.0375 H   0  0  0  0  0  0
  -23.7113  -30.5934   19.4015 H   0  0  0  0  0  0
  -22.7355  -29.2352   19.8727 H   0  0  0  0  0  0
  -25.1268  -36.1966   25.0823 H   0  0  0  0  0  0
  -20.9952  -28.3222   24.1441 H   0  0  0  0  0  0
  -20.5664  -26.2268   23.3607 H   0  0  0  0  0  0
  -21.6630  -26.7446   22.1209 H   0  0  0  0  0  0
  -19.6898  -25.6299   21.1241 H   0  0  0  0  0  0
  -19.6681  -27.3203   20.6756 H   0  0  0  0  0  0
  -17.4189  -26.6680   21.4025 H   0  0  0  0  0  0
  -18.0311  -26.0063   22.9016 H   0  0  0  0  0  0
  -19.7919  -30.7262   24.2291 H   0  0  0  0  0  0
  -17.4997  -31.6268   24.5157 H   0  0  0  0  0  0
  -15.5340  -30.2995   23.7639 H   0  0  0  0  0  0
  -15.8655  -28.0835   22.7051 H   0  0  0  0  0  0
  -24.5913  -30.7051   25.7813 H   0  0  0  0  0  0
  -24.8955  -32.2842   26.4959 H   0  0  0  0  0  0
  -25.8114  -30.8833   27.0211 H   0  0  0  0  0  0
  -26.2823  -29.6809   24.1144 H   0  0  0  0  0  0
  -27.4078  -29.7268   25.4520 H   0  0  0  0  0  0
  -27.8651  -30.4359   23.9203 H   0  0  0  0  0  0
  -27.2675  -33.3593   26.2096 H   0  0  0  0  0  0
  -28.3840  -32.6901   25.0292 H   0  0  0  0  0  0
  -28.0747  -31.8411   26.5358 H   0  0  0  0  0  0
  -28.2545  -38.0151   24.7590 H   0  0  0  0  0  0
  -28.1151  -36.2692   24.6143 H   0  0  0  0  0  0
  -27.2333  -37.1268   25.8848 H   0  0  0  0  0  0
  -20.9302  -29.8756   21.6959 H   0  0  0  0  0  0
  -26.0163  -38.2866   24.1495 H   0  0  0  0  0  0
  -27.8416  -19.1575   24.1949 H   0  0  0  0  0  0
  -28.7486  -17.0778   23.2450 H   0  0  0  0  0  0
  -28.2062  -21.3210   23.0879 H   0  0  0  0  0  0
  -30.4382  -19.3328   19.9678 H   0  0  0  0  0  0
  -30.9234  -17.0015   20.0975 H   0  0  0  0  0  0
  -29.3466  -15.3265   22.1014 H   0  0  0  0  0  0
  -29.3176  -21.6742   19.6494 H   0  0  0  0  0  0
  -30.6838  -21.9935   20.6836 H   0  0  0  0  0  0
  -29.2316  -23.2572   22.2677 H   0  0  0  0  0  0
  -27.8174  -22.8478   21.3236 H   0  0  0  0  0  0
  -28.7046  -24.1458   19.3854 H   0  0  0  0  0  0
  -30.1252  -24.5779   20.3066 H   0  0  0  0  0  0
  -28.7433  -25.8244   21.9408 H   0  0  0  0  0  0
  -27.2803  -25.2594   21.1820 H   0  0  0  0  0  0
  1 25  1  0  0  0
  1 30  2  0  0  0
  1 78  1  0  0  0
  2  3  1  0  0  0
  2 25  1  0  0  0
  2 83  1  0  0  0
  2 84  1  0  0  0
  3  4  1  0  0  0
  3 85  1  0  0  0
  3 86  1  0  0  0
  4  5  1  0  0  0
  4 87  1  0  0  0
  4 88  1  0  0  0
  5  6  1  0  0  0
  5 26  1  0  0  0
  5 89  1  0  0  0
  6 25  1  0  0  0
  6 90  1  0  0  0
  6 91  1  0  0  0
  7  8  2  0  0  0
  7 26  1  0  0  0
  7 29  1  0  0  0
  8  9  1  0  0  0
  8 22  1  0  0  0
  9 10  1  0  0  0
  9 27  2  0  0  0
 10 11  2  0  0  0
 10 15  1  0  0  0
 11 12  1  0  0  0
 11 92  1  0  0  0
 12 13  2  0  0  0
 12 93  1  0  0  0
 13 14  1  0  0  0
 13 31  1  0  0  0
 14 15  2  0  0  0
 14 94  1  0  0  0
 15 95  1  0  0  0
 16 17  2  0  0  0
 16 21  1  0  0  0
 16 31  1  0  0  0
 17 18  1  0  0  0
 17 96  1  0  0  0
 18 19  2  0  0  0
 18 97  1  0  0  0
 19 20  1  0  0  0
 19 24  1  0  0  0
 20 21  2  0  0  0
 20 98  1  0  0  0
 21 23  1  0  0  0
 22 28  1  0  0  0
 22 32  2  0  0  0
 26 27  1  0  0  0
 28 99  1  0  0  0
 28100  1  0  0  0
 29101  1  0  0  0
 29102  1  0  0  0
 33 34  1  0  0  0
 33 66  1  0  0  0
 33 70  2  0  0  0
 34 36  1  0  0  0
 34 59  1  0  0  0
 34103  1  0  0  0
 35 44  2  0  0  0
 35 45  1  0  0  0
 35 68  1  0  0  0
 36 56  1  0  0  0
 36104  1  0  0  0
 37 39  1  0  0  0
 37 47  1  0  0  0
 37 66  1  0  0  0
 37105  1  0  0  0
 38 43  2  0  0  0
 38 46  1  0  0  0
 38 47  1  0  0  0
 39 64  1  0  0  0
 39 67  2  0  0  0
 40 52  1  0  0  0
 40 53  2  0  0  0
 40 58  1  0  0  0
 41106  1  0  0  0
 41107  1  0  0  0
 41108  1  0  0  0
 41 48  1  0  0  0
 42 43  1  0  0  0
 42 66  1  0  0  0
 42109  1  0  0  0
 42110  1  0  0  0
 43 44  1  0  0  0
 44111  1  0  0  0
 45 46  2  0  0  0
 45112  1  0  0  0
 46113  1  0  0  0
 47114  1  0  0  0
 47115  1  0  0  0
 48 56  1  0  0  0
 48 65  1  0  0  0
 48116  1  0  0  0
 49 50  1  0  0  0
 49 53  1  0  0  0
 49 64  1  0  0  0
 49117  1  0  0  0
 50 51  1  0  0  0
 50118  1  0  0  0
 50119  1  0  0  0
 51 52  1  0  0  0
 51120  1  0  0  0
 51121  1  0  0  0
 52122  1  0  0  0
 52123  1  0  0  0
 53 54  1  0  0  0
 54 55  2  0  0  0
 54124  1  0  0  0
 55 57  1  0  0  0
 55125  1  0  0  0
 56 69  2  0  0  0
 57 58  2  0  0  0
 57126  1  0  0  0
 58127  1  0  0  0
 59 60  1  0  0  0
 59 61  1  0  0  0
 59 62  1  0  0  0
 60128  1  0  0  0
 60129  1  0  0  0
 60130  1  0  0  0
 61131  1  0  0  0
 61132  1  0  0  0
 61133  1  0  0  0
 62134  1  0  0  0
 62135  1  0  0  0
 62136  1  0  0  0
 63 65  1  0  0  0
 63137  1  0  0  0
 63138  1  0  0  0
 63139  1  0  0  0
 64140  1  0  0  0
 65141  1  0  0  0
 68 82  1  0  0  0
 71 72  2  0  0  0
 71 73  1  0  0  0
 71142  1  0  0  0
 72 75  1  0  0  0
 72143  1  0  0  0
 73 76  2  0  0  0
 73144  1  0  0  0
 74 75  2  0  0  0
 74 76  1  0  0  0
 74145  1  0  0  0
 75 77  1  0  0  0
 76 79  1  0  0  0
 77 78  2  0  0  0
 77146  1  0  0  0
 78147  1  0  0  0
 79 80  1  0  0  0
 79148  1  0  0  0
 79149  1  0  0  0
 80 81  1  0  0  0
 80150  1  0  0  0
 80151  1  0  0  0
 81 82  1  0  0  0
 81152  1  0  0  0
 81153  1  0  0  0
 82154  1  0  0  0
 82155  1  0  0  0
M  ISO  4   1 100  68 101  78 100  82 101
M  END
> <chiral flag>
0

> <version>
0

> <s_m_source_file>
/data/baiqing/PycharmProjects/Reinvent-master-3.2/result/LINK_invent/BTK/process_docking_weight1_custom_product_contain_oxygen_bond_distance_aromatic_linkinvent_7_9_3/rearranged_h_0130.sdf

> <i_m_source_file_index>
9

> <r_mmod_Potential_Energy-OPLS-2005>
-22.9764881134033

> <r_mmod_Stretch_Energy-OPLS-2005>
35.8908233642578

> <r_mmod_Bend_Energy-OPLS-2005>
90.4891967773438

> <r_mmod_Torsional_Energy-OPLS-2005>
198.577774047852

> <r_mmod_Improper_Torsional_Energy-OPLS-2005>
2.54170250892639

> <r_mmod_Van_der_Waal_Energy-OPLS-2005>
157.349548339844

> <r_mmod_Electrostatic_Energy-OPLS-2005>
-331.810028076172

> <r_mmod_Solvation_Energy-OPLS-2005>
-186.447830200195

> <b_mmod_Minimization_Converged-OPLS-2005>
0

> <r_mmod_RMS_Derivative-OPLS-2005>
1.23697566986084

$$$$
9
                    3D
 Structure written by MMmdl.
169177  0  0  1  0            999 V2000
  -30.7067  -14.4484   20.4928 C   0  0  0  0  0  0
  -30.4168  -12.2795   19.4118 C   0  0  0  0  0  0
  -29.4877  -12.4836   18.1955 C   0  0  0  0  0  0
  -28.0069  -12.3620   18.6099 C   0  0  0  0  0  0
  -27.6574  -13.2113   19.8630 C   0  0  2  0  0  0
  -28.7015  -13.0060   20.9843 C   0  0  0  0  0  0
  -25.2554  -13.8169   20.5660 C   0  0  0  0  0  0
  -24.1811  -13.0452   20.9192 C   0  0  0  0  0  0
  -24.6372  -11.6930   20.8740 C   0  0  0  0  0  0
  -23.9037  -10.4308   21.0411 C   0  0  0  0  0  0
  -24.3600   -9.4217   21.9181 C   0  0  0  0  0  0
  -23.6290   -8.2237   22.0738 C   0  0  0  0  0  0
  -22.4272   -8.0277   21.3524 C   0  0  0  0  0  0
  -21.9894   -9.0247   20.4631 C   0  0  0  0  0  0
  -22.7208  -10.2134   20.3055 C   0  0  0  0  0  0
  -21.6847   -6.0745   22.5268 C   0  0  0  0  0  0
  -21.4009   -6.5638   23.8209 C   0  0  0  0  0  0
  -21.3656   -5.6778   24.9163 C   0  0  0  0  0  0
  -21.6041   -4.3044   24.7211 C   0  0  0  0  0  0
  -21.8820   -3.8154   23.4323 C   0  0  0  0  0  0
  -21.9181   -4.6975   22.3395 C   0  0  0  0  0  0
  -22.7811  -13.5263   21.1837 C   0  0  0  0  0  0
  -22.1658   -4.2182   21.0960 F   0  0  0  0  0  0
  -21.5635   -3.4526   25.7726 F   0  0  0  0  0  0
  -30.0343  -13.2719   20.4261 N   0  0  0  0  0  0
  -26.2999  -12.9358   20.3312 N   0  0  0  0  0  0
  -25.9294  -11.6515   20.5739 N   0  0  0  0  0  0
  -22.0434  -12.8282   22.0402 N   0  0  0  0  0  0
  -25.4300  -15.1867   20.4040 N   0  0  0  0  0  0
  -31.9021  -14.5608   20.2171 O   0  0  0  0  0  0
  -21.6629   -6.8882   21.4234 O   0  0  0  0  0  0
  -22.3502  -14.5560   20.6656 O   0  0  0  0  0  0
  -24.6141  -31.8739   23.2164 C   0  0  0  0  0  0
  -25.9057  -32.4856   23.8441 C   0  0  1  0  0  0
  -27.2191  -27.4540   20.0630 C   0  0  0  0  0  0
  -25.5935  -33.8660   24.2369 N   0  0  0  0  0  0
  -23.3969  -30.5028   21.5581 C   0  0  2  0  0  0
  -24.8349  -28.9786   20.1197 C   0  0  0  0  0  0
  -22.7387  -29.4706   22.5014 C   0  0  0  0  0  0
  -18.0277  -28.1376   22.8493 C   0  0  0  0  0  0
  -24.1481  -36.7321   23.2632 C   0  0  0  0  0  0
  -25.9279  -30.8397   21.3703 C   0  0  0  0  0  0
  -25.9989  -29.4752   20.7189 C   0  0  0  0  0  0
  -27.1899  -28.7128   20.7047 C   0  0  0  0  0  0
  -26.0183  -26.9631   19.4995 C   0  0  0  0  0  0
  -24.8356  -27.7149   19.5192 C   0  0  0  0  0  0
  -23.6004  -29.8445   20.1703 C   0  0  0  0  0  0
  -25.4103  -36.3130   24.0342 C   0  0  1  0  0  0
  -20.5866  -28.3666   23.1319 C   0  0  2  0  0  0
  -20.6770  -26.9414   22.5404 C   0  0  0  0  0  0
  -19.5746  -26.6386   21.5203 C   0  0  0  0  0  0
  -18.1921  -26.7921   22.1619 C   0  0  0  0  0  0
  -19.1525  -28.8832   23.2905 C   0  0  0  0  0  0
  -18.9456  -30.1437   23.8910 C   0  0  0  0  0  0
  -17.6464  -30.6581   24.0568 C   0  0  0  0  0  0
  -25.9034  -34.9494   23.5138 C   0  0  0  0  0  0
  -16.5357  -29.9079   23.6342 C   0  0  0  0  0  0
  -16.7268  -28.6506   23.0347 C   0  0  0  0  0  0
  -26.4480  -31.6621   25.0757 C   0  0  0  0  0  0
  -25.3758  -31.3752   26.1522 C   0  0  0  0  0  0
  -27.0299  -30.3062   24.6120 C   0  0  0  0  0  0
  -27.6056  -32.4341   25.7512 C   0  0  0  0  0  0
  -27.5585  -37.1813   24.8472 C   0  0  0  0  0  0
  -21.4126  -29.3051   22.3734 N   0  0  0  0  0  0
  -26.4290  -37.3807   23.9417 N   0  0  0  0  0  0
  -24.6653  -31.0854   22.1064 N   0  0  0  0  0  0
  -23.4174  -28.8237   23.3034 O   0  0  0  0  0  0
  -28.3981  -26.7333   20.0349 O   0  0  0  0  0  0
  -26.5561  -34.8946   22.4679 O   0  0  0  0  0  0
  -23.5343  -32.1492   23.7562 O   0  0  0  0  0  0
  -29.7161  -18.6690   17.6957 C   0  0  0  0  0  0
  -30.6211  -16.5364   18.3950 C   0  0  0  0  0  0
  -29.1030  -17.7443   19.8680 C   0  0  0  0  0  0
  -30.5190  -17.5500   17.4230 C   0  0  0  0  0  0
  -29.0071  -18.7781   18.9055 C   0  0  0  0  0  0
  -29.9144  -16.6092   19.6251 C   0  0  0  0  0  0
  -28.2867  -24.8066   18.4829 C   0  0  0  0  0  0
  -28.9754  -23.6999   18.1446 C   0  0  0  0  0  0
  -30.8396  -18.3575   14.9685 C   0  0  0  0  0  0
  -28.8687  -21.8498   16.4888 C   0  0  0  0  0  0
  -26.8005  -22.4180   17.7431 C   0  0  0  0  0  0
  -31.2522  -17.3897   16.0948 C   0  0  0  0  0  0
  -28.0878  -19.9740   19.1125 C   0  0  0  0  0  0
  -28.8263  -26.2026   18.7717 C   0  0  0  0  0  0
  -28.7804  -21.3618   19.0040 C   0  0  0  0  0  0
  -28.3459  -22.3263   17.8543 C   0  0  0  0  0  0
  -29.9271  -15.5401   20.5816 N   0  0  0  0  0  0
  -31.4605  -12.3715   19.1041 H   0  0  0  0  0  0
  -30.3095  -11.2711   19.8147 H   0  0  0  0  0  0
  -29.7192  -11.7454   17.4250 H   0  0  0  0  0  0
  -29.6644  -13.4587   17.7378 H   0  0  0  0  0  0
  -27.8023  -11.3092   18.8048 H   0  0  0  0  0  0
  -27.3614  -12.6423   17.7761 H   0  0  0  0  0  0
  -27.6985  -14.2569   19.5522 H   0  0  0  0  0  0
  -28.6590  -11.9815   21.3608 H   0  0  0  0  0  0
  -28.4841  -13.6496   21.8391 H   0  0  0  0  0  0
  -25.2761   -9.5702   22.4729 H   0  0  0  0  0  0
  -24.0034   -7.4620   22.7425 H   0  0  0  0  0  0
  -21.0850   -8.8731   19.8921 H   0  0  0  0  0  0
  -22.3671  -10.9656   19.6147 H   0  0  0  0  0  0
  -21.2007   -7.6148   23.9726 H   0  0  0  0  0  0
  -21.1482   -6.0500   25.9060 H   0  0  0  0  0  0
  -22.0616   -2.7620   23.2786 H   0  0  0  0  0  0
  -22.4066  -11.9999   22.4882 H   0  0  0  0  0  0
  -21.1009  -13.1245   22.2501 H   0  0  0  0  0  0
  -24.6618  -15.8424   20.4883 H   0  0  0  0  0  0
  -26.2875  -15.6137   20.0715 H   0  0  0  0  0  0
  -26.7119  -32.5568   23.1202 H   0  0  0  0  0  0
  -25.0158  -33.9836   25.0563 H   0  0  0  0  0  0
  -22.6853  -31.3195   21.4264 H   0  0  0  0  0  0
  -23.3754  -35.9641   23.3297 H   0  0  0  0  0  0
  -24.3576  -36.8928   22.2047 H   0  0  0  0  0  0
  -23.7230  -37.6527   23.6636 H   0  0  0  0  0  0
  -26.0391  -31.6013   20.5971 H   0  0  0  0  0  0
  -26.8194  -30.8931   21.9836 H   0  0  0  0  0  0
  -28.0883  -29.0912   21.1704 H   0  0  0  0  0  0
  -25.9233  -25.9941   19.0570 H   0  0  0  0  0  0
  -23.9318  -27.3126   19.0803 H   0  0  0  0  0  0
  -23.7049  -30.6209   19.4108 H   0  0  0  0  0  0
  -22.7242  -29.2611   19.8809 H   0  0  0  0  0  0
  -25.1269  -36.1990   25.0831 H   0  0  0  0  0  0
  -20.9958  -28.3229   24.1438 H   0  0  0  0  0  0
  -20.5684  -26.2277   23.3584 H   0  0  0  0  0  0
  -21.6643  -26.7467   22.1199 H   0  0  0  0  0  0
  -19.6914  -25.6293   21.1233 H   0  0  0  0  0  0
  -19.6679  -27.3194   20.6728 H   0  0  0  0  0  0
  -17.4191  -26.6670   21.4017 H   0  0  0  0  0  0
  -18.0336  -26.0055   22.9016 H   0  0  0  0  0  0
  -19.7933  -30.7246   24.2281 H   0  0  0  0  0  0
  -17.5026  -31.6261   24.5174 H   0  0  0  0  0  0
  -15.5358  -30.2987   23.7656 H   0  0  0  0  0  0
  -15.8665  -28.0828   22.7049 H   0  0  0  0  0  0
  -24.5881  -30.7153   25.7876 H   0  0  0  0  0  0
  -24.9025  -32.2934   26.5010 H   0  0  0  0  0  0
  -25.8121  -30.8885   27.0254 H   0  0  0  0  0  0
  -26.2835  -29.6830   24.1188 H   0  0  0  0  0  0
  -27.4088  -29.7291   25.4565 H   0  0  0  0  0  0
  -27.8663  -30.4381   23.9255 H   0  0  0  0  0  0
  -27.2674  -33.3641   26.2098 H   0  0  0  0  0  0
  -28.3862  -32.6906   25.0339 H   0  0  0  0  0  0
  -28.0728  -31.8472   26.5430 H   0  0  0  0  0  0
  -28.2605  -38.0102   24.7512 H   0  0  0  0  0  0
  -28.1062  -36.2642   24.6276 H   0  0  0  0  0  0
  -27.2311  -37.1468   25.8873 H   0  0  0  0  0  0
  -20.9260  -29.8782   21.6983 H   0  0  0  0  0  0
  -26.0185  -38.2883   24.1401 H   0  0  0  0  0  0
  -29.6176  -19.4415   16.9572 H   0  0  0  0  0  0
  -31.2376  -15.6848   18.1461 H   0  0  0  0  0  0
  -28.5301  -17.8161   20.7816 H   0  0  0  0  0  0
  -27.2299  -24.6987   18.5452 H   0  0  0  0  0  0
  -30.0521  -23.7627   18.0562 H   0  0  0  0  0  0
  -31.3522  -18.1011   14.0392 H   0  0  0  0  0  0
  -31.0992  -19.3923   15.1995 H   0  0  0  0  0  0
  -29.7665  -18.3116   14.7726 H   0  0  0  0  0  0
  -28.7408  -22.6167   15.7232 H   0  0  0  0  0  0
  -28.3232  -20.9722   16.1385 H   0  0  0  0  0  0
  -29.9317  -21.6071   16.5188 H   0  0  0  0  0  0
  -26.4934  -23.1842   17.0281 H   0  0  0  0  0  0
  -26.3368  -22.6471   18.7026 H   0  0  0  0  0  0
  -26.3464  -21.4978   17.3782 H   0  0  0  0  0  0
  -31.0913  -16.3664   15.7514 H   0  0  0  0  0  0
  -32.3219  -17.4889   16.2805 H   0  0  0  0  0  0
  -27.6205  -19.8924   20.0945 H   0  0  0  0  0  0
  -27.2767  -19.8653   18.3975 H   0  0  0  0  0  0
  -28.5449  -26.8792   17.9618 H   0  0  0  0  0  0
  -29.9161  -26.1715   18.7772 H   0  0  0  0  0  0
  -29.8645  -21.2338   18.9932 H   0  0  0  0  0  0
  -28.5846  -21.8768   19.9472 H   0  0  0  0  0  0
  -29.0822  -15.4270   21.1208 H   0  0  0  0  0  0
  1 25  1  0  0  0
  1 30  2  0  0  0
  1 87  1  0  0  0
  2  3  1  0  0  0
  2 25  1  0  0  0
  2 88  1  0  0  0
  2 89  1  0  0  0
  3  4  1  0  0  0
  3 90  1  0  0  0
  3 91  1  0  0  0
  4  5  1  0  0  0
  4 92  1  0  0  0
  4 93  1  0  0  0
  5  6  1  0  0  0
  5 26  1  0  0  0
  5 94  1  0  0  0
  6 25  1  0  0  0
  6 95  1  0  0  0
  6 96  1  0  0  0
  7  8  2  0  0  0
  7 26  1  0  0  0
  7 29  1  0  0  0
  8  9  1  0  0  0
  8 22  1  0  0  0
  9 10  1  0  0  0
  9 27  2  0  0  0
 10 11  2  0  0  0
 10 15  1  0  0  0
 11 12  1  0  0  0
 11 97  1  0  0  0
 12 13  2  0  0  0
 12 98  1  0  0  0
 13 14  1  0  0  0
 13 31  1  0  0  0
 14 15  2  0  0  0
 14 99  1  0  0  0
 15100  1  0  0  0
 16 17  2  0  0  0
 16 21  1  0  0  0
 16 31  1  0  0  0
 17 18  1  0  0  0
 17101  1  0  0  0
 18 19  2  0  0  0
 18102  1  0  0  0
 19 20  1  0  0  0
 19 24  1  0  0  0
 20 21  2  0  0  0
 20103  1  0  0  0
 21 23  1  0  0  0
 22 28  1  0  0  0
 22 32  2  0  0  0
 26 27  1  0  0  0
 28104  1  0  0  0
 28105  1  0  0  0
 29106  1  0  0  0
 29107  1  0  0  0
 33 34  1  0  0  0
 33 66  1  0  0  0
 33 70  2  0  0  0
 34 36  1  0  0  0
 34 59  1  0  0  0
 34108  1  0  0  0
 35 44  2  0  0  0
 35 45  1  0  0  0
 35 68  1  0  0  0
 36 56  1  0  0  0
 36109  1  0  0  0
 37 39  1  0  0  0
 37 47  1  0  0  0
 37 66  1  0  0  0
 37110  1  0  0  0
 38 43  2  0  0  0
 38 46  1  0  0  0
 38 47  1  0  0  0
 39 64  1  0  0  0
 39 67  2  0  0  0
 40 52  1  0  0  0
 40 53  2  0  0  0
 40 58  1  0  0  0
 41111  1  0  0  0
 41112  1  0  0  0
 41113  1  0  0  0
 41 48  1  0  0  0
 42 43  1  0  0  0
 42 66  1  0  0  0
 42114  1  0  0  0
 42115  1  0  0  0
 43 44  1  0  0  0
 44116  1  0  0  0
 45 46  2  0  0  0
 45117  1  0  0  0
 46118  1  0  0  0
 47119  1  0  0  0
 47120  1  0  0  0
 48 56  1  0  0  0
 48 65  1  0  0  0
 48121  1  0  0  0
 49 50  1  0  0  0
 49 53  1  0  0  0
 49 64  1  0  0  0
 49122  1  0  0  0
 50 51  1  0  0  0
 50123  1  0  0  0
 50124  1  0  0  0
 51 52  1  0  0  0
 51125  1  0  0  0
 51126  1  0  0  0
 52127  1  0  0  0
 52128  1  0  0  0
 53 54  1  0  0  0
 54 55  2  0  0  0
 54129  1  0  0  0
 55 57  1  0  0  0
 55130  1  0  0  0
 56 69  2  0  0  0
 57 58  2  0  0  0
 57131  1  0  0  0
 58132  1  0  0  0
 59 60  1  0  0  0
 59 61  1  0  0  0
 59 62  1  0  0  0
 60133  1  0  0  0
 60134  1  0  0  0
 60135  1  0  0  0
 61136  1  0  0  0
 61137  1  0  0  0
 61138  1  0  0  0
 62139  1  0  0  0
 62140  1  0  0  0
 62141  1  0  0  0
 63 65  1  0  0  0
 63142  1  0  0  0
 63143  1  0  0  0
 63144  1  0  0  0
 64145  1  0  0  0
 65146  1  0  0  0
 68 84  1  0  0  0
 71 74  2  0  0  0
 71 75  1  0  0  0
 71147  1  0  0  0
 72 74  1  0  0  0
 72 76  2  0  0  0
 72148  1  0  0  0
 73 75  2  0  0  0
 73 76  1  0  0  0
 73149  1  0  0  0
 74 82  1  0  0  0
 75 83  1  0  0  0
 76 87  1  0  0  0
 77 78  2  0  0  0
 77 84  1  0  0  0
 77150  1  0  0  0
 78 86  1  0  0  0
 78151  1  0  0  0
 79 82  1  0  0  0
 79152  1  0  0  0
 79153  1  0  0  0
 79154  1  0  0  0
 80155  1  0  0  0
 80156  1  0  0  0
 80157  1  0  0  0
 80 86  1  0  0  0
 81 86  1  0  0  0
 81158  1  0  0  0
 81159  1  0  0  0
 81160  1  0  0  0
 82161  1  0  0  0
 82162  1  0  0  0
 83 85  1  0  0  0
 83163  1  0  0  0
 83164  1  0  0  0
 84165  1  0  0  0
 84166  1  0  0  0
 85 86  1  0  0  0
 85167  1  0  0  0
 85168  1  0  0  0
 87169  1  0  0  0
M  ISO  4   1 100  68 101  84 101  87 100
M  END
> <chiral flag>
0

> <version>
0

> <s_m_source_file>
/data/baiqing/PycharmProjects/Reinvent-master-3.2/result/LINK_invent/BTK/process_docking_weight1_custom_product_contain_oxygen_bond_distance_aromatic_linkinvent_7_9_3/rearranged_h_0130.sdf

> <i_m_source_file_index>
10

> <r_mmod_Potential_Energy-OPLS-2005>
20.6926136016846

> <r_mmod_Stretch_Energy-OPLS-2005>
38.8244361877441

> <r_mmod_Bend_Energy-OPLS-2005>
106.030838012695

> <r_mmod_Torsional_Energy-OPLS-2005>
258.134307861328

> <r_mmod_Improper_Torsional_Energy-OPLS-2005>
9.35845279693604

> <r_mmod_Van_der_Waal_Energy-OPLS-2005>
172.66845703125

> <r_mmod_Electrostatic_Energy-OPLS-2005>
-391.044036865234

> <r_mmod_Solvation_Energy-OPLS-2005>
-191.80126953125

> <b_mmod_Minimization_Converged-OPLS-2005>
0

> <r_mmod_RMS_Derivative-OPLS-2005>
3.96362686157227

$$$$
10
                    3D
 Structure written by MMmdl.
152160  0  0  1  0            999 V2000
  -30.7248  -14.4306   20.4993 C   0  0  0  0  0  0
  -30.4051  -12.2563   19.4392 C   0  0  0  0  0  0
  -29.4951  -12.4797   18.2133 C   0  0  0  0  0  0
  -28.0122  -12.3596   18.6159 C   0  0  0  0  0  0
  -27.6571  -13.2107   19.8651 C   0  0  2  0  0  0
  -28.6953  -13.0179   20.9928 C   0  0  0  0  0  0
  -25.2580  -13.8180   20.5684 C   0  0  0  0  0  0
  -24.1833  -13.0449   20.9172 C   0  0  0  0  0  0
  -24.6389  -11.6916   20.8724 C   0  0  0  0  0  0
  -23.9059  -10.4299   21.0397 C   0  0  0  0  0  0
  -24.3613   -9.4217   21.9177 C   0  0  0  0  0  0
  -23.6293   -8.2250   22.0751 C   0  0  0  0  0  0
  -22.4274   -8.0284   21.3544 C   0  0  0  0  0  0
  -21.9905   -9.0256   20.4645 C   0  0  0  0  0  0
  -22.7230  -10.2136   20.3051 C   0  0  0  0  0  0
  -21.6856   -6.0737   22.5280 C   0  0  0  0  0  0
  -21.4015   -6.5641   23.8212 C   0  0  0  0  0  0
  -21.3659   -5.6794   24.9175 C   0  0  0  0  0  0
  -21.6043   -4.3057   24.7225 C   0  0  0  0  0  0
  -21.8819   -3.8148   23.4347 C   0  0  0  0  0  0
  -21.9194   -4.6965   22.3403 C   0  0  0  0  0  0
  -22.7856  -13.5242   21.1842 C   0  0  0  0  0  0
  -22.1662   -4.2150   21.0981 F   0  0  0  0  0  0
  -21.5629   -3.4540   25.7737 F   0  0  0  0  0  0
  -30.0352  -13.2634   20.4434 N   0  0  0  0  0  0
  -26.3004  -12.9354   20.3322 N   0  0  0  0  0  0
  -25.9313  -11.6509   20.5742 N   0  0  0  0  0  0
  -22.0502  -12.8233   22.0401 N   0  0  0  0  0  0
  -25.4323  -15.1898   20.4132 N   0  0  0  0  0  0
  -31.9068  -14.5196   20.1586 O   0  0  0  0  0  0
  -21.6641   -6.8879   21.4242 O   0  0  0  0  0  0
  -22.3535  -14.5546   20.6693 O   0  0  0  0  0  0
  -24.6113  -31.8710   23.2126 C   0  0  0  0  0  0
  -25.9021  -32.4837   23.8411 C   0  0  1  0  0  0
  -27.2309  -27.4656   20.0936 C   0  0  0  0  0  0
  -25.5892  -33.8635   24.2345 N   0  0  0  0  0  0
  -23.3966  -30.4952   21.5533 C   0  0  2  0  0  0
  -24.8409  -28.9640   20.1178 C   0  0  0  0  0  0
  -22.7388  -29.4674   22.5013 C   0  0  0  0  0  0
  -18.0267  -28.1373   22.8496 C   0  0  0  0  0  0
  -24.1487  -36.7324   23.2637 C   0  0  0  0  0  0
  -25.9219  -30.8479   21.3585 C   0  0  0  0  0  0
  -26.0001  -29.4848   20.7062 C   0  0  0  0  0  0
  -27.2005  -28.7446   20.6859 C   0  0  0  0  0  0
  -26.0542  -26.9485   19.5072 C   0  0  0  0  0  0
  -24.8611  -27.6939   19.5159 C   0  0  0  0  0  0
  -23.6020  -29.8273   20.1677 C   0  0  0  0  0  0
  -25.4105  -36.3122   24.0341 C   0  0  1  0  0  0
  -20.5854  -28.3654   23.1333 C   0  0  2  0  0  0
  -20.6760  -26.9396   22.5422 C   0  0  0  0  0  0
  -19.5740  -26.6387   21.5215 C   0  0  0  0  0  0
  -18.1917  -26.7922   22.1624 C   0  0  0  0  0  0
  -19.1515  -28.8830   23.2913 C   0  0  0  0  0  0
  -18.9445  -30.1439   23.8920 C   0  0  0  0  0  0
  -17.6449  -30.6583   24.0567 C   0  0  0  0  0  0
  -25.9030  -34.9485   23.5139 C   0  0  0  0  0  0
  -16.5340  -29.9087   23.6323 C   0  0  0  0  0  0
  -16.7257  -28.6502   23.0347 C   0  0  0  0  0  0
  -26.4462  -31.6603   25.0723 C   0  0  0  0  0  0
  -25.3743  -31.3700   26.1483 C   0  0  0  0  0  0
  -27.0281  -30.3051   24.6067 C   0  0  0  0  0  0
  -27.6054  -32.4308   25.7474 C   0  0  0  0  0  0
  -27.5585  -37.1811   24.8462 C   0  0  0  0  0  0
  -21.4121  -29.3030   22.3747 N   0  0  0  0  0  0
  -26.4295  -37.3802   23.9411 N   0  0  0  0  0  0
  -24.6617  -31.0843   22.1008 N   0  0  0  0  0  0
  -23.4178  -28.8216   23.3041 O   0  0  0  0  0  0
  -28.4095  -26.7609   20.0860 O   0  0  0  0  0  0
  -26.5590  -34.8930   22.4698 O   0  0  0  0  0  0
  -23.5316  -32.1445   23.7544 O   0  0  0  0  0  0
  -28.6509  -19.9806   20.4128 C   0  0  0  0  0  0
  -29.0270  -19.7565   18.0217 C   0  0  0  0  0  0
  -28.9928  -18.6223   20.5965 C   0  0  0  0  0  0
  -29.3814  -18.4106   18.2057 C   0  0  0  0  0  0
  -28.6916  -20.5650   19.1242 C   0  0  0  0  0  0
  -29.4099  -17.8442   19.4956 C   0  0  0  0  0  0
  -28.5063  -22.0034   18.8785 C   0  0  0  0  0  0
  -29.9536  -16.4882   19.6211 C   0  0  0  0  0  0
  -28.5021  -22.9789   19.8071 C   0  0  0  0  0  0
  -29.9290  -15.6354   20.6679 C   0  0  0  0  0  0
  -28.3718  -24.3952   19.4266 C   0  0  0  0  0  0
  -28.3246  -25.4169   20.5695 C   0  0  0  0  0  0
  -28.3158  -24.7763   18.2509 O   0  0  0  0  0  0
  -31.4553  -12.3109   19.1470 H   0  0  0  0  0  0
  -30.2619  -11.2539   19.8457 H   0  0  0  0  0  0
  -29.7292  -11.7536   17.4338 H   0  0  0  0  0  0
  -29.6838  -13.4644   17.7825 H   0  0  0  0  0  0
  -27.8106  -11.3066   18.8152 H   0  0  0  0  0  0
  -27.3709  -12.6367   17.7785 H   0  0  0  0  0  0
  -27.6940  -14.2539   19.5520 H   0  0  0  0  0  0
  -28.6468  -12.0018   21.3865 H   0  0  0  0  0  0
  -28.4794  -13.6748   21.8363 H   0  0  0  0  0  0
  -25.2759   -9.5697   22.4749 H   0  0  0  0  0  0
  -24.0008   -7.4646   22.7472 H   0  0  0  0  0  0
  -21.0834   -8.8774   19.8953 H   0  0  0  0  0  0
  -22.3687  -10.9675   19.6161 H   0  0  0  0  0  0
  -21.2006   -7.6149   23.9714 H   0  0  0  0  0  0
  -21.1481   -6.0525   25.9078 H   0  0  0  0  0  0
  -22.0596   -2.7609   23.2850 H   0  0  0  0  0  0
  -22.4124  -11.9896   22.4787 H   0  0  0  0  0  0
  -21.1122  -13.1260   22.2617 H   0  0  0  0  0  0
  -24.6727  -15.8511   20.5314 H   0  0  0  0  0  0
  -26.2979  -15.6279   20.1228 H   0  0  0  0  0  0
  -26.7096  -32.5563   23.1183 H   0  0  0  0  0  0
  -25.0051  -33.9806   25.0495 H   0  0  0  0  0  0
  -22.6835  -31.3107   21.4164 H   0  0  0  0  0  0
  -23.3748  -35.9658   23.3302 H   0  0  0  0  0  0
  -24.3585  -36.8934   22.2051 H   0  0  0  0  0  0
  -23.7238  -37.6530   23.6646 H   0  0  0  0  0  0
  -26.0273  -31.6154   20.5905 H   0  0  0  0  0  0
  -26.8126  -30.9026   21.9727 H   0  0  0  0  0  0
  -28.0993  -29.1462   21.1332 H   0  0  0  0  0  0
  -26.0511  -25.9798   19.0297 H   0  0  0  0  0  0
  -23.9691  -27.2875   19.0590 H   0  0  0  0  0  0
  -23.7073  -30.6019   19.4072 H   0  0  0  0  0  0
  -22.7267  -29.2450   19.8740 H   0  0  0  0  0  0
  -25.1278  -36.1994   25.0834 H   0  0  0  0  0  0
  -20.9945  -28.3216   24.1454 H   0  0  0  0  0  0
  -20.5667  -26.2260   23.3602 H   0  0  0  0  0  0
  -21.6632  -26.7448   22.1212 H   0  0  0  0  0  0
  -19.6903  -25.6303   21.1229 H   0  0  0  0  0  0
  -19.6681  -27.3211   20.6756 H   0  0  0  0  0  0
  -17.4189  -26.6676   21.4023 H   0  0  0  0  0  0
  -18.0315  -26.0057   22.9012 H   0  0  0  0  0  0
  -19.7922  -30.7248   24.2299 H   0  0  0  0  0  0
  -17.5005  -31.6265   24.5164 H   0  0  0  0  0  0
  -15.5342  -30.2997   23.7634 H   0  0  0  0  0  0
  -15.8657  -28.0830   22.7048 H   0  0  0  0  0  0
  -24.5904  -30.7060   25.7822 H   0  0  0  0  0  0
  -24.8948  -32.2854   26.4961 H   0  0  0  0  0  0
  -25.8107  -30.8846   27.0221 H   0  0  0  0  0  0
  -26.2807  -29.6821   24.1138 H   0  0  0  0  0  0
  -27.4083  -29.7276   25.4503 H   0  0  0  0  0  0
  -27.8629  -30.4380   23.9181 H   0  0  0  0  0  0
  -27.2692  -33.3599   26.2089 H   0  0  0  0  0  0
  -28.3842  -32.6879   25.0281 H   0  0  0  0  0  0
  -28.0746  -31.8405   26.5357 H   0  0  0  0  0  0
  -28.2602  -38.0110   24.7520 H   0  0  0  0  0  0
  -28.1082  -36.2644   24.6271 H   0  0  0  0  0  0
  -27.2306  -37.1445   25.8866 H   0  0  0  0  0  0
  -20.9273  -29.8755   21.6979 H   0  0  0  0  0  0
  -26.0189  -38.2882   24.1416 H   0  0  0  0  0  0
  -28.3908  -20.5713   21.2790 H   0  0  0  0  0  0
  -29.0674  -20.1777   17.0266 H   0  0  0  0  0  0
  -28.9980  -18.2076   21.5946 H   0  0  0  0  0  0
  -29.6844  -17.8293   17.3458 H   0  0  0  0  0  0
  -28.3753  -22.2802   17.8405 H   0  0  0  0  0  0
  -30.4936  -16.1674   18.7378 H   0  0  0  0  0  0
  -28.6153  -22.7577   20.8576 H   0  0  0  0  0  0
  -29.3967  -15.8433   21.5836 H   0  0  0  0  0  0
  -29.1726  -25.2360   21.2301 H   0  0  0  0  0  0
  -27.4238  -25.2604   21.1647 H   0  0  0  0  0  0
  1 25  1  0  0  0
  1 30  2  0  0  0
  1 80  1  0  0  0
  2  3  1  0  0  0
  2 25  1  0  0  0
  2 84  1  0  0  0
  2 85  1  0  0  0
  3  4  1  0  0  0
  3 86  1  0  0  0
  3 87  1  0  0  0
  4  5  1  0  0  0
  4 88  1  0  0  0
  4 89  1  0  0  0
  5  6  1  0  0  0
  5 26  1  0  0  0
  5 90  1  0  0  0
  6 25  1  0  0  0
  6 91  1  0  0  0
  6 92  1  0  0  0
  7  8  2  0  0  0
  7 26  1  0  0  0
  7 29  1  0  0  0
  8  9  1  0  0  0
  8 22  1  0  0  0
  9 10  1  0  0  0
  9 27  2  0  0  0
 10 11  2  0  0  0
 10 15  1  0  0  0
 11 12  1  0  0  0
 11 93  1  0  0  0
 12 13  2  0  0  0
 12 94  1  0  0  0
 13 14  1  0  0  0
 13 31  1  0  0  0
 14 15  2  0  0  0
 14 95  1  0  0  0
 15 96  1  0  0  0
 16 17  2  0  0  0
 16 21  1  0  0  0
 16 31  1  0  0  0
 17 18  1  0  0  0
 17 97  1  0  0  0
 18 19  2  0  0  0
 18 98  1  0  0  0
 19 20  1  0  0  0
 19 24  1  0  0  0
 20 21  2  0  0  0
 20 99  1  0  0  0
 21 23  1  0  0  0
 22 28  1  0  0  0
 22 32  2  0  0  0
 26 27  1  0  0  0
 28100  1  0  0  0
 28101  1  0  0  0
 29102  1  0  0  0
 29103  1  0  0  0
 33 34  1  0  0  0
 33 66  1  0  0  0
 33 70  2  0  0  0
 34 36  1  0  0  0
 34 59  1  0  0  0
 34104  1  0  0  0
 35 44  2  0  0  0
 35 45  1  0  0  0
 35 68  1  0  0  0
 36 56  1  0  0  0
 36105  1  0  0  0
 37 39  1  0  0  0
 37 47  1  0  0  0
 37 66  1  0  0  0
 37106  1  0  0  0
 38 43  2  0  0  0
 38 46  1  0  0  0
 38 47  1  0  0  0
 39 64  1  0  0  0
 39 67  2  0  0  0
 40 52  1  0  0  0
 40 53  2  0  0  0
 40 58  1  0  0  0
 41107  1  0  0  0
 41108  1  0  0  0
 41109  1  0  0  0
 41 48  1  0  0  0
 42 43  1  0  0  0
 42 66  1  0  0  0
 42110  1  0  0  0
 42111  1  0  0  0
 43 44  1  0  0  0
 44112  1  0  0  0
 45 46  2  0  0  0
 45113  1  0  0  0
 46114  1  0  0  0
 47115  1  0  0  0
 47116  1  0  0  0
 48 56  1  0  0  0
 48 65  1  0  0  0
 48117  1  0  0  0
 49 50  1  0  0  0
 49 53  1  0  0  0
 49 64  1  0  0  0
 49118  1  0  0  0
 50 51  1  0  0  0
 50119  1  0  0  0
 50120  1  0  0  0
 51 52  1  0  0  0
 51121  1  0  0  0
 51122  1  0  0  0
 52123  1  0  0  0
 52124  1  0  0  0
 53 54  1  0  0  0
 54 55  2  0  0  0
 54125  1  0  0  0
 55 57  1  0  0  0
 55126  1  0  0  0
 56 69  2  0  0  0
 57 58  2  0  0  0
 57127  1  0  0  0
 58128  1  0  0  0
 59 60  1  0  0  0
 59 61  1  0  0  0
 59 62  1  0  0  0
 60129  1  0  0  0
 60130  1  0  0  0
 60131  1  0  0  0
 61132  1  0  0  0
 61133  1  0  0  0
 61134  1  0  0  0
 62135  1  0  0  0
 62136  1  0  0  0
 62137  1  0  0  0
 63 65  1  0  0  0
 63138  1  0  0  0
 63139  1  0  0  0
 63140  1  0  0  0
 64141  1  0  0  0
 65142  1  0  0  0
 68 82  1  0  0  0
 71 73  2  0  0  0
 71 75  1  0  0  0
 71143  1  0  0  0
 72 74  1  0  0  0
 72 75  2  0  0  0
 72144  1  0  0  0
 73 76  1  0  0  0
 73145  1  0  0  0
 74 76  2  0  0  0
 74146  1  0  0  0
 75 77  1  0  0  0
 76 78  1  0  0  0
 77 79  2  0  0  0
 77147  1  0  0  0
 78 80  2  0  0  0
 78148  1  0  0  0
 79 81  1  0  0  0
 79149  1  0  0  0
 80150  1  0  0  0
 81 82  1  0  0  0
 81 83  2  0  0  0
 82151  1  0  0  0
 82152  1  0  0  0
M  ISO  4   1 100  68 101  80 100  82 101
M  END
> <chiral flag>
0

> <version>
0

> <s_m_source_file>
/data/baiqing/PycharmProjects/Reinvent-master-3.2/result/LINK_invent/BTK/process_docking_weight1_custom_product_contain_oxygen_bond_distance_aromatic_linkinvent_7_9_3/rearranged_h_0130.sdf

> <i_m_source_file_index>
11

> <r_mmod_Potential_Energy-OPLS-2005>
-3.71305370330811

> <r_mmod_Stretch_Energy-OPLS-2005>
31.0262031555176

> <r_mmod_Bend_Energy-OPLS-2005>
95.3743515014648

> <r_mmod_Torsional_Energy-OPLS-2005>
223.386169433594

> <r_mmod_Improper_Torsional_Energy-OPLS-2005>
8.48616027832031

> <r_mmod_Van_der_Waal_Energy-OPLS-2005>
158.798187255859

> <r_mmod_Electrostatic_Energy-OPLS-2005>
-324.685516357422

> <r_mmod_Solvation_Energy-OPLS-2005>
-212.663970947266

> <b_mmod_Minimization_Converged-OPLS-2005>
0

> <r_mmod_RMS_Derivative-OPLS-2005>
0.274206280708313

$$$$
11
                    3D
 Structure written by MMmdl.
158166  0  0  1  0            999 V2000
  -30.6429  -14.4116   20.7090 C   0  0  0  0  0  0
  -30.4413  -12.3243   19.3885 C   0  0  0  0  0  0
  -29.4869  -12.5559   18.1972 C   0  0  0  0  0  0
  -28.0101  -12.3787   18.6080 C   0  0  0  0  0  0
  -27.6671  -13.1718   19.8959 C   0  0  2  0  0  0
  -28.7014  -12.8406   20.9936 C   0  0  0  0  0  0
  -25.2634  -13.8086   20.5632 C   0  0  0  0  0  0
  -24.1839  -13.0412   20.9101 C   0  0  0  0  0  0
  -24.6336  -11.6861   20.8687 C   0  0  0  0  0  0
  -23.8990  -10.4289   21.0404 C   0  0  0  0  0  0
  -24.3561   -9.4212   21.9191 C   0  0  0  0  0  0
  -23.6254   -8.2249   22.0770 C   0  0  0  0  0  0
  -22.4248   -8.0277   21.3546 C   0  0  0  0  0  0
  -21.9875   -9.0224   20.4641 C   0  0  0  0  0  0
  -22.7175  -10.2112   20.3051 C   0  0  0  0  0  0
  -21.6838   -6.0716   22.5279 C   0  0  0  0  0  0
  -21.4000   -6.5613   23.8203 C   0  0  0  0  0  0
  -21.3656   -5.6764   24.9177 C   0  0  0  0  0  0
  -21.6044   -4.3036   24.7214 C   0  0  0  0  0  0
  -21.8816   -3.8126   23.4336 C   0  0  0  0  0  0
  -21.9184   -4.6948   22.3394 C   0  0  0  0  0  0
  -22.7903  -13.5259   21.1783 C   0  0  0  0  0  0
  -22.1658   -4.2142   21.0965 F   0  0  0  0  0  0
  -21.5634   -3.4520   25.7727 F   0  0  0  0  0  0
  -30.0307  -13.2194   20.4783 N   0  0  0  0  0  0
  -26.3032  -12.9172   20.3423 N   0  0  0  0  0  0
  -25.9249  -11.6377   20.5765 N   0  0  0  0  0  0
  -22.0539  -12.8249   22.0341 N   0  0  0  0  0  0
  -25.4449  -15.1803   20.4047 N   0  0  0  0  0  0
  -31.6959  -14.7537   20.1583 O   0  0  0  0  0  0
  -21.6617   -6.8864   21.4246 O   0  0  0  0  0  0
  -22.3598  -14.5574   20.6658 O   0  0  0  0  0  0
  -24.6190  -31.8621   23.2116 C   0  0  0  0  0  0
  -25.9082  -32.4751   23.8411 C   0  0  1  0  0  0
  -27.2227  -27.4200   20.0934 C   0  0  0  0  0  0
  -25.5950  -33.8571   24.2342 N   0  0  0  0  0  0
  -23.4048  -30.4875   21.5514 C   0  0  2  0  0  0
  -24.8455  -28.9510   20.1151 C   0  0  0  0  0  0
  -22.7377  -29.4662   22.5005 C   0  0  0  0  0  0
  -18.0255  -28.1407   22.8526 C   0  0  0  0  0  0
  -24.1494  -36.7245   23.2656 C   0  0  0  0  0  0
  -25.9329  -30.8284   21.3609 C   0  0  0  0  0  0
  -26.0105  -29.4620   20.7064 C   0  0  0  0  0  0
  -27.2061  -28.7052   20.6868 C   0  0  0  0  0  0
  -26.0396  -26.9210   19.5121 C   0  0  0  0  0  0
  -24.8548  -27.6794   19.5187 C   0  0  0  0  0  0
  -23.6078  -29.8139   20.1681 C   0  0  0  0  0  0
  -25.4120  -36.3059   24.0343 C   0  0  1  0  0  0
  -20.5830  -28.3704   23.1316 C   0  0  2  0  0  0
  -20.6751  -26.9442   22.5423 C   0  0  0  0  0  0
  -19.5733  -26.6429   21.5228 C   0  0  0  0  0  0
  -18.1887  -26.7985   22.1597 C   0  0  0  0  0  0
  -19.1498  -28.8877   23.2919 C   0  0  0  0  0  0
  -18.9441  -30.1491   23.8919 C   0  0  0  0  0  0
  -17.6440  -30.6617   24.0600 C   0  0  0  0  0  0
  -25.9049  -34.9414   23.5114 C   0  0  0  0  0  0
  -16.5325  -29.9110   23.6370 C   0  0  0  0  0  0
  -16.7259  -28.6526   23.0408 C   0  0  0  0  0  0
  -26.4535  -31.6544   25.0741 C   0  0  0  0  0  0
  -25.3825  -31.3454   26.1459 C   0  0  0  0  0  0
  -27.0473  -30.3040   24.6109 C   0  0  0  0  0  0
  -27.6086  -32.4306   25.7505 C   0  0  0  0  0  0
  -27.5568  -37.1758   24.8480 C   0  0  0  0  0  0
  -21.4108  -29.3041   22.3700 N   0  0  0  0  0  0
  -26.4293  -37.3752   23.9427 N   0  0  0  0  0  0
  -24.6703  -31.0737   22.0994 N   0  0  0  0  0  0
  -23.4118  -28.8217   23.3088 O   0  0  0  0  0  0
  -28.3700  -26.6575   20.0797 O   0  0  0  0  0  0
  -26.5574  -34.8862   22.4655 O   0  0  0  0  0  0
  -23.5387  -32.1376   23.7499 O   0  0  0  0  0  0
  -28.1946  -18.3690   19.6076 C   0  0  0  0  0  0
  -29.0282  -18.8924   21.6082 C   0  0  0  0  0  0
  -28.2806  -19.3993   20.5022 C   0  0  0  0  0  0
  -29.3716  -17.6015   21.2859 C   0  0  0  0  0  0
  -28.1918  -24.1597   19.9262 C   0  0  0  0  0  0
  -28.5652  -22.9398   20.3794 C   0  0  0  0  0  0
  -30.6939  -20.4156   22.7149 C   0  0  0  0  0  0
  -29.3840  -19.6326   22.8706 C   0  0  0  0  0  0
  -30.2024  -16.5597   21.9994 C   0  0  0  0  0  0
  -28.2770  -25.4135   20.7971 C   0  0  0  0  0  0
  -28.5153  -21.6031   19.6471 C   0  0  0  0  0  0
  -29.9558  -15.1891   21.5650 N   0  0  0  0  0  0
  -28.8584  -17.2696   20.0656 O   0  0  0  0  0  0
  -27.7347  -20.6573   20.3834 O   0  0  0  0  0  0
  -31.4761  -12.4965   19.0863 H   0  0  0  0  0  0
  -30.3999  -11.2883   19.7264 H   0  0  0  0  0  0
  -29.7456  -11.8967   17.3688 H   0  0  0  0  0  0
  -29.6241  -13.5717   17.8268 H   0  0  0  0  0  0
  -27.8243  -11.3157   18.7672 H   0  0  0  0  0  0
  -27.3497  -12.6811   17.7963 H   0  0  0  0  0  0
  -27.7437  -14.2330   19.6654 H   0  0  0  0  0  0
  -28.6929  -11.7669   21.1884 H   0  0  0  0  0  0
  -28.4395  -13.2865   21.9542 H   0  0  0  0  0  0
  -25.2727   -9.5677   22.4750 H   0  0  0  0  0  0
  -23.9967   -7.4645   22.7502 H   0  0  0  0  0  0
  -21.0815   -8.8707   19.8936 H   0  0  0  0  0  0
  -22.3647  -10.9634   19.6138 H   0  0  0  0  0  0
  -21.1988   -7.6114   23.9707 H   0  0  0  0  0  0
  -21.1485   -6.0496   25.9069 H   0  0  0  0  0  0
  -22.0595   -2.7605   23.2820 H   0  0  0  0  0  0
  -22.4166  -11.9870   22.4655 H   0  0  0  0  0  0
  -21.1194  -13.1322   22.2614 H   0  0  0  0  0  0
  -24.6845  -15.8443   20.5090 H   0  0  0  0  0  0
  -26.3157  -15.6176   20.1270 H   0  0  0  0  0  0
  -26.7165  -32.5456   23.1185 H   0  0  0  0  0  0
  -25.0272  -33.9769   25.0606 H   0  0  0  0  0  0
  -22.6987  -31.3076   21.4040 H   0  0  0  0  0  0
  -23.3777  -35.9550   23.3295 H   0  0  0  0  0  0
  -24.3607  -36.8913   22.2083 H   0  0  0  0  0  0
  -23.7220  -37.6418   23.6718 H   0  0  0  0  0  0
  -26.0427  -31.5943   20.5911 H   0  0  0  0  0  0
  -26.8213  -30.8797   21.9790 H   0  0  0  0  0  0
  -28.1054  -29.0921   21.1469 H   0  0  0  0  0  0
  -26.0286  -25.9376   19.0635 H   0  0  0  0  0  0
  -23.9550  -27.2763   19.0728 H   0  0  0  0  0  0
  -23.6980  -30.5822   19.4001 H   0  0  0  0  0  0
  -22.7348  -29.2226   19.8892 H   0  0  0  0  0  0
  -25.1292  -36.1892   25.0832 H   0  0  0  0  0  0
  -20.9928  -28.3305   24.1441 H   0  0  0  0  0  0
  -20.5726  -26.2309   23.3613 H   0  0  0  0  0  0
  -21.6621  -26.7515   22.1183 H   0  0  0  0  0  0
  -19.6903  -25.6351   21.1273 H   0  0  0  0  0  0
  -19.6704  -27.3240   20.6764 H   0  0  0  0  0  0
  -17.4184  -26.6855   21.3947 H   0  0  0  0  0  0
  -18.0194  -26.0088   22.8927 H   0  0  0  0  0  0
  -19.7895  -30.7337   24.2294 H   0  0  0  0  0  0
  -17.4963  -31.6302   24.5203 H   0  0  0  0  0  0
  -15.5328  -30.3005   23.7715 H   0  0  0  0  0  0
  -15.8650  -28.0857   22.7134 H   0  0  0  0  0  0
  -24.6323  -30.6425   25.7811 H   0  0  0  0  0  0
  -24.8606  -32.2444   26.4746 H   0  0  0  0  0  0
  -25.8300  -30.8890   27.0307 H   0  0  0  0  0  0
  -26.3012  -29.6595   24.1467 H   0  0  0  0  0  0
  -27.4627  -29.7461   25.4515 H   0  0  0  0  0  0
  -27.8620  -30.4428   23.9003 H   0  0  0  0  0  0
  -27.2784  -33.3726   26.1892 H   0  0  0  0  0  0
  -28.3986  -32.6679   25.0363 H   0  0  0  0  0  0
  -28.0639  -31.8535   26.5568 H   0  0  0  0  0  0
  -28.2530  -38.0107   24.7604 H   0  0  0  0  0  0
  -28.1130  -36.2632   24.6245 H   0  0  0  0  0  0
  -27.2277  -37.1318   25.8881 H   0  0  0  0  0  0
  -20.9286  -29.8671   21.6824 H   0  0  0  0  0  0
  -26.0140  -38.2798   24.1512 H   0  0  0  0  0  0
  -27.7269  -18.2553   18.6406 H   0  0  0  0  0  0
  -27.8007  -24.2833   18.9247 H   0  0  0  0  0  0
  -28.9467  -22.8742   21.3866 H   0  0  0  0  0  0
  -31.0344  -20.8018   23.6758 H   0  0  0  0  0  0
  -30.5720  -21.2655   22.0428 H   0  0  0  0  0  0
  -31.4858  -19.7843   22.3100 H   0  0  0  0  0  0
  -29.4584  -18.9156   23.6883 H   0  0  0  0  0  0
  -28.5639  -20.3060   23.1265 H   0  0  0  0  0  0
  -29.9690  -16.5955   23.0657 H   0  0  0  0  0  0
  -31.2627  -16.7986   21.9232 H   0  0  0  0  0  0
  -29.1697  -25.3288   21.4148 H   0  0  0  0  0  0
  -27.4394  -25.4145   21.4974 H   0  0  0  0  0  0
  -29.5421  -21.2497   19.5260 H   0  0  0  0  0  0
  -28.0974  -21.7175   18.6460 H   0  0  0  0  0  0
  -29.1301  -14.7597   21.9555 H   0  0  0  0  0  0
  1 25  1  0  0  0
  1 30  2  0  0  0
  1 82  1  0  0  0
  2  3  1  0  0  0
  2 25  1  0  0  0
  2 85  1  0  0  0
  2 86  1  0  0  0
  3  4  1  0  0  0
  3 87  1  0  0  0
  3 88  1  0  0  0
  4  5  1  0  0  0
  4 89  1  0  0  0
  4 90  1  0  0  0
  5  6  1  0  0  0
  5 26  1  0  0  0
  5 91  1  0  0  0
  6 25  1  0  0  0
  6 92  1  0  0  0
  6 93  1  0  0  0
  7  8  2  0  0  0
  7 26  1  0  0  0
  7 29  1  0  0  0
  8  9  1  0  0  0
  8 22  1  0  0  0
  9 10  1  0  0  0
  9 27  2  0  0  0
 10 11  2  0  0  0
 10 15  1  0  0  0
 11 12  1  0  0  0
 11 94  1  0  0  0
 12 13  2  0  0  0
 12 95  1  0  0  0
 13 14  1  0  0  0
 13 31  1  0  0  0
 14 15  2  0  0  0
 14 96  1  0  0  0
 15 97  1  0  0  0
 16 17  2  0  0  0
 16 21  1  0  0  0
 16 31  1  0  0  0
 17 18  1  0  0  0
 17 98  1  0  0  0
 18 19  2  0  0  0
 18 99  1  0  0  0
 19 20  1  0  0  0
 19 24  1  0  0  0
 20 21  2  0  0  0
 20100  1  0  0  0
 21 23  1  0  0  0
 22 28  1  0  0  0
 22 32  2  0  0  0
 26 27  1  0  0  0
 28101  1  0  0  0
 28102  1  0  0  0
 29103  1  0  0  0
 29104  1  0  0  0
 33 34  1  0  0  0
 33 66  1  0  0  0
 33 70  2  0  0  0
 34 36  1  0  0  0
 34 59  1  0  0  0
 34105  1  0  0  0
 35 44  2  0  0  0
 35 45  1  0  0  0
 35 68  1  0  0  0
 36 56  1  0  0  0
 36106  1  0  0  0
 37 39  1  0  0  0
 37 47  1  0  0  0
 37 66  1  0  0  0
 37107  1  0  0  0
 38 43  2  0  0  0
 38 46  1  0  0  0
 38 47  1  0  0  0
 39 64  1  0  0  0
 39 67  2  0  0  0
 40 52  1  0  0  0
 40 53  2  0  0  0
 40 58  1  0  0  0
 41108  1  0  0  0
 41109  1  0  0  0
 41110  1  0  0  0
 41 48  1  0  0  0
 42 43  1  0  0  0
 42 66  1  0  0  0
 42111  1  0  0  0
 42112  1  0  0  0
 43 44  1  0  0  0
 44113  1  0  0  0
 45 46  2  0  0  0
 45114  1  0  0  0
 46115  1  0  0  0
 47116  1  0  0  0
 47117  1  0  0  0
 48 56  1  0  0  0
 48 65  1  0  0  0
 48118  1  0  0  0
 49 50  1  0  0  0
 49 53  1  0  0  0
 49 64  1  0  0  0
 49119  1  0  0  0
 50 51  1  0  0  0
 50120  1  0  0  0
 50121  1  0  0  0
 51 52  1  0  0  0
 51122  1  0  0  0
 51123  1  0  0  0
 52124  1  0  0  0
 52125  1  0  0  0
 53 54  1  0  0  0
 54 55  2  0  0  0
 54126  1  0  0  0
 55 57  1  0  0  0
 55127  1  0  0  0
 56 69  2  0  0  0
 57 58  2  0  0  0
 57128  1  0  0  0
 58129  1  0  0  0
 59 60  1  0  0  0
 59 61  1  0  0  0
 59 62  1  0  0  0
 60130  1  0  0  0
 60131  1  0  0  0
 60132  1  0  0  0
 61133  1  0  0  0
 61134  1  0  0  0
 61135  1  0  0  0
 62136  1  0  0  0
 62137  1  0  0  0
 62138  1  0  0  0
 63 65  1  0  0  0
 63139  1  0  0  0
 63140  1  0  0  0
 63141  1  0  0  0
 64142  1  0  0  0
 65143  1  0  0  0
 68 80  1  0  0  0
 71 73  2  0  0  0
 71 83  1  0  0  0
 71144  1  0  0  0
 72 73  1  0  0  0
 72 74  2  0  0  0
 72 78  1  0  0  0
 73 84  1  0  0  0
 74 79  1  0  0  0
 74 83  1  0  0  0
 75 76  2  0  0  0
 75 80  1  0  0  0
 75145  1  0  0  0
 76 81  1  0  0  0
 76146  1  0  0  0
 77 78  1  0  0  0
 77147  1  0  0  0
 77148  1  0  0  0
 77149  1  0  0  0
 78150  1  0  0  0
 78151  1  0  0  0
 79 82  1  0  0  0
 79152  1  0  0  0
 79153  1  0  0  0
 80154  1  0  0  0
 80155  1  0  0  0
 81 84  1  0  0  0
 81156  1  0  0  0
 81157  1  0  0  0
 82158  1  0  0  0
M  ISO  4   1 100  68 101  80 101  82 100
M  END
> <chiral flag>
0

> <version>
0

> <s_m_source_file>
/data/baiqing/PycharmProjects/Reinvent-master-3.2/result/LINK_invent/BTK/process_docking_weight1_custom_product_contain_oxygen_bond_distance_aromatic_linkinvent_7_9_3/rearranged_h_0130.sdf

> <i_m_source_file_index>
12

> <r_mmod_Potential_Energy-OPLS-2005>
-149.138366699219

> <r_mmod_Stretch_Energy-OPLS-2005>
33.4020919799805

> <r_mmod_Bend_Energy-OPLS-2005>
96.3197708129883

> <r_mmod_Torsional_Energy-OPLS-2005>
223.684143066406

> <r_mmod_Improper_Torsional_Energy-OPLS-2005>
2.022305727005

> <r_mmod_Van_der_Waal_Energy-OPLS-2005>
119.415702819824

> <r_mmod_Electrostatic_Energy-OPLS-2005>
-428.752838134766

> <r_mmod_Solvation_Energy-OPLS-2005>
-210.863754272461

> <b_mmod_Minimization_Converged-OPLS-2005>
0

> <r_mmod_RMS_Derivative-OPLS-2005>
4.61208152770996

$$$$
12
                    3D
 Structure written by MMmdl.
160168  0  0  1  0            999 V2000
  -30.6771  -14.5100   20.5443 C   0  0  0  0  0  0
  -30.4310  -12.3186   19.4402 C   0  0  0  0  0  0
  -29.5032  -12.5003   18.2189 C   0  0  0  0  0  0
  -28.0216  -12.3672   18.6232 C   0  0  0  0  0  0
  -27.6633  -13.2068   19.8784 C   0  0  2  0  0  0
  -28.7036  -13.0007   21.0044 C   0  0  0  0  0  0
  -25.2610  -13.8176   20.5691 C   0  0  0  0  0  0
  -24.1841  -13.0454   20.9148 C   0  0  0  0  0  0
  -24.6401  -11.6913   20.8734 C   0  0  0  0  0  0
  -23.9064  -10.4297   21.0408 C   0  0  0  0  0  0
  -24.3605   -9.4208   21.9188 C   0  0  0  0  0  0
  -23.6271   -8.2249   22.0757 C   0  0  0  0  0  0
  -22.4256   -8.0298   21.3545 C   0  0  0  0  0  0
  -21.9894   -9.0279   20.4652 C   0  0  0  0  0  0
  -22.7236  -10.2151   20.3060 C   0  0  0  0  0  0
  -21.6849   -6.0743   22.5264 C   0  0  0  0  0  0
  -21.4024   -6.5641   23.8207 C   0  0  0  0  0  0
  -21.3654   -5.6782   24.9160 C   0  0  0  0  0  0
  -21.6033   -4.3046   24.7209 C   0  0  0  0  0  0
  -21.8823   -3.8151   23.4328 C   0  0  0  0  0  0
  -21.9196   -4.6974   22.3392 C   0  0  0  0  0  0
  -22.7871  -13.5267   21.1806 C   0  0  0  0  0  0
  -22.1659   -4.2167   21.0965 F   0  0  0  0  0  0
  -21.5620   -3.4530   25.7720 F   0  0  0  0  0  0
  -30.0370  -13.3094   20.4585 N   0  0  0  0  0  0
  -26.3033  -12.9325   20.3377 N   0  0  0  0  0  0
  -25.9323  -11.6492   20.5775 N   0  0  0  0  0  0
  -22.0486  -12.8296   22.0363 N   0  0  0  0  0  0
  -25.4400  -15.1894   20.4163 N   0  0  0  0  0  0
  -31.7958  -14.7046   20.0567 O   0  0  0  0  0  0
  -21.6631   -6.8891   21.4229 O   0  0  0  0  0  0
  -22.3568  -14.5583   20.6664 O   0  0  0  0  0  0
  -24.6161  -31.8666   23.2103 C   0  0  0  0  0  0
  -25.9051  -32.4817   23.8400 C   0  0  1  0  0  0
  -27.2297  -27.4092   20.1170 C   0  0  0  0  0  0
  -25.5903  -33.8617   24.2337 N   0  0  0  0  0  0
  -23.4055  -30.4905   21.5496 C   0  0  2  0  0  0
  -24.8554  -28.9577   20.1124 C   0  0  0  0  0  0
  -22.7417  -29.4648   22.4978 C   0  0  0  0  0  0
  -18.0267  -28.1377   22.8495 C   0  0  0  0  0  0
  -24.1478  -36.7298   23.2639 C   0  0  0  0  0  0
  -25.9366  -30.8279   21.3673 C   0  0  0  0  0  0
  -26.0165  -29.4609   20.7139 C   0  0  0  0  0  0
  -27.2088  -28.6947   20.7120 C   0  0  0  0  0  0
  -26.0568  -26.9361   19.4900 C   0  0  0  0  0  0
  -24.8725  -27.6964   19.4928 C   0  0  0  0  0  0
  -23.6163  -29.8244   20.1638 C   0  0  0  0  0  0
  -25.4100  -36.3106   24.0343 C   0  0  1  0  0  0
  -20.5859  -28.3660   23.1316 C   0  0  2  0  0  0
  -20.6756  -26.9393   22.5424 C   0  0  0  0  0  0
  -19.5738  -26.6382   21.5213 C   0  0  0  0  0  0
  -18.1909  -26.7928   22.1616 C   0  0  0  0  0  0
  -19.1519  -28.8833   23.2899 C   0  0  0  0  0  0
  -18.9452  -30.1439   23.8908 C   0  0  0  0  0  0
  -17.6459  -30.6589   24.0557 C   0  0  0  0  0  0
  -25.9029  -34.9472   23.5134 C   0  0  0  0  0  0
  -16.5344  -29.9090   23.6333 C   0  0  0  0  0  0
  -16.7258  -28.6502   23.0365 C   0  0  0  0  0  0
  -26.4493  -31.6596   25.0723 C   0  0  0  0  0  0
  -25.3769  -31.3699   26.1478 C   0  0  0  0  0  0
  -27.0325  -30.3038   24.6098 C   0  0  0  0  0  0
  -27.6063  -32.4322   25.7489 C   0  0  0  0  0  0
  -27.5577  -37.1800   24.8468 C   0  0  0  0  0  0
  -21.4144  -29.3034   22.3724 N   0  0  0  0  0  0
  -26.4284  -37.3794   23.9420 N   0  0  0  0  0  0
  -24.6705  -31.0759   22.1006 N   0  0  0  0  0  0
  -23.4181  -28.8172   23.3010 O   0  0  0  0  0  0
  -28.3593  -26.6101   20.1506 O   0  0  0  0  0  0
  -26.5577  -34.8929   22.4689 O   0  0  0  0  0  0
  -23.5347  -32.1411   23.7490 O   0  0  0  0  0  0
  -29.1996  -16.6879   19.0539 C   0  0  0  0  0  0
  -29.5584  -17.9967   21.0685 C   0  0  0  0  0  0
  -28.6445  -17.8140   18.4176 C   0  0  0  0  0  0
  -28.5247  -19.0437   19.1124 C   0  0  0  0  0  0
  -29.6210  -16.7441   20.3979 C   0  0  0  0  0  0
  -29.0578  -19.1675   20.4272 C   0  0  0  0  0  0
  -28.1259  -17.6505   16.9965 C   0  0  0  0  0  0
  -27.7357  -20.1786   18.4678 C   0  0  0  0  0  0
  -29.0819  -24.1737   20.3673 C   0  0  0  0  0  0
  -28.6878  -22.8019   21.0022 C   0  0  0  0  0  0
  -28.1728  -25.3466   20.8388 C   0  0  0  0  0  0
  -29.5493  -21.5659   20.6046 C   0  0  0  0  0  0
  -29.9687  -15.5287   21.0838 N   0  0  0  0  0  0
  -28.9963  -20.3501   21.1576 O   0  0  0  0  0  0
  -31.4764  -12.4178   19.1427 H   0  0  0  0  0  0
  -30.3401  -11.3107   19.8454 H   0  0  0  0  0  0
  -29.7454  -11.7679   17.4475 H   0  0  0  0  0  0
  -29.6718  -13.4793   17.7689 H   0  0  0  0  0  0
  -27.8224  -11.3121   18.8127 H   0  0  0  0  0  0
  -27.3804  -12.6499   17.7870 H   0  0  0  0  0  0
  -27.7037  -14.2525   19.5767 H   0  0  0  0  0  0
  -28.6787  -11.9664   21.3512 H   0  0  0  0  0  0
  -28.4600  -13.6068   21.8769 H   0  0  0  0  0  0
  -25.2753   -9.5681   22.4767 H   0  0  0  0  0  0
  -23.9970   -7.4638   22.7481 H   0  0  0  0  0  0
  -21.0829   -8.8832   19.8952 H   0  0  0  0  0  0
  -22.3715  -10.9705   19.6183 H   0  0  0  0  0  0
  -21.2034   -7.6148   23.9720 H   0  0  0  0  0  0
  -21.1464   -6.0503   25.9065 H   0  0  0  0  0  0
  -22.0615   -2.7621   23.2815 H   0  0  0  0  0  0
  -22.4053  -11.9939   22.4745 H   0  0  0  0  0  0
  -21.1141  -13.1420   22.2599 H   0  0  0  0  0  0
  -24.6865  -15.8568   20.5375 H   0  0  0  0  0  0
  -26.3124  -15.6228   20.1417 H   0  0  0  0  0  0
  -26.7117  -32.5536   23.1157 H   0  0  0  0  0  0
  -25.0102  -33.9784   25.0516 H   0  0  0  0  0  0
  -22.6915  -31.3052   21.4111 H   0  0  0  0  0  0
  -23.3753  -35.9619   23.3310 H   0  0  0  0  0  0
  -24.3571  -36.8899   22.2051 H   0  0  0  0  0  0
  -23.7219  -37.6500   23.6649 H   0  0  0  0  0  0
  -26.0504  -31.5958   20.6007 H   0  0  0  0  0  0
  -26.8230  -30.8815   21.9877 H   0  0  0  0  0  0
  -28.0999  -29.0719   21.1935 H   0  0  0  0  0  0
  -26.0533  -25.9679   19.0090 H   0  0  0  0  0  0
  -23.9830  -27.3054   19.0173 H   0  0  0  0  0  0
  -23.7200  -30.5990   19.4029 H   0  0  0  0  0  0
  -22.7408  -29.2423   19.8706 H   0  0  0  0  0  0
  -25.1277  -36.1967   25.0835 H   0  0  0  0  0  0
  -20.9945  -28.3240   24.1438 H   0  0  0  0  0  0
  -20.5657  -26.2266   23.3611 H   0  0  0  0  0  0
  -21.6630  -26.7438   22.1223 H   0  0  0  0  0  0
  -19.6896  -25.6291   21.1243 H   0  0  0  0  0  0
  -19.6688  -27.3189   20.6738 H   0  0  0  0  0  0
  -17.4183  -26.6684   21.4008 H   0  0  0  0  0  0
  -18.0296  -26.0067   22.9009 H   0  0  0  0  0  0
  -19.7929  -30.7245   24.2291 H   0  0  0  0  0  0
  -17.5020  -31.6277   24.5140 H   0  0  0  0  0  0
  -15.5347  -30.2997   23.7663 H   0  0  0  0  0  0
  -15.8653  -28.0821   22.7101 H   0  0  0  0  0  0
  -24.5942  -30.7037   25.7836 H   0  0  0  0  0  0
  -24.8964  -32.2849   26.4946 H   0  0  0  0  0  0
  -25.8142  -30.8871   27.0223 H   0  0  0  0  0  0
  -26.2862  -29.6782   24.1186 H   0  0  0  0  0  0
  -27.4133  -29.7289   25.4548 H   0  0  0  0  0  0
  -27.8682  -30.4353   23.9220 H   0  0  0  0  0  0
  -27.2678  -33.3618   26.2078 H   0  0  0  0  0  0
  -28.3874  -32.6885   25.0320 H   0  0  0  0  0  0
  -28.0729  -31.8439   26.5398 H   0  0  0  0  0  0
  -28.2602  -38.0091   24.7523 H   0  0  0  0  0  0
  -28.1067  -36.2626   24.6285 H   0  0  0  0  0  0
  -27.2296  -37.1440   25.8870 H   0  0  0  0  0  0
  -20.9289  -29.8763   21.6964 H   0  0  0  0  0  0
  -26.0174  -38.2869   24.1443 H   0  0  0  0  0  0
  -29.2335  -15.7534   18.5123 H   0  0  0  0  0  0
  -29.8824  -18.0651   22.0969 H   0  0  0  0  0  0
  -28.4955  -16.7321   16.5395 H   0  0  0  0  0  0
  -28.4401  -18.4809   16.3642 H   0  0  0  0  0  0
  -27.0370  -17.6043   16.9927 H   0  0  0  0  0  0
  -26.8762  -19.7985   17.9157 H   0  0  0  0  0  0
  -28.3564  -20.7480   17.7766 H   0  0  0  0  0  0
  -27.3257  -20.8542   19.2152 H   0  0  0  0  0  0
  -29.0257  -24.0913   19.2817 H   0  0  0  0  0  0
  -30.1210  -24.4063   20.6044 H   0  0  0  0  0  0
  -27.6492  -22.5985   20.7415 H   0  0  0  0  0  0
  -28.7027  -22.8967   22.0886 H   0  0  0  0  0  0
  -28.3565  -25.5228   21.8991 H   0  0  0  0  0  0
  -27.1396  -25.0044   20.7834 H   0  0  0  0  0  0
  -30.5541  -21.6840   21.0119 H   0  0  0  0  0  0
  -29.6791  -21.5226   19.5255 H   0  0  0  0  0  0
  -29.2667  -15.2220   21.7407 H   0  0  0  0  0  0
  1 25  1  0  0  0
  1 30  2  0  0  0
  1 83  1  0  0  0
  2  3  1  0  0  0
  2 25  1  0  0  0
  2 85  1  0  0  0
  2 86  1  0  0  0
  3  4  1  0  0  0
  3 87  1  0  0  0
  3 88  1  0  0  0
  4  5  1  0  0  0
  4 89  1  0  0  0
  4 90  1  0  0  0
  5  6  1  0  0  0
  5 26  1  0  0  0
  5 91  1  0  0  0
  6 25  1  0  0  0
  6 92  1  0  0  0
  6 93  1  0  0  0
  7  8  2  0  0  0
  7 26  1  0  0  0
  7 29  1  0  0  0
  8  9  1  0  0  0
  8 22  1  0  0  0
  9 10  1  0  0  0
  9 27  2  0  0  0
 10 11  2  0  0  0
 10 15  1  0  0  0
 11 12  1  0  0  0
 11 94  1  0  0  0
 12 13  2  0  0  0
 12 95  1  0  0  0
 13 14  1  0  0  0
 13 31  1  0  0  0
 14 15  2  0  0  0
 14 96  1  0  0  0
 15 97  1  0  0  0
 16 17  2  0  0  0
 16 21  1  0  0  0
 16 31  1  0  0  0
 17 18  1  0  0  0
 17 98  1  0  0  0
 18 19  2  0  0  0
 18 99  1  0  0  0
 19 20  1  0  0  0
 19 24  1  0  0  0
 20 21  2  0  0  0
 20100  1  0  0  0
 21 23  1  0  0  0
 22 28  1  0  0  0
 22 32  2  0  0  0
 26 27  1  0  0  0
 28101  1  0  0  0
 28102  1  0  0  0
 29103  1  0  0  0
 29104  1  0  0  0
 33 34  1  0  0  0
 33 66  1  0  0  0
 33 70  2  0  0  0
 34 36  1  0  0  0
 34 59  1  0  0  0
 34105  1  0  0  0
 35 44  2  0  0  0
 35 45  1  0  0  0
 35 68  1  0  0  0
 36 56  1  0  0  0
 36106  1  0  0  0
 37 39  1  0  0  0
 37 47  1  0  0  0
 37 66  1  0  0  0
 37107  1  0  0  0
 38 43  2  0  0  0
 38 46  1  0  0  0
 38 47  1  0  0  0
 39 64  1  0  0  0
 39 67  2  0  0  0
 40 52  1  0  0  0
 40 53  2  0  0  0
 40 58  1  0  0  0
 41108  1  0  0  0
 41109  1  0  0  0
 41110  1  0  0  0
 41 48  1  0  0  0
 42 43  1  0  0  0
 42 66  1  0  0  0
 42111  1  0  0  0
 42112  1  0  0  0
 43 44  1  0  0  0
 44113  1  0  0  0
 45 46  2  0  0  0
 45114  1  0  0  0
 46115  1  0  0  0
 47116  1  0  0  0
 47117  1  0  0  0
 48 56  1  0  0  0
 48 65  1  0  0  0
 48118  1  0  0  0
 49 50  1  0  0  0
 49 53  1  0  0  0
 49 64  1  0  0  0
 49119  1  0  0  0
 50 51  1  0  0  0
 50120  1  0  0  0
 50121  1  0  0  0
 51 52  1  0  0  0
 51122  1  0  0  0
 51123  1  0  0  0
 52124  1  0  0  0
 52125  1  0  0  0
 53 54  1  0  0  0
 54 55  2  0  0  0
 54126  1  0  0  0
 55 57  1  0  0  0
 55127  1  0  0  0
 56 69  2  0  0  0
 57 58  2  0  0  0
 57128  1  0  0  0
 58129  1  0  0  0
 59 60  1  0  0  0
 59 61  1  0  0  0
 59 62  1  0  0  0
 60130  1  0  0  0
 60131  1  0  0  0
 60132  1  0  0  0
 61133  1  0  0  0
 61134  1  0  0  0
 61135  1  0  0  0
 62136  1  0  0  0
 62137  1  0  0  0
 62138  1  0  0  0
 63 65  1  0  0  0
 63139  1  0  0  0
 63140  1  0  0  0
 63141  1  0  0  0
 64142  1  0  0  0
 65143  1  0  0  0
 68 81  1  0  0  0
 71 73  2  0  0  0
 71 75  1  0  0  0
 71144  1  0  0  0
 72 75  2  0  0  0
 72 76  1  0  0  0
 72145  1  0  0  0
 73 74  1  0  0  0
 73 77  1  0  0  0
 74 76  2  0  0  0
 74 78  1  0  0  0
 75 83  1  0  0  0
 76 84  1  0  0  0
 77146  1  0  0  0
 77147  1  0  0  0
 77148  1  0  0  0
 78149  1  0  0  0
 78150  1  0  0  0
 78151  1  0  0  0
 79 80  1  0  0  0
 79 81  1  0  0  0
 79152  1  0  0  0
 79153  1  0  0  0
 80 82  1  0  0  0
 80154  1  0  0  0
 80155  1  0  0  0
 81156  1  0  0  0
 81157  1  0  0  0
 82 84  1  0  0  0
 82158  1  0  0  0
 82159  1  0  0  0
 83160  1  0  0  0
M  ISO  4   1 100  68 101  81 101  83 100
M  END
> <chiral flag>
0

> <version>
0

> <s_m_source_file>
/data/baiqing/PycharmProjects/Reinvent-master-3.2/result/LINK_invent/BTK/process_docking_weight1_custom_product_contain_oxygen_bond_distance_aromatic_linkinvent_7_9_3/rearranged_h_0130.sdf

> <i_m_source_file_index>
13

> <r_mmod_Potential_Energy-OPLS-2005>
27.3113040924072

> <r_mmod_Stretch_Energy-OPLS-2005>
46.736083984375

> <r_mmod_Bend_Energy-OPLS-2005>
102.745620727539

> <r_mmod_Torsional_Energy-OPLS-2005>
291.428924560547

> <r_mmod_Improper_Torsional_Energy-OPLS-2005>
6.7493200302124

> <r_mmod_Van_der_Waal_Energy-OPLS-2005>
148.898803710938

> <r_mmod_Electrostatic_Energy-OPLS-2005>
-380.725555419922

> <r_mmod_Solvation_Energy-OPLS-2005>
-207.0576171875

> <b_mmod_Minimization_Converged-OPLS-2005>
0

> <r_mmod_RMS_Derivative-OPLS-2005>
2.32770442962646

$$$$
13
                    3D
 Structure written by MMmdl.
153161  0  0  1  0            999 V2000
  -30.7553  -14.3804   20.6723 C   0  0  0  0  0  0
  -30.4182  -12.2961   19.3920 C   0  0  0  0  0  0
  -29.4827  -12.5229   18.1896 C   0  0  0  0  0  0
  -28.0072  -12.3781   18.6083 C   0  0  0  0  0  0
  -27.6647  -13.2019   19.8774 C   0  0  2  0  0  0
  -28.7035  -12.9438   20.9899 C   0  0  0  0  0  0
  -25.2601  -13.8154   20.5672 C   0  0  0  0  0  0
  -24.1842  -13.0436   20.9161 C   0  0  0  0  0  0
  -24.6389  -11.6901   20.8722 C   0  0  0  0  0  0
  -23.9053  -10.4290   21.0401 C   0  0  0  0  0  0
  -24.3610   -9.4209   21.9181 C   0  0  0  0  0  0
  -23.6288   -8.2242   22.0753 C   0  0  0  0  0  0
  -22.4270   -8.0280   21.3544 C   0  0  0  0  0  0
  -21.9902   -9.0251   20.4646 C   0  0  0  0  0  0
  -22.7226  -10.2131   20.3052 C   0  0  0  0  0  0
  -21.6852   -6.0734   22.5278 C   0  0  0  0  0  0
  -21.4013   -6.5639   23.8211 C   0  0  0  0  0  0
  -21.3658   -5.6791   24.9173 C   0  0  0  0  0  0
  -21.6045   -4.3055   24.7225 C   0  0  0  0  0  0
  -21.8820   -3.8146   23.4346 C   0  0  0  0  0  0
  -21.9192   -4.6962   22.3402 C   0  0  0  0  0  0
  -22.7867  -13.5241   21.1834 C   0  0  0  0  0  0
  -22.1661   -4.2149   21.0980 F   0  0  0  0  0  0
  -21.5630   -3.4539   25.7737 F   0  0  0  0  0  0
  -30.0428  -13.2455   20.4495 N   0  0  0  0  0  0
  -26.3037  -12.9317   20.3370 N   0  0  0  0  0  0
  -25.9314  -11.6479   20.5753 N   0  0  0  0  0  0
  -22.0509  -12.8235   22.0394 N   0  0  0  0  0  0
  -25.4343  -15.1871   20.4097 N   0  0  0  0  0  0
  -31.8036  -14.6509   20.0784 O   0  0  0  0  0  0
  -21.6637   -6.8876   21.4240 O   0  0  0  0  0  0
  -22.3554  -14.5552   20.6689 O   0  0  0  0  0  0
  -24.6127  -31.8695   23.2119 C   0  0  0  0  0  0
  -25.9031  -32.4830   23.8406 C   0  0  1  0  0  0
  -27.2388  -27.4592   20.0664 C   0  0  0  0  0  0
  -25.5895  -33.8628   24.2338 N   0  0  0  0  0  0
  -23.3986  -30.4941   21.5530 C   0  0  2  0  0  0
  -24.8428  -28.9633   20.1154 C   0  0  0  0  0  0
  -22.7396  -29.4665   22.5009 C   0  0  0  0  0  0
  -18.0267  -28.1367   22.8493 C   0  0  0  0  0  0
  -24.1489  -36.7320   23.2638 C   0  0  0  0  0  0
  -25.9263  -30.8384   21.3637 C   0  0  0  0  0  0
  -26.0022  -29.4745   20.7104 C   0  0  0  0  0  0
  -27.1983  -28.7245   20.6932 C   0  0  0  0  0  0
  -26.0497  -26.9457   19.4974 C   0  0  0  0  0  0
  -24.8591  -27.6941   19.5139 C   0  0  0  0  0  0
  -23.6043  -29.8273   20.1672 C   0  0  0  0  0  0
  -25.4108  -36.3116   24.0339 C   0  0  1  0  0  0
  -20.5854  -28.3652   23.1326 C   0  0  2  0  0  0
  -20.6758  -26.9392   22.5415 C   0  0  0  0  0  0
  -19.5739  -26.6380   21.5209 C   0  0  0  0  0  0
  -18.1916  -26.7916   22.1618 C   0  0  0  0  0  0
  -19.1515  -28.8829   23.2905 C   0  0  0  0  0  0
  -18.9444  -30.1438   23.8911 C   0  0  0  0  0  0
  -17.6447  -30.6577   24.0566 C   0  0  0  0  0  0
  -25.9031  -34.9480   23.5135 C   0  0  0  0  0  0
  -16.5339  -29.9077   23.6328 C   0  0  0  0  0  0
  -16.7256  -28.6493   23.0349 C   0  0  0  0  0  0
  -26.4461  -31.6606   25.0728 C   0  0  0  0  0  0
  -25.3733  -31.3702   26.1483 C   0  0  0  0  0  0
  -27.0293  -30.3054   24.6092 C   0  0  0  0  0  0
  -27.6045  -32.4325   25.7478 C   0  0  0  0  0  0
  -27.5583  -37.1812   24.8462 C   0  0  0  0  0  0
  -21.4129  -29.3024   22.3742 N   0  0  0  0  0  0
  -26.4296  -37.3799   23.9408 N   0  0  0  0  0  0
  -24.6642  -31.0811   22.1014 N   0  0  0  0  0  0
  -23.4180  -28.8207   23.3043 O   0  0  0  0  0  0
  -28.4264  -26.7591   20.0727 O   0  0  0  0  0  0
  -26.5588  -34.8929   22.4692 O   0  0  0  0  0  0
  -23.5325  -32.1439   23.7527 O   0  0  0  0  0  0
  -30.7002  -19.3479   19.8266 C   0  0  0  0  0  0
  -31.1120  -18.0368   20.2114 C   0  0  0  0  0  0
  -29.8466  -19.9256   20.7318 C   0  0  0  0  0  0
  -30.5984  -17.6389   21.4203 C   0  0  0  0  0  0
  -29.2915  -21.2445   20.7183 C   0  0  0  0  0  0
  -29.6614  -22.2915   19.9532 C   0  0  0  0  0  0
  -28.9880  -23.6018   20.0290 C   0  0  0  0  0  0
  -30.8913  -16.3749   22.1719 C   0  0  0  0  0  0
  -29.6856  -24.7862   19.3465 C   0  0  0  0  0  0
  -28.7555  -25.9456   18.9413 C   0  0  0  0  0  0
  -30.2506  -15.1893   21.6117 N   0  0  0  0  0  0
  -27.9131  -23.7685   20.6144 O   0  0  0  0  0  0
  -29.5425  -18.8639   22.0826 S   0  0  0  0  0  0
  -31.4604  -12.4021   19.0852 H   0  0  0  0  0  0
  -30.3227  -11.2744   19.7624 H   0  0  0  0  0  0
  -29.7150  -11.8148   17.3932 H   0  0  0  0  0  0
  -29.6510  -13.5177   17.7739 H   0  0  0  0  0  0
  -27.8154  -11.3201   18.7909 H   0  0  0  0  0  0
  -27.3525  -12.6670   17.7852 H   0  0  0  0  0  0
  -27.7221  -14.2557   19.6041 H   0  0  0  0  0  0
  -28.6713  -11.8978   21.2986 H   0  0  0  0  0  0
  -28.4495  -13.5110   21.8853 H   0  0  0  0  0  0
  -25.2757   -9.5686   22.4752 H   0  0  0  0  0  0
  -23.9999   -7.4637   22.7473 H   0  0  0  0  0  0
  -21.0834   -8.8769   19.8953 H   0  0  0  0  0  0
  -22.3687  -10.9670   19.6160 H   0  0  0  0  0  0
  -21.2003   -7.6145   23.9714 H   0  0  0  0  0  0
  -21.1480   -6.0521   25.9076 H   0  0  0  0  0  0
  -22.0600   -2.7609   23.2846 H   0  0  0  0  0  0
  -22.4121  -11.9889   22.4774 H   0  0  0  0  0  0
  -21.1131  -13.1268   22.2609 H   0  0  0  0  0  0
  -24.6734  -15.8480   20.5236 H   0  0  0  0  0  0
  -26.2982  -15.6251   20.1140 H   0  0  0  0  0  0
  -26.7099  -32.5546   23.1170 H   0  0  0  0  0  0
  -25.0073  -33.9797   25.0500 H   0  0  0  0  0  0
  -22.6863  -31.3103   21.4162 H   0  0  0  0  0  0
  -23.3746  -35.9658   23.3310 H   0  0  0  0  0  0
  -24.3583  -36.8923   22.2050 H   0  0  0  0  0  0
  -23.7252  -37.6533   23.6642 H   0  0  0  0  0  0
  -26.0373  -31.6049   20.5956 H   0  0  0  0  0  0
  -26.8149  -30.8902   21.9808 H   0  0  0  0  0  0
  -28.0962  -29.1193   21.1484 H   0  0  0  0  0  0
  -26.0076  -25.9609   19.0588 H   0  0  0  0  0  0
  -23.9619  -27.2856   19.0700 H   0  0  0  0  0  0
  -23.7088  -30.6019   19.4066 H   0  0  0  0  0  0
  -22.7285  -29.2451   19.8742 H   0  0  0  0  0  0
  -25.1284  -36.1982   25.0832 H   0  0  0  0  0  0
  -20.9941  -28.3208   24.1447 H   0  0  0  0  0  0
  -20.5665  -26.2255   23.3596 H   0  0  0  0  0  0
  -21.6631  -26.7440   22.1207 H   0  0  0  0  0  0
  -19.6903  -25.6295   21.1230 H   0  0  0  0  0  0
  -19.6682  -27.3199   20.6746 H   0  0  0  0  0  0
  -17.4190  -26.6673   21.4015 H   0  0  0  0  0  0
  -18.0313  -26.0046   22.9002 H   0  0  0  0  0  0
  -19.7921  -30.7254   24.2282 H   0  0  0  0  0  0
  -17.5001  -31.6261   24.5160 H   0  0  0  0  0  0
  -15.5341  -30.2983   23.7645 H   0  0  0  0  0  0
  -15.8655  -28.0822   22.7050 H   0  0  0  0  0  0
  -24.5909  -30.7040   25.7827 H   0  0  0  0  0  0
  -24.8916  -32.2852   26.4943 H   0  0  0  0  0  0
  -25.8097  -30.8871   27.0235 H   0  0  0  0  0  0
  -26.2832  -29.6815   24.1154 H   0  0  0  0  0  0
  -27.4083  -29.7286   25.4539 H   0  0  0  0  0  0
  -27.8656  -30.4384   23.9224 H   0  0  0  0  0  0
  -27.2672  -33.3617   26.2086 H   0  0  0  0  0  0
  -28.3831  -32.6904   25.0286 H   0  0  0  0  0  0
  -28.0738  -31.8434   26.5366 H   0  0  0  0  0  0
  -28.2605  -38.0105   24.7511 H   0  0  0  0  0  0
  -28.1076  -36.2640   24.6285 H   0  0  0  0  0  0
  -27.2302  -37.1463   25.8865 H   0  0  0  0  0  0
  -20.9287  -29.8752   21.6972 H   0  0  0  0  0  0
  -26.0186  -38.2880   24.1399 H   0  0  0  0  0  0
  -31.0479  -19.8123   18.9142 H   0  0  0  0  0  0
  -31.7914  -17.4492   19.6092 H   0  0  0  0  0  0
  -28.4708  -21.3894   21.4085 H   0  0  0  0  0  0
  -30.4790  -22.1937   19.2549 H   0  0  0  0  0  0
  -30.5583  -16.4770   23.2052 H   0  0  0  0  0  0
  -31.9709  -16.2230   22.2285 H   0  0  0  0  0  0
  -30.1717  -24.4035   18.4492 H   0  0  0  0  0  0
  -30.4815  -25.1512   19.9949 H   0  0  0  0  0  0
  -27.9077  -25.5392   18.3948 H   0  0  0  0  0  0
  -29.2799  -26.5833   18.2290 H   0  0  0  0  0  0
  -29.3874  -14.8928   22.0411 H   0  0  0  0  0  0
  1 25  1  0  0  0
  1 30  2  0  0  0
  1 81  1  0  0  0
  2  3  1  0  0  0
  2 25  1  0  0  0
  2 84  1  0  0  0
  2 85  1  0  0  0
  3  4  1  0  0  0
  3 86  1  0  0  0
  3 87  1  0  0  0
  4  5  1  0  0  0
  4 88  1  0  0  0
  4 89  1  0  0  0
  5  6  1  0  0  0
  5 26  1  0  0  0
  5 90  1  0  0  0
  6 25  1  0  0  0
  6 91  1  0  0  0
  6 92  1  0  0  0
  7  8  2  0  0  0
  7 26  1  0  0  0
  7 29  1  0  0  0
  8  9  1  0  0  0
  8 22  1  0  0  0
  9 10  1  0  0  0
  9 27  2  0  0  0
 10 11  2  0  0  0
 10 15  1  0  0  0
 11 12  1  0  0  0
 11 93  1  0  0  0
 12 13  2  0  0  0
 12 94  1  0  0  0
 13 14  1  0  0  0
 13 31  1  0  0  0
 14 15  2  0  0  0
 14 95  1  0  0  0
 15 96  1  0  0  0
 16 17  2  0  0  0
 16 21  1  0  0  0
 16 31  1  0  0  0
 17 18  1  0  0  0
 17 97  1  0  0  0
 18 19  2  0  0  0
 18 98  1  0  0  0
 19 20  1  0  0  0
 19 24  1  0  0  0
 20 21  2  0  0  0
 20 99  1  0  0  0
 21 23  1  0  0  0
 22 28  1  0  0  0
 22 32  2  0  0  0
 26 27  1  0  0  0
 28100  1  0  0  0
 28101  1  0  0  0
 29102  1  0  0  0
 29103  1  0  0  0
 33 34  1  0  0  0
 33 66  1  0  0  0
 33 70  2  0  0  0
 34 36  1  0  0  0
 34 59  1  0  0  0
 34104  1  0  0  0
 35 44  2  0  0  0
 35 45  1  0  0  0
 35 68  1  0  0  0
 36 56  1  0  0  0
 36105  1  0  0  0
 37 39  1  0  0  0
 37 47  1  0  0  0
 37 66  1  0  0  0
 37106  1  0  0  0
 38 43  2  0  0  0
 38 46  1  0  0  0
 38 47  1  0  0  0
 39 64  1  0  0  0
 39 67  2  0  0  0
 40 52  1  0  0  0
 40 53  2  0  0  0
 40 58  1  0  0  0
 41107  1  0  0  0
 41108  1  0  0  0
 41109  1  0  0  0
 41 48  1  0  0  0
 42 43  1  0  0  0
 42 66  1  0  0  0
 42110  1  0  0  0
 42111  1  0  0  0
 43 44  1  0  0  0
 44112  1  0  0  0
 45 46  2  0  0  0
 45113  1  0  0  0
 46114  1  0  0  0
 47115  1  0  0  0
 47116  1  0  0  0
 48 56  1  0  0  0
 48 65  1  0  0  0
 48117  1  0  0  0
 49 50  1  0  0  0
 49 53  1  0  0  0
 49 64  1  0  0  0
 49118  1  0  0  0
 50 51  1  0  0  0
 50119  1  0  0  0
 50120  1  0  0  0
 51 52  1  0  0  0
 51121  1  0  0  0
 51122  1  0  0  0
 52123  1  0  0  0
 52124  1  0  0  0
 53 54  1  0  0  0
 54 55  2  0  0  0
 54125  1  0  0  0
 55 57  1  0  0  0
 55126  1  0  0  0
 56 69  2  0  0  0
 57 58  2  0  0  0
 57127  1  0  0  0
 58128  1  0  0  0
 59 60  1  0  0  0
 59 61  1  0  0  0
 59 62  1  0  0  0
 60129  1  0  0  0
 60130  1  0  0  0
 60131  1  0  0  0
 61132  1  0  0  0
 61133  1  0  0  0
 61134  1  0  0  0
 62135  1  0  0  0
 62136  1  0  0  0
 62137  1  0  0  0
 63 65  1  0  0  0
 63138  1  0  0  0
 63139  1  0  0  0
 63140  1  0  0  0
 64141  1  0  0  0
 65142  1  0  0  0
 68 80  1  0  0  0
 71 72  1  0  0  0
 71 73  2  0  0  0
 71143  1  0  0  0
 72 74  2  0  0  0
 72144  1  0  0  0
 73 75  1  0  0  0
 73 83  1  0  0  0
 74 78  1  0  0  0
 74 83  1  0  0  0
 75 76  2  0  0  0
 75145  1  0  0  0
 76 77  1  0  0  0
 76146  1  0  0  0
 77 79  1  0  0  0
 77 82  2  0  0  0
 78 81  1  0  0  0
 78147  1  0  0  0
 78148  1  0  0  0
 79 80  1  0  0  0
 79149  1  0  0  0
 79150  1  0  0  0
 80151  1  0  0  0
 80152  1  0  0  0
 81153  1  0  0  0
M  ISO  4   1 100  68 101  80 101  81 100
M  END
> <chiral flag>
0

> <version>
0

> <s_m_source_file>
/data/baiqing/PycharmProjects/Reinvent-master-3.2/result/LINK_invent/BTK/process_docking_weight1_custom_product_contain_oxygen_bond_distance_aromatic_linkinvent_7_9_3/rearranged_h_0130.sdf

> <i_m_source_file_index>
14

> <r_mmod_Potential_Energy-OPLS-2005>
-169.094451904297

> <r_mmod_Stretch_Energy-OPLS-2005>
30.8340110778809

> <r_mmod_Bend_Energy-OPLS-2005>
95.3877868652344

> <r_mmod_Torsional_Energy-OPLS-2005>
191.04850769043

> <r_mmod_Improper_Torsional_Energy-OPLS-2005>
1.99232876300812

> <r_mmod_Van_der_Waal_Energy-OPLS-2005>
133.266677856445

> <r_mmod_Electrostatic_Energy-OPLS-2005>
-402.954345703125

> <r_mmod_Solvation_Energy-OPLS-2005>
-226.442321777344

> <b_mmod_Minimization_Converged-OPLS-2005>
0

> <r_mmod_RMS_Derivative-OPLS-2005>
0.517937958240509

$$$$
14
                    3D
 Structure written by MMmdl.
158166  0  0  1  0            999 V2000
  -30.6992  -14.4948   20.5859 C   0  0  0  0  0  0
  -30.4220  -12.3243   19.4300 C   0  0  0  0  0  0
  -29.5022  -12.5327   18.2077 C   0  0  0  0  0  0
  -28.0189  -12.3907   18.6076 C   0  0  0  0  0  0
  -27.6631  -13.2143   19.8766 C   0  0  2  0  0  0
  -28.7015  -12.9798   20.9955 C   0  0  0  0  0  0
  -25.2591  -13.8163   20.5689 C   0  0  0  0  0  0
  -24.1851  -13.0433   20.9167 C   0  0  0  0  0  0
  -24.6417  -11.6895   20.8711 C   0  0  0  0  0  0
  -23.9087  -10.4286   21.0371 C   0  0  0  0  0  0
  -24.3644   -9.4215   21.9159 C   0  0  0  0  0  0
  -23.6318   -8.2252   22.0753 C   0  0  0  0  0  0
  -22.4301   -8.0290   21.3552 C   0  0  0  0  0  0
  -21.9932   -9.0249   20.4650 C   0  0  0  0  0  0
  -22.7259  -10.2125   20.3032 C   0  0  0  0  0  0
  -21.6855   -6.0748   22.5291 C   0  0  0  0  0  0
  -21.4012   -6.5661   23.8224 C   0  0  0  0  0  0
  -21.3642   -5.6804   24.9192 C   0  0  0  0  0  0
  -21.6037   -4.3068   24.7240 C   0  0  0  0  0  0
  -21.8818   -3.8163   23.4363 C   0  0  0  0  0  0
  -21.9182   -4.6970   22.3417 C   0  0  0  0  0  0
  -22.7862  -13.5206   21.1825 C   0  0  0  0  0  0
  -22.1648   -4.2156   21.0993 F   0  0  0  0  0  0
  -21.5634   -3.4547   25.7747 F   0  0  0  0  0  0
  -30.0341  -13.3062   20.4607 N   0  0  0  0  0  0
  -26.3044  -12.9339   20.3372 N   0  0  0  0  0  0
  -25.9352  -11.6495   20.5741 N   0  0  0  0  0  0
  -22.0500  -12.8208   22.0391 N   0  0  0  0  0  0
  -25.4353  -15.1862   20.4108 N   0  0  0  0  0  0
  -31.8071  -14.6627   20.0645 O   0  0  0  0  0  0
  -21.6669   -6.8890   21.4252 O   0  0  0  0  0  0
  -22.3510  -14.5487   20.6655 O   0  0  0  0  0  0
  -24.6144  -31.8667   23.2071 C   0  0  0  0  0  0
  -25.9044  -32.4820   23.8370 C   0  0  1  0  0  0
  -27.2269  -27.4157   20.1149 C   0  0  0  0  0  0
  -25.5909  -33.8618   24.2312 N   0  0  0  0  0  0
  -23.4009  -30.4889   21.5495 C   0  0  2  0  0  0
  -24.8503  -28.9507   20.1142 C   0  0  0  0  0  0
  -22.7390  -29.4644   22.4993 C   0  0  0  0  0  0
  -18.0262  -28.1361   22.8499 C   0  0  0  0  0  0
  -24.1492  -36.7296   23.2645 C   0  0  0  0  0  0
  -25.9322  -30.8283   21.3625 C   0  0  0  0  0  0
  -26.0097  -29.4598   20.7148 C   0  0  0  0  0  0
  -27.2043  -28.6998   20.7111 C   0  0  0  0  0  0
  -26.0558  -26.9255   19.5041 C   0  0  0  0  0  0
  -24.8700  -27.6857   19.5000 C   0  0  0  0  0  0
  -23.6085  -29.8147   20.1658 C   0  0  0  0  0  0
  -25.4112  -36.3103   24.0349 C   0  0  1  0  0  0
  -20.5847  -28.3650   23.1331 C   0  0  2  0  0  0
  -20.6764  -26.9394   22.5422 C   0  0  0  0  0  0
  -19.5753  -26.6376   21.5211 C   0  0  0  0  0  0
  -18.1915  -26.7920   22.1598 C   0  0  0  0  0  0
  -19.1507  -28.8822   23.2909 C   0  0  0  0  0  0
  -18.9441  -30.1434   23.8905 C   0  0  0  0  0  0
  -17.6449  -30.6592   24.0537 C   0  0  0  0  0  0
  -25.9041  -34.9477   23.5115 C   0  0  0  0  0  0
  -16.5337  -29.9077   23.6338 C   0  0  0  0  0  0
  -16.7252  -28.6482   23.0382 C   0  0  0  0  0  0
  -26.4475  -31.6589   25.0697 C   0  0  0  0  0  0
  -25.3755  -31.3682   26.1458 C   0  0  0  0  0  0
  -27.0317  -30.3034   24.6065 C   0  0  0  0  0  0
  -27.6050  -32.4301   25.7476 C   0  0  0  0  0  0
  -27.5581  -37.1796   24.8461 C   0  0  0  0  0  0
  -21.4119  -29.3017   22.3730 N   0  0  0  0  0  0
  -26.4290  -37.3794   23.9424 N   0  0  0  0  0  0
  -24.6675  -31.0762   22.0977 N   0  0  0  0  0  0
  -23.4160  -28.8179   23.3029 O   0  0  0  0  0  0
  -28.3661  -26.6407   20.1073 O   0  0  0  0  0  0
  -26.5594  -34.8928   22.4667 O   0  0  0  0  0  0
  -23.5338  -32.1406   23.7468 O   0  0  0  0  0  0
  -28.8138  -19.2659   23.4972 C   0  0  0  0  0  0
  -29.2893  -18.1114   22.8518 C   0  0  0  0  0  0
  -28.6254  -20.4584   22.7792 C   0  0  0  0  0  0
  -29.5863  -18.1192   21.4713 C   0  0  0  0  0  0
  -29.3492  -19.3288   20.7341 C   0  0  0  0  0  0
  -28.8880  -20.5156   21.3877 C   0  0  0  0  0  0
  -30.1283  -16.8716   20.8441 C   0  0  0  0  0  0
  -30.0051  -15.5896   21.2826 C   0  0  0  0  0  0
  -28.3567  -24.1397   20.3886 C   0  0  0  0  0  0
  -28.4812  -18.6076   18.4517 C   0  0  0  0  0  0
  -29.5771  -19.3605   19.2223 C   0  0  0  0  0  0
  -28.3519  -25.5434   21.0515 C   0  0  0  0  0  0
  -28.3670  -22.9092   21.3346 C   0  0  0  0  0  0
  -28.3431  -24.0064   19.1593 O   0  0  0  0  0  0
  -28.7149  -21.6847   20.6493 O   0  0  0  0  0  0
  -31.4678  -12.4113   19.1328 H   0  0  0  0  0  0
  -30.3142  -11.3073   19.8142 H   0  0  0  0  0  0
  -29.7557  -11.8226   17.4196 H   0  0  0  0  0  0
  -29.6708  -13.5276   17.7875 H   0  0  0  0  0  0
  -27.8222  -11.3323   18.7831 H   0  0  0  0  0  0
  -27.3724  -12.6791   17.7771 H   0  0  0  0  0  0
  -27.7098  -14.2693   19.5987 H   0  0  0  0  0  0
  -28.6808  -11.9345   21.3043 H   0  0  0  0  0  0
  -28.4416  -13.5402   21.8921 H   0  0  0  0  0  0
  -25.2799   -9.5699   22.4721 H   0  0  0  0  0  0
  -24.0051   -7.4632   22.7467 H   0  0  0  0  0  0
  -21.0868   -8.8743   19.8942 H   0  0  0  0  0  0
  -22.3717  -10.9646   19.6132 H   0  0  0  0  0  0
  -21.2010   -7.6162   23.9736 H   0  0  0  0  0  0
  -21.1455   -6.0540   25.9089 H   0  0  0  0  0  0
  -22.0599   -2.7626   23.2861 H   0  0  0  0  0  0
  -22.4157  -11.9907   22.4817 H   0  0  0  0  0  0
  -21.1097  -13.1197   22.2514 H   0  0  0  0  0  0
  -24.6853  -15.8577   20.5373 H   0  0  0  0  0  0
  -26.3084  -15.6176   20.1315 H   0  0  0  0  0  0
  -26.7120  -32.5526   23.1132 H   0  0  0  0  0  0
  -25.0101  -33.9785   25.0491 H   0  0  0  0  0  0
  -22.6873  -31.3043   21.4105 H   0  0  0  0  0  0
  -23.3776  -35.9598   23.3268 H   0  0  0  0  0  0
  -24.3600  -36.8942   22.2061 H   0  0  0  0  0  0
  -23.7213  -37.6478   23.6686 H   0  0  0  0  0  0
  -26.0469  -31.5916   20.5902 H   0  0  0  0  0  0
  -26.8183  -30.8803   21.9837 H   0  0  0  0  0  0
  -28.0989  -29.0872   21.1788 H   0  0  0  0  0  0
  -26.0631  -25.9534   19.0309 H   0  0  0  0  0  0
  -23.9821  -27.2908   19.0254 H   0  0  0  0  0  0
  -23.7017  -30.5860   19.4009 H   0  0  0  0  0  0
  -22.7332  -29.2263   19.8822 H   0  0  0  0  0  0
  -25.1296  -36.1939   25.0846 H   0  0  0  0  0  0
  -20.9943  -28.3230   24.1450 H   0  0  0  0  0  0
  -20.5672  -26.2259   23.3601 H   0  0  0  0  0  0
  -21.6635  -26.7446   22.1209 H   0  0  0  0  0  0
  -19.6911  -25.6286   21.1246 H   0  0  0  0  0  0
  -19.6724  -27.3176   20.6739 H   0  0  0  0  0  0
  -17.4206  -26.6704   21.3974 H   0  0  0  0  0  0
  -18.0275  -26.0041   22.8960 H   0  0  0  0  0  0
  -19.7934  -30.7236   24.2264 H   0  0  0  0  0  0
  -17.5024  -31.6294   24.5102 H   0  0  0  0  0  0
  -15.5338  -30.2975   23.7691 H   0  0  0  0  0  0
  -15.8650  -28.0803   22.7116 H   0  0  0  0  0  0
  -24.5949  -30.7004   25.7791 H   0  0  0  0  0  0
  -24.8940  -32.2845   26.4899 H   0  0  0  0  0  0
  -25.8131  -30.8863   27.0217 H   0  0  0  0  0  0
  -26.2856  -29.6760   24.1181 H   0  0  0  0  0  0
  -27.4166  -29.7285   25.4496 H   0  0  0  0  0  0
  -27.8652  -30.4343   23.9158 H   0  0  0  0  0  0
  -27.2685  -33.3612   26.2040 H   0  0  0  0  0  0
  -28.3897  -32.6828   25.0335 H   0  0  0  0  0  0
  -28.0686  -31.8436   26.5414 H   0  0  0  0  0  0
  -28.2581  -38.0114   24.7557 H   0  0  0  0  0  0
  -28.1102  -36.2657   24.6230 H   0  0  0  0  0  0
  -27.2322  -37.1341   25.8867 H   0  0  0  0  0  0
  -20.9246  -29.8731   21.6973 H   0  0  0  0  0  0
  -26.0169  -38.2868   24.1432 H   0  0  0  0  0  0
  -28.6031  -19.2400   24.5565 H   0  0  0  0  0  0
  -29.4506  -17.2233   23.4462 H   0  0  0  0  0  0
  -28.2729  -21.3189   23.3290 H   0  0  0  0  0  0
  -30.7215  -17.0253   19.9560 H   0  0  0  0  0  0
  -29.4165  -15.3826   22.1628 H   0  0  0  0  0  0
  -28.6619  -18.6342   17.3771 H   0  0  0  0  0  0
  -27.5018  -19.0505   18.6323 H   0  0  0  0  0  0
  -28.4222  -17.5585   18.7439 H   0  0  0  0  0  0
  -30.5607  -18.9570   18.9830 H   0  0  0  0  0  0
  -29.6148  -20.3888   18.8630 H   0  0  0  0  0  0
  -29.2460  -25.6277   21.6694 H   0  0  0  0  0  0
  -27.5003  -25.6182   21.7283 H   0  0  0  0  0  0
  -27.3737  -22.8063   21.7715 H   0  0  0  0  0  0
  -29.0722  -23.0996   22.1440 H   0  0  0  0  0  0
  1 25  1  0  0  0
  1 30  2  0  0  0
  1 78  1  0  0  0
  2  3  1  0  0  0
  2 25  1  0  0  0
  2 86  1  0  0  0
  2 87  1  0  0  0
  3  4  1  0  0  0
  3 88  1  0  0  0
  3 89  1  0  0  0
  4  5  1  0  0  0
  4 90  1  0  0  0
  4 91  1  0  0  0
  5  6  1  0  0  0
  5 26  1  0  0  0
  5 92  1  0  0  0
  6 25  1  0  0  0
  6 93  1  0  0  0
  6 94  1  0  0  0
  7  8  2  0  0  0
  7 26  1  0  0  0
  7 29  1  0  0  0
  8  9  1  0  0  0
  8 22  1  0  0  0
  9 10  1  0  0  0
  9 27  2  0  0  0
 10 11  2  0  0  0
 10 15  1  0  0  0
 11 12  1  0  0  0
 11 95  1  0  0  0
 12 13  2  0  0  0
 12 96  1  0  0  0
 13 14  1  0  0  0
 13 31  1  0  0  0
 14 15  2  0  0  0
 14 97  1  0  0  0
 15 98  1  0  0  0
 16 17  2  0  0  0
 16 21  1  0  0  0
 16 31  1  0  0  0
 17 18  1  0  0  0
 17 99  1  0  0  0
 18 19  2  0  0  0
 18100  1  0  0  0
 19 20  1  0  0  0
 19 24  1  0  0  0
 20 21  2  0  0  0
 20101  1  0  0  0
 21 23  1  0  0  0
 22 28  1  0  0  0
 22 32  2  0  0  0
 26 27  1  0  0  0
 28102  1  0  0  0
 28103  1  0  0  0
 29104  1  0  0  0
 29105  1  0  0  0
 33 34  1  0  0  0
 33 66  1  0  0  0
 33 70  2  0  0  0
 34 36  1  0  0  0
 34 59  1  0  0  0
 34106  1  0  0  0
 35 44  2  0  0  0
 35 45  1  0  0  0
 35 68  1  0  0  0
 36 56  1  0  0  0
 36107  1  0  0  0
 37 39  1  0  0  0
 37 47  1  0  0  0
 37 66  1  0  0  0
 37108  1  0  0  0
 38 43  2  0  0  0
 38 46  1  0  0  0
 38 47  1  0  0  0
 39 64  1  0  0  0
 39 67  2  0  0  0
 40 52  1  0  0  0
 40 53  2  0  0  0
 40 58  1  0  0  0
 41109  1  0  0  0
 41110  1  0  0  0
 41111  1  0  0  0
 41 48  1  0  0  0
 42 43  1  0  0  0
 42 66  1  0  0  0
 42112  1  0  0  0
 42113  1  0  0  0
 43 44  1  0  0  0
 44114  1  0  0  0
 45 46  2  0  0  0
 45115  1  0  0  0
 46116  1  0  0  0
 47117  1  0  0  0
 47118  1  0  0  0
 48 56  1  0  0  0
 48 65  1  0  0  0
 48119  1  0  0  0
 49 50  1  0  0  0
 49 53  1  0  0  0
 49 64  1  0  0  0
 49120  1  0  0  0
 50 51  1  0  0  0
 50121  1  0  0  0
 50122  1  0  0  0
 51 52  1  0  0  0
 51123  1  0  0  0
 51124  1  0  0  0
 52125  1  0  0  0
 52126  1  0  0  0
 53 54  1  0  0  0
 54 55  2  0  0  0
 54127  1  0  0  0
 55 57  1  0  0  0
 55128  1  0  0  0
 56 69  2  0  0  0
 57 58  2  0  0  0
 57129  1  0  0  0
 58130  1  0  0  0
 59 60  1  0  0  0
 59 61  1  0  0  0
 59 62  1  0  0  0
 60131  1  0  0  0
 60132  1  0  0  0
 60133  1  0  0  0
 61134  1  0  0  0
 61135  1  0  0  0
 61136  1  0  0  0
 62137  1  0  0  0
 62138  1  0  0  0
 62139  1  0  0  0
 63 65  1  0  0  0
 63140  1  0  0  0
 63141  1  0  0  0
 63142  1  0  0  0
 64143  1  0  0  0
 65144  1  0  0  0
 68 82  1  0  0  0
 71 72  2  0  0  0
 71 73  1  0  0  0
 71145  1  0  0  0
 72 74  1  0  0  0
 72146  1  0  0  0
 73 76  2  0  0  0
 73147  1  0  0  0
 74 75  2  0  0  0
 74 77  1  0  0  0
 75 76  1  0  0  0
 75 81  1  0  0  0
 76 85  1  0  0  0
 77 78  2  0  0  0
 77148  1  0  0  0
 78149  1  0  0  0
 79 82  1  0  0  0
 79 83  1  0  0  0
 79 84  2  0  0  0
 80 81  1  0  0  0
 80150  1  0  0  0
 80151  1  0  0  0
 80152  1  0  0  0
 81153  1  0  0  0
 81154  1  0  0  0
 82155  1  0  0  0
 82156  1  0  0  0
 83 85  1  0  0  0
 83157  1  0  0  0
 83158  1  0  0  0
M  ISO  4   1 100  68 101  78 100  82 101
M  END
> <chiral flag>
0

> <version>
0

> <s_m_source_file>
/data/baiqing/PycharmProjects/Reinvent-master-3.2/result/LINK_invent/BTK/process_docking_weight1_custom_product_contain_oxygen_bond_distance_aromatic_linkinvent_7_9_3/rearranged_h_0130.sdf

> <i_m_source_file_index>
15

> <r_mmod_Potential_Energy-OPLS-2005>
8.45816516876221

> <r_mmod_Stretch_Energy-OPLS-2005>
49.4282417297363

> <r_mmod_Bend_Energy-OPLS-2005>
101.783622741699

> <r_mmod_Torsional_Energy-OPLS-2005>
208.534942626953

> <r_mmod_Improper_Torsional_Energy-OPLS-2005>
2.67891883850098

> <r_mmod_Van_der_Waal_Energy-OPLS-2005>
153.614120483398

> <r_mmod_Electrostatic_Energy-OPLS-2005>
-300.862152099609

> <r_mmod_Solvation_Energy-OPLS-2005>
-221.025543212891

> <b_mmod_Minimization_Converged-OPLS-2005>
0

> <r_mmod_RMS_Derivative-OPLS-2005>
3.45040202140808

$$$$
15
                    3D
 Structure written by MMmdl.
162170  0  0  1  0            999 V2000
  -30.6387  -14.4859   20.4055 C   0  0  0  0  0  0
  -30.4334  -12.2731   19.3876 C   0  0  0  0  0  0
  -29.4861  -12.4482   18.1808 C   0  0  0  0  0  0
  -28.0074  -12.3183   18.6131 C   0  0  0  0  0  0
  -27.6503  -13.1818   19.8524 C   0  0  2  0  0  0
  -28.7151  -13.0075   20.9636 C   0  0  0  0  0  0
  -25.2636  -13.8104   20.5721 C   0  0  0  0  0  0
  -24.1854  -13.0410   20.9187 C   0  0  0  0  0  0
  -24.6351  -11.6874   20.8738 C   0  0  0  0  0  0
  -23.8996  -10.4278   21.0405 C   0  0  0  0  0  0
  -24.3555   -9.4208   21.9182 C   0  0  0  0  0  0
  -23.6262   -8.2233   22.0741 C   0  0  0  0  0  0
  -22.4247   -8.0256   21.3539 C   0  0  0  0  0  0
  -21.9866   -9.0224   20.4633 C   0  0  0  0  0  0
  -22.7169  -10.2123   20.3048 C   0  0  0  0  0  0
  -21.6853   -6.0709   22.5270 C   0  0  0  0  0  0
  -21.4008   -6.5616   23.8199 C   0  0  0  0  0  0
  -21.3658   -5.6781   24.9167 C   0  0  0  0  0  0
  -21.6049   -4.3044   24.7232 C   0  0  0  0  0  0
  -21.8827   -3.8125   23.4354 C   0  0  0  0  0  0
  -21.9197   -4.6936   22.3404 C   0  0  0  0  0  0
  -22.7874  -13.5252   21.1838 C   0  0  0  0  0  0
  -22.1668   -4.2119   21.0986 F   0  0  0  0  0  0
  -21.5636   -3.4527   25.7747 F   0  0  0  0  0  0
  -30.0417  -13.2715   20.3803 N   0  0  0  0  0  0
  -26.3004  -12.9181   20.3353 N   0  0  0  0  0  0
  -25.9282  -11.6377   20.5797 N   0  0  0  0  0  0
  -22.0493  -12.8280   22.0388 N   0  0  0  0  0  0
  -25.4436  -15.1814   20.4174 N   0  0  0  0  0  0
  -31.8492  -14.6773   20.3073 O   0  0  0  0  0  0
  -21.6632   -6.8846   21.4230 O   0  0  0  0  0  0
  -22.3585  -14.5568   20.6684 O   0  0  0  0  0  0
  -24.6141  -31.8689   23.2130 C   0  0  0  0  0  0
  -25.9037  -32.4827   23.8435 C   0  0  1  0  0  0
  -27.2408  -27.4609   20.0888 C   0  0  0  0  0  0
  -25.5940  -33.8625   24.2378 N   0  0  0  0  0  0
  -23.4012  -30.4927   21.5551 C   0  0  2  0  0  0
  -24.8462  -28.9535   20.1239 C   0  0  0  0  0  0
  -22.7425  -29.4699   22.5069 C   0  0  0  0  0  0
  -18.0271  -28.1285   22.8682 C   0  0  0  0  0  0
  -24.1491  -36.7334   23.2637 C   0  0  0  0  0  0
  -25.9258  -30.8419   21.3594 C   0  0  0  0  0  0
  -26.0048  -29.4723   20.7187 C   0  0  0  0  0  0
  -27.2069  -28.7301   20.7026 C   0  0  0  0  0  0
  -26.0730  -26.9543   19.4860 C   0  0  0  0  0  0
  -24.8729  -27.6898   19.5075 C   0  0  0  0  0  0
  -23.6048  -29.8140   20.1743 C   0  0  0  0  0  0
  -25.4115  -36.3126   24.0350 C   0  0  1  0  0  0
  -20.5894  -28.3597   23.1238 C   0  0  2  0  0  0
  -20.6911  -26.9530   22.4885 C   0  0  0  0  0  0
  -19.5529  -26.6491   21.5082 C   0  0  0  0  0  0
  -18.1961  -26.7748   22.2029 C   0  0  0  0  0  0
  -19.1553  -28.8768   23.2945 C   0  0  0  0  0  0
  -18.9536  -30.1424   23.8859 C   0  0  0  0  0  0
  -17.6534  -30.6588   24.0541 C   0  0  0  0  0  0
  -25.9058  -34.9470   23.5150 C   0  0  0  0  0  0
  -16.5410  -29.9091   23.6346 C   0  0  0  0  0  0
  -16.7278  -28.6440   23.0468 C   0  0  0  0  0  0
  -26.4458  -31.6584   25.0739 C   0  0  0  0  0  0
  -25.3725  -31.3667   26.1487 C   0  0  0  0  0  0
  -27.0273  -30.3043   24.6060 C   0  0  0  0  0  0
  -27.6045  -32.4274   25.7514 C   0  0  0  0  0  0
  -27.5585  -37.1806   24.8471 C   0  0  0  0  0  0
  -21.4135  -29.3185   22.3905 N   0  0  0  0  0  0
  -26.4309  -37.3812   23.9413 N   0  0  0  0  0  0
  -24.6659  -31.0820   22.1015 N   0  0  0  0  0  0
  -23.4201  -28.8149   23.3022 O   0  0  0  0  0  0
  -28.4079  -26.7470   19.9851 O   0  0  0  0  0  0
  -26.5571  -34.8900   22.4671 O   0  0  0  0  0  0
  -23.5332  -32.1447   23.7534 O   0  0  0  0  0  0
  -29.1113  -18.1373   22.4260 C   0  0  0  0  0  0
  -29.6740  -16.9888   21.8466 C   0  0  0  0  0  0
  -28.2250  -18.8080   20.2635 C   0  0  0  0  0  0
  -28.3544  -19.0405   21.6496 C   0  0  0  0  0  0
  -28.7554  -17.6371   19.6673 C   0  0  0  0  0  0
  -29.4647  -16.7076   20.4827 C   0  0  0  0  0  0
  -26.9337  -22.5972   22.0847 C   0  0  0  0  0  0
  -27.7564  -21.5810   21.7489 C   0  0  0  0  0  0
  -27.0712  -23.9858   21.6071 C   0  0  0  0  0  0
  -27.1139  -17.6647   17.6784 C   0  0  0  0  0  0
  -27.6043  -20.1804   22.3336 C   0  0  0  0  0  0
  -28.5465  -17.4015   18.1652 C   0  0  0  0  0  0
  -28.3371  -24.4297   20.8623 C   0  0  0  0  0  0
  -28.7464  -25.9060   21.0853 C   0  0  0  0  0  0
  -29.7879  -15.4269   19.9666 N   0  0  0  0  0  0
  -26.1747  -24.8060   21.8168 O   0  0  0  0  0  0
  -31.4740  -12.3842   19.0804 H   0  0  0  0  0  0
  -30.3426  -11.2708   19.8071 H   0  0  0  0  0  0
  -29.7099  -11.7012   17.4187 H   0  0  0  0  0  0
  -29.6500  -13.4175   17.7063 H   0  0  0  0  0  0
  -27.8255  -11.2665   18.8366 H   0  0  0  0  0  0
  -27.3470  -12.5643   17.7792 H   0  0  0  0  0  0
  -27.6486  -14.2127   19.5085 H   0  0  0  0  0  0
  -28.6940  -11.9933   21.3652 H   0  0  0  0  0  0
  -28.5210  -13.6822   21.7994 H   0  0  0  0  0  0
  -25.2690   -9.5716   22.4756 H   0  0  0  0  0  0
  -23.9977   -7.4635   22.7460 H   0  0  0  0  0  0
  -21.0791   -8.8721   19.8950 H   0  0  0  0  0  0
  -22.3588  -10.9655   19.6163 H   0  0  0  0  0  0
  -21.1979   -7.6118   23.9696 H   0  0  0  0  0  0
  -21.1479   -6.0506   25.9076 H   0  0  0  0  0  0
  -22.0604   -2.7580   23.2864 H   0  0  0  0  0  0
  -22.4069  -11.9932   22.4792 H   0  0  0  0  0  0
  -21.1112  -13.1335   22.2575 H   0  0  0  0  0  0
  -24.6890  -15.8462   20.5445 H   0  0  0  0  0  0
  -26.3227  -15.6252   20.1869 H   0  0  0  0  0  0
  -26.7111  -32.5584   23.1213 H   0  0  0  0  0  0
  -25.0144  -33.9813   25.0566 H   0  0  0  0  0  0
  -22.6906  -31.3110   21.4140 H   0  0  0  0  0  0
  -23.3745  -35.9682   23.3309 H   0  0  0  0  0  0
  -24.3583  -36.8920   22.2049 H   0  0  0  0  0  0
  -23.7229  -37.6546   23.6625 H   0  0  0  0  0  0
  -26.0245  -31.5994   20.5816 H   0  0  0  0  0  0
  -26.8224  -30.9075   21.9641 H   0  0  0  0  0  0
  -28.1052  -29.1351   21.1450 H   0  0  0  0  0  0
  -26.0965  -25.9903   19.0011 H   0  0  0  0  0  0
  -23.9864  -27.2801   19.0416 H   0  0  0  0  0  0
  -23.6970  -30.5778   19.4017 H   0  0  0  0  0  0
  -22.7334  -29.2178   19.8972 H   0  0  0  0  0  0
  -25.1261  -36.2021   25.0851 H   0  0  0  0  0  0
  -21.0002  -28.2827   24.1320 H   0  0  0  0  0  0
  -20.6548  -26.2109   23.2886 H   0  0  0  0  0  0
  -21.6547  -26.8101   21.9960 H   0  0  0  0  0  0
  -19.6694  -25.6462   21.0929 H   0  0  0  0  0  0
  -19.5972  -27.3451   20.6689 H   0  0  0  0  0  0
  -17.3904  -26.6012   21.4876 H   0  0  0  0  0  0
  -18.1046  -26.0039   22.9691 H   0  0  0  0  0  0
  -19.8058  -30.7268   24.2071 H   0  0  0  0  0  0
  -17.5155  -31.6351   24.4977 H   0  0  0  0  0  0
  -15.5422  -30.3011   23.7643 H   0  0  0  0  0  0
  -15.8673  -28.0658   22.7328 H   0  0  0  0  0  0
  -24.5897  -30.7026   25.7798 H   0  0  0  0  0  0
  -24.8924  -32.2817   26.4968 H   0  0  0  0  0  0
  -25.8090  -30.8793   27.0213 H   0  0  0  0  0  0
  -26.2774  -29.6781   24.1209 H   0  0  0  0  0  0
  -27.4163  -29.7303   25.4472 H   0  0  0  0  0  0
  -27.8566  -30.4384   23.9117 H   0  0  0  0  0  0
  -27.2693  -33.3566   26.2133 H   0  0  0  0  0  0
  -28.3874  -32.6803   25.0355 H   0  0  0  0  0  0
  -28.0697  -31.8345   26.5399 H   0  0  0  0  0  0
  -28.2603  -38.0099   24.7537 H   0  0  0  0  0  0
  -28.1077  -36.2617   24.6302 H   0  0  0  0  0  0
  -27.2295  -37.1487   25.8874 H   0  0  0  0  0  0
  -20.9203  -29.9182   21.7443 H   0  0  0  0  0  0
  -26.0202  -38.2909   24.1375 H   0  0  0  0  0  0
  -29.2238  -18.2876   23.4889 H   0  0  0  0  0  0
  -30.2004  -16.2840   22.4772 H   0  0  0  0  0  0
  -27.6678  -19.5149   19.6608 H   0  0  0  0  0  0
  -26.1186  -22.4076   22.7662 H   0  0  0  0  0  0
  -28.5839  -21.7186   21.0706 H   0  0  0  0  0  0
  -27.0130  -17.4091   16.6244 H   0  0  0  0  0  0
  -26.8294  -18.7119   17.7758 H   0  0  0  0  0  0
  -26.3926  -17.0666   18.2325 H   0  0  0  0  0  0
  -27.9287  -20.2309   23.3755 H   0  0  0  0  0  0
  -26.5427  -19.9227   22.3730 H   0  0  0  0  0  0
  -28.8074  -16.3846   17.8755 H   0  0  0  0  0  0
  -29.2388  -18.0431   17.6191 H   0  0  0  0  0  0
  -28.2224  -24.2152   19.7997 H   0  0  0  0  0  0
  -29.1582  -23.8083   21.2147 H   0  0  0  0  0  0
  -29.8340  -25.9416   21.1691 H   0  0  0  0  0  0
  -28.3697  -26.3069   22.0284 H   0  0  0  0  0  0
  -29.0327  -15.0206   19.4401 H   0  0  0  0  0  0
  1 25  1  0  0  0
  1 30  2  0  0  0
  1 85  1  0  0  0
  2  3  1  0  0  0
  2 25  1  0  0  0
  2 87  1  0  0  0
  2 88  1  0  0  0
  3  4  1  0  0  0
  3 89  1  0  0  0
  3 90  1  0  0  0
  4  5  1  0  0  0
  4 91  1  0  0  0
  4 92  1  0  0  0
  5  6  1  0  0  0
  5 26  1  0  0  0
  5 93  1  0  0  0
  6 25  1  0  0  0
  6 94  1  0  0  0
  6 95  1  0  0  0
  7  8  2  0  0  0
  7 26  1  0  0  0
  7 29  1  0  0  0
  8  9  1  0  0  0
  8 22  1  0  0  0
  9 10  1  0  0  0
  9 27  2  0  0  0
 10 11  2  0  0  0
 10 15  1  0  0  0
 11 12  1  0  0  0
 11 96  1  0  0  0
 12 13  2  0  0  0
 12 97  1  0  0  0
 13 14  1  0  0  0
 13 31  1  0  0  0
 14 15  2  0  0  0
 14 98  1  0  0  0
 15 99  1  0  0  0
 16 17  2  0  0  0
 16 21  1  0  0  0
 16 31  1  0  0  0
 17 18  1  0  0  0
 17100  1  0  0  0
 18 19  2  0  0  0
 18101  1  0  0  0
 19 20  1  0  0  0
 19 24  1  0  0  0
 20 21  2  0  0  0
 20102  1  0  0  0
 21 23  1  0  0  0
 22 28  1  0  0  0
 22 32  2  0  0  0
 26 27  1  0  0  0
 28103  1  0  0  0
 28104  1  0  0  0
 29105  1  0  0  0
 29106  1  0  0  0
 33 34  1  0  0  0
 33 66  1  0  0  0
 33 70  2  0  0  0
 34 36  1  0  0  0
 34 59  1  0  0  0
 34107  1  0  0  0
 35 44  2  0  0  0
 35 45  1  0  0  0
 35 68  1  0  0  0
 36 56  1  0  0  0
 36108  1  0  0  0
 37 39  1  0  0  0
 37 47  1  0  0  0
 37 66  1  0  0  0
 37109  1  0  0  0
 38 43  2  0  0  0
 38 46  1  0  0  0
 38 47  1  0  0  0
 39 64  1  0  0  0
 39 67  2  0  0  0
 40 52  1  0  0  0
 40 53  2  0  0  0
 40 58  1  0  0  0
 41110  1  0  0  0
 41111  1  0  0  0
 41112  1  0  0  0
 41 48  1  0  0  0
 42 43  1  0  0  0
 42 66  1  0  0  0
 42113  1  0  0  0
 42114  1  0  0  0
 43 44  1  0  0  0
 44115  1  0  0  0
 45 46  2  0  0  0
 45116  1  0  0  0
 46117  1  0  0  0
 47118  1  0  0  0
 47119  1  0  0  0
 48 56  1  0  0  0
 48 65  1  0  0  0
 48120  1  0  0  0
 49 50  1  0  0  0
 49 53  1  0  0  0
 49 64  1  0  0  0
 49121  1  0  0  0
 50 51  1  0  0  0
 50122  1  0  0  0
 50123  1  0  0  0
 51 52  1  0  0  0
 51124  1  0  0  0
 51125  1  0  0  0
 52126  1  0  0  0
 52127  1  0  0  0
 53 54  1  0  0  0
 54 55  2  0  0  0
 54128  1  0  0  0
 55 57  1  0  0  0
 55129  1  0  0  0
 56 69  2  0  0  0
 57 58  2  0  0  0
 57130  1  0  0  0
 58131  1  0  0  0
 59 60  1  0  0  0
 59 61  1  0  0  0
 59 62  1  0  0  0
 60132  1  0  0  0
 60133  1  0  0  0
 60134  1  0  0  0
 61135  1  0  0  0
 61136  1  0  0  0
 61137  1  0  0  0
 62138  1  0  0  0
 62139  1  0  0  0
 62140  1  0  0  0
 63 65  1  0  0  0
 63141  1  0  0  0
 63142  1  0  0  0
 63143  1  0  0  0
 64144  1  0  0  0
 65145  1  0  0  0
 68 84  1  0  0  0
 71 72  2  0  0  0
 71 74  1  0  0  0
 71146  1  0  0  0
 72 76  1  0  0  0
 72147  1  0  0  0
 73 74  2  0  0  0
 73 75  1  0  0  0
 73148  1  0  0  0
 74 81  1  0  0  0
 75 76  2  0  0  0
 75 82  1  0  0  0
 76 85  1  0  0  0
 77 78  2  0  0  0
 77 79  1  0  0  0
 77149  1  0  0  0
 78 81  1  0  0  0
 78150  1  0  0  0
 79 83  1  0  0  0
 79 86  2  0  0  0
 80 82  1  0  0  0
 80151  1  0  0  0
 80152  1  0  0  0
 80153  1  0  0  0
 81154  1  0  0  0
 81155  1  0  0  0
 82156  1  0  0  0
 82157  1  0  0  0
 83 84  1  0  0  0
 83158  1  0  0  0
 83159  1  0  0  0
 84160  1  0  0  0
 84161  1  0  0  0
 85162  1  0  0  0
M  ISO  4   1 100  68 101  84 101  85 100
M  END
> <chiral flag>
0

> <version>
0

> <s_m_source_file>
/data/baiqing/PycharmProjects/Reinvent-master-3.2/result/LINK_invent/BTK/process_docking_weight1_custom_product_contain_oxygen_bond_distance_aromatic_linkinvent_7_9_3/rearranged_h_0130.sdf

> <i_m_source_file_index>
16

> <r_mmod_Potential_Energy-OPLS-2005>
8.70526123046875

> <r_mmod_Stretch_Energy-OPLS-2005>
33.469596862793

> <r_mmod_Bend_Energy-OPLS-2005>
105.205543518066

> <r_mmod_Torsional_Energy-OPLS-2005>
292.955627441406

> <r_mmod_Improper_Torsional_Energy-OPLS-2005>
21.7430458068848

> <r_mmod_Van_der_Waal_Energy-OPLS-2005>
142.068954467773

> <r_mmod_Electrostatic_Energy-OPLS-2005>
-395.929168701172

> <r_mmod_Solvation_Energy-OPLS-2005>
-217.320358276367

> <b_mmod_Minimization_Converged-OPLS-2005>
0

> <r_mmod_RMS_Derivative-OPLS-2005>
5.76933145523071

$$$$
16
                    3D
 Structure written by MMmdl.
163171  0  0  1  0            999 V2000
  -30.7557  -14.5626   20.4667 C   0  0  0  0  0  0
  -30.3928  -12.3340   19.4818 C   0  0  0  0  0  0
  -29.5033  -12.4875   18.2341 C   0  0  0  0  0  0
  -28.0213  -12.3593   18.6287 C   0  0  0  0  0  0
  -27.6450  -13.2396   19.8525 C   0  0  2  0  0  0
  -28.6856  -13.1523   20.9882 C   0  0  0  0  0  0
  -25.2524  -13.8230   20.5688 C   0  0  0  0  0  0
  -24.1813  -13.0470   20.9175 C   0  0  0  0  0  0
  -24.6407  -11.6944   20.8725 C   0  0  0  0  0  0
  -23.9078  -10.4312   21.0381 C   0  0  0  0  0  0
  -24.3628   -9.4227   21.9162 C   0  0  0  0  0  0
  -23.6308   -8.2262   22.0745 C   0  0  0  0  0  0
  -22.4291   -8.0286   21.3536 C   0  0  0  0  0  0
  -21.9921   -9.0252   20.4637 C   0  0  0  0  0  0
  -22.7242  -10.2140   20.3039 C   0  0  0  0  0  0
  -21.6863   -6.0734   22.5268 C   0  0  0  0  0  0
  -21.4017   -6.5636   23.8201 C   0  0  0  0  0  0
  -21.3663   -5.6789   24.9164 C   0  0  0  0  0  0
  -21.6044   -4.3052   24.7215 C   0  0  0  0  0  0
  -21.8821   -3.8144   23.4338 C   0  0  0  0  0  0
  -21.9202   -4.6961   22.3394 C   0  0  0  0  0  0
  -22.7830  -13.5242   21.1816 C   0  0  0  0  0  0
  -22.1660   -4.2146   21.0968 F   0  0  0  0  0  0
  -21.5639   -3.4534   25.7724 F   0  0  0  0  0  0
  -30.0095  -13.4151   20.4175 N   0  0  0  0  0  0
  -26.2960  -12.9462   20.3287 N   0  0  0  0  0  0
  -25.9340  -11.6592   20.5743 N   0  0  0  0  0  0
  -22.0464  -12.8257   22.0384 N   0  0  0  0  0  0
  -25.4251  -15.1955   20.4110 N   0  0  0  0  0  0
  -31.9498  -14.4789   20.1755 O   0  0  0  0  0  0
  -21.6656   -6.8884   21.4231 O   0  0  0  0  0  0
  -22.3510  -14.5527   20.6638 O   0  0  0  0  0  0
  -24.6220  -31.8640   23.2095 C   0  0  0  0  0  0
  -25.9093  -32.4788   23.8397 C   0  0  1  0  0  0
  -27.2071  -27.3576   20.1111 C   0  0  0  0  0  0
  -25.5930  -33.8591   24.2327 N   0  0  0  0  0  0
  -23.4113  -30.4951   21.5477 C   0  0  2  0  0  0
  -24.8538  -28.9596   20.1066 C   0  0  0  0  0  0
  -22.7432  -29.4680   22.4921 C   0  0  0  0  0  0
  -18.0274  -28.1380   22.8481 C   0  0  0  0  0  0
  -24.1499  -36.7303   23.2638 C   0  0  0  0  0  0
  -25.9500  -30.8062   21.3760 C   0  0  0  0  0  0
  -26.0205  -29.4390   20.7150 C   0  0  0  0  0  0
  -27.2018  -28.6471   20.7123 C   0  0  0  0  0  0
  -26.0239  -26.9305   19.4629 C   0  0  0  0  0  0
  -24.8557  -27.7101   19.4720 C   0  0  0  0  0  0
  -23.6234  -29.8394   20.1588 C   0  0  0  0  0  0
  -25.4120  -36.3095   24.0338 C   0  0  1  0  0  0
  -20.5867  -28.3711   23.1268 C   0  0  2  0  0  0
  -20.6772  -26.9440   22.5391 C   0  0  0  0  0  0
  -19.5758  -26.6399   21.5189 C   0  0  0  0  0  0
  -18.1937  -26.7933   22.1598 C   0  0  0  0  0  0
  -19.1522  -28.8865   23.2876 C   0  0  0  0  0  0
  -18.9443  -30.1450   23.8918 C   0  0  0  0  0  0
  -17.6451  -30.6597   24.0558 C   0  0  0  0  0  0
  -25.9056  -34.9456   23.5128 C   0  0  0  0  0  0
  -16.5341  -29.9095   23.6319 C   0  0  0  0  0  0
  -16.7261  -28.6496   23.0371 C   0  0  0  0  0  0
  -26.4506  -31.6558   25.0725 C   0  0  0  0  0  0
  -25.3759  -31.3636   26.1452 C   0  0  0  0  0  0
  -27.0336  -30.2991   24.6131 C   0  0  0  0  0  0
  -27.6091  -32.4269   25.7480 C   0  0  0  0  0  0
  -27.5591  -37.1808   24.8467 C   0  0  0  0  0  0
  -21.4151  -29.3080   22.3674 N   0  0  0  0  0  0
  -26.4304  -37.3782   23.9404 N   0  0  0  0  0  0
  -24.6791  -31.0702   22.1016 N   0  0  0  0  0  0
  -23.4176  -28.8200   23.2966 O   0  0  0  0  0  0
  -28.3171  -26.5169   20.1821 O   0  0  0  0  0  0
  -26.5613  -34.8906   22.4691 O   0  0  0  0  0  0
  -23.5399  -32.1429   23.7458 O   0  0  0  0  0  0
  -32.1957  -19.0283   19.9635 C   0  0  0  0  0  0
  -29.8460  -19.4582   20.3108 C   0  0  0  0  0  0
  -30.9196  -18.5101   20.2801 C   0  0  0  0  0  0
  -31.3571  -21.2943   19.5927 C   0  0  0  0  0  0
  -32.4287  -20.3622   19.5959 C   0  0  0  0  0  0
  -30.0562  -20.8507   19.9888 C   0  0  0  0  0  0
  -30.9542  -16.9977   20.4228 C   0  0  0  0  0  0
  -30.1205  -15.9150   20.5855 C   0  0  0  0  0  0
  -31.5564  -22.6737   19.0320 C   0  0  0  0  0  0
  -29.0592  -24.1507   20.7760 C   0  0  0  0  0  0
  -33.8452  -20.7010   19.1397 C   0  0  0  0  0  0
  -33.6718  -24.0809   18.5657 C   0  0  0  0  0  0
  -32.6721  -23.5556   19.6139 C   0  0  0  0  0  0
  -28.0406  -25.0781   20.0571 C   0  0  0  0  0  0
  -28.7151  -22.6402   21.0180 C   0  0  0  0  0  0
  -30.8322  -23.1500   18.1524 O   0  0  0  0  0  0
  -30.1082  -24.6175   21.2292 O   0  0  0  0  0  0
  -28.9836  -21.7408   19.9091 O   0  0  0  0  0  0
  -31.4455  -12.3543   19.1947 H   0  0  0  0  0  0
  -30.2434  -11.3576   19.9439 H   0  0  0  0  0  0
  -29.7621  -11.7343   17.4882 H   0  0  0  0  0  0
  -29.6847  -13.4590   17.7719 H   0  0  0  0  0  0
  -27.8310  -11.3090   18.8505 H   0  0  0  0  0  0
  -27.3848  -12.6079   17.7792 H   0  0  0  0  0  0
  -27.6523  -14.2695   19.4965 H   0  0  0  0  0  0
  -28.6679  -12.1614   21.4450 H   0  0  0  0  0  0
  -28.4562  -13.8613   21.7839 H   0  0  0  0  0  0
  -25.2765   -9.5730   22.4742 H   0  0  0  0  0  0
  -24.0011   -7.4678   22.7496 H   0  0  0  0  0  0
  -21.0838   -8.8764   19.8966 H   0  0  0  0  0  0
  -22.3663  -10.9674   19.6161 H   0  0  0  0  0  0
  -21.1993   -7.6142   23.9704 H   0  0  0  0  0  0
  -21.1486   -6.0513   25.9068 H   0  0  0  0  0  0
  -22.0600   -2.7603   23.2828 H   0  0  0  0  0  0
  -22.4054  -11.9938   22.4822 H   0  0  0  0  0  0
  -21.1071  -13.1293   22.2528 H   0  0  0  0  0  0
  -24.6708  -15.8612   20.5406 H   0  0  0  0  0  0
  -26.2850  -15.6281   20.0986 H   0  0  0  0  0  0
  -26.7145  -32.5477   23.1136 H   0  0  0  0  0  0
  -25.0080  -33.9753   25.0472 H   0  0  0  0  0  0
  -22.7045  -31.3172   21.4117 H   0  0  0  0  0  0
  -23.3756  -35.9638   23.3298 H   0  0  0  0  0  0
  -24.3597  -36.8926   22.2053 H   0  0  0  0  0  0
  -23.7255  -37.6510   23.6651 H   0  0  0  0  0  0
  -26.0802  -31.5736   20.6122 H   0  0  0  0  0  0
  -26.8320  -30.8496   22.0038 H   0  0  0  0  0  0
  -28.0937  -29.0053   21.2063 H   0  0  0  0  0  0
  -25.9714  -25.9822   18.9482 H   0  0  0  0  0  0
  -23.9640  -27.3455   18.9799 H   0  0  0  0  0  0
  -23.7488  -30.6218   19.4089 H   0  0  0  0  0  0
  -22.7412  -29.2756   19.8503 H   0  0  0  0  0  0
  -25.1297  -36.1961   25.0831 H   0  0  0  0  0  0
  -20.9963  -28.3287   24.1382 H   0  0  0  0  0  0
  -20.5671  -26.2334   23.3591 H   0  0  0  0  0  0
  -21.6646  -26.7496   22.1187 H   0  0  0  0  0  0
  -19.6934  -25.6309   21.1234 H   0  0  0  0  0  0
  -19.6686  -27.3191   20.6695 H   0  0  0  0  0  0
  -17.4209  -26.6685   21.3996 H   0  0  0  0  0  0
  -18.0339  -26.0054   22.8976 H   0  0  0  0  0  0
  -19.7919  -30.7246   24.2317 H   0  0  0  0  0  0
  -17.5009  -31.6283   24.5141 H   0  0  0  0  0  0
  -15.5347  -30.3016   23.7627 H   0  0  0  0  0  0
  -15.8646  -28.0808   22.7121 H   0  0  0  0  0  0
  -24.5977  -30.6939   25.7766 H   0  0  0  0  0  0
  -24.8895  -32.2762   26.4902 H   0  0  0  0  0  0
  -25.8119  -30.8805   27.0207 H   0  0  0  0  0  0
  -26.2872  -29.6725   24.1231 H   0  0  0  0  0  0
  -27.4125  -29.7258   25.4603 H   0  0  0  0  0  0
  -27.8712  -30.4282   23.9272 H   0  0  0  0  0  0
  -27.2736  -33.3580   26.2059 H   0  0  0  0  0  0
  -28.3896  -32.6801   25.0291 H   0  0  0  0  0  0
  -28.0747  -31.8371   26.5387 H   0  0  0  0  0  0
  -28.2607  -38.0109   24.7524 H   0  0  0  0  0  0
  -28.1090  -36.2643   24.6281 H   0  0  0  0  0  0
  -27.2303  -37.1438   25.8868 H   0  0  0  0  0  0
  -20.9309  -29.8832   21.6924 H   0  0  0  0  0  0
  -26.0193  -38.2863   24.1383 H   0  0  0  0  0  0
  -33.0494  -18.3652   19.9256 H   0  0  0  0  0  0
  -28.8471  -19.1147   20.5372 H   0  0  0  0  0  0
  -31.9869  -16.7008   20.3317 H   0  0  0  0  0  0
  -29.0569  -16.0315   20.7370 H   0  0  0  0  0  0
  -34.4409  -19.8013   18.9789 H   0  0  0  0  0  0
  -34.3655  -21.2895   19.8940 H   0  0  0  0  0  0
  -33.8507  -21.2419   18.1931 H   0  0  0  0  0  0
  -33.7652  -25.1648   18.6398 H   0  0  0  0  0  0
  -33.3695  -23.8556   17.5418 H   0  0  0  0  0  0
  -34.6625  -23.6555   18.7251 H   0  0  0  0  0  0
  -33.1811  -23.0493   20.4321 H   0  0  0  0  0  0
  -32.1957  -24.4216   20.0671 H   0  0  0  0  0  0
  -27.0667  -24.8428   20.4865 H   0  0  0  0  0  0
  -28.0095  -24.8057   19.0017 H   0  0  0  0  0  0
  -27.6514  -22.5776   21.2471 H   0  0  0  0  0  0
  -29.2375  -22.2907   21.9093 H   0  0  0  0  0  0
  1 25  1  0  0  0
  1 30  2  0  0  0
  1 78  1  0  0  0
  2  3  1  0  0  0
  2 25  1  0  0  0
  2 89  1  0  0  0
  2 90  1  0  0  0
  3  4  1  0  0  0
  3 91  1  0  0  0
  3 92  1  0  0  0
  4  5  1  0  0  0
  4 93  1  0  0  0
  4 94  1  0  0  0
  5  6  1  0  0  0
  5 26  1  0  0  0
  5 95  1  0  0  0
  6 25  1  0  0  0
  6 96  1  0  0  0
  6 97  1  0  0  0
  7  8  2  0  0  0
  7 26  1  0  0  0
  7 29  1  0  0  0
  8  9  1  0  0  0
  8 22  1  0  0  0
  9 10  1  0  0  0
  9 27  2  0  0  0
 10 11  2  0  0  0
 10 15  1  0  0  0
 11 12  1  0  0  0
 11 98  1  0  0  0
 12 13  2  0  0  0
 12 99  1  0  0  0
 13 14  1  0  0  0
 13 31  1  0  0  0
 14 15  2  0  0  0
 14100  1  0  0  0
 15101  1  0  0  0
 16 17  2  0  0  0
 16 21  1  0  0  0
 16 31  1  0  0  0
 17 18  1  0  0  0
 17102  1  0  0  0
 18 19  2  0  0  0
 18103  1  0  0  0
 19 20  1  0  0  0
 19 24  1  0  0  0
 20 21  2  0  0  0
 20104  1  0  0  0
 21 23  1  0  0  0
 22 28  1  0  0  0
 22 32  2  0  0  0
 26 27  1  0  0  0
 28105  1  0  0  0
 28106  1  0  0  0
 29107  1  0  0  0
 29108  1  0  0  0
 33 34  1  0  0  0
 33 66  1  0  0  0
 33 70  2  0  0  0
 34 36  1  0  0  0
 34 59  1  0  0  0
 34109  1  0  0  0
 35 44  2  0  0  0
 35 45  1  0  0  0
 35 68  1  0  0  0
 36 56  1  0  0  0
 36110  1  0  0  0
 37 39  1  0  0  0
 37 47  1  0  0  0
 37 66  1  0  0  0
 37111  1  0  0  0
 38 43  2  0  0  0
 38 46  1  0  0  0
 38 47  1  0  0  0
 39 64  1  0  0  0
 39 67  2  0  0  0
 40 52  1  0  0  0
 40 53  2  0  0  0
 40 58  1  0  0  0
 41112  1  0  0  0
 41113  1  0  0  0
 41114  1  0  0  0
 41 48  1  0  0  0
 42 43  1  0  0  0
 42 66  1  0  0  0
 42115  1  0  0  0
 42116  1  0  0  0
 43 44  1  0  0  0
 44117  1  0  0  0
 45 46  2  0  0  0
 45118  1  0  0  0
 46119  1  0  0  0
 47120  1  0  0  0
 47121  1  0  0  0
 48 56  1  0  0  0
 48 65  1  0  0  0
 48122  1  0  0  0
 49 50  1  0  0  0
 49 53  1  0  0  0
 49 64  1  0  0  0
 49123  1  0  0  0
 50 51  1  0  0  0
 50124  1  0  0  0
 50125  1  0  0  0
 51 52  1  0  0  0
 51126  1  0  0  0
 51127  1  0  0  0
 52128  1  0  0  0
 52129  1  0  0  0
 53 54  1  0  0  0
 54 55  2  0  0  0
 54130  1  0  0  0
 55 57  1  0  0  0
 55131  1  0  0  0
 56 69  2  0  0  0
 57 58  2  0  0  0
 57132  1  0  0  0
 58133  1  0  0  0
 59 60  1  0  0  0
 59 61  1  0  0  0
 59 62  1  0  0  0
 60134  1  0  0  0
 60135  1  0  0  0
 60136  1  0  0  0
 61137  1  0  0  0
 61138  1  0  0  0
 61139  1  0  0  0
 62140  1  0  0  0
 62141  1  0  0  0
 62142  1  0  0  0
 63 65  1  0  0  0
 63143  1  0  0  0
 63144  1  0  0  0
 63145  1  0  0  0
 64146  1  0  0  0
 65147  1  0  0  0
 68 84  1  0  0  0
 71 73  2  0  0  0
 71 75  1  0  0  0
 71148  1  0  0  0
 72 73  1  0  0  0
 72 76  2  0  0  0
 72149  1  0  0  0
 73 77  1  0  0  0
 74 75  2  0  0  0
 74 76  1  0  0  0
 74 79  1  0  0  0
 75 81  1  0  0  0
 76 88  1  0  0  0
 77 78  2  0  0  0
 77150  1  0  0  0
 78151  1  0  0  0
 79 83  1  0  0  0
 79 86  2  0  0  0
 80 84  1  0  0  0
 80 85  1  0  0  0
 80 87  2  0  0  0
 81152  1  0  0  0
 81153  1  0  0  0
 81154  1  0  0  0
 82 83  1  0  0  0
 82155  1  0  0  0
 82156  1  0  0  0
 82157  1  0  0  0
 83158  1  0  0  0
 83159  1  0  0  0
 84160  1  0  0  0
 84161  1  0  0  0
 85 88  1  0  0  0
 85162  1  0  0  0
 85163  1  0  0  0
M  ISO  4   1 100  68 101  78 100  84 101
M  END
> <chiral flag>
0

> <version>
0

> <s_m_source_file>
/data/baiqing/PycharmProjects/Reinvent-master-3.2/result/LINK_invent/BTK/process_docking_weight1_custom_product_contain_oxygen_bond_distance_aromatic_linkinvent_7_9_3/rearranged_h_0130.sdf

> <i_m_source_file_index>
17

> <r_mmod_Potential_Energy-OPLS-2005>
295.144958496094

> <r_mmod_Stretch_Energy-OPLS-2005>
71.5298614501953

> <r_mmod_Bend_Energy-OPLS-2005>
181.269546508789

> <r_mmod_Torsional_Energy-OPLS-2005>
282.772705078125

> <r_mmod_Improper_Torsional_Energy-OPLS-2005>
8.6268949508667

> <r_mmod_Van_der_Waal_Energy-OPLS-2005>
176.143035888672

> <r_mmod_Electrostatic_Energy-OPLS-2005>
-250.828521728516

> <r_mmod_Solvation_Energy-OPLS-2005>
-221.968139648438

> <b_mmod_Minimization_Converged-OPLS-2005>
0

> <r_mmod_RMS_Derivative-OPLS-2005>
2.31573414802551

$$$$
17
                    3D
 Structure written by MMmdl.
159167  0  0  1  0            999 V2000
  -29.4176  -15.5900   20.8154 C   0  0  0  0  0  0
  -30.2768  -13.1817   19.7607 C   0  0  0  0  0  0
  -29.5227  -12.7336   18.4547 C   0  0  0  0  0  0
  -28.0806  -12.2931   18.7637 C   0  0  0  0  0  0
  -27.4985  -13.2275   19.8433 C   0  0  2  0  0  0
  -28.3649  -13.3020   21.0953 C   0  0  0  0  0  0
  -25.1699  -13.8086   20.5604 C   0  0  0  0  0  0
  -24.1165  -13.0264   20.9175 C   0  0  0  0  0  0
  -24.5851  -11.6780   20.8625 C   0  0  0  0  0  0
  -23.8730  -10.4162   21.0350 C   0  0  0  0  0  0
  -24.3453   -9.4148   21.9115 C   0  0  0  0  0  0
  -23.6209   -8.2156   22.0731 C   0  0  0  0  0  0
  -22.4166   -8.0170   21.3565 C   0  0  0  0  0  0
  -21.9692   -9.0050   20.4640 C   0  0  0  0  0  0
  -22.6925  -10.1955   20.3001 C   0  0  0  0  0  0
  -21.6804   -6.0688   22.5294 C   0  0  0  0  0  0
  -21.3986   -6.5633   23.8213 C   0  0  0  0  0  0
  -21.3652   -5.6789   24.9171 C   0  0  0  0  0  0
  -21.6042   -4.3051   24.7219 C   0  0  0  0  0  0
  -21.8831   -3.8142   23.4343 C   0  0  0  0  0  0
  -21.9187   -4.6943   22.3403 C   0  0  0  0  0  0
  -22.7294  -13.5007   21.2058 C   0  0  0  0  0  0
  -22.1700   -4.2156   21.0980 F   0  0  0  0  0  0
  -21.5601   -3.4535   25.7727 F   0  0  0  0  0  0
  -29.4282  -14.1380   20.6485 N   0  0  0  0  0  0
  -26.1801  -12.9185   20.2672 N   0  0  0  0  0  0
  -25.8627  -11.6371   20.5350 N   0  0  0  0  0  0
  -22.0169  -12.7965   22.0770 N   0  0  0  0  0  0
  -25.3463  -15.1849   20.4594 N   0  0  0  0  0  0
  -30.5959  -15.8804   20.4310 O   0  0  0  0  0  0
  -21.6590   -6.8762   21.4237 O   0  0  0  0  0  0
  -22.2893  -14.5283   20.6904 O   0  0  0  0  0  0
  -24.6417  -31.9287   23.2368 C   0  0  0  0  0  0
  -25.9371  -32.5040   23.8643 C   0  0  1  0  0  0
  -26.2047  -27.2369   20.3544 C   0  0  0  0  0  0
  -25.6275  -33.8803   24.2586 N   0  0  0  0  0  0
  -23.4385  -30.5569   21.6121 C   0  0  2  0  0  0
  -24.8638  -29.3492   19.7966 C   0  0  0  0  0  0
  -23.0714  -29.4439   22.6398 C   0  0  0  0  0  0
  -18.6992  -27.5647   22.5095 C   0  0  0  0  0  0
  -24.1521  -36.7348   23.2605 C   0  0  0  0  0  0
  -25.9706  -30.8420   21.4379 C   0  0  0  0  0  0
  -25.9252  -29.5415   20.6772 C   0  0  0  0  0  0
  -26.7832  -28.4431   20.8618 C   0  0  0  0  0  0
  -25.9311  -27.2863   19.0205 C   0  0  0  0  0  0
  -25.0101  -28.3279   18.8054 C   0  0  0  0  0  0
  -23.5953  -30.1260   20.1010 C   0  0  0  0  0  0
  -25.4140  -36.3195   24.0335 C   0  0  1  0  0  0
  -21.3847  -27.8868   23.5227 C   0  0  2  0  0  0
  -22.4067  -26.3101   22.7159 C   0  0  0  0  0  0
  -20.8469  -25.2566   21.1402 C   0  0  0  0  0  0
  -19.0683  -26.2079   21.4328 C   0  0  0  0  0  0
  -19.7086  -28.2835   23.3412 C   0  0  0  0  0  0
  -19.2604  -29.5504   23.9503 C   0  0  0  0  0  0
  -17.9483  -30.1041   23.9296 C   0  0  0  0  0  0
  -25.9118  -34.9585   23.5180 C   0  0  0  0  0  0
  -16.9524  -29.3521   23.2997 C   0  0  0  0  0  0
  -17.3336  -28.1397   22.6228 C   0  0  0  0  0  0
  -26.4600  -31.6672   25.0950 C   0  0  0  0  0  0
  -25.3775  -31.3788   26.1604 C   0  0  0  0  0  0
  -27.0422  -30.3063   24.6464 C   0  0  0  0  0  0
  -27.6181  -32.4314   25.7753 C   0  0  0  0  0  0
  -27.5604  -37.1882   24.8471 C   0  0  0  0  0  0
  -21.8316  -29.2194   23.0043 N   0  0  0  0  0  0
  -26.4321  -37.3875   23.9408 N   0  0  0  0  0  0
  -24.6939  -31.1750   22.1096 N   0  0  0  0  0  0
  -23.9244  -28.7927   23.2192 O   0  0  0  0  0  0
  -24.8991  -26.9194   20.9075 O   0  0  0  0  0  0
  -26.5512  -34.8961   22.4639 O   0  0  0  0  0  0
  -23.5622  -32.1931   23.7869 O   0  0  0  0  0  0
  -25.5721  -18.8496   23.5148 C   0  0  0  0  0  0
  -24.9660  -20.5159   21.9299 C   0  0  0  0  0  0
  -23.8071  -20.6860   24.0158 C   0  0  0  0  0  0
  -25.9297  -19.1690   22.1726 C   0  0  0  0  0  0
  -24.6287  -19.5468   24.3633 C   0  0  0  0  0  0
  -23.8329  -21.3977   22.7837 C   0  0  0  0  0  0
  -27.2758  -18.0196   21.4010 C   0  0  0  0  0  0
  -28.0888  -16.6359   21.4588 C   0  0  0  0  0  0
  -21.5634  -23.7123   23.4050 C   0  0  0  0  0  0
  -24.5378  -19.0655   25.8100 C   0  0  0  0  0  0
  -20.4810  -25.4630   23.3015 C   0  0  0  0  0  0
  -21.2532  -27.4149   21.2040 C   0  0  0  0  0  0
  -23.1342  -27.1307   20.4669 C   0  0  0  0  0  0
  -22.7674  -22.8711   22.7024 N   0  0  0  0  0  0
  -21.1302  -23.0721   24.3654 O   0  0  0  0  0  0
  -31.2123  -13.6662   19.4786 H   0  0  0  0  0  0
  -30.5764  -12.3035   20.3391 H   0  0  0  0  0  0
  -30.0679  -11.9518   17.9239 H   0  0  0  0  0  0
  -29.4788  -13.5859   17.7774 H   0  0  0  0  0  0
  -28.0914  -11.2671   19.1366 H   0  0  0  0  0  0
  -27.4620  -12.2908   17.8649 H   0  0  0  0  0  0
  -27.4302  -14.2027   19.3554 H   0  0  0  0  0  0
  -28.6801  -12.3188   21.4505 H   0  0  0  0  0  0
  -27.8418  -13.7696   21.9315 H   0  0  0  0  0  0
  -25.2616   -9.5706   22.4625 H   0  0  0  0  0  0
  -23.9998   -7.4543   22.7410 H   0  0  0  0  0  0
  -21.0622   -8.8417   19.8966 H   0  0  0  0  0  0
  -22.3296  -10.9445   19.6102 H   0  0  0  0  0  0
  -21.2009   -7.6149   23.9716 H   0  0  0  0  0  0
  -21.1459   -6.0524   25.9068 H   0  0  0  0  0  0
  -22.0629   -2.7614   23.2818 H   0  0  0  0  0  0
  -22.3813  -11.9553   22.5007 H   0  0  0  0  0  0
  -21.0855  -13.0976   22.3238 H   0  0  0  0  0  0
  -24.6192  -15.8066   20.7970 H   0  0  0  0  0  0
  -26.2470  -15.6392   20.4029 H   0  0  0  0  0  0
  -26.7463  -32.5579   23.1381 H   0  0  0  0  0  0
  -25.0601  -34.0002   25.0851 H   0  0  0  0  0  0
  -22.6323  -31.2921   21.6370 H   0  0  0  0  0  0
  -23.3797  -35.9662   23.3261 H   0  0  0  0  0  0
  -24.3639  -36.8954   22.2024 H   0  0  0  0  0  0
  -23.7243  -37.6549   23.6592 H   0  0  0  0  0  0
  -26.2158  -31.6478   20.7439 H   0  0  0  0  0  0
  -26.8142  -30.7506   22.1076 H   0  0  0  0  0  0
  -27.5258  -28.4419   21.6456 H   0  0  0  0  0  0
  -25.8358  -26.3897   18.4251 H   0  0  0  0  0  0
  -24.3119  -28.2458   17.9844 H   0  0  0  0  0  0
  -23.6448  -31.0333   19.5001 H   0  0  0  0  0  0
  -22.6987  -29.6214   19.7497 H   0  0  0  0  0  0
  -25.1292  -36.2090   25.0826 H   0  0  0  0  0  0
  -21.5953  -27.8866   24.5950 H   0  0  0  0  0  0
  -22.7261  -25.7897   23.6233 H   0  0  0  0  0  0
  -23.4692  -26.3933   22.5492 H   0  0  0  0  0  0
  -20.6962  -24.1769   21.1674 H   0  0  0  0  0  0
  -21.1316  -25.2969   20.0827 H   0  0  0  0  0  0
  -18.7274  -26.5380   20.4508 H   0  0  0  0  0  0
  -18.3151  -25.4457   21.6453 H   0  0  0  0  0  0
  -19.9851  -30.1130   24.5208 H   0  0  0  0  0  0
  -17.7182  -31.0348   24.4305 H   0  0  0  0  0  0
  -15.9281  -29.7002   23.2774 H   0  0  0  0  0  0
  -16.5496  -27.6298   22.0811 H   0  0  0  0  0  0
  -24.5981  -30.7122   25.7890 H   0  0  0  0  0  0
  -24.8931  -32.2933   26.5043 H   0  0  0  0  0  0
  -25.8071  -30.8956   27.0390 H   0  0  0  0  0  0
  -26.3066  -29.6873   24.1332 H   0  0  0  0  0  0
  -27.3867  -29.7262   25.5041 H   0  0  0  0  0  0
  -27.9067  -30.4276   23.9924 H   0  0  0  0  0  0
  -27.2869  -33.3646   26.2320 H   0  0  0  0  0  0
  -28.4052  -32.6807   25.0617 H   0  0  0  0  0  0
  -28.0760  -31.8396   26.5693 H   0  0  0  0  0  0
  -28.2633  -38.0174   24.7521 H   0  0  0  0  0  0
  -28.1100  -36.2709   24.6297 H   0  0  0  0  0  0
  -27.2319  -37.1534   25.8876 H   0  0  0  0  0  0
  -21.0995  -29.8138   22.6399 H   0  0  0  0  0  0
  -26.0213  -38.2952   24.1407 H   0  0  0  0  0  0
  -26.1010  -18.0208   23.9661 H   0  0  0  0  0  0
  -25.1308  -20.9375   20.9494 H   0  0  0  0  0  0
  -23.1442  -21.0667   24.7800 H   0  0  0  0  0  0
  -27.6949  -18.5692   20.5690 H   0  0  0  0  0  0
  -27.6657  -16.0822   22.2860 H   0  0  0  0  0  0
  -25.1255  -18.1619   25.9849 H   0  0  0  0  0  0
  -23.5113  -18.8547   26.1129 H   0  0  0  0  0  0
  -24.9279  -19.8289   26.4866 H   0  0  0  0  0  0
  -20.5584  -25.8323   24.3298 H   0  0  0  0  0  0
  -19.4528  -25.1074   23.3928 H   0  0  0  0  0  0
  -20.8609  -28.4287   21.1582 H   0  0  0  0  0  0
  -20.7447  -27.3417   20.2319 H   0  0  0  0  0  0
  -22.9627  -27.5038   19.4683 H   0  0  0  0  0  0
  -23.0804  -26.0828   20.1827 H   0  0  0  0  0  0
  -23.0538  -23.4148   21.8987 H   0  0  0  0  0  0
  1 25  1  0  0  0
  1 30  2  0  0  0
  1 78  1  0  0  0
  2  3  1  0  0  0
  2 25  1  0  0  0
  2 86  1  0  0  0
  2 87  1  0  0  0
  3  4  1  0  0  0
  3 88  1  0  0  0
  3 89  1  0  0  0
  4  5  1  0  0  0
  4 90  1  0  0  0
  4 91  1  0  0  0
  5  6  1  0  0  0
  5 26  1  0  0  0
  5 92  1  0  0  0
  6 25  1  0  0  0
  6 93  1  0  0  0
  6 94  1  0  0  0
  7  8  2  0  0  0
  7 26  1  0  0  0
  7 29  1  0  0  0
  8  9  1  0  0  0
  8 22  1  0  0  0
  9 10  1  0  0  0
  9 27  2  0  0  0
 10 11  2  0  0  0
 10 15  1  0  0  0
 11 12  1  0  0  0
 11 95  1  0  0  0
 12 13  2  0  0  0
 12 96  1  0  0  0
 13 14  1  0  0  0
 13 31  1  0  0  0
 14 15  2  0  0  0
 14 97  1  0  0  0
 15 98  1  0  0  0
 16 17  2  0  0  0
 16 21  1  0  0  0
 16 31  1  0  0  0
 17 18  1  0  0  0
 17 99  1  0  0  0
 18 19  2  0  0  0
 18100  1  0  0  0
 19 20  1  0  0  0
 19 24  1  0  0  0
 20 21  2  0  0  0
 20101  1  0  0  0
 21 23  1  0  0  0
 22 28  1  0  0  0
 22 32  2  0  0  0
 26 27  1  0  0  0
 28102  1  0  0  0
 28103  1  0  0  0
 29104  1  0  0  0
 29105  1  0  0  0
 33 34  1  0  0  0
 33 66  1  0  0  0
 33 70  2  0  0  0
 34 36  1  0  0  0
 34 59  1  0  0  0
 34106  1  0  0  0
 35 44  2  0  0  0
 35 45  1  0  0  0
 35 68  1  0  0  0
 36 56  1  0  0  0
 36107  1  0  0  0
 37 39  1  0  0  0
 37 47  1  0  0  0
 37 66  1  0  0  0
 37108  1  0  0  0
 38 43  2  0  0  0
 38 46  1  0  0  0
 38 47  1  0  0  0
 39 64  1  0  0  0
 39 67  2  0  0  0
 40 52  1  0  0  0
 40 53  2  0  0  0
 40 58  1  0  0  0
 41109  1  0  0  0
 41110  1  0  0  0
 41111  1  0  0  0
 41 48  1  0  0  0
 42 43  1  0  0  0
 42 66  1  0  0  0
 42112  1  0  0  0
 42113  1  0  0  0
 43 44  1  0  0  0
 44114  1  0  0  0
 45 46  2  0  0  0
 45115  1  0  0  0
 46116  1  0  0  0
 47117  1  0  0  0
 47118  1  0  0  0
 48 56  1  0  0  0
 48 65  1  0  0  0
 48119  1  0  0  0
 49 50  1  0  0  0
 49 53  1  0  0  0
 49 64  1  0  0  0
 49120  1  0  0  0
 50 51  1  0  0  0
 50121  1  0  0  0
 50122  1  0  0  0
 51 52  1  0  0  0
 51123  1  0  0  0
 51124  1  0  0  0
 52125  1  0  0  0
 52126  1  0  0  0
 53 54  1  0  0  0
 54 55  2  0  0  0
 54127  1  0  0  0
 55 57  1  0  0  0
 55128  1  0  0  0
 56 69  2  0  0  0
 57 58  2  0  0  0
 57129  1  0  0  0
 58130  1  0  0  0
 59 60  1  0  0  0
 59 61  1  0  0  0
 59 62  1  0  0  0
 60131  1  0  0  0
 60132  1  0  0  0
 60133  1  0  0  0
 61134  1  0  0  0
 61135  1  0  0  0
 61136  1  0  0  0
 62137  1  0  0  0
 62138  1  0  0  0
 62139  1  0  0  0
 63 65  1  0  0  0
 63140  1  0  0  0
 63141  1  0  0  0
 63142  1  0  0  0
 64143  1  0  0  0
 65144  1  0  0  0
 68 83  1  0  0  0
 71 74  2  0  0  0
 71 75  1  0  0  0
 71145  1  0  0  0
 72 74  1  0  0  0
 72 76  2  0  0  0
 72146  1  0  0  0
 73 75  2  0  0  0
 73 76  1  0  0  0
 73147  1  0  0  0
 74 77  1  0  0  0
 75 80  1  0  0  0
 76 84  1  0  0  0
 77 78  2  0  0  0
 77148  1  0  0  0
 78149  1  0  0  0
 79 81  1  0  0  0
 79 84  1  0  0  0
 79 85  2  0  0  0
 80150  1  0  0  0
 80151  1  0  0  0
 80152  1  0  0  0
 81 82  1  0  0  0
 81153  1  0  0  0
 81154  1  0  0  0
 82 83  1  0  0  0
 82155  1  0  0  0
 82156  1  0  0  0
 83157  1  0  0  0
 83158  1  0  0  0
 84159  1  0  0  0
M  ISO  4   1 100  68 101  78 100  83 101
M  END
> <chiral flag>
0

> <version>
0

> <s_m_source_file>
/data/baiqing/PycharmProjects/Reinvent-master-3.2/result/LINK_invent/BTK/process_docking_weight1_custom_product_contain_oxygen_bond_distance_aromatic_linkinvent_7_9_3/rearranged_h_0130.sdf

> <i_m_source_file_index>
18

> <r_mmod_Potential_Energy-OPLS-2005>
13647.3427734375

> <r_mmod_Stretch_Energy-OPLS-2005>
6518.98291015625

> <r_mmod_Bend_Energy-OPLS-2005>
1244.1494140625

> <r_mmod_Torsional_Energy-OPLS-2005>
490.224426269531

> <r_mmod_Improper_Torsional_Energy-OPLS-2005>
37.8867607116699

> <r_mmod_Van_der_Waal_Energy-OPLS-2005>
1934.77844238281

> <r_mmod_Electrostatic_Energy-OPLS-2005>
-387.044799804688

> <r_mmod_Solvation_Energy-OPLS-2005>
-218.793853759766

> <b_mmod_Minimization_Converged-OPLS-2005>
0

> <r_mmod_RMS_Derivative-OPLS-2005>
6.03641796112061

$$$$
18
                    3D
 Structure written by MMmdl.
159167  0  0  1  0            999 V2000
  -30.5910  -14.6437   20.5099 C   0  0  0  0  0  0
  -30.4475  -12.3993   19.4429 C   0  0  0  0  0  0
  -29.5102  -12.5216   18.2193 C   0  0  0  0  0  0
  -28.0307  -12.3565   18.6267 C   0  0  0  0  0  0
  -27.6553  -13.2105   19.8667 C   0  0  2  0  0  0
  -28.7011  -13.0378   20.9919 C   0  0  0  0  0  0
  -25.2549  -13.8128   20.5642 C   0  0  0  0  0  0
  -24.1834  -13.0414   20.9212 C   0  0  0  0  0  0
  -24.6406  -11.6887   20.8757 C   0  0  0  0  0  0
  -23.9071  -10.4283   21.0418 C   0  0  0  0  0  0
  -24.3621   -9.4196   21.9194 C   0  0  0  0  0  0
  -23.6293   -8.2229   22.0756 C   0  0  0  0  0  0
  -22.4273   -8.0276   21.3549 C   0  0  0  0  0  0
  -21.9914   -9.0249   20.4652 C   0  0  0  0  0  0
  -22.7245  -10.2128   20.3060 C   0  0  0  0  0  0
  -21.6850   -6.0736   22.5287 C   0  0  0  0  0  0
  -21.4010   -6.5642   23.8222 C   0  0  0  0  0  0
  -21.3658   -5.6794   24.9183 C   0  0  0  0  0  0
  -21.6041   -4.3055   24.7235 C   0  0  0  0  0  0
  -21.8818   -3.8152   23.4354 C   0  0  0  0  0  0
  -21.9194   -4.6966   22.3409 C   0  0  0  0  0  0
  -22.7859  -13.5218   21.1857 C   0  0  0  0  0  0
  -22.1665   -4.2152   21.0990 F   0  0  0  0  0  0
  -21.5624   -3.4540   25.7745 F   0  0  0  0  0  0
  -30.0174  -13.4006   20.4366 N   0  0  0  0  0  0
  -26.2994  -12.9310   20.3305 N   0  0  0  0  0  0
  -25.9329  -11.6475   20.5758 N   0  0  0  0  0  0
  -22.0492  -12.8214   22.0410 N   0  0  0  0  0  0
  -25.4206  -15.1832   20.3937 N   0  0  0  0  0  0
  -31.7460  -14.8515   20.1235 O   0  0  0  0  0  0
  -21.6638   -6.8876   21.4243 O   0  0  0  0  0  0
  -22.3551  -14.5534   20.6709 O   0  0  0  0  0  0
  -24.6220  -31.8609   23.2005 C   0  0  0  0  0  0
  -25.9069  -32.4783   23.8332 C   0  0  1  0  0  0
  -27.2325  -27.3331   20.1310 C   0  0  0  0  0  0
  -25.5912  -33.8582   24.2281 N   0  0  0  0  0  0
  -23.4163  -30.4816   21.5405 C   0  0  2  0  0  0
  -24.8650  -28.9244   20.1204 C   0  0  0  0  0  0
  -22.7436  -29.4647   22.4917 C   0  0  0  0  0  0
  -18.0294  -28.1440   22.8493 C   0  0  0  0  0  0
  -24.1487  -36.7286   23.2639 C   0  0  0  0  0  0
  -25.9517  -30.7988   21.3641 C   0  0  0  0  0  0
  -26.0299  -29.4213   20.7164 C   0  0  0  0  0  0
  -27.2192  -28.6397   20.7060 C   0  0  0  0  0  0
  -26.0463  -26.8690   19.5305 C   0  0  0  0  0  0
  -24.8718  -27.6533   19.5205 C   0  0  0  0  0  0
  -23.6340  -29.8093   20.1582 C   0  0  0  0  0  0
  -25.4116  -36.3087   24.0335 C   0  0  1  0  0  0
  -20.5892  -28.3733   23.1309 C   0  0  2  0  0  0
  -20.6793  -26.9457   22.5425 C   0  0  0  0  0  0
  -19.5761  -26.6436   21.5233 C   0  0  0  0  0  0
  -18.1942  -26.7974   22.1642 C   0  0  0  0  0  0
  -19.1544  -28.8896   23.2904 C   0  0  0  0  0  0
  -18.9463  -30.1504   23.8915 C   0  0  0  0  0  0
  -17.6468  -30.6623   24.0606 C   0  0  0  0  0  0
  -25.9050  -34.9451   23.5105 C   0  0  0  0  0  0
  -16.5360  -29.9139   23.6350 C   0  0  0  0  0  0
  -16.7286  -28.6570   23.0341 C   0  0  0  0  0  0
  -26.4480  -31.6581   25.0688 C   0  0  0  0  0  0
  -25.3728  -31.3738   26.1428 C   0  0  0  0  0  0
  -27.0314  -30.3005   24.6124 C   0  0  0  0  0  0
  -27.6038  -32.4312   25.7458 C   0  0  0  0  0  0
  -27.5584  -37.1806   24.8465 C   0  0  0  0  0  0
  -21.4153  -29.3077   22.3669 N   0  0  0  0  0  0
  -26.4288  -37.3783   23.9421 N   0  0  0  0  0  0
  -24.6820  -31.0642   22.0929 N   0  0  0  0  0  0
  -23.4163  -28.8201   23.3009 O   0  0  0  0  0  0
  -28.3838  -26.5426   20.1068 O   0  0  0  0  0  0
  -26.5614  -34.8910   22.4676 O   0  0  0  0  0  0
  -23.5385  -32.1398   23.7351 O   0  0  0  0  0  0
  -28.1453  -19.0372   20.3878 C   0  0  0  0  0  0
  -28.3752  -17.6366   20.4314 C   0  0  0  0  0  0
  -30.7087  -18.0137   20.8445 C   0  0  0  0  0  0
  -29.1730  -19.9858   20.6210 C   0  0  0  0  0  0
  -30.4803  -19.4339   20.8294 C   0  0  0  0  0  0
  -29.6526  -17.0788   20.6809 C   0  0  0  0  0  0
  -31.9787  -20.4225   22.6169 C   0  0  0  0  0  0
  -28.7661  -21.5039   20.8158 C   0  0  0  0  0  0
  -31.6698  -20.3364   21.1182 C   0  0  0  0  0  0
  -29.1455  -22.6150   19.7538 C   0  0  0  0  0  0
  -28.2773  -23.9535   19.5914 C   0  0  0  0  0  0
  -28.3528  -25.1575   20.6176 C   0  0  0  0  0  0
  -29.7279  -15.6349   20.8907 N   0  0  0  0  0  0
  -31.4865  -12.5452   19.1404 H   0  0  0  0  0  0
  -30.3978  -11.3967   19.8701 H   0  0  0  0  0  0
  -29.7759  -11.7810   17.4639 H   0  0  0  0  0  0
  -29.6492  -13.4963   17.7502 H   0  0  0  0  0  0
  -27.8587  -11.3016   18.8383 H   0  0  0  0  0  0
  -27.3798  -12.6075   17.7883 H   0  0  0  0  0  0
  -27.6782  -14.2502   19.5404 H   0  0  0  0  0  0
  -28.7153  -12.0057   21.3460 H   0  0  0  0  0  0
  -28.4421  -13.6406   21.8639 H   0  0  0  0  0  0
  -25.2767   -9.5667   22.4771 H   0  0  0  0  0  0
  -24.0009   -7.4616   22.7469 H   0  0  0  0  0  0
  -21.0848   -8.8775   19.8950 H   0  0  0  0  0  0
  -22.3716  -10.9670   19.6170 H   0  0  0  0  0  0
  -21.2000   -7.6148   23.9724 H   0  0  0  0  0  0
  -21.1479   -6.0526   25.9089 H   0  0  0  0  0  0
  -22.0596   -2.7609   23.2860 H   0  0  0  0  0  0
  -22.4101  -11.9866   22.4789 H   0  0  0  0  0  0
  -21.1107  -13.1242   22.2601 H   0  0  0  0  0  0
  -24.6336  -15.8204   20.4578 H   0  0  0  0  0  0
  -26.2250  -15.5945   19.9406 H   0  0  0  0  0  0
  -26.7132  -32.5475   23.1078 H   0  0  0  0  0  0
  -25.0065  -33.9734   25.0430 H   0  0  0  0  0  0
  -22.7107  -31.3022   21.3941 H   0  0  0  0  0  0
  -23.3745  -35.9623   23.3296 H   0  0  0  0  0  0
  -24.3575  -36.8911   22.2051 H   0  0  0  0  0  0
  -23.7219  -37.6485   23.6650 H   0  0  0  0  0  0
  -26.0731  -31.5579   20.5904 H   0  0  0  0  0  0
  -26.8340  -30.8569   21.9894 H   0  0  0  0  0  0
  -28.1181  -29.0238   21.1662 H   0  0  0  0  0  0
  -26.0284  -25.8939   19.0628 H   0  0  0  0  0  0
  -23.9754  -27.2670   19.0556 H   0  0  0  0  0  0
  -23.7626  -30.5827   19.3994 H   0  0  0  0  0  0
  -22.7518  -29.2436   19.8517 H   0  0  0  0  0  0
  -25.1292  -36.1934   25.0827 H   0  0  0  0  0  0
  -21.0019  -28.3316   24.1420 H   0  0  0  0  0  0
  -20.5753  -26.2330   23.3619 H   0  0  0  0  0  0
  -21.6664  -26.7538   22.1190 H   0  0  0  0  0  0
  -19.6919  -25.6350   21.1269 H   0  0  0  0  0  0
  -19.6704  -27.3249   20.6761 H   0  0  0  0  0  0
  -17.4222  -26.6756   21.4021 H   0  0  0  0  0  0
  -18.0320  -26.0125   22.9051 H   0  0  0  0  0  0
  -19.7938  -30.7346   24.2250 H   0  0  0  0  0  0
  -17.5026  -31.6287   24.5245 H   0  0  0  0  0  0
  -15.5374  -30.3067   23.7648 H   0  0  0  0  0  0
  -15.8689  -28.0926   22.7009 H   0  0  0  0  0  0
  -24.5903  -30.7073   25.7781 H   0  0  0  0  0  0
  -24.8921  -32.2918   26.4819 H   0  0  0  0  0  0
  -25.8086  -30.8952   27.0208 H   0  0  0  0  0  0
  -26.2879  -29.6760   24.1159 H   0  0  0  0  0  0
  -27.4016  -29.7256   25.4624 H   0  0  0  0  0  0
  -27.8745  -30.4278   23.9330 H   0  0  0  0  0  0
  -27.2646  -33.3614   26.2025 H   0  0  0  0  0  0
  -28.3862  -32.6877   25.0302 H   0  0  0  0  0  0
  -28.0680  -31.8435   26.5383 H   0  0  0  0  0  0
  -28.2607  -38.0100   24.7536 H   0  0  0  0  0  0
  -28.1084  -36.2640   24.6272 H   0  0  0  0  0  0
  -27.2317  -37.1441   25.8872 H   0  0  0  0  0  0
  -20.9302  -29.8760   21.6867 H   0  0  0  0  0  0
  -26.0164  -38.2861   24.1434 H   0  0  0  0  0  0
  -27.1308  -19.3796   20.2390 H   0  0  0  0  0  0
  -27.5276  -16.9814   20.3079 H   0  0  0  0  0  0
  -31.7018  -17.6439   21.0605 H   0  0  0  0  0  0
  -32.8195  -21.0889   22.8078 H   0  0  0  0  0  0
  -32.2365  -19.4433   23.0210 H   0  0  0  0  0  0
  -31.1211  -20.8001   23.1742 H   0  0  0  0  0  0
  -29.1322  -21.8207   21.7925 H   0  0  0  0  0  0
  -27.6805  -21.5271   20.9178 H   0  0  0  0  0  0
  -31.5024  -21.3339   20.7191 H   0  0  0  0  0  0
  -32.5416  -19.9511   20.5873 H   0  0  0  0  0  0
  -29.0885  -22.1160   18.7855 H   0  0  0  0  0  0
  -30.1941  -22.8884   19.8578 H   0  0  0  0  0  0
  -27.2299  -23.6834   19.4533 H   0  0  0  0  0  0
  -28.5709  -24.3754   18.6300 H   0  0  0  0  0  0
  -29.2693  -25.0391   21.1961 H   0  0  0  0  0  0
  -27.5500  -25.0529   21.3491 H   0  0  0  0  0  0
  -28.8498  -15.2333   21.1780 H   0  0  0  0  0  0
  1 25  1  0  0  0
  1 30  2  0  0  0
  1 83  1  0  0  0
  2  3  1  0  0  0
  2 25  1  0  0  0
  2 84  1  0  0  0
  2 85  1  0  0  0
  3  4  1  0  0  0
  3 86  1  0  0  0
  3 87  1  0  0  0
  4  5  1  0  0  0
  4 88  1  0  0  0
  4 89  1  0  0  0
  5  6  1  0  0  0
  5 26  1  0  0  0
  5 90  1  0  0  0
  6 25  1  0  0  0
  6 91  1  0  0  0
  6 92  1  0  0  0
  7  8  2  0  0  0
  7 26  1  0  0  0
  7 29  1  0  0  0
  8  9  1  0  0  0
  8 22  1  0  0  0
  9 10  1  0  0  0
  9 27  2  0  0  0
 10 11  2  0  0  0
 10 15  1  0  0  0
 11 12  1  0  0  0
 11 93  1  0  0  0
 12 13  2  0  0  0
 12 94  1  0  0  0
 13 14  1  0  0  0
 13 31  1  0  0  0
 14 15  2  0  0  0
 14 95  1  0  0  0
 15 96  1  0  0  0
 16 17  2  0  0  0
 16 21  1  0  0  0
 16 31  1  0  0  0
 17 18  1  0  0  0
 17 97  1  0  0  0
 18 19  2  0  0  0
 18 98  1  0  0  0
 19 20  1  0  0  0
 19 24  1  0  0  0
 20 21  2  0  0  0
 20 99  1  0  0  0
 21 23  1  0  0  0
 22 28  1  0  0  0
 22 32  2  0  0  0
 26 27  1  0  0  0
 28100  1  0  0  0
 28101  1  0  0  0
 29102  1  0  0  0
 29103  1  0  0  0
 33 34  1  0  0  0
 33 66  1  0  0  0
 33 70  2  0  0  0
 34 36  1  0  0  0
 34 59  1  0  0  0
 34104  1  0  0  0
 35 44  2  0  0  0
 35 45  1  0  0  0
 35 68  1  0  0  0
 36 56  1  0  0  0
 36105  1  0  0  0
 37 39  1  0  0  0
 37 47  1  0  0  0
 37 66  1  0  0  0
 37106  1  0  0  0
 38 43  2  0  0  0
 38 46  1  0  0  0
 38 47  1  0  0  0
 39 64  1  0  0  0
 39 67  2  0  0  0
 40 52  1  0  0  0
 40 53  2  0  0  0
 40 58  1  0  0  0
 41107  1  0  0  0
 41108  1  0  0  0
 41109  1  0  0  0
 41 48  1  0  0  0
 42 43  1  0  0  0
 42 66  1  0  0  0
 42110  1  0  0  0
 42111  1  0  0  0
 43 44  1  0  0  0
 44112  1  0  0  0
 45 46  2  0  0  0
 45113  1  0  0  0
 46114  1  0  0  0
 47115  1  0  0  0
 47116  1  0  0  0
 48 56  1  0  0  0
 48 65  1  0  0  0
 48117  1  0  0  0
 49 50  1  0  0  0
 49 53  1  0  0  0
 49 64  1  0  0  0
 49118  1  0  0  0
 50 51  1  0  0  0
 50119  1  0  0  0
 50120  1  0  0  0
 51 52  1  0  0  0
 51121  1  0  0  0
 51122  1  0  0  0
 52123  1  0  0  0
 52124  1  0  0  0
 53 54  1  0  0  0
 54 55  2  0  0  0
 54125  1  0  0  0
 55 57  1  0  0  0
 55126  1  0  0  0
 56 69  2  0  0  0
 57 58  2  0  0  0
 57127  1  0  0  0
 58128  1  0  0  0
 59 60  1  0  0  0
 59 61  1  0  0  0
 59 62  1  0  0  0
 60129  1  0  0  0
 60130  1  0  0  0
 60131  1  0  0  0
 61132  1  0  0  0
 61133  1  0  0  0
 61134  1  0  0  0
 62135  1  0  0  0
 62136  1  0  0  0
 62137  1  0  0  0
 63 65  1  0  0  0
 63138  1  0  0  0
 63139  1  0  0  0
 63140  1  0  0  0
 64141  1  0  0  0
 65142  1  0  0  0
 68 82  1  0  0  0
 71 72  2  0  0  0
 71 74  1  0  0  0
 71143  1  0  0  0
 72 76  1  0  0  0
 72144  1  0  0  0
 73 75  1  0  0  0
 73 76  2  0  0  0
 73145  1  0  0  0
 74 75  2  0  0  0
 74 78  1  0  0  0
 75 79  1  0  0  0
 76 83  1  0  0  0
 77 79  1  0  0  0
 77146  1  0  0  0
 77147  1  0  0  0
 77148  1  0  0  0
 78 80  1  0  0  0
 78149  1  0  0  0
 78150  1  0  0  0
 79151  1  0  0  0
 79152  1  0  0  0
 80 81  1  0  0  0
 80153  1  0  0  0
 80154  1  0  0  0
 81 82  1  0  0  0
 81155  1  0  0  0
 81156  1  0  0  0
 82157  1  0  0  0
 82158  1  0  0  0
 83159  1  0  0  0
M  ISO  4   1 100  68 101  82 101  83 100
M  END
> <chiral flag>
0

> <version>
0

> <s_m_source_file>
/data/baiqing/PycharmProjects/Reinvent-master-3.2/result/LINK_invent/BTK/process_docking_weight1_custom_product_contain_oxygen_bond_distance_aromatic_linkinvent_7_9_3/rearranged_h_0130.sdf

> <i_m_source_file_index>
19

> <r_mmod_Potential_Energy-OPLS-2005>
97.5966186523438

> <r_mmod_Stretch_Energy-OPLS-2005>
77.2054672241211

> <r_mmod_Bend_Energy-OPLS-2005>
158.476959228516

> <r_mmod_Torsional_Energy-OPLS-2005>
254.419708251953

> <r_mmod_Improper_Torsional_Energy-OPLS-2005>
6.87663459777832

> <r_mmod_Van_der_Waal_Energy-OPLS-2005>
131.21223449707

> <r_mmod_Electrostatic_Energy-OPLS-2005>
-374.678131103516

> <r_mmod_Solvation_Energy-OPLS-2005>
-199.651504516602

> <b_mmod_Minimization_Converged-OPLS-2005>
0

> <r_mmod_RMS_Derivative-OPLS-2005>
2.24909949302673

$$$$
19
                    3D
 Structure written by MMmdl.
156165  0  0  1  0            999 V2000
  -30.6775  -14.5370   20.5293 C   0  0  0  0  0  0
  -30.4346  -12.3305   19.4487 C   0  0  0  0  0  0
  -29.5095  -12.4915   18.2215 C   0  0  0  0  0  0
  -28.0281  -12.3444   18.6272 C   0  0  0  0  0  0
  -27.6604  -13.2057   19.8669 C   0  0  2  0  0  0
  -28.7029  -13.0110   20.9923 C   0  0  0  0  0  0
  -25.2611  -13.8155   20.5697 C   0  0  0  0  0  0
  -24.1860  -13.0440   20.9209 C   0  0  0  0  0  0
  -24.6404  -11.6900   20.8751 C   0  0  0  0  0  0
  -23.9062  -10.4293   21.0403 C   0  0  0  0  0  0
  -24.3617   -9.4208   21.9172 C   0  0  0  0  0  0
  -23.6309   -8.2238   22.0731 C   0  0  0  0  0  0
  -22.4285   -8.0280   21.3532 C   0  0  0  0  0  0
  -21.9915   -9.0251   20.4634 C   0  0  0  0  0  0
  -22.7229  -10.2134   20.3046 C   0  0  0  0  0  0
  -21.6849   -6.0740   22.5280 C   0  0  0  0  0  0
  -21.4012   -6.5638   23.8219 C   0  0  0  0  0  0
  -21.3667   -5.6786   24.9185 C   0  0  0  0  0  0
  -21.6043   -4.3048   24.7222 C   0  0  0  0  0  0
  -21.8825   -3.8143   23.4340 C   0  0  0  0  0  0
  -21.9194   -4.6968   22.3403 C   0  0  0  0  0  0
  -22.7882  -13.5245   21.1862 C   0  0  0  0  0  0
  -22.1663   -4.2163   21.0972 F   0  0  0  0  0  0
  -21.5635   -3.4518   25.7733 F   0  0  0  0  0  0
  -30.0293  -13.3370   20.4437 N   0  0  0  0  0  0
  -26.3036  -12.9307   20.3332 N   0  0  0  0  0  0
  -25.9324  -11.6477   20.5767 N   0  0  0  0  0  0
  -22.0508  -12.8250   22.0418 N   0  0  0  0  0  0
  -25.4305  -15.1877   20.4105 N   0  0  0  0  0  0
  -31.8402  -14.6634   20.1302 O   0  0  0  0  0  0
  -21.6632   -6.8881   21.4242 O   0  0  0  0  0  0
  -22.3568  -14.5545   20.6703 O   0  0  0  0  0  0
  -24.6179  -31.8681   23.2113 C   0  0  0  0  0  0
  -25.9062  -32.4819   23.8407 C   0  0  1  0  0  0
  -27.2182  -27.4106   20.1003 C   0  0  0  0  0  0
  -25.5914  -33.8621   24.2325 N   0  0  0  0  0  0
  -23.4055  -30.4964   21.5522 C   0  0  2  0  0  0
  -24.8496  -28.9719   20.1077 C   0  0  0  0  0  0
  -22.7413  -29.4668   22.4966 C   0  0  0  0  0  0
  -18.0271  -28.1362   22.8491 C   0  0  0  0  0  0
  -24.1487  -36.7313   23.2634 C   0  0  0  0  0  0
  -25.9405  -30.8301   21.3681 C   0  0  0  0  0  0
  -26.0161  -29.4684   20.7035 C   0  0  0  0  0  0
  -27.2073  -28.6988   20.6910 C   0  0  0  0  0  0
  -26.0335  -26.9502   19.4769 C   0  0  0  0  0  0
  -24.8556  -27.7147   19.4878 C   0  0  0  0  0  0
  -23.6129  -29.8397   20.1641 C   0  0  0  0  0  0
  -25.4106  -36.3116   24.0338 C   0  0  1  0  0  0
  -20.5869  -28.3656   23.1294 C   0  0  2  0  0  0
  -20.6753  -26.9386   22.5406 C   0  0  0  0  0  0
  -19.5733  -26.6372   21.5203 C   0  0  0  0  0  0
  -18.1916  -26.7907   22.1622 C   0  0  0  0  0  0
  -19.1522  -28.8824   23.2899 C   0  0  0  0  0  0
  -18.9454  -30.1428   23.8906 C   0  0  0  0  0  0
  -17.6459  -30.6572   24.0555 C   0  0  0  0  0  0
  -25.9043  -34.9478   23.5136 C   0  0  0  0  0  0
  -16.5347  -29.9073   23.6320 C   0  0  0  0  0  0
  -16.7261  -28.6486   23.0350 C   0  0  0  0  0  0
  -26.4477  -31.6606   25.0745 C   0  0  0  0  0  0
  -25.3765  -31.3728   26.1518 C   0  0  0  0  0  0
  -27.0287  -30.3028   24.6149 C   0  0  0  0  0  0
  -27.6040  -32.4350   25.7516 C   0  0  0  0  0  0
  -27.5584  -37.1803   24.8460 C   0  0  0  0  0  0
  -21.4136  -29.3038   22.3708 N   0  0  0  0  0  0
  -26.4283  -37.3806   23.9427 N   0  0  0  0  0  0
  -24.6734  -31.0776   22.1019 N   0  0  0  0  0  0
  -23.4177  -28.8193   23.3004 O   0  0  0  0  0  0
  -28.3394  -26.5977   20.1715 O   0  0  0  0  0  0
  -26.5599  -34.8927   22.4695 O   0  0  0  0  0  0
  -23.5369  -32.1437   23.7504 O   0  0  0  0  0  0
  -28.3514  -18.4404   21.5934 C   0  0  0  0  0  0
  -28.1796  -19.8536   21.6361 C   0  0  0  0  0  0
  -29.6193  -18.2008   21.1403 C   0  0  0  0  0  0
  -29.3469  -20.4174   21.2011 C   0  0  0  0  0  0
  -30.3300  -16.9753   20.8570 C   0  0  0  0  0  0
  -29.8591  -15.7014   20.9103 C   0  0  0  0  0  0
  -30.1266  -22.3193   19.6201 C   0  0  0  0  0  0
  -30.0699  -23.8656   19.6362 C   0  0  0  0  0  0
  -28.7599  -22.9277   21.4576 C   0  0  0  0  0  0
  -29.8004  -21.8633   21.0472 C   0  0  1  0  0  0
  -29.2213  -24.2820   20.8558 C   0  0  2  0  0  0
  -28.0312  -25.2251   20.5252 C   0  0  0  0  0  0
  -30.2383  -19.4100   20.8918 O   0  0  0  0  0  0
  -31.4797  -12.4297   19.1499 H   0  0  0  0  0  0
  -30.3412  -11.3291   19.8708 H   0  0  0  0  0  0
  -29.7673  -11.7526   17.4619 H   0  0  0  0  0  0
  -29.6701  -13.4676   17.7629 H   0  0  0  0  0  0
  -27.8582  -11.2895   18.8499 H   0  0  0  0  0  0
  -27.3775  -12.5859   17.7865 H   0  0  0  0  0  0
  -27.6926  -14.2481   19.5496 H   0  0  0  0  0  0
  -28.6960  -11.9747   21.3343 H   0  0  0  0  0  0
  -28.4577  -13.6004   21.8771 H   0  0  0  0  0  0
  -25.2760   -9.5694   22.4750 H   0  0  0  0  0  0
  -24.0018   -7.4629   22.7445 H   0  0  0  0  0  0
  -21.0837   -8.8766   19.8952 H   0  0  0  0  0  0
  -22.3670  -10.9678   19.6173 H   0  0  0  0  0  0
  -21.1980   -7.6143   23.9738 H   0  0  0  0  0  0
  -21.1496   -6.0501   25.9093 H   0  0  0  0  0  0
  -22.0593   -2.7610   23.2829 H   0  0  0  0  0  0
  -22.4086  -11.9925   22.4867 H   0  0  0  0  0  0
  -21.1123  -13.1292   22.2577 H   0  0  0  0  0  0
  -24.6595  -15.8380   20.5119 H   0  0  0  0  0  0
  -26.2758  -15.6291   20.0705 H   0  0  0  0  0  0
  -26.7136  -32.5514   23.1175 H   0  0  0  0  0  0
  -25.0090  -33.9789   25.0484 H   0  0  0  0  0  0
  -22.6956  -31.3162   21.4182 H   0  0  0  0  0  0
  -23.3758  -35.9636   23.3285 H   0  0  0  0  0  0
  -24.3588  -36.8939   22.2050 H   0  0  0  0  0  0
  -23.7221  -37.6507   23.6652 H   0  0  0  0  0  0
  -26.0655  -31.6052   20.6106 H   0  0  0  0  0  0
  -26.8231  -30.8693   21.9956 H   0  0  0  0  0  0
  -28.1041  -29.0768   21.1606 H   0  0  0  0  0  0
  -25.9902  -25.9954   18.9752 H   0  0  0  0  0  0
  -23.9596  -27.3325   19.0183 H   0  0  0  0  0  0
  -23.7198  -30.6209   19.4111 H   0  0  0  0  0  0
  -22.7363  -29.2635   19.8638 H   0  0  0  0  0  0
  -25.1275  -36.1979   25.0823 H   0  0  0  0  0  0
  -20.9960  -28.3224   24.1416 H   0  0  0  0  0  0
  -20.5630  -26.2265   23.3599 H   0  0  0  0  0  0
  -21.6623  -26.7408   22.1211 H   0  0  0  0  0  0
  -19.6882  -25.6285   21.1228 H   0  0  0  0  0  0
  -19.6668  -27.3181   20.6733 H   0  0  0  0  0  0
  -17.4176  -26.6650   21.4036 H   0  0  0  0  0  0
  -18.0329  -26.0039   22.9010 H   0  0  0  0  0  0
  -19.7939  -30.7235   24.2276 H   0  0  0  0  0  0
  -17.5023  -31.6260   24.5153 H   0  0  0  0  0  0
  -15.5349  -30.2989   23.7635 H   0  0  0  0  0  0
  -15.8662  -28.0815   22.7065 H   0  0  0  0  0  0
  -24.5916  -30.7084   25.7885 H   0  0  0  0  0  0
  -24.8993  -32.2888   26.5006 H   0  0  0  0  0  0
  -25.8151  -30.8885   27.0252 H   0  0  0  0  0  0
  -26.2818  -29.6824   24.1177 H   0  0  0  0  0  0
  -27.3979  -29.7244   25.4628 H   0  0  0  0  0  0
  -27.8704  -30.4304   23.9343 H   0  0  0  0  0  0
  -27.2609  -33.3622   26.2127 H   0  0  0  0  0  0
  -28.3828  -32.6970   25.0339 H   0  0  0  0  0  0
  -28.0731  -31.8472   26.5418 H   0  0  0  0  0  0
  -28.2588  -38.0116   24.7544 H   0  0  0  0  0  0
  -28.1093  -36.2651   24.6230 H   0  0  0  0  0  0
  -27.2316  -37.1388   25.8865 H   0  0  0  0  0  0
  -20.9275  -29.8798   21.6980 H   0  0  0  0  0  0
  -26.0174  -38.2880   24.1456 H   0  0  0  0  0  0
  -27.6266  -17.6868   21.8630 H   0  0  0  0  0  0
  -27.3029  -20.3959   21.9599 H   0  0  0  0  0  0
  -31.3614  -17.1191   20.5637 H   0  0  0  0  0  0
  -28.8315  -15.5802   21.2123 H   0  0  0  0  0  0
  -31.0837  -21.9362   19.2637 H   0  0  0  0  0  0
  -29.3580  -21.9477   18.9404 H   0  0  0  0  0  0
  -29.6666  -24.2609   18.7021 H   0  0  0  0  0  0
  -31.0734  -24.2798   19.7440 H   0  0  0  0  0  0
  -28.6117  -22.9767   22.5369 H   0  0  0  0  0  0
  -27.7986  -22.6581   21.0178 H   0  0  0  0  0  0
  -30.6890  -22.0136   21.6620 H   0  0  0  0  0  0
  -29.8660  -24.7731   21.5858 H   0  0  0  0  0  0
  -27.3759  -25.2500   21.3999 H   0  0  0  0  0  0
  -27.4697  -24.7400   19.7276 H   0  0  0  0  0  0
  1 25  1  0  0  0
  1 30  2  0  0  0
  1 76  1  0  0  0
  2  3  1  0  0  0
  2 25  1  0  0  0
  2 84  1  0  0  0
  2 85  1  0  0  0
  3  4  1  0  0  0
  3 86  1  0  0  0
  3 87  1  0  0  0
  4  5  1  0  0  0
  4 88  1  0  0  0
  4 89  1  0  0  0
  5  6  1  0  0  0
  5 26  1  0  0  0
  5 90  1  0  0  0
  6 25  1  0  0  0
  6 91  1  0  0  0
  6 92  1  0  0  0
  7  8  2  0  0  0
  7 26  1  0  0  0
  7 29  1  0  0  0
  8  9  1  0  0  0
  8 22  1  0  0  0
  9 10  1  0  0  0
  9 27  2  0  0  0
 10 11  2  0  0  0
 10 15  1  0  0  0
 11 12  1  0  0  0
 11 93  1  0  0  0
 12 13  2  0  0  0
 12 94  1  0  0  0
 13 14  1  0  0  0
 13 31  1  0  0  0
 14 15  2  0  0  0
 14 95  1  0  0  0
 15 96  1  0  0  0
 16 17  2  0  0  0
 16 21  1  0  0  0
 16 31  1  0  0  0
 17 18  1  0  0  0
 17 97  1  0  0  0
 18 19  2  0  0  0
 18 98  1  0  0  0
 19 20  1  0  0  0
 19 24  1  0  0  0
 20 21  2  0  0  0
 20 99  1  0  0  0
 21 23  1  0  0  0
 22 28  1  0  0  0
 22 32  2  0  0  0
 26 27  1  0  0  0
 28100  1  0  0  0
 28101  1  0  0  0
 29102  1  0  0  0
 29103  1  0  0  0
 33 34  1  0  0  0
 33 66  1  0  0  0
 33 70  2  0  0  0
 34 36  1  0  0  0
 34 59  1  0  0  0
 34104  1  0  0  0
 35 44  2  0  0  0
 35 45  1  0  0  0
 35 68  1  0  0  0
 36 56  1  0  0  0
 36105  1  0  0  0
 37 39  1  0  0  0
 37 47  1  0  0  0
 37 66  1  0  0  0
 37106  1  0  0  0
 38 43  2  0  0  0
 38 46  1  0  0  0
 38 47  1  0  0  0
 39 64  1  0  0  0
 39 67  2  0  0  0
 40 52  1  0  0  0
 40 53  2  0  0  0
 40 58  1  0  0  0
 41107  1  0  0  0
 41108  1  0  0  0
 41109  1  0  0  0
 41 48  1  0  0  0
 42 43  1  0  0  0
 42 66  1  0  0  0
 42110  1  0  0  0
 42111  1  0  0  0
 43 44  1  0  0  0
 44112  1  0  0  0
 45 46  2  0  0  0
 45113  1  0  0  0
 46114  1  0  0  0
 47115  1  0  0  0
 47116  1  0  0  0
 48 56  1  0  0  0
 48 65  1  0  0  0
 48117  1  0  0  0
 49 50  1  0  0  0
 49 53  1  0  0  0
 49 64  1  0  0  0
 49118  1  0  0  0
 50 51  1  0  0  0
 50119  1  0  0  0
 50120  1  0  0  0
 51 52  1  0  0  0
 51121  1  0  0  0
 51122  1  0  0  0
 52123  1  0  0  0
 52124  1  0  0  0
 53 54  1  0  0  0
 54 55  2  0  0  0
 54125  1  0  0  0
 55 57  1  0  0  0
 55126  1  0  0  0
 56 69  2  0  0  0
 57 58  2  0  0  0
 57127  1  0  0  0
 58128  1  0  0  0
 59 60  1  0  0  0
 59 61  1  0  0  0
 59 62  1  0  0  0
 60129  1  0  0  0
 60130  1  0  0  0
 60131  1  0  0  0
 61132  1  0  0  0
 61133  1  0  0  0
 61134  1  0  0  0
 62135  1  0  0  0
 62136  1  0  0  0
 62137  1  0  0  0
 63 65  1  0  0  0
 63138  1  0  0  0
 63139  1  0  0  0
 63140  1  0  0  0
 64141  1  0  0  0
 65142  1  0  0  0
 68 82  1  0  0  0
 71 72  1  0  0  0
 71 73  2  0  0  0
 71143  1  0  0  0
 72 74  2  0  0  0
 72144  1  0  0  0
 73 75  1  0  0  0
 73 83  1  0  0  0
 74 83  1  0  0  0
 74 80  1  0  0  0
 75 76  2  0  0  0
 75145  1  0  0  0
 76146  1  0  0  0
 77 78  1  0  0  0
 77 80  1  0  0  0
 77147  1  0  0  0
 77148  1  0  0  0
 78 81  1  0  0  0
 78149  1  0  0  0
 78150  1  0  0  0
 79 80  1  0  0  0
 79 81  1  0  0  0
 79151  1  0  0  0
 79152  1  0  0  0
 80153  1  0  0  0
 81 82  1  0  0  0
 81154  1  0  0  0
 82155  1  0  0  0
 82156  1  0  0  0
M  ISO  4   1 100  68 101  76 100  82 101
M  END
> <chiral flag>
0

> <version>
0

> <s_m_source_file>
/data/baiqing/PycharmProjects/Reinvent-master-3.2/result/LINK_invent/BTK/process_docking_weight1_custom_product_contain_oxygen_bond_distance_aromatic_linkinvent_7_9_3/rearranged_h_0130.sdf

> <i_m_source_file_index>
20

> <r_mmod_Potential_Energy-OPLS-2005>
28.825870513916

> <r_mmod_Stretch_Energy-OPLS-2005>
41.8963203430176

> <r_mmod_Bend_Energy-OPLS-2005>
120.987632751465

> <r_mmod_Torsional_Energy-OPLS-2005>
238.750076293945

> <r_mmod_Improper_Torsional_Energy-OPLS-2005>
4.87185621261597

> <r_mmod_Van_der_Waal_Energy-OPLS-2005>
133.015518188477

> <r_mmod_Electrostatic_Energy-OPLS-2005>
-342.798645019531

> <r_mmod_Solvation_Energy-OPLS-2005>
-191.856750488281

> <b_mmod_Minimization_Converged-OPLS-2005>
0

> <r_mmod_RMS_Derivative-OPLS-2005>
2.87551522254944

$$$$
20
                    3D
 Structure written by MMmdl.
155163  0  0  1  0            999 V2000
  -30.6217  -14.7391   20.4224 C   0  0  0  0  0  0
  -30.4357  -12.4413   19.4705 C   0  0  0  0  0  0
  -29.5127  -12.4879   18.2326 C   0  0  0  0  0  0
  -28.0404  -12.2953   18.6471 C   0  0  0  0  0  0
  -27.6347  -13.2124   19.8282 C   0  0  2  0  0  0
  -28.6808  -13.1895   20.9638 C   0  0  0  0  0  0
  -25.2557  -13.8151   20.5681 C   0  0  0  0  0  0
  -24.1825  -13.0429   20.9202 C   0  0  0  0  0  0
  -24.6389  -11.6894   20.8757 C   0  0  0  0  0  0
  -23.9056  -10.4291   21.0431 C   0  0  0  0  0  0
  -24.3616   -9.4211   21.9207 C   0  0  0  0  0  0
  -23.6300   -8.2238   22.0766 C   0  0  0  0  0  0
  -22.4282   -8.0285   21.3551 C   0  0  0  0  0  0
  -21.9916   -9.0263   20.4654 C   0  0  0  0  0  0
  -22.7240  -10.2147   20.3070 C   0  0  0  0  0  0
  -21.6854   -6.0753   22.5291 C   0  0  0  0  0  0
  -21.4013   -6.5647   23.8233 C   0  0  0  0  0  0
  -21.3654   -5.6795   24.9192 C   0  0  0  0  0  0
  -21.6037   -4.3061   24.7233 C   0  0  0  0  0  0
  -21.8824   -3.8156   23.4356 C   0  0  0  0  0  0
  -21.9195   -4.6978   22.3418 C   0  0  0  0  0  0
  -22.7854  -13.5241   21.1861 C   0  0  0  0  0  0
  -22.1667   -4.2158   21.1001 F   0  0  0  0  0  0
  -21.5619   -3.4545   25.7748 F   0  0  0  0  0  0
  -29.9924  -13.5131   20.3894 N   0  0  0  0  0  0
  -26.2919  -12.9288   20.3185 N   0  0  0  0  0  0
  -25.9307  -11.6461   20.5725 N   0  0  0  0  0  0
  -22.0475  -12.8246   22.0407 N   0  0  0  0  0  0
  -25.4292  -15.1867   20.4162 N   0  0  0  0  0  0
  -31.8385  -14.7941   20.2280 O   0  0  0  0  0  0
  -21.6635   -6.8892   21.4255 O   0  0  0  0  0  0
  -22.3560  -14.5557   20.6719 O   0  0  0  0  0  0
  -24.6286  -31.8585   23.2020 C   0  0  0  0  0  0
  -25.9125  -32.4770   23.8357 C   0  0  1  0  0  0
  -27.2200  -27.2867   20.1240 C   0  0  0  0  0  0
  -25.5933  -33.8570   24.2278 N   0  0  0  0  0  0
  -23.4234  -30.4861   21.5436 C   0  0  2  0  0  0
  -24.8679  -28.9387   20.1120 C   0  0  0  0  0  0
  -22.7487  -29.4639   22.4905 C   0  0  0  0  0  0
  -18.0294  -28.1394   22.8484 C   0  0  0  0  0  0
  -24.1488  -36.7290   23.2638 C   0  0  0  0  0  0
  -25.9681  -30.7803   21.3783 C   0  0  0  0  0  0
  -26.0397  -29.4063   20.7186 C   0  0  0  0  0  0
  -27.2167  -28.5943   20.7130 C   0  0  0  0  0  0
  -26.0149  -26.8806   19.5002 C   0  0  0  0  0  0
  -24.8590  -27.6818   19.4932 C   0  0  0  0  0  0
  -23.6402  -29.8246   20.1588 C   0  0  0  0  0  0
  -25.4113  -36.3079   24.0330 C   0  0  1  0  0  0
  -20.5889  -28.3711   23.1260 C   0  0  2  0  0  0
  -20.6771  -26.9424   22.5400 C   0  0  0  0  0  0
  -19.5752  -26.6387   21.5205 C   0  0  0  0  0  0
  -18.1937  -26.7933   22.1622 C   0  0  0  0  0  0
  -19.1542  -28.8870   23.2874 C   0  0  0  0  0  0
  -18.9467  -30.1464   23.8902 C   0  0  0  0  0  0
  -17.6467  -30.6589   24.0567 C   0  0  0  0  0  0
  -25.9057  -34.9445   23.5104 C   0  0  0  0  0  0
  -16.5356  -29.9096   23.6322 C   0  0  0  0  0  0
  -16.7279  -28.6511   23.0345 C   0  0  0  0  0  0
  -26.4494  -31.6590   25.0739 C   0  0  0  0  0  0
  -25.3727  -31.3719   26.1470 C   0  0  0  0  0  0
  -27.0333  -30.3007   24.6210 C   0  0  0  0  0  0
  -27.6064  -32.4317   25.7501 C   0  0  0  0  0  0
  -27.5584  -37.1793   24.8461 C   0  0  0  0  0  0
  -21.4193  -29.3070   22.3651 N   0  0  0  0  0  0
  -26.4287  -37.3784   23.9418 N   0  0  0  0  0  0
  -24.6925  -31.0580   22.0980 N   0  0  0  0  0  0
  -23.4197  -28.8161   23.2984 O   0  0  0  0  0  0
  -28.3370  -26.4192   20.1863 O   0  0  0  0  0  0
  -26.5629  -34.8914   22.4671 O   0  0  0  0  0  0
  -23.5441  -32.1388   23.7336 O   0  0  0  0  0  0
  -27.8833  -19.6898   18.5550 C   0  0  0  0  0  0
  -28.5487  -18.5390   19.0284 C   0  0  0  0  0  0
  -28.0402  -20.9431   19.1807 C   0  0  0  0  0  0
  -29.5587  -19.8900   20.7680 C   0  0  0  0  0  0
  -29.4273  -18.5893   20.1330 C   0  0  0  0  0  0
  -28.8660  -21.0864   20.3118 C   0  0  0  0  0  0
  -30.1690  -17.2896   20.5073 C   0  0  0  0  0  0
  -29.7630  -15.9768   20.3269 C   0  0  0  0  0  0
  -28.3269  -24.8476   18.3409 C   0  0  0  0  0  0
  -28.8097  -22.4598   21.1002 C   0  0  0  0  0  0
  -29.2276  -23.9139   20.5279 C   0  0  0  0  0  0
  -28.1962  -24.9598   19.8721 C   0  0  1  0  0  0
  -31.4774  -12.5600   19.1689 H   0  0  0  0  0  0
  -30.3744  -11.4680   19.9591 H   0  0  0  0  0  0
  -29.8025  -11.7194   17.5154 H   0  0  0  0  0  0
  -29.6264  -13.4433   17.7192 H   0  0  0  0  0  0
  -27.9118  -11.2492   18.9296 H   0  0  0  0  0  0
  -27.3806  -12.4623   17.7948 H   0  0  0  0  0  0
  -27.6028  -14.2103   19.4003 H   0  0  0  0  0  0
  -28.7096  -12.2121   21.4471 H   0  0  0  0  0  0
  -28.4139  -13.9068   21.7409 H   0  0  0  0  0  0
  -25.2773   -9.5690   22.4769 H   0  0  0  0  0  0
  -24.0015   -7.4630   22.7491 H   0  0  0  0  0  0
  -21.0841   -8.8808   19.8962 H   0  0  0  0  0  0
  -22.3721  -10.9701   19.6175 H   0  0  0  0  0  0
  -21.2012   -7.6153   23.9743 H   0  0  0  0  0  0
  -21.1457   -6.0520   25.9091 H   0  0  0  0  0  0
  -22.0601   -2.7609   23.2866 H   0  0  0  0  0  0
  -22.4060  -11.9904   22.4804 H   0  0  0  0  0  0
  -21.1109  -13.1309   22.2603 H   0  0  0  0  0  0
  -24.6644  -15.8416   20.5404 H   0  0  0  0  0  0
  -26.2908  -15.6347   20.1336 H   0  0  0  0  0  0
  -26.7187  -32.5426   23.1101 H   0  0  0  0  0  0
  -25.0073  -33.9710   25.0416 H   0  0  0  0  0  0
  -22.7187  -31.3080   21.4007 H   0  0  0  0  0  0
  -23.3764  -35.9610   23.3278 H   0  0  0  0  0  0
  -24.3588  -36.8936   22.2058 H   0  0  0  0  0  0
  -23.7215  -37.6471   23.6676 H   0  0  0  0  0  0
  -26.1055  -31.5440   20.6115 H   0  0  0  0  0  0
  -26.8461  -30.8251   22.0114 H   0  0  0  0  0  0
  -28.1118  -28.9509   21.2023 H   0  0  0  0  0  0
  -25.9199  -25.9188   19.0214 H   0  0  0  0  0  0
  -23.9601  -27.3149   19.0167 H   0  0  0  0  0  0
  -23.7659  -30.6019   19.4049 H   0  0  0  0  0  0
  -22.7582  -29.2612   19.8506 H   0  0  0  0  0  0
  -25.1285  -36.1932   25.0823 H   0  0  0  0  0  0
  -20.9991  -28.3295   24.1380 H   0  0  0  0  0  0
  -20.5657  -26.2330   23.3616 H   0  0  0  0  0  0
  -21.6644  -26.7438   22.1213 H   0  0  0  0  0  0
  -19.6912  -25.6295   21.1252 H   0  0  0  0  0  0
  -19.6681  -27.3184   20.6726 H   0  0  0  0  0  0
  -17.4194  -26.6675   21.4033 H   0  0  0  0  0  0
  -18.0346  -26.0076   22.9024 H   0  0  0  0  0  0
  -19.7941  -30.7277   24.2272 H   0  0  0  0  0  0
  -17.5020  -31.6265   24.5172 H   0  0  0  0  0  0
  -15.5351  -30.3005   23.7634 H   0  0  0  0  0  0
  -15.8681  -28.0833   22.7051 H   0  0  0  0  0  0
  -24.5891  -30.7085   25.7785 H   0  0  0  0  0  0
  -24.8940  -32.2886   26.4926 H   0  0  0  0  0  0
  -25.8062  -30.8861   27.0226 H   0  0  0  0  0  0
  -26.2909  -29.6761   24.1228 H   0  0  0  0  0  0
  -27.4003  -29.7257   25.4721 H   0  0  0  0  0  0
  -27.8799  -30.4275   23.9459 H   0  0  0  0  0  0
  -27.2687  -33.3616   26.2084 H   0  0  0  0  0  0
  -28.3873  -32.6872   25.0328 H   0  0  0  0  0  0
  -28.0739  -31.8440   26.5410 H   0  0  0  0  0  0
  -28.2576  -38.0111   24.7545 H   0  0  0  0  0  0
  -28.1099  -36.2645   24.6243 H   0  0  0  0  0  0
  -27.2310  -37.1397   25.8862 H   0  0  0  0  0  0
  -20.9359  -29.8831   21.6902 H   0  0  0  0  0  0
  -26.0165  -38.2854   24.1441 H   0  0  0  0  0  0
  -27.2256  -19.6056   17.7008 H   0  0  0  0  0  0
  -28.4014  -17.6065   18.5015 H   0  0  0  0  0  0
  -27.4756  -21.7890   18.8137 H   0  0  0  0  0  0
  -30.1877  -19.9651   21.6427 H   0  0  0  0  0  0
  -31.1734  -17.4446   20.8768 H   0  0  0  0  0  0
  -28.7462  -15.8504   20.0034 H   0  0  0  0  0  0
  -28.0695  -23.8502   17.9882 H   0  0  0  0  0  0
  -29.3508  -25.0534   18.0273 H   0  0  0  0  0  0
  -27.6964  -25.5569   17.8079 H   0  0  0  0  0  0
  -29.4369  -22.2945   21.9762 H   0  0  0  0  0  0
  -27.8048  -22.5438   21.5144 H   0  0  0  0  0  0
  -30.1403  -23.8319   19.9365 H   0  0  0  0  0  0
  -29.5570  -24.4446   21.4214 H   0  0  0  0  0  0
  -27.2063  -24.6378   20.1948 H   0  0  0  0  0  0
  1 25  1  0  0  0
  1 30  2  0  0  0
  1 78  1  0  0  0
  2  3  1  0  0  0
  2 25  1  0  0  0
  2 83  1  0  0  0
  2 84  1  0  0  0
  3  4  1  0  0  0
  3 85  1  0  0  0
  3 86  1  0  0  0
  4  5  1  0  0  0
  4 87  1  0  0  0
  4 88  1  0  0  0
  5  6  1  0  0  0
  5 26  1  0  0  0
  5 89  1  0  0  0
  6 25  1  0  0  0
  6 90  1  0  0  0
  6 91  1  0  0  0
  7  8  2  0  0  0
  7 26  1  0  0  0
  7 29  1  0  0  0
  8  9  1  0  0  0
  8 22  1  0  0  0
  9 10  1  0  0  0
  9 27  2  0  0  0
 10 11  2  0  0  0
 10 15  1  0  0  0
 11 12  1  0  0  0
 11 92  1  0  0  0
 12 13  2  0  0  0
 12 93  1  0  0  0
 13 14  1  0  0  0
 13 31  1  0  0  0
 14 15  2  0  0  0
 14 94  1  0  0  0
 15 95  1  0  0  0
 16 17  2  0  0  0
 16 21  1  0  0  0
 16 31  1  0  0  0
 17 18  1  0  0  0
 17 96  1  0  0  0
 18 19  2  0  0  0
 18 97  1  0  0  0
 19 20  1  0  0  0
 19 24  1  0  0  0
 20 21  2  0  0  0
 20 98  1  0  0  0
 21 23  1  0  0  0
 22 28  1  0  0  0
 22 32  2  0  0  0
 26 27  1  0  0  0
 28 99  1  0  0  0
 28100  1  0  0  0
 29101  1  0  0  0
 29102  1  0  0  0
 33 34  1  0  0  0
 33 66  1  0  0  0
 33 70  2  0  0  0
 34 36  1  0  0  0
 34 59  1  0  0  0
 34103  1  0  0  0
 35 44  2  0  0  0
 35 45  1  0  0  0
 35 68  1  0  0  0
 36 56  1  0  0  0
 36104  1  0  0  0
 37 39  1  0  0  0
 37 47  1  0  0  0
 37 66  1  0  0  0
 37105  1  0  0  0
 38 43  2  0  0  0
 38 46  1  0  0  0
 38 47  1  0  0  0
 39 64  1  0  0  0
 39 67  2  0  0  0
 40 52  1  0  0  0
 40 53  2  0  0  0
 40 58  1  0  0  0
 41106  1  0  0  0
 41107  1  0  0  0
 41108  1  0  0  0
 41 48  1  0  0  0
 42 43  1  0  0  0
 42 66  1  0  0  0
 42109  1  0  0  0
 42110  1  0  0  0
 43 44  1  0  0  0
 44111  1  0  0  0
 45 46  2  0  0  0
 45112  1  0  0  0
 46113  1  0  0  0
 47114  1  0  0  0
 47115  1  0  0  0
 48 56  1  0  0  0
 48 65  1  0  0  0
 48116  1  0  0  0
 49 50  1  0  0  0
 49 53  1  0  0  0
 49 64  1  0  0  0
 49117  1  0  0  0
 50 51  1  0  0  0
 50118  1  0  0  0
 50119  1  0  0  0
 51 52  1  0  0  0
 51120  1  0  0  0
 51121  1  0  0  0
 52122  1  0  0  0
 52123  1  0  0  0
 53 54  1  0  0  0
 54 55  2  0  0  0
 54124  1  0  0  0
 55 57  1  0  0  0
 55125  1  0  0  0
 56 69  2  0  0  0
 57 58  2  0  0  0
 57126  1  0  0  0
 58127  1  0  0  0
 59 60  1  0  0  0
 59 61  1  0  0  0
 59 62  1  0  0  0
 60128  1  0  0  0
 60129  1  0  0  0
 60130  1  0  0  0
 61131  1  0  0  0
 61132  1  0  0  0
 61133  1  0  0  0
 62134  1  0  0  0
 62135  1  0  0  0
 62136  1  0  0  0
 63 65  1  0  0  0
 63137  1  0  0  0
 63138  1  0  0  0
 63139  1  0  0  0
 64140  1  0  0  0
 65141  1  0  0  0
 68 82  1  0  0  0
 71 72  2  0  0  0
 71 73  1  0  0  0
 71142  1  0  0  0
 72 75  1  0  0  0
 72143  1  0  0  0
 73 76  2  0  0  0
 73144  1  0  0  0
 74 75  2  0  0  0
 74 76  1  0  0  0
 74145  1  0  0  0
 75 77  1  0  0  0
 76 80  1  0  0  0
 77 78  2  0  0  0
 77146  1  0  0  0
 78147  1  0  0  0
 79148  1  0  0  0
 79149  1  0  0  0
 79150  1  0  0  0
 79 82  1  0  0  0
 80 81  1  0  0  0
 80151  1  0  0  0
 80152  1  0  0  0
 81 82  1  0  0  0
 81153  1  0  0  0
 81154  1  0  0  0
 82155  1  0  0  0
M  ISO  4   1 100  68 101  78 100  82 101
M  END
> <chiral flag>
0

> <version>
0

> <s_m_source_file>
/data/baiqing/PycharmProjects/Reinvent-master-3.2/result/LINK_invent/BTK/process_docking_weight1_custom_product_contain_oxygen_bond_distance_aromatic_linkinvent_7_9_3/rearranged_h_0130.sdf

> <i_m_source_file_index>
21

> <r_mmod_Potential_Energy-OPLS-2005>
198.367446899414

> <r_mmod_Stretch_Energy-OPLS-2005>
109.772163391113

> <r_mmod_Bend_Energy-OPLS-2005>
167.985656738281

> <r_mmod_Torsional_Energy-OPLS-2005>
216.093902587891

> <r_mmod_Improper_Torsional_Energy-OPLS-2005>
11.6714687347412

> <r_mmod_Van_der_Waal_Energy-OPLS-2005>
141.515411376953

> <r_mmod_Electrostatic_Energy-OPLS-2005>
-340.128173828125

> <r_mmod_Solvation_Energy-OPLS-2005>
-190.237579345703

> <b_mmod_Minimization_Converged-OPLS-2005>
0

> <r_mmod_RMS_Derivative-OPLS-2005>
2.25261950492859

$$$$
21
                    3D
 Structure written by MMmdl.
157165  0  0  1  0            999 V2000
  -30.7106  -14.4876   20.5982 C   0  0  0  0  0  0
  -30.4148  -12.3091   19.4590 C   0  0  0  0  0  0
  -29.5069  -12.5009   18.2240 C   0  0  0  0  0  0
  -28.0201  -12.3784   18.6165 C   0  0  0  0  0  0
  -27.6619  -13.2162   19.8757 C   0  0  2  0  0  0
  -28.6970  -13.0058   21.0076 C   0  0  0  0  0  0
  -25.2582  -13.8191   20.5710 C   0  0  0  0  0  0
  -24.1837  -13.0463   20.9213 C   0  0  0  0  0  0
  -24.6397  -11.6922   20.8740 C   0  0  0  0  0  0
  -23.9070  -10.4286   21.0389 C   0  0  0  0  0  0
  -24.3635   -9.4207   21.9164 C   0  0  0  0  0  0
  -23.6326   -8.2234   22.0752 C   0  0  0  0  0  0
  -22.4297   -8.0275   21.3547 C   0  0  0  0  0  0
  -21.9904   -9.0251   20.4668 C   0  0  0  0  0  0
  -22.7238  -10.2130   20.3059 C   0  0  0  0  0  0
  -21.6866   -6.0761   22.5284 C   0  0  0  0  0  0
  -21.4015   -6.5637   23.8224 C   0  0  0  0  0  0
  -21.3673   -5.6779   24.9168 C   0  0  0  0  0  0
  -21.6048   -4.3054   24.7212 C   0  0  0  0  0  0
  -21.8806   -3.8157   23.4332 C   0  0  0  0  0  0
  -21.9180   -4.6986   22.3395 C   0  0  0  0  0  0
  -22.7852  -13.5278   21.1829 C   0  0  0  0  0  0
  -22.1652   -4.2184   21.0969 F   0  0  0  0  0  0
  -21.5627   -3.4529   25.7710 F   0  0  0  0  0  0
  -30.0287  -13.3080   20.4719 N   0  0  0  0  0  0
  -26.3018  -12.9398   20.3350 N   0  0  0  0  0  0
  -25.9317  -11.6550   20.5759 N   0  0  0  0  0  0
  -22.0421  -12.8332   22.0385 N   0  0  0  0  0  0
  -25.4290  -15.1925   20.4218 N   0  0  0  0  0  0
  -31.7969  -14.6577   20.0398 O   0  0  0  0  0  0
  -21.6655   -6.8896   21.4241 O   0  0  0  0  0  0
  -22.3576  -14.5553   20.6606 O   0  0  0  0  0  0
  -24.6170  -31.8646   23.2063 C   0  0  0  0  0  0
  -25.9051  -32.4814   23.8378 C   0  0  1  0  0  0
  -27.2366  -27.4013   20.1024 C   0  0  0  0  0  0
  -25.5911  -33.8626   24.2298 N   0  0  0  0  0  0
  -23.4070  -30.4838   21.5433 C   0  0  2  0  0  0
  -24.8535  -28.9429   20.1063 C   0  0  0  0  0  0
  -22.7427  -29.4638   22.4968 C   0  0  0  0  0  0
  -18.0296  -28.1372   22.8468 C   0  0  0  0  0  0
  -24.1473  -36.7285   23.2636 C   0  0  0  0  0  0
  -25.9386  -30.8122   21.3705 C   0  0  0  0  0  0
  -26.0113  -29.4478   20.7116 C   0  0  0  0  0  0
  -27.2032  -28.6862   20.7010 C   0  0  0  0  0  0
  -26.0584  -26.9123   19.4938 C   0  0  0  0  0  0
  -24.8753  -27.6801   19.4887 C   0  0  0  0  0  0
  -23.6154  -29.8096   20.1597 C   0  0  0  0  0  0
  -25.4113  -36.3110   24.0325 C   0  0  1  0  0  0
  -20.5865  -28.3655   23.1302 C   0  0  2  0  0  0
  -20.6765  -26.9400   22.5378 C   0  0  0  0  0  0
  -19.5754  -26.6370   21.5170 C   0  0  0  0  0  0
  -18.1935  -26.7929   22.1593 C   0  0  0  0  0  0
  -19.1529  -28.8843   23.2880 C   0  0  0  0  0  0
  -18.9462  -30.1439   23.8908 C   0  0  0  0  0  0
  -17.6465  -30.6593   24.0535 C   0  0  0  0  0  0
  -25.9040  -34.9477   23.5106 C   0  0  0  0  0  0
  -16.5355  -29.9075   23.6327 C   0  0  0  0  0  0
  -16.7282  -28.6473   23.0381 C   0  0  0  0  0  0
  -26.4466  -31.6664   25.0759 C   0  0  0  0  0  0
  -25.3724  -31.3796   26.1506 C   0  0  0  0  0  0
  -27.0304  -30.3104   24.6203 C   0  0  0  0  0  0
  -27.6019  -32.4440   25.7513 C   0  0  0  0  0  0
  -27.5594  -37.1788   24.8461 C   0  0  0  0  0  0
  -21.4155  -29.3023   22.3718 N   0  0  0  0  0  0
  -26.4302  -37.3793   23.9404 N   0  0  0  0  0  0
  -24.6712  -31.0702   22.0973 N   0  0  0  0  0  0
  -23.4185  -28.8220   23.3050 O   0  0  0  0  0  0
  -28.4218  -26.6826   20.1573 O   0  0  0  0  0  0
  -26.5588  -34.8949   22.4661 O   0  0  0  0  0  0
  -23.5366  -32.1415   23.7430 O   0  0  0  0  0  0
  -29.8388  -18.2574   22.8714 C   0  0  0  0  0  0
  -28.9782  -19.1591   20.7791 C   0  0  0  0  0  0
  -29.0474  -20.5653   22.7723 C   0  0  0  0  0  0
  -29.5658  -18.0776   21.4959 C   0  0  0  0  0  0
  -29.6015  -19.4956   23.5025 C   0  0  0  0  0  0
  -28.7133  -20.4098   21.4102 C   0  0  0  0  0  0
  -29.9405  -16.8014   20.8206 C   0  0  0  0  0  0
  -30.0954  -15.5678   21.3777 C   0  0  0  0  0  0
  -28.1058  -24.2075   20.5198 C   0  0  0  0  0  0
  -29.9693  -19.6876   24.9632 C   0  0  0  0  0  0
  -28.0033  -21.5708   20.6901 C   0  0  0  0  0  0
  -28.8653  -22.8518   20.4465 C   0  0  0  0  0  0
  -28.5569  -25.3579   19.5803 C   0  0  0  0  0  0
  -27.1769  -24.3705   21.3193 O   0  0  0  0  0  0
  -31.4648  -12.3856   19.1739 H   0  0  0  0  0  0
  -30.3033  -11.3052   19.8744 H   0  0  0  0  0  0
  -29.7537  -11.7510   17.4703 H   0  0  0  0  0  0
  -29.6976  -13.4757   17.7681 H   0  0  0  0  0  0
  -27.8123  -11.3244   18.8055 H   0  0  0  0  0  0
  -27.3871  -12.6719   17.7767 H   0  0  0  0  0  0
  -27.7058  -14.2641   19.5785 H   0  0  0  0  0  0
  -28.6710  -11.9727   21.3579 H   0  0  0  0  0  0
  -28.4497  -13.6107   21.8787 H   0  0  0  0  0  0
  -25.2763   -9.5720   22.4766 H   0  0  0  0  0  0
  -24.0044   -7.4634   22.7479 H   0  0  0  0  0  0
  -21.0796   -8.8794   19.9011 H   0  0  0  0  0  0
  -22.3662  -10.9689   19.6202 H   0  0  0  0  0  0
  -21.2013   -7.6149   23.9732 H   0  0  0  0  0  0
  -21.1514   -6.0507   25.9075 H   0  0  0  0  0  0
  -22.0583   -2.7627   23.2788 H   0  0  0  0  0  0
  -22.4021  -12.0102   22.4952 H   0  0  0  0  0  0
  -21.1039  -13.1465   22.2470 H   0  0  0  0  0  0
  -24.6695  -15.8500   20.5607 H   0  0  0  0  0  0
  -26.2998  -15.6374   20.1563 H   0  0  0  0  0  0
  -26.7137  -32.5488   23.1148 H   0  0  0  0  0  0
  -25.0154  -33.9792   25.0511 H   0  0  0  0  0  0
  -22.6983  -31.3023   21.4005 H   0  0  0  0  0  0
  -23.3766  -35.9582   23.3295 H   0  0  0  0  0  0
  -24.3564  -36.8912   22.2053 H   0  0  0  0  0  0
  -23.7193  -37.6466   23.6663 H   0  0  0  0  0  0
  -26.0767  -31.5814   20.6086 H   0  0  0  0  0  0
  -26.8190  -30.8522   22.0000 H   0  0  0  0  0  0
  -28.1025  -29.0707   21.1603 H   0  0  0  0  0  0
  -26.0292  -25.9342   19.0334 H   0  0  0  0  0  0
  -23.9839  -27.2902   19.0128 H   0  0  0  0  0  0
  -23.7244  -30.5780   19.3949 H   0  0  0  0  0  0
  -22.7397  -29.2238   19.8689 H   0  0  0  0  0  0
  -25.1294  -36.1947   25.0817 H   0  0  0  0  0  0
  -20.9972  -28.3208   24.1411 H   0  0  0  0  0  0
  -20.5631  -26.2272   23.3547 H   0  0  0  0  0  0
  -21.6648  -26.7417   22.1191 H   0  0  0  0  0  0
  -19.6890  -25.6263   21.1242 H   0  0  0  0  0  0
  -19.6722  -27.3137   20.6663 H   0  0  0  0  0  0
  -17.4190  -26.6696   21.4002 H   0  0  0  0  0  0
  -18.0359  -26.0080   22.9012 H   0  0  0  0  0  0
  -19.7947  -30.7228   24.2320 H   0  0  0  0  0  0
  -17.5030  -31.6290   24.5110 H   0  0  0  0  0  0
  -15.5354  -30.2966   23.7648 H   0  0  0  0  0  0
  -15.8689  -28.0751   22.7148 H   0  0  0  0  0  0
  -24.5842  -30.7221   25.7824 H   0  0  0  0  0  0
  -24.8984  -32.2981   26.4997 H   0  0  0  0  0  0
  -25.8064  -30.8905   27.0240 H   0  0  0  0  0  0
  -26.2866  -29.6900   24.1201 H   0  0  0  0  0  0
  -27.3989  -29.7337   25.4693 H   0  0  0  0  0  0
  -27.8746  -30.4417   23.9429 H   0  0  0  0  0  0
  -27.2586  -33.3721   26.2109 H   0  0  0  0  0  0
  -28.3791  -32.7081   25.0324 H   0  0  0  0  0  0
  -28.0753  -31.8606   26.5418 H   0  0  0  0  0  0
  -28.2576  -38.0115   24.7553 H   0  0  0  0  0  0
  -28.1124  -36.2652   24.6223 H   0  0  0  0  0  0
  -27.2325  -37.1369   25.8866 H   0  0  0  0  0  0
  -20.9333  -29.8708   21.6898 H   0  0  0  0  0  0
  -26.0183  -38.2857   24.1443 H   0  0  0  0  0  0
  -30.2896  -17.4576   23.4427 H   0  0  0  0  0  0
  -28.7323  -19.0270   19.7360 H   0  0  0  0  0  0
  -28.8589  -21.5092   23.2702 H   0  0  0  0  0  0
  -30.1763  -16.9064   19.7700 H   0  0  0  0  0  0
  -29.8355  -15.3916   22.4125 H   0  0  0  0  0  0
  -29.9862  -18.7395   25.5007 H   0  0  0  0  0  0
  -29.2603  -20.3461   25.4639 H   0  0  0  0  0  0
  -30.9597  -20.1359   25.0463 H   0  0  0  0  0  0
  -27.1173  -21.8118   21.2797 H   0  0  0  0  0  0
  -27.6126  -21.2161   19.7339 H   0  0  0  0  0  0
  -29.6495  -22.9080   21.2018 H   0  0  0  0  0  0
  -29.3834  -22.7640   19.4900 H   0  0  0  0  0  0
  -28.0566  -25.2769   18.6157 H   0  0  0  0  0  0
  -29.6180  -25.2137   19.3765 H   0  0  0  0  0  0
  1 25  1  0  0  0
  1 30  2  0  0  0
  1 78  1  0  0  0
  2  3  1  0  0  0
  2 25  1  0  0  0
  2 85  1  0  0  0
  2 86  1  0  0  0
  3  4  1  0  0  0
  3 87  1  0  0  0
  3 88  1  0  0  0
  4  5  1  0  0  0
  4 89  1  0  0  0
  4 90  1  0  0  0
  5  6  1  0  0  0
  5 26  1  0  0  0
  5 91  1  0  0  0
  6 25  1  0  0  0
  6 92  1  0  0  0
  6 93  1  0  0  0
  7  8  2  0  0  0
  7 26  1  0  0  0
  7 29  1  0  0  0
  8  9  1  0  0  0
  8 22  1  0  0  0
  9 10  1  0  0  0
  9 27  2  0  0  0
 10 11  2  0  0  0
 10 15  1  0  0  0
 11 12  1  0  0  0
 11 94  1  0  0  0
 12 13  2  0  0  0
 12 95  1  0  0  0
 13 14  1  0  0  0
 13 31  1  0  0  0
 14 15  2  0  0  0
 14 96  1  0  0  0
 15 97  1  0  0  0
 16 17  2  0  0  0
 16 21  1  0  0  0
 16 31  1  0  0  0
 17 18  1  0  0  0
 17 98  1  0  0  0
 18 19  2  0  0  0
 18 99  1  0  0  0
 19 20  1  0  0  0
 19 24  1  0  0  0
 20 21  2  0  0  0
 20100  1  0  0  0
 21 23  1  0  0  0
 22 28  1  0  0  0
 22 32  2  0  0  0
 26 27  1  0  0  0
 28101  1  0  0  0
 28102  1  0  0  0
 29103  1  0  0  0
 29104  1  0  0  0
 33 34  1  0  0  0
 33 66  1  0  0  0
 33 70  2  0  0  0
 34 36  1  0  0  0
 34 59  1  0  0  0
 34105  1  0  0  0
 35 44  2  0  0  0
 35 45  1  0  0  0
 35 68  1  0  0  0
 36 56  1  0  0  0
 36106  1  0  0  0
 37 39  1  0  0  0
 37 47  1  0  0  0
 37 66  1  0  0  0
 37107  1  0  0  0
 38 43  2  0  0  0
 38 46  1  0  0  0
 38 47  1  0  0  0
 39 64  1  0  0  0
 39 67  2  0  0  0
 40 52  1  0  0  0
 40 53  2  0  0  0
 40 58  1  0  0  0
 41108  1  0  0  0
 41109  1  0  0  0
 41110  1  0  0  0
 41 48  1  0  0  0
 42 43  1  0  0  0
 42 66  1  0  0  0
 42111  1  0  0  0
 42112  1  0  0  0
 43 44  1  0  0  0
 44113  1  0  0  0
 45 46  2  0  0  0
 45114  1  0  0  0
 46115  1  0  0  0
 47116  1  0  0  0
 47117  1  0  0  0
 48 56  1  0  0  0
 48 65  1  0  0  0
 48118  1  0  0  0
 49 50  1  0  0  0
 49 53  1  0  0  0
 49 64  1  0  0  0
 49119  1  0  0  0
 50 51  1  0  0  0
 50120  1  0  0  0
 50121  1  0  0  0
 51 52  1  0  0  0
 51122  1  0  0  0
 51123  1  0  0  0
 52124  1  0  0  0
 52125  1  0  0  0
 53 54  1  0  0  0
 54 55  2  0  0  0
 54126  1  0  0  0
 55 57  1  0  0  0
 55127  1  0  0  0
 56 69  2  0  0  0
 57 58  2  0  0  0
 57128  1  0  0  0
 58129  1  0  0  0
 59 60  1  0  0  0
 59 61  1  0  0  0
 59 62  1  0  0  0
 60130  1  0  0  0
 60131  1  0  0  0
 60132  1  0  0  0
 61133  1  0  0  0
 61134  1  0  0  0
 61135  1  0  0  0
 62136  1  0  0  0
 62137  1  0  0  0
 62138  1  0  0  0
 63 65  1  0  0  0
 63139  1  0  0  0
 63140  1  0  0  0
 63141  1  0  0  0
 64142  1  0  0  0
 65143  1  0  0  0
 68 83  1  0  0  0
 71 74  2  0  0  0
 71 75  1  0  0  0
 71144  1  0  0  0
 72 74  1  0  0  0
 72 76  2  0  0  0
 72145  1  0  0  0
 73 75  2  0  0  0
 73 76  1  0  0  0
 73146  1  0  0  0
 74 77  1  0  0  0
 75 80  1  0  0  0
 76 81  1  0  0  0
 77 78  2  0  0  0
 77147  1  0  0  0
 78148  1  0  0  0
 79 82  1  0  0  0
 79 83  1  0  0  0
 79 84  2  0  0  0
 80149  1  0  0  0
 80150  1  0  0  0
 80151  1  0  0  0
 81 82  1  0  0  0
 81152  1  0  0  0
 81153  1  0  0  0
 82154  1  0  0  0
 82155  1  0  0  0
 83156  1  0  0  0
 83157  1  0  0  0
M  ISO  4   1 100  68 101  78 100  83 101
M  END
> <chiral flag>
0

> <version>
0

> <s_m_source_file>
/data/baiqing/PycharmProjects/Reinvent-master-3.2/result/LINK_invent/BTK/process_docking_weight1_custom_product_contain_oxygen_bond_distance_aromatic_linkinvent_7_9_3/rearranged_h_0130.sdf

> <i_m_source_file_index>
22

> <r_mmod_Potential_Energy-OPLS-2005>
-18.1989231109619

> <r_mmod_Stretch_Energy-OPLS-2005>
46.7924194335938

> <r_mmod_Bend_Energy-OPLS-2005>
111.680267333984

> <r_mmod_Torsional_Energy-OPLS-2005>
197.733947753906

> <r_mmod_Improper_Torsional_Energy-OPLS-2005>
3.46796178817749

> <r_mmod_Van_der_Waal_Energy-OPLS-2005>
144.002593994141

> <r_mmod_Electrostatic_Energy-OPLS-2005>
-327.548919677734

> <r_mmod_Solvation_Energy-OPLS-2005>
-210.926605224609

> <b_mmod_Minimization_Converged-OPLS-2005>
0

> <r_mmod_RMS_Derivative-OPLS-2005>
4.94585418701172

$$$$
22
                    3D
 Structure written by MMmdl.
167175  0  0  1  0            999 V2000
  -30.7660  -14.3785   20.6769 C   0  0  0  0  0  0
  -30.4159  -12.2928   19.4049 C   0  0  0  0  0  0
  -29.4847  -12.5165   18.1988 C   0  0  0  0  0  0
  -28.0107  -12.3669   18.6176 C   0  0  0  0  0  0
  -27.6641  -13.2018   19.8783 C   0  0  2  0  0  0
  -28.7008  -12.9591   20.9974 C   0  0  0  0  0  0
  -25.2599  -13.8155   20.5673 C   0  0  0  0  0  0
  -24.1842  -13.0436   20.9177 C   0  0  0  0  0  0
  -24.6387  -11.6901   20.8734 C   0  0  0  0  0  0
  -23.9050  -10.4294   21.0409 C   0  0  0  0  0  0
  -24.3601   -9.4213   21.9190 C   0  0  0  0  0  0
  -23.6285   -8.2248   22.0756 C   0  0  0  0  0  0
  -22.4270   -8.0283   21.3545 C   0  0  0  0  0  0
  -21.9906   -9.0250   20.4640 C   0  0  0  0  0  0
  -22.7228  -10.2134   20.3054 C   0  0  0  0  0  0
  -21.6849   -6.0736   22.5281 C   0  0  0  0  0  0
  -21.4008   -6.5639   23.8213 C   0  0  0  0  0  0
  -21.3660   -5.6789   24.9175 C   0  0  0  0  0  0
  -21.6045   -4.3055   24.7223 C   0  0  0  0  0  0
  -21.8822   -3.8149   23.4345 C   0  0  0  0  0  0
  -21.9191   -4.6963   22.3401 C   0  0  0  0  0  0
  -22.7868  -13.5253   21.1831 C   0  0  0  0  0  0
  -22.1663   -4.2146   21.0978 F   0  0  0  0  0  0
  -21.5630   -3.4539   25.7739 F   0  0  0  0  0  0
  -30.0433  -13.2490   20.4584 N   0  0  0  0  0  0
  -26.3026  -12.9316   20.3370 N   0  0  0  0  0  0
  -25.9312  -11.6478   20.5760 N   0  0  0  0  0  0
  -22.0494  -12.8240   22.0380 N   0  0  0  0  0  0
  -25.4340  -15.1862   20.4077 N   0  0  0  0  0  0
  -31.8070  -14.6354   20.0623 O   0  0  0  0  0  0
  -21.6639   -6.8877   21.4242 O   0  0  0  0  0  0
  -22.3558  -14.5561   20.6687 O   0  0  0  0  0  0
  -24.6097  -31.8712   23.2135 C   0  0  0  0  0  0
  -25.9018  -32.4842   23.8417 C   0  0  1  0  0  0
  -27.2430  -27.4905   20.0886 C   0  0  0  0  0  0
  -25.5893  -33.8642   24.2345 N   0  0  0  0  0  0
  -23.3952  -30.4955   21.5513 C   0  0  2  0  0  0
  -24.8446  -28.9624   20.1185 C   0  0  0  0  0  0
  -22.7374  -29.4679   22.4996 C   0  0  0  0  0  0
  -18.0258  -28.1378   22.8477 C   0  0  0  0  0  0
  -24.1490  -36.7341   23.2628 C   0  0  0  0  0  0
  -25.9160  -30.8555   21.3553 C   0  0  0  0  0  0
  -25.9989  -29.4885   20.7144 C   0  0  0  0  0  0
  -27.2027  -28.7554   20.7067 C   0  0  0  0  0  0
  -26.0807  -26.9633   19.4934 C   0  0  0  0  0  0
  -24.8758  -27.6939   19.5099 C   0  0  0  0  0  0
  -23.6040  -29.8255   20.1654 C   0  0  0  0  0  0
  -25.4100  -36.3127   24.0337 C   0  0  1  0  0  0
  -20.5847  -28.3660   23.1301 C   0  0  2  0  0  0
  -20.6753  -26.9395   22.5395 C   0  0  0  0  0  0
  -19.5737  -26.6386   21.5188 C   0  0  0  0  0  0
  -18.1907  -26.7925   22.1594 C   0  0  0  0  0  0
  -19.1508  -28.8828   23.2893 C   0  0  0  0  0  0
  -18.9452  -30.1426   23.8920 C   0  0  0  0  0  0
  -17.6463  -30.6584   24.0563 C   0  0  0  0  0  0
  -25.9018  -34.9490   23.5132 C   0  0  0  0  0  0
  -16.5350  -29.9093   23.6326 C   0  0  0  0  0  0
  -16.7251  -28.6506   23.0344 C   0  0  0  0  0  0
  -26.4473  -31.6604   25.0710 C   0  0  0  0  0  0
  -25.3774  -31.3706   26.1480 C   0  0  0  0  0  0
  -27.0286  -30.3061   24.6023 C   0  0  0  0  0  0
  -27.6039  -32.4321   25.7487 C   0  0  0  0  0  0
  -27.5588  -37.1813   24.8452 C   0  0  0  0  0  0
  -21.4107  -29.3041   22.3719 N   0  0  0  0  0  0
  -26.4291  -37.3801   23.9410 N   0  0  0  0  0  0
  -24.6587  -31.0870   22.1006 N   0  0  0  0  0  0
  -23.4157  -28.8214   23.3023 O   0  0  0  0  0  0
  -28.4066  -26.7757   20.0303 O   0  0  0  0  0  0
  -26.5563  -34.8936   22.4680 O   0  0  0  0  0  0
  -23.5307  -32.1425   23.7580 O   0  0  0  0  0  0
  -32.6904  -17.8195   22.7286 C   0  0  0  0  0  0
  -31.8943  -18.9740   22.6692 C   0  0  0  0  0  0
  -32.1432  -16.5763   22.3746 C   0  0  0  0  0  0
  -30.5366  -18.8942   22.2946 C   0  0  0  0  0  0
  -29.9619  -17.6297   21.9780 C   0  0  0  0  0  0
  -30.7918  -16.4741   21.9752 C   0  0  0  0  0  0
  -28.5930  -22.0412   23.5454 C   0  0  0  0  0  0
  -28.1734  -17.7530   20.1543 C   0  0  0  0  0  0
  -29.7575  -20.2033   22.2269 C   0  0  0  0  0  0
  -28.4757  -17.5071   21.6388 C   0  0  0  0  0  0
  -29.4903  -20.8069   23.6152 C   0  0  0  0  0  0
  -29.1750  -23.3213   22.9473 C   0  0  0  0  0  0
  -28.7447  -23.5084   21.4819 C   0  0  0  0  0  0
  -29.3686  -24.7416   20.8137 C   0  0  0  0  0  0
  -28.7131  -26.0699   21.2244 C   0  0  0  0  0  0
  -30.2658  -15.2057   21.6093 N   0  0  0  0  0  0
  -27.4284  -22.0057   23.9481 O   0  0  0  0  0  0
  -31.4595  -12.3898   19.1003 H   0  0  0  0  0  0
  -30.3136  -11.2739   19.7825 H   0  0  0  0  0  0
  -29.7214  -11.8056   17.4056 H   0  0  0  0  0  0
  -29.6504  -13.5110   17.7801 H   0  0  0  0  0  0
  -27.8301  -11.3093   18.8152 H   0  0  0  0  0  0
  -27.3524  -12.6370   17.7915 H   0  0  0  0  0  0
  -27.7190  -14.2525   19.5928 H   0  0  0  0  0  0
  -28.6647  -11.9193   21.3260 H   0  0  0  0  0  0
  -28.4438  -13.5443   21.8803 H   0  0  0  0  0  0
  -25.2742   -9.5694   22.4764 H   0  0  0  0  0  0
  -23.9991   -7.4644   22.7483 H   0  0  0  0  0  0
  -21.0839   -8.8765   19.8944 H   0  0  0  0  0  0
  -22.3690  -10.9667   19.6159 H   0  0  0  0  0  0
  -21.2000   -7.6144   23.9712 H   0  0  0  0  0  0
  -21.1478   -6.0522   25.9073 H   0  0  0  0  0  0
  -22.0601   -2.7610   23.2847 H   0  0  0  0  0  0
  -22.4088  -11.9893   22.4764 H   0  0  0  0  0  0
  -21.1112  -13.1272   22.2566 H   0  0  0  0  0  0
  -24.6698  -15.8439   20.5141 H   0  0  0  0  0  0
  -26.2877  -15.6179   20.0784 H   0  0  0  0  0  0
  -26.7091  -32.5596   23.1197 H   0  0  0  0  0  0
  -25.0115  -33.9809   25.0542 H   0  0  0  0  0  0
  -22.6831  -31.3117   21.4104 H   0  0  0  0  0  0
  -23.3750  -35.9678   23.3275 H   0  0  0  0  0  0
  -24.3601  -36.8954   22.2047 H   0  0  0  0  0  0
  -23.7248  -37.6544   23.6655 H   0  0  0  0  0  0
  -26.0058  -31.6179   20.5801 H   0  0  0  0  0  0
  -26.8117  -30.9239   21.9608 H   0  0  0  0  0  0
  -28.0985  -29.1602   21.1577 H   0  0  0  0  0  0
  -26.1152  -25.9957   19.0141 H   0  0  0  0  0  0
  -23.9881  -27.2849   19.0459 H   0  0  0  0  0  0
  -23.7106  -30.5991   19.4037 H   0  0  0  0  0  0
  -22.7303  -29.2417   19.8702 H   0  0  0  0  0  0
  -25.1268  -36.1995   25.0834 H   0  0  0  0  0  0
  -20.9941  -28.3237   24.1419 H   0  0  0  0  0  0
  -20.5658  -26.2266   23.3581 H   0  0  0  0  0  0
  -21.6623  -26.7444   22.1181 H   0  0  0  0  0  0
  -19.6910  -25.6305   21.1188 H   0  0  0  0  0  0
  -19.6690  -27.3221   20.6740 H   0  0  0  0  0  0
  -17.4174  -26.6673   21.3991 H   0  0  0  0  0  0
  -18.0307  -26.0061   22.8987 H   0  0  0  0  0  0
  -19.7943  -30.7199   24.2318 H   0  0  0  0  0  0
  -17.5041  -31.6268   24.5167 H   0  0  0  0  0  0
  -15.5357  -30.3011   23.7654 H   0  0  0  0  0  0
  -15.8641  -28.0842   22.7067 H   0  0  0  0  0  0
  -24.5934  -30.7041   25.7859 H   0  0  0  0  0  0
  -24.8983  -32.2865   26.4955 H   0  0  0  0  0  0
  -25.8158  -30.8883   27.0225 H   0  0  0  0  0  0
  -26.2784  -29.6823   24.1135 H   0  0  0  0  0  0
  -27.4139  -29.7285   25.4437 H   0  0  0  0  0  0
  -27.8592  -30.4382   23.9078 H   0  0  0  0  0  0
  -27.2628  -33.3596   26.2107 H   0  0  0  0  0  0
  -28.3854  -32.6914   25.0331 H   0  0  0  0  0  0
  -28.0713  -31.8421   26.5380 H   0  0  0  0  0  0
  -28.2564  -38.0150   24.7535 H   0  0  0  0  0  0
  -28.1119  -36.2675   24.6228 H   0  0  0  0  0  0
  -27.2315  -37.1401   25.8853 H   0  0  0  0  0  0
  -20.9264  -29.8789   21.6968 H   0  0  0  0  0  0
  -26.0188  -38.2874   24.1445 H   0  0  0  0  0  0
  -33.7258  -17.8895   23.0317 H   0  0  0  0  0  0
  -32.3342  -19.9306   22.9187 H   0  0  0  0  0  0
  -32.7734  -15.6987   22.4127 H   0  0  0  0  0  0
  -27.1025  -17.6799   19.9641 H   0  0  0  0  0  0
  -28.6767  -17.0228   19.5198 H   0  0  0  0  0  0
  -28.4939  -18.7456   19.8371 H   0  0  0  0  0  0
  -28.8260  -20.1033   21.6732 H   0  0  0  0  0  0
  -30.3570  -20.8996   21.6394 H   0  0  0  0  0  0
  -27.9012  -18.1934   22.2602 H   0  0  0  0  0  0
  -28.1017  -16.5242   21.9243 H   0  0  0  0  0  0
  -29.0062  -20.0694   24.2543 H   0  0  0  0  0  0
  -30.4277  -21.0811   24.0980 H   0  0  0  0  0  0
  -30.2615  -23.2862   23.0244 H   0  0  0  0  0  0
  -28.8452  -24.1679   23.5501 H   0  0  0  0  0  0
  -27.6565  -23.5645   21.4124 H   0  0  0  0  0  0
  -29.0306  -22.6307   20.9036 H   0  0  0  0  0  0
  -29.2640  -24.6172   19.7351 H   0  0  0  0  0  0
  -30.4439  -24.7765   20.9951 H   0  0  0  0  0  0
  -29.3907  -26.6629   21.8409 H   0  0  0  0  0  0
  -27.8172  -25.8912   21.8246 H   0  0  0  0  0  0
  -29.3613  -14.9574   21.9784 H   0  0  0  0  0  0
  1 25  1  0  0  0
  1 30  2  0  0  0
  1 86  1  0  0  0
  2  3  1  0  0  0
  2 25  1  0  0  0
  2 88  1  0  0  0
  2 89  1  0  0  0
  3  4  1  0  0  0
  3 90  1  0  0  0
  3 91  1  0  0  0
  4  5  1  0  0  0
  4 92  1  0  0  0
  4 93  1  0  0  0
  5  6  1  0  0  0
  5 26  1  0  0  0
  5 94  1  0  0  0
  6 25  1  0  0  0
  6 95  1  0  0  0
  6 96  1  0  0  0
  7  8  2  0  0  0
  7 26  1  0  0  0
  7 29  1  0  0  0
  8  9  1  0  0  0
  8 22  1  0  0  0
  9 10  1  0  0  0
  9 27  2  0  0  0
 10 11  2  0  0  0
 10 15  1  0  0  0
 11 12  1  0  0  0
 11 97  1  0  0  0
 12 13  2  0  0  0
 12 98  1  0  0  0
 13 14  1  0  0  0
 13 31  1  0  0  0
 14 15  2  0  0  0
 14 99  1  0  0  0
 15100  1  0  0  0
 16 17  2  0  0  0
 16 21  1  0  0  0
 16 31  1  0  0  0
 17 18  1  0  0  0
 17101  1  0  0  0
 18 19  2  0  0  0
 18102  1  0  0  0
 19 20  1  0  0  0
 19 24  1  0  0  0
 20 21  2  0  0  0
 20103  1  0  0  0
 21 23  1  0  0  0
 22 28  1  0  0  0
 22 32  2  0  0  0
 26 27  1  0  0  0
 28104  1  0  0  0
 28105  1  0  0  0
 29106  1  0  0  0
 29107  1  0  0  0
 33 34  1  0  0  0
 33 66  1  0  0  0
 33 70  2  0  0  0
 34 36  1  0  0  0
 34 59  1  0  0  0
 34108  1  0  0  0
 35 44  2  0  0  0
 35 45  1  0  0  0
 35 68  1  0  0  0
 36 56  1  0  0  0
 36109  1  0  0  0
 37 39  1  0  0  0
 37 47  1  0  0  0
 37 66  1  0  0  0
 37110  1  0  0  0
 38 43  2  0  0  0
 38 46  1  0  0  0
 38 47  1  0  0  0
 39 64  1  0  0  0
 39 67  2  0  0  0
 40 52  1  0  0  0
 40 53  2  0  0  0
 40 58  1  0  0  0
 41111  1  0  0  0
 41112  1  0  0  0
 41113  1  0  0  0
 41 48  1  0  0  0
 42 43  1  0  0  0
 42 66  1  0  0  0
 42114  1  0  0  0
 42115  1  0  0  0
 43 44  1  0  0  0
 44116  1  0  0  0
 45 46  2  0  0  0
 45117  1  0  0  0
 46118  1  0  0  0
 47119  1  0  0  0
 47120  1  0  0  0
 48 56  1  0  0  0
 48 65  1  0  0  0
 48121  1  0  0  0
 49 50  1  0  0  0
 49 53  1  0  0  0
 49 64  1  0  0  0
 49122  1  0  0  0
 50 51  1  0  0  0
 50123  1  0  0  0
 50124  1  0  0  0
 51 52  1  0  0  0
 51125  1  0  0  0
 51126  1  0  0  0
 52127  1  0  0  0
 52128  1  0  0  0
 53 54  1  0  0  0
 54 55  2  0  0  0
 54129  1  0  0  0
 55 57  1  0  0  0
 55130  1  0  0  0
 56 69  2  0  0  0
 57 58  2  0  0  0
 57131  1  0  0  0
 58132  1  0  0  0
 59 60  1  0  0  0
 59 61  1  0  0  0
 59 62  1  0  0  0
 60133  1  0  0  0
 60134  1  0  0  0
 60135  1  0  0  0
 61136  1  0  0  0
 61137  1  0  0  0
 61138  1  0  0  0
 62139  1  0  0  0
 62140  1  0  0  0
 62141  1  0  0  0
 63 65  1  0  0  0
 63142  1  0  0  0
 63143  1  0  0  0
 63144  1  0  0  0
 64145  1  0  0  0
 65146  1  0  0  0
 68 85  1  0  0  0
 71 72  2  0  0  0
 71 73  1  0  0  0
 71147  1  0  0  0
 72 74  1  0  0  0
 72148  1  0  0  0
 73 76  2  0  0  0
 73149  1  0  0  0
 74 75  2  0  0  0
 74 79  1  0  0  0
 75 76  1  0  0  0
 75 80  1  0  0  0
 76 86  1  0  0  0
 77 81  1  0  0  0
 77 82  1  0  0  0
 77 87  2  0  0  0
 78 80  1  0  0  0
 78150  1  0  0  0
 78151  1  0  0  0
 78152  1  0  0  0
 79 81  1  0  0  0
 79153  1  0  0  0
 79154  1  0  0  0
 80155  1  0  0  0
 80156  1  0  0  0
 81157  1  0  0  0
 81158  1  0  0  0
 82 83  1  0  0  0
 82159  1  0  0  0
 82160  1  0  0  0
 83 84  1  0  0  0
 83161  1  0  0  0
 83162  1  0  0  0
 84 85  1  0  0  0
 84163  1  0  0  0
 84164  1  0  0  0
 85165  1  0  0  0
 85166  1  0  0  0
 86167  1  0  0  0
M  ISO  4   1 100  68 101  85 101  86 100
M  END
> <chiral flag>
0

> <version>
0

> <s_m_source_file>
/data/baiqing/PycharmProjects/Reinvent-master-3.2/result/LINK_invent/BTK/process_docking_weight1_custom_product_contain_oxygen_bond_distance_aromatic_linkinvent_7_9_3/rearranged_h_0130.sdf

> <i_m_source_file_index>
23

> <r_mmod_Potential_Energy-OPLS-2005>
-60.174747467041

> <r_mmod_Stretch_Energy-OPLS-2005>
32.6907768249512

> <r_mmod_Bend_Energy-OPLS-2005>
86.2901840209961

> <r_mmod_Torsional_Energy-OPLS-2005>
272.111511230469

> <r_mmod_Improper_Torsional_Energy-OPLS-2005>
1.97024190425873

> <r_mmod_Van_der_Waal_Energy-OPLS-2005>
147.468017578125

> <r_mmod_Electrostatic_Energy-OPLS-2005>
-391.71337890625

> <r_mmod_Solvation_Energy-OPLS-2005>
-215.195373535156

> <b_mmod_Minimization_Converged-OPLS-2005>
0

> <r_mmod_RMS_Derivative-OPLS-2005>
1.75993919372559

$$$$
23
                    3D
 Structure written by MMmdl.
162170  0  0  1  0            999 V2000
  -30.6354  -14.6536   20.5160 C   0  0  0  0  0  0
  -30.4379  -12.4040   19.4647 C   0  0  0  0  0  0
  -29.5108  -12.5170   18.2336 C   0  0  0  0  0  0
  -28.0339  -12.3529   18.6426 C   0  0  0  0  0  0
  -27.6549  -13.2241   19.8698 C   0  0  2  0  0  0
  -28.6986  -13.0851   21.0023 C   0  0  0  0  0  0
  -25.2493  -13.8153   20.5561 C   0  0  0  0  0  0
  -24.1808  -13.0421   20.9182 C   0  0  0  0  0  0
  -24.6410  -11.6906   20.8768 C   0  0  0  0  0  0
  -23.9080  -10.4287   21.0423 C   0  0  0  0  0  0
  -24.3624   -9.4198   21.9197 C   0  0  0  0  0  0
  -23.6294   -8.2236   22.0757 C   0  0  0  0  0  0
  -22.4276   -8.0280   21.3546 C   0  0  0  0  0  0
  -21.9919   -9.0257   20.4648 C   0  0  0  0  0  0
  -22.7254  -10.2134   20.3066 C   0  0  0  0  0  0
  -21.6850   -6.0735   22.5278 C   0  0  0  0  0  0
  -21.4012   -6.5639   23.8212 C   0  0  0  0  0  0
  -21.3659   -5.6792   24.9175 C   0  0  0  0  0  0
  -21.6045   -4.3055   24.7224 C   0  0  0  0  0  0
  -21.8818   -3.8147   23.4345 C   0  0  0  0  0  0
  -21.9191   -4.6963   22.3401 C   0  0  0  0  0  0
  -22.7831  -13.5213   21.1850 C   0  0  0  0  0  0
  -22.1659   -4.2150   21.0978 F   0  0  0  0  0  0
  -21.5632   -3.4539   25.7737 F   0  0  0  0  0  0
  -30.0176  -13.4285   20.4450 N   0  0  0  0  0  0
  -26.2992  -12.9382   20.3345 N   0  0  0  0  0  0
  -25.9354  -11.6530   20.5822 N   0  0  0  0  0  0
  -22.0486  -12.8210   22.0420 N   0  0  0  0  0  0
  -25.4042  -15.1837   20.3680 N   0  0  0  0  0  0
  -31.7782  -14.8132   20.0770 O   0  0  0  0  0  0
  -21.6637   -6.8879   21.4241 O   0  0  0  0  0  0
  -22.3506  -14.5517   20.6703 O   0  0  0  0  0  0
  -24.6280  -31.8594   23.2027 C   0  0  0  0  0  0
  -25.9122  -32.4777   23.8358 C   0  0  1  0  0  0
  -27.2227  -27.3058   20.1165 C   0  0  0  0  0  0
  -25.5931  -33.8577   24.2282 N   0  0  0  0  0  0
  -23.4221  -30.4845   21.5461 C   0  0  2  0  0  0
  -24.8683  -28.9412   20.1122 C   0  0  0  0  0  0
  -22.7484  -29.4626   22.4932 C   0  0  0  0  0  0
  -18.0288  -28.1386   22.8486 C   0  0  0  0  0  0
  -24.1489  -36.7293   23.2639 C   0  0  0  0  0  0
  -25.9659  -30.7867   21.3763 C   0  0  0  0  0  0
  -26.0402  -29.4140   20.7164 C   0  0  0  0  0  0
  -27.2212  -28.6096   20.7073 C   0  0  0  0  0  0
  -26.0237  -26.8940   19.4862 C   0  0  0  0  0  0
  -24.8632  -27.6870   19.4879 C   0  0  0  0  0  0
  -23.6374  -29.8224   20.1611 C   0  0  0  0  0  0
  -25.4114  -36.3082   24.0328 C   0  0  1  0  0  0
  -20.5890  -28.3693   23.1277 C   0  0  2  0  0  0
  -20.6778  -26.9414   22.5407 C   0  0  0  0  0  0
  -19.5752  -26.6385   21.5212 C   0  0  0  0  0  0
  -18.1932  -26.7928   22.1625 C   0  0  0  0  0  0
  -19.1542  -28.8857   23.2877 C   0  0  0  0  0  0
  -18.9463  -30.1459   23.8894 C   0  0  0  0  0  0
  -17.6463  -30.6588   24.0565 C   0  0  0  0  0  0
  -25.9052  -34.9451   23.5105 C   0  0  0  0  0  0
  -16.5354  -29.9086   23.6332 C   0  0  0  0  0  0
  -16.7276  -28.6504   23.0352 C   0  0  0  0  0  0
  -26.4499  -31.6587   25.0730 C   0  0  0  0  0  0
  -25.3728  -31.3723   26.1454 C   0  0  0  0  0  0
  -27.0345  -30.3010   24.6192 C   0  0  0  0  0  0
  -27.6057  -32.4324   25.7502 C   0  0  0  0  0  0
  -27.5579  -37.1804   24.8465 C   0  0  0  0  0  0
  -21.4196  -29.3048   22.3673 N   0  0  0  0  0  0
  -26.4292  -37.3778   23.9407 N   0  0  0  0  0  0
  -24.6911  -31.0597   22.0985 N   0  0  0  0  0  0
  -23.4201  -28.8157   23.3011 O   0  0  0  0  0  0
  -28.3269  -26.4326   20.1658 O   0  0  0  0  0  0
  -26.5620  -34.8918   22.4672 O   0  0  0  0  0  0
  -23.5440  -32.1396   23.7347 O   0  0  0  0  0  0
  -30.6153  -17.7771   19.7136 C   0  0  0  0  0  0
  -29.1799  -19.4557   21.4351 C   0  0  0  0  0  0
  -30.5709  -19.1901   19.4955 C   0  0  0  0  0  0
  -29.2470  -18.0440   21.6775 C   0  0  0  0  0  0
  -29.9496  -17.1551   20.8025 C   0  0  0  0  0  0
  -29.8379  -20.0737   20.3392 C   0  0  0  0  0  0
  -29.2001  -23.9413   20.2950 C   0  0  0  0  0  0
  -31.3183  -19.7686   18.3083 C   0  0  0  0  0  0
  -26.5052  -16.3793   23.9237 C   0  0  0  0  0  0
  -28.5720  -17.5088   22.9339 C   0  0  0  0  0  0
  -28.0159  -24.9745   20.1309 C   0  0  0  0  0  0
  -28.8757  -22.4146   20.6007 C   0  0  0  0  0  0
  -27.1896  -16.9069   22.6578 C   0  0  0  0  0  0
  -29.8882  -15.6975   21.0020 N   0  0  0  0  0  0
  -30.3727  -24.3180   20.1816 O   0  0  0  0  0  0
  -29.8575  -21.4622   20.0625 O   0  0  0  0  0  0
  -31.4801  -12.5232   19.1636 H   0  0  0  0  0  0
  -30.3698  -11.4091   19.9073 H   0  0  0  0  0  0
  -29.7778  -11.7653   17.4897 H   0  0  0  0  0  0
  -29.6530  -13.4865   17.7535 H   0  0  0  0  0  0
  -27.8719  -11.2995   18.8744 H   0  0  0  0  0  0
  -27.3803  -12.5821   17.8002 H   0  0  0  0  0  0
  -27.6731  -14.2605   19.5315 H   0  0  0  0  0  0
  -28.7106  -12.0646   21.3883 H   0  0  0  0  0  0
  -28.4370  -13.7176   21.8516 H   0  0  0  0  0  0
  -25.2765   -9.5672   22.4777 H   0  0  0  0  0  0
  -24.0000   -7.4623   22.7473 H   0  0  0  0  0  0
  -21.0854   -8.8782   19.8950 H   0  0  0  0  0  0
  -22.3717  -10.9677   19.6176 H   0  0  0  0  0  0
  -21.2003   -7.6146   23.9718 H   0  0  0  0  0  0
  -21.1482   -6.0520   25.9078 H   0  0  0  0  0  0
  -22.0598   -2.7610   23.2844 H   0  0  0  0  0  0
  -22.4107  -11.9872   22.4803 H   0  0  0  0  0  0
  -21.1108  -13.1237   22.2635 H   0  0  0  0  0  0
  -24.6290  -15.8290   20.4670 H   0  0  0  0  0  0
  -26.2433  -15.6245   20.0152 H   0  0  0  0  0  0
  -26.7190  -32.5443   23.1105 H   0  0  0  0  0  0
  -25.0075  -33.9721   25.0425 H   0  0  0  0  0  0
  -22.7167  -31.3059   21.4037 H   0  0  0  0  0  0
  -23.3751  -35.9626   23.3303 H   0  0  0  0  0  0
  -24.3581  -36.8913   22.2053 H   0  0  0  0  0  0
  -23.7244  -37.6496   23.6661 H   0  0  0  0  0  0
  -26.0997  -31.5508   20.6093 H   0  0  0  0  0  0
  -26.8455  -30.8337   22.0068 H   0  0  0  0  0  0
  -28.1189  -28.9682   21.1915 H   0  0  0  0  0  0
  -25.9430  -25.9417   18.9862 H   0  0  0  0  0  0
  -23.9662  -27.3196   19.0084 H   0  0  0  0  0  0
  -23.7583  -30.6003   19.4062 H   0  0  0  0  0  0
  -22.7568  -29.2537   19.8567 H   0  0  0  0  0  0
  -25.1296  -36.1934   25.0821 H   0  0  0  0  0  0
  -20.9982  -28.3268   24.1398 H   0  0  0  0  0  0
  -20.5681  -26.2303   23.3608 H   0  0  0  0  0  0
  -21.6647  -26.7445   22.1199 H   0  0  0  0  0  0
  -19.6915  -25.6296   21.1241 H   0  0  0  0  0  0
  -19.6687  -27.3196   20.6742 H   0  0  0  0  0  0
  -17.4201  -26.6676   21.4028 H   0  0  0  0  0  0
  -18.0335  -26.0070   22.9021 H   0  0  0  0  0  0
  -19.7938  -30.7277   24.2260 H   0  0  0  0  0  0
  -17.5016  -31.6266   24.5169 H   0  0  0  0  0  0
  -15.5355  -30.2987   23.7657 H   0  0  0  0  0  0
  -15.8675  -28.0823   22.7067 H   0  0  0  0  0  0
  -24.5910  -30.7062   25.7782 H   0  0  0  0  0  0
  -24.8908  -32.2885   26.4874 H   0  0  0  0  0  0
  -25.8052  -30.8906   27.0232 H   0  0  0  0  0  0
  -26.2924  -29.6757   24.1213 H   0  0  0  0  0  0
  -27.4036  -29.7269   25.4702 H   0  0  0  0  0  0
  -27.8796  -30.4294   23.9425 H   0  0  0  0  0  0
  -27.2671  -33.3629   26.2070 H   0  0  0  0  0  0
  -28.3873  -32.6876   25.0333 H   0  0  0  0  0  0
  -28.0716  -31.8452   26.5425 H   0  0  0  0  0  0
  -28.2598  -38.0100   24.7512 H   0  0  0  0  0  0
  -28.1075  -36.2633   24.6292 H   0  0  0  0  0  0
  -27.2296  -37.1455   25.8867 H   0  0  0  0  0  0
  -20.9374  -29.8779   21.6890 H   0  0  0  0  0  0
  -26.0172  -38.2851   24.1407 H   0  0  0  0  0  0
  -31.1630  -17.1615   19.0140 H   0  0  0  0  0  0
  -28.6294  -20.0729   22.1300 H   0  0  0  0  0  0
  -31.8827  -19.0049   17.7724 H   0  0  0  0  0  0
  -32.0203  -20.5352   18.6375 H   0  0  0  0  0  0
  -30.6189  -20.2255   17.6078 H   0  0  0  0  0  0
  -25.5323  -15.9479   23.6852 H   0  0  0  0  0  0
  -26.3457  -17.1774   24.6495 H   0  0  0  0  0  0
  -27.1025  -15.6030   24.4031 H   0  0  0  0  0  0
  -28.4811  -18.3141   23.6642 H   0  0  0  0  0  0
  -29.2209  -16.7667   23.4012 H   0  0  0  0  0  0
  -27.2689  -24.7527   20.8937 H   0  0  0  0  0  0
  -27.5709  -24.7312   19.1675 H   0  0  0  0  0  0
  -27.8923  -22.1763   20.1952 H   0  0  0  0  0  0
  -28.8132  -22.2969   21.6821 H   0  0  0  0  0  0
  -26.5500  -17.6520   22.1827 H   0  0  0  0  0  0
  -27.2930  -16.0883   21.9493 H   0  0  0  0  0  0
  -29.0652  -15.3852   21.4931 H   0  0  0  0  0  0
  1 25  1  0  0  0
  1 30  2  0  0  0
  1 84  1  0  0  0
  2  3  1  0  0  0
  2 25  1  0  0  0
  2 87  1  0  0  0
  2 88  1  0  0  0
  3  4  1  0  0  0
  3 89  1  0  0  0
  3 90  1  0  0  0
  4  5  1  0  0  0
  4 91  1  0  0  0
  4 92  1  0  0  0
  5  6  1  0  0  0
  5 26  1  0  0  0
  5 93  1  0  0  0
  6 25  1  0  0  0
  6 94  1  0  0  0
  6 95  1  0  0  0
  7  8  2  0  0  0
  7 26  1  0  0  0
  7 29  1  0  0  0
  8  9  1  0  0  0
  8 22  1  0  0  0
  9 10  1  0  0  0
  9 27  2  0  0  0
 10 11  2  0  0  0
 10 15  1  0  0  0
 11 12  1  0  0  0
 11 96  1  0  0  0
 12 13  2  0  0  0
 12 97  1  0  0  0
 13 14  1  0  0  0
 13 31  1  0  0  0
 14 15  2  0  0  0
 14 98  1  0  0  0
 15 99  1  0  0  0
 16 17  2  0  0  0
 16 21  1  0  0  0
 16 31  1  0  0  0
 17 18  1  0  0  0
 17100  1  0  0  0
 18 19  2  0  0  0
 18101  1  0  0  0
 19 20  1  0  0  0
 19 24  1  0  0  0
 20 21  2  0  0  0
 20102  1  0  0  0
 21 23  1  0  0  0
 22 28  1  0  0  0
 22 32  2  0  0  0
 26 27  1  0  0  0
 28103  1  0  0  0
 28104  1  0  0  0
 29105  1  0  0  0
 29106  1  0  0  0
 33 34  1  0  0  0
 33 66  1  0  0  0
 33 70  2  0  0  0
 34 36  1  0  0  0
 34 59  1  0  0  0
 34107  1  0  0  0
 35 44  2  0  0  0
 35 45  1  0  0  0
 35 68  1  0  0  0
 36 56  1  0  0  0
 36108  1  0  0  0
 37 39  1  0  0  0
 37 47  1  0  0  0
 37 66  1  0  0  0
 37109  1  0  0  0
 38 43  2  0  0  0
 38 46  1  0  0  0
 38 47  1  0  0  0
 39 64  1  0  0  0
 39 67  2  0  0  0
 40 52  1  0  0  0
 40 53  2  0  0  0
 40 58  1  0  0  0
 41110  1  0  0  0
 41111  1  0  0  0
 41112  1  0  0  0
 41 48  1  0  0  0
 42 43  1  0  0  0
 42 66  1  0  0  0
 42113  1  0  0  0
 42114  1  0  0  0
 43 44  1  0  0  0
 44115  1  0  0  0
 45 46  2  0  0  0
 45116  1  0  0  0
 46117  1  0  0  0
 47118  1  0  0  0
 47119  1  0  0  0
 48 56  1  0  0  0
 48 65  1  0  0  0
 48120  1  0  0  0
 49 50  1  0  0  0
 49 53  1  0  0  0
 49 64  1  0  0  0
 49121  1  0  0  0
 50 51  1  0  0  0
 50122  1  0  0  0
 50123  1  0  0  0
 51 52  1  0  0  0
 51124  1  0  0  0
 51125  1  0  0  0
 52126  1  0  0  0
 52127  1  0  0  0
 53 54  1  0  0  0
 54 55  2  0  0  0
 54128  1  0  0  0
 55 57  1  0  0  0
 55129  1  0  0  0
 56 69  2  0  0  0
 57 58  2  0  0  0
 57130  1  0  0  0
 58131  1  0  0  0
 59 60  1  0  0  0
 59 61  1  0  0  0
 59 62  1  0  0  0
 60132  1  0  0  0
 60133  1  0  0  0
 60134  1  0  0  0
 61135  1  0  0  0
 61136  1  0  0  0
 61137  1  0  0  0
 62138  1  0  0  0
 62139  1  0  0  0
 62140  1  0  0  0
 63 65  1  0  0  0
 63141  1  0  0  0
 63142  1  0  0  0
 63143  1  0  0  0
 64144  1  0  0  0
 65145  1  0  0  0
 68 81  1  0  0  0
 71 73  2  0  0  0
 71 75  1  0  0  0
 71146  1  0  0  0
 72 74  1  0  0  0
 72 76  2  0  0  0
 72147  1  0  0  0
 73 76  1  0  0  0
 73 78  1  0  0  0
 74 75  2  0  0  0
 74 80  1  0  0  0
 75 84  1  0  0  0
 76 86  1  0  0  0
 77 81  1  0  0  0
 77 82  1  0  0  0
 77 85  2  0  0  0
 78148  1  0  0  0
 78149  1  0  0  0
 78150  1  0  0  0
 79 83  1  0  0  0
 79151  1  0  0  0
 79152  1  0  0  0
 79153  1  0  0  0
 80 83  1  0  0  0
 80154  1  0  0  0
 80155  1  0  0  0
 81156  1  0  0  0
 81157  1  0  0  0
 82 86  1  0  0  0
 82158  1  0  0  0
 82159  1  0  0  0
 83160  1  0  0  0
 83161  1  0  0  0
 84162  1  0  0  0
M  ISO  4   1 100  68 101  81 101  84 100
M  END
> <chiral flag>
0

> <version>
0

> <s_m_source_file>
/data/baiqing/PycharmProjects/Reinvent-master-3.2/result/LINK_invent/BTK/process_docking_weight1_custom_product_contain_oxygen_bond_distance_aromatic_linkinvent_7_9_3/rearranged_h_0130.sdf

> <i_m_source_file_index>
24

> <r_mmod_Potential_Energy-OPLS-2005>
65.135124206543

> <r_mmod_Stretch_Energy-OPLS-2005>
88.2317962646484

> <r_mmod_Bend_Energy-OPLS-2005>
144.24821472168

> <r_mmod_Torsional_Energy-OPLS-2005>
221.661148071289

> <r_mmod_Improper_Torsional_Energy-OPLS-2005>
3.2449049949646

> <r_mmod_Van_der_Waal_Energy-OPLS-2005>
136.325698852539

> <r_mmod_Electrostatic_Energy-OPLS-2005>
-347.149810791016

> <r_mmod_Solvation_Energy-OPLS-2005>
-235.274765014648

> <b_mmod_Minimization_Converged-OPLS-2005>
0

> <r_mmod_RMS_Derivative-OPLS-2005>
0.212836369872093

$$$$
24
                    3D
 Structure written by MMmdl.
159167  0  0  1  0            999 V2000
  -28.0571  -17.0846   20.8361 C   0  0  0  0  0  0
  -29.6690  -14.5338   19.7886 C   0  0  0  0  0  0
  -29.4092  -13.3421   18.6861 C   0  0  0  0  0  0
  -28.2325  -12.4396   19.0435 C   0  0  0  0  0  0
  -27.3665  -13.3713   19.8747 C   0  0  2  0  0  0
  -27.9988  -14.1145   21.0810 C   0  0  0  0  0  0
  -25.0866  -13.8047   20.5467 C   0  0  0  0  0  0
  -24.0694  -13.0097   20.9338 C   0  0  0  0  0  0
  -24.5696  -11.6699   20.8862 C   0  0  0  0  0  0
  -23.8696  -10.4079   21.0522 C   0  0  0  0  0  0
  -24.3422   -9.4071   21.9257 C   0  0  0  0  0  0
  -23.6183   -8.2073   22.0772 C   0  0  0  0  0  0
  -22.4174   -8.0111   21.3542 C   0  0  0  0  0  0
  -21.9727   -9.0026   20.4638 C   0  0  0  0  0  0
  -22.6962  -10.1923   20.3086 C   0  0  0  0  0  0
  -21.6804   -6.0650   22.5296 C   0  0  0  0  0  0
  -21.3981   -6.5598   23.8214 C   0  0  0  0  0  0
  -21.3642   -5.6768   24.9185 C   0  0  0  0  0  0
  -21.6038   -4.3030   24.7250 C   0  0  0  0  0  0
  -21.8829   -3.8103   23.4384 C   0  0  0  0  0  0
  -21.9180   -4.6895   22.3429 C   0  0  0  0  0  0
  -22.6872  -13.4894   21.2107 C   0  0  0  0  0  0
  -22.1663   -4.2097   21.1003 F   0  0  0  0  0  0
  -21.5625   -3.4524   25.7766 F   0  0  0  0  0  0
  -28.4392  -15.4504   20.5358 N   0  0  0  0  0  0
  -26.1125  -12.9329   20.2890 N   0  0  0  0  0  0
  -25.8526  -11.6428   20.5576 N   0  0  0  0  0  0
  -21.9677  -12.7924   22.0770 N   0  0  0  0  0  0
  -25.2234  -15.1838   20.3732 N   0  0  0  0  0  0
  -29.3818  -17.1219   20.7015 O   0  0  0  0  0  0
  -21.6562   -6.8729   21.4237 O   0  0  0  0  0  0
  -22.2652  -14.5255   20.6976 O   0  0  0  0  0  0
  -24.6861  -31.9607   23.1862 C   0  0  0  0  0  0
  -25.9617  -32.5201   23.8608 C   0  0  1  0  0  0
  -26.8211  -27.2706   20.5727 C   0  0  0  0  0  0
  -25.6406  -33.8903   24.2642 N   0  0  0  0  0  0
  -23.5398  -30.7302   21.4181 C   0  0  2  0  0  0
  -24.9242  -29.1439   19.9653 C   0  0  0  0  0  0
  -23.0073  -29.6374   22.2956 C   0  0  0  0  0  0
  -18.7462  -26.3258   22.8265 C   0  0  0  0  0  0
  -24.1506  -36.7379   23.2605 C   0  0  0  0  0  0
  -26.0461  -30.9053   21.3537 C   0  0  0  0  0  0
  -26.0512  -29.5348   20.6988 C   0  0  0  0  0  0
  -27.0832  -28.6092   20.9269 C   0  0  0  0  0  0
  -25.9359  -26.9815   19.5240 C   0  0  0  0  0  0
  -24.8946  -27.8985   19.3032 C   0  0  0  0  0  0
  -23.7838  -30.1332   19.9779 C   0  0  0  0  0  0
  -25.4120  -36.3261   24.0354 C   0  0  1  0  0  0
  -21.9495  -27.6603   21.9561 C   0  0  2  0  0  0
  -22.1231  -26.1201   20.6119 C   0  0  0  0  0  0
  -20.4542  -24.6349   20.4720 C   0  0  0  0  0  0
  -18.8134  -24.9195   21.7195 C   0  0  0  0  0  0
  -20.5930  -27.9951   22.8227 C   0  0  0  0  0  0
  -20.1293  -29.4872   23.7880 C   0  0  0  0  0  0
  -18.5850  -29.6670   24.5477 C   0  0  0  0  0  0
  -25.9141  -34.9672   23.5199 C   0  0  0  0  0  0
  -17.3093  -28.5385   24.5248 C   0  0  0  0  0  0
  -17.3095  -26.9770   23.7484 C   0  0  0  0  0  0
  -26.4592  -31.6641   25.0844 C   0  0  0  0  0  0
  -25.3648  -31.3726   26.1360 C   0  0  0  0  0  0
  -27.0277  -30.3062   24.6088 C   0  0  0  0  0  0
  -27.6181  -32.4114   25.7821 C   0  0  0  0  0  0
  -27.5608  -37.1886   24.8460 C   0  0  0  0  0  0
  -22.0511  -29.0168   21.6661 N   0  0  0  0  0  0
  -26.4294  -37.3938   23.9451 N   0  0  0  0  0  0
  -24.7777  -31.2328   22.0384 N   0  0  0  0  0  0
  -23.5351  -29.2403   23.3489 O   0  0  0  0  0  0
  -26.6358  -26.4211   21.6581 O   0  0  0  0  0  0
  -26.5484  -34.9066   22.4626 O   0  0  0  0  0  0
  -23.5919  -32.2206   23.7143 O   0  0  0  0  0  0
  -18.4896  -28.4903   22.4967 C   0  0  0  0  0  0
  -18.9163  -27.9918   21.0876 C   0  0  0  0  0  0
  -19.5264  -27.3384   24.5838 C   0  0  0  0  0  0
  -19.9836  -26.7947   20.9675 C   0  0  0  0  0  0
  -20.8603  -26.0478   24.0935 C   0  0  0  0  0  0
  -21.1127  -25.3958   22.5370 C   0  0  0  0  0  0
  -26.3962  -18.6784   21.1271 C   0  0  0  0  0  0
  -25.4349  -20.3690   21.5506 C   0  0  0  0  0  0
  -23.7045  -21.8944   21.6830 C   0  0  0  0  0  0
  -19.9507  -26.9390   19.3595 C   0  0  0  0  0  0
  -22.5271  -26.1353   24.5319 C   0  0  0  0  0  0
  -24.1641  -25.8913   23.7148 C   0  0  0  0  0  0
  -25.1006  -26.3511   22.2498 C   0  0  0  0  0  0
  -22.7213  -23.6021   22.2691 N   0  0  0  0  0  0
  -22.8410  -21.3869   20.9640 O   0  0  0  0  0  0
  -30.2662  -15.2708   19.2505 H   0  0  0  0  0  0
  -30.3808  -14.1806   20.5392 H   0  0  0  0  0  0
  -30.3159  -12.7570   18.5252 H   0  0  0  0  0  0
  -29.1863  -13.8182   17.7302 H   0  0  0  0  0  0
  -28.5605  -11.5909   19.6442 H   0  0  0  0  0  0
  -27.7196  -12.0539   18.1619 H   0  0  0  0  0  0
  -27.1056  -14.1140   19.1158 H   0  0  0  0  0  0
  -28.7228  -13.5108   21.6361 H   0  0  0  0  0  0
  -27.2704  -14.3583   21.8552 H   0  0  0  0  0  0
  -25.2551   -9.5635   22.4836 H   0  0  0  0  0  0
  -23.9923   -7.4464   22.7481 H   0  0  0  0  0  0
  -21.0663   -8.8487   19.8946 H   0  0  0  0  0  0
  -22.3397  -10.9466   19.6210 H   0  0  0  0  0  0
  -21.1974   -7.6112   23.9699 H   0  0  0  0  0  0
  -21.1455   -6.0508   25.9081 H   0  0  0  0  0  0
  -22.0632   -2.7573   23.2894 H   0  0  0  0  0  0
  -22.3364  -11.9587   22.5106 H   0  0  0  0  0  0
  -21.0333  -13.0964   22.3122 H   0  0  0  0  0  0
  -24.4007  -15.7757   20.4046 H   0  0  0  0  0  0
  -25.9741  -15.5722   19.8197 H   0  0  0  0  0  0
  -26.7903  -32.5927   23.1612 H   0  0  0  0  0  0
  -25.0722  -34.0041   25.0905 H   0  0  0  0  0  0
  -22.7997  -31.5307   21.3518 H   0  0  0  0  0  0
  -23.3811  -35.9665   23.3251 H   0  0  0  0  0  0
  -24.3634  -36.8993   22.2025 H   0  0  0  0  0  0
  -23.7187  -37.6563   23.6592 H   0  0  0  0  0  0
  -26.2280  -31.6588   20.5863 H   0  0  0  0  0  0
  -26.9176  -30.9259   21.9971 H   0  0  0  0  0  0
  -27.8127  -28.8326   21.6929 H   0  0  0  0  0  0
  -25.7901  -25.9644   19.1877 H   0  0  0  0  0  0
  -24.0585  -27.6284   18.6750 H   0  0  0  0  0  0
  -24.0704  -30.9529   19.3176 H   0  0  0  0  0  0
  -22.8990  -29.7163   19.4945 H   0  0  0  0  0  0
  -25.1260  -36.2145   25.0837 H   0  0  0  0  0  0
  -22.7020  -27.3539   22.6191 H   0  0  0  0  0  0
  -23.0207  -25.5524   20.7596 H   0  0  0  0  0  0
  -22.3892  -26.5446   19.6469 H   0  0  0  0  0  0
  -20.8391  -23.6362   20.6713 H   0  0  0  0  0  0
  -20.1102  -24.4517   19.4530 H   0  0  0  0  0  0
  -17.9131  -24.9502   21.1042 H   0  0  0  0  0  0
  -18.6884  -24.0281   22.3348 H   0  0  0  0  0  0
  -20.8363  -30.2990   23.8805 H   0  0  0  0  0  0
  -18.4122  -30.5868   25.0874 H   0  0  0  0  0  0
  -16.4042  -28.8207   25.0451 H   0  0  0  0  0  0
  -16.4063  -26.3862   23.7814 H   0  0  0  0  0  0
  -24.5760  -30.7316   25.7399 H   0  0  0  0  0  0
  -24.8946  -32.2885   26.4947 H   0  0  0  0  0  0
  -25.7769  -30.8598   27.0058 H   0  0  0  0  0  0
  -26.2814  -29.7065   24.0856 H   0  0  0  0  0  0
  -27.3747  -29.7063   25.4513 H   0  0  0  0  0  0
  -27.8840  -30.4347   23.9460 H   0  0  0  0  0  0
  -27.2892  -33.3405   26.2487 H   0  0  0  0  0  0
  -28.4114  -32.6640   25.0771 H   0  0  0  0  0  0
  -28.0668  -31.8059   26.5705 H   0  0  0  0  0  0
  -28.2569  -38.0245   24.7639 H   0  0  0  0  0  0
  -28.1175  -36.2797   24.6129 H   0  0  0  0  0  0
  -27.2352  -37.1336   25.8862 H   0  0  0  0  0  0
  -21.6485  -29.3763   20.8140 H   0  0  0  0  0  0
  -26.0197  -38.3002   24.1533 H   0  0  0  0  0  0
  -17.7936  -29.3219   22.3961 H   0  0  0  0  0  0
  -18.4793  -28.5110   20.2430 H   0  0  0  0  0  0
  -19.4520  -27.6663   25.6145 H   0  0  0  0  0  0
  -25.5670  -18.1057   20.7389 H   0  0  0  0  0  0
  -26.2449  -20.9700   21.9360 H   0  0  0  0  0  0
  -20.2309  -27.9541   19.0665 H   0  0  0  0  0  0
  -18.9435  -26.7478   18.9836 H   0  0  0  0  0  0
  -20.5754  -26.3268   18.7129 H   0  0  0  0  0  0
  -22.5724  -25.5037   25.4197 H   0  0  0  0  0  0
  -22.5951  -27.1413   24.9463 H   0  0  0  0  0  0
  -24.3451  -24.8215   23.7926 H   0  0  0  0  0  0
  -24.8241  -26.2742   24.4920 H   0  0  0  0  0  0
  -24.6608  -27.2810   21.9151 H   0  0  0  0  0  0
  -24.7929  -25.5735   21.5656 H   0  0  0  0  0  0
  -23.4021  -23.8525   22.9717 H   0  0  0  0  0  0
  1 25  1  0  0  0
  1 30  2  0  0  0
  1 77  1  0  0  0
  2  3  1  0  0  0
  2 25  1  0  0  0
  2 86  1  0  0  0
  2 87  1  0  0  0
  3  4  1  0  0  0
  3 88  1  0  0  0
  3 89  1  0  0  0
  4  5  1  0  0  0
  4 90  1  0  0  0
  4 91  1  0  0  0
  5  6  1  0  0  0
  5 26  1  0  0  0
  5 92  1  0  0  0
  6 25  1  0  0  0
  6 93  1  0  0  0
  6 94  1  0  0  0
  7  8  2  0  0  0
  7 26  1  0  0  0
  7 29  1  0  0  0
  8  9  1  0  0  0
  8 22  1  0  0  0
  9 10  1  0  0  0
  9 27  2  0  0  0
 10 11  2  0  0  0
 10 15  1  0  0  0
 11 12  1  0  0  0
 11 95  1  0  0  0
 12 13  2  0  0  0
 12 96  1  0  0  0
 13 14  1  0  0  0
 13 31  1  0  0  0
 14 15  2  0  0  0
 14 97  1  0  0  0
 15 98  1  0  0  0
 16 17  2  0  0  0
 16 21  1  0  0  0
 16 31  1  0  0  0
 17 18  1  0  0  0
 17 99  1  0  0  0
 18 19  2  0  0  0
 18100  1  0  0  0
 19 20  1  0  0  0
 19 24  1  0  0  0
 20 21  2  0  0  0
 20101  1  0  0  0
 21 23  1  0  0  0
 22 28  1  0  0  0
 22 32  2  0  0  0
 26 27  1  0  0  0
 28102  1  0  0  0
 28103  1  0  0  0
 29104  1  0  0  0
 29105  1  0  0  0
 33 34  1  0  0  0
 33 66  1  0  0  0
 33 70  2  0  0  0
 34 36  1  0  0  0
 34 59  1  0  0  0
 34106  1  0  0  0
 35 44  2  0  0  0
 35 45  1  0  0  0
 35 68  1  0  0  0
 36 56  1  0  0  0
 36107  1  0  0  0
 37 39  1  0  0  0
 37 47  1  0  0  0
 37 66  1  0  0  0
 37108  1  0  0  0
 38 43  2  0  0  0
 38 46  1  0  0  0
 38 47  1  0  0  0
 39 64  1  0  0  0
 39 67  2  0  0  0
 40 52  1  0  0  0
 40 53  2  0  0  0
 40 58  1  0  0  0
 41109  1  0  0  0
 41110  1  0  0  0
 41111  1  0  0  0
 41 48  1  0  0  0
 42 43  1  0  0  0
 42 66  1  0  0  0
 42112  1  0  0  0
 42113  1  0  0  0
 43 44  1  0  0  0
 44114  1  0  0  0
 45 46  2  0  0  0
 45115  1  0  0  0
 46116  1  0  0  0
 47117  1  0  0  0
 47118  1  0  0  0
 48 56  1  0  0  0
 48 65  1  0  0  0
 48119  1  0  0  0
 49 50  1  0  0  0
 49 53  1  0  0  0
 49 64  1  0  0  0
 49120  1  0  0  0
 50 51  1  0  0  0
 50121  1  0  0  0
 50122  1  0  0  0
 51 52  1  0  0  0
 51123  1  0  0  0
 51124  1  0  0  0
 52125  1  0  0  0
 52126  1  0  0  0
 53 54  1  0  0  0
 54 55  2  0  0  0
 54127  1  0  0  0
 55 57  1  0  0  0
 55128  1  0  0  0
 56 69  2  0  0  0
 57 58  2  0  0  0
 57129  1  0  0  0
 58130  1  0  0  0
 59 60  1  0  0  0
 59 61  1  0  0  0
 59 62  1  0  0  0
 60131  1  0  0  0
 60132  1  0  0  0
 60133  1  0  0  0
 61134  1  0  0  0
 61135  1  0  0  0
 61136  1  0  0  0
 62137  1  0  0  0
 62138  1  0  0  0
 62139  1  0  0  0
 63 65  1  0  0  0
 63140  1  0  0  0
 63141  1  0  0  0
 63142  1  0  0  0
 64143  1  0  0  0
 65144  1  0  0  0
 68 83  1  0  0  0
 71 72  2  0  0  0
 71 73  1  0  0  0
 71145  1  0  0  0
 72 74  1  0  0  0
 72146  1  0  0  0
 73 75  2  0  0  0
 73147  1  0  0  0
 74 76  2  0  0  0
 74 80  1  0  0  0
 75 76  1  0  0  0
 75 81  1  0  0  0
 76 84  1  0  0  0
 77 78  2  0  0  0
 77148  1  0  0  0
 78 79  1  0  0  0
 78149  1  0  0  0
 79 84  1  0  0  0
 79 85  2  0  0  0
 80150  1  0  0  0
 80151  1  0  0  0
 80152  1  0  0  0
 81 82  1  0  0  0
 81153  1  0  0  0
 81154  1  0  0  0
 82 83  1  0  0  0
 82155  1  0  0  0
 82156  1  0  0  0
 83157  1  0  0  0
 83158  1  0  0  0
 84159  1  0  0  0
M  ISO  4   1 100  68 101  77 100  83 101
M  END
> <chiral flag>
0

> <version>
0

> <s_m_source_file>
/data/baiqing/PycharmProjects/Reinvent-master-3.2/result/LINK_invent/BTK/process_docking_weight1_custom_product_contain_oxygen_bond_distance_aromatic_linkinvent_7_9_3/rearranged_h_0130.sdf

> <i_m_source_file_index>
25

> <r_mmod_Potential_Energy-OPLS-2005>
33853.01953125

> <r_mmod_Stretch_Energy-OPLS-2005>
17615.794921875

> <r_mmod_Bend_Energy-OPLS-2005>
2147.3095703125

> <r_mmod_Torsional_Energy-OPLS-2005>
502.642425537109

> <r_mmod_Improper_Torsional_Energy-OPLS-2005>
44.6916007995605

> <r_mmod_Van_der_Waal_Energy-OPLS-2005>
5122.86572265625

> <r_mmod_Electrostatic_Energy-OPLS-2005>
-390.68994140625

> <r_mmod_Solvation_Energy-OPLS-2005>
-217.442428588867

> <b_mmod_Minimization_Converged-OPLS-2005>
0

> <r_mmod_RMS_Derivative-OPLS-2005>
3.42614412307739

$$$$
25
                    3D
 Structure written by MMmdl.
156164  0  0  1  0            999 V2000
  -30.6436  -14.6634   20.4749 C   0  0  0  0  0  0
  -30.4405  -12.4050   19.4525 C   0  0  0  0  0  0
  -29.5079  -12.5073   18.2250 C   0  0  0  0  0  0
  -28.0318  -12.3440   18.6400 C   0  0  0  0  0  0
  -27.6482  -13.2190   19.8634 C   0  0  2  0  0  0
  -28.7043  -13.1030   20.9882 C   0  0  0  0  0  0
  -25.2374  -13.7993   20.5628 C   0  0  0  0  0  0
  -24.1732  -13.0271   20.9246 C   0  0  0  0  0  0
  -24.6388  -11.6797   20.8795 C   0  0  0  0  0  0
  -23.9069  -10.4206   21.0424 C   0  0  0  0  0  0
  -24.3617   -9.4138   21.9204 C   0  0  0  0  0  0
  -23.6273   -8.2191   22.0767 C   0  0  0  0  0  0
  -22.4259   -8.0250   21.3545 C   0  0  0  0  0  0
  -21.9897   -9.0227   20.4648 C   0  0  0  0  0  0
  -22.7246  -10.2087   20.3062 C   0  0  0  0  0  0
  -21.6836   -6.0720   22.5279 C   0  0  0  0  0  0
  -21.4010   -6.5629   23.8211 C   0  0  0  0  0  0
  -21.3654   -5.6782   24.9171 C   0  0  0  0  0  0
  -21.6042   -4.3045   24.7220 C   0  0  0  0  0  0
  -21.8822   -3.8133   23.4343 C   0  0  0  0  0  0
  -21.9188   -4.6951   22.3400 C   0  0  0  0  0  0
  -22.7760  -13.5096   21.1873 C   0  0  0  0  0  0
  -22.1659   -4.2142   21.0973 F   0  0  0  0  0  0
  -21.5625   -3.4527   25.7732 F   0  0  0  0  0  0
  -30.0184  -13.4418   20.4135 N   0  0  0  0  0  0
  -26.2941  -12.9302   20.3342 N   0  0  0  0  0  0
  -25.9338  -11.6453   20.5833 N   0  0  0  0  0  0
  -22.0393  -12.8146   22.0452 N   0  0  0  0  0  0
  -25.3621  -15.1652   20.3823 N   0  0  0  0  0  0
  -31.8221  -14.7983   20.1349 O   0  0  0  0  0  0
  -21.6613   -6.8860   21.4241 O   0  0  0  0  0  0
  -22.3477  -14.5408   20.6697 O   0  0  0  0  0  0
  -24.6246  -31.8607   23.2039 C   0  0  0  0  0  0
  -25.9097  -32.4782   23.8371 C   0  0  1  0  0  0
  -27.2370  -27.3366   20.1043 C   0  0  0  0  0  0
  -25.5916  -33.8579   24.2300 N   0  0  0  0  0  0
  -23.4191  -30.4840   21.5459 C   0  0  2  0  0  0
  -24.8674  -28.9414   20.1127 C   0  0  0  0  0  0
  -22.7473  -29.4618   22.4930 C   0  0  0  0  0  0
  -18.0292  -28.1383   22.8481 C   0  0  0  0  0  0
  -24.1491  -36.7296   23.2636 C   0  0  0  0  0  0
  -25.9598  -30.7951   21.3752 C   0  0  0  0  0  0
  -26.0362  -29.4242   20.7158 C   0  0  0  0  0  0
  -27.2221  -28.6330   20.7038 C   0  0  0  0  0  0
  -26.0402  -26.9024   19.4845 C   0  0  0  0  0  0
  -24.8700  -27.6843   19.4921 C   0  0  0  0  0  0
  -23.6355  -29.8211   20.1607 C   0  0  0  0  0  0
  -25.4107  -36.3081   24.0337 C   0  0  1  0  0  0
  -20.5888  -28.3686   23.1273 C   0  0  2  0  0  0
  -20.6780  -26.9410   22.5400 C   0  0  0  0  0  0
  -19.5754  -26.6382   21.5202 C   0  0  0  0  0  0
  -18.1938  -26.7925   22.1624 C   0  0  0  0  0  0
  -19.1542  -28.8851   23.2876 C   0  0  0  0  0  0
  -18.9467  -30.1453   23.8896 C   0  0  0  0  0  0
  -17.6466  -30.6581   24.0563 C   0  0  0  0  0  0
  -25.9044  -34.9449   23.5120 C   0  0  0  0  0  0
  -16.5358  -29.9080   23.6326 C   0  0  0  0  0  0
  -16.7278  -28.6498   23.0345 C   0  0  0  0  0  0
  -26.4493  -31.6582   25.0730 C   0  0  0  0  0  0
  -25.3738  -31.3725   26.1472 C   0  0  0  0  0  0
  -27.0331  -30.3008   24.6174 C   0  0  0  0  0  0
  -27.6080  -32.4299   25.7474 C   0  0  0  0  0  0
  -27.5586  -37.1789   24.8456 C   0  0  0  0  0  0
  -21.4186  -29.3041   22.3670 N   0  0  0  0  0  0
  -26.4284  -37.3776   23.9419 N   0  0  0  0  0  0
  -24.6865  -31.0625   22.0992 N   0  0  0  0  0  0
  -23.4199  -28.8153   23.3007 O   0  0  0  0  0  0
  -28.3696  -26.5070   20.1400 O   0  0  0  0  0  0
  -26.5610  -34.8910   22.4685 O   0  0  0  0  0  0
  -23.5410  -32.1399   23.7370 O   0  0  0  0  0  0
  -31.2314  -19.3421   20.7370 C   0  0  0  0  0  0
  -31.1867  -17.9127   20.7971 C   0  0  0  0  0  0
  -28.9087  -19.4207   20.1753 C   0  0  0  0  0  0
  -30.0906  -20.1437   20.4443 C   0  0  0  0  0  0
  -28.8516  -17.9994   20.2369 C   0  0  0  0  0  0
  -29.9844  -17.1923   20.5655 C   0  0  0  0  0  0
  -30.1510  -21.6646   20.4451 C   0  0  0  0  0  0
  -29.1706  -22.5917   20.1853 C   0  0  0  0  0  0
  -29.3556  -24.1004   20.2574 C   0  0  0  0  0  0
  -27.4346  -16.9071   18.4617 C   0  0  0  0  0  0
  -27.5188  -17.3648   19.9252 C   0  0  0  0  0  0
  -28.1623  -25.0626   19.8954 C   0  0  0  0  0  0
  -29.8295  -15.7374   20.7234 N   0  0  0  0  0  0
  -30.4317  -24.6033   20.5982 O   0  0  0  0  0  0
  -31.4814  -12.5248   19.1462 H   0  0  0  0  0  0
  -30.3740  -11.4158   19.9091 H   0  0  0  0  0  0
  -29.7725  -11.7495   17.4861 H   0  0  0  0  0  0
  -29.6469  -13.4739   17.7361 H   0  0  0  0  0  0
  -27.8744  -11.2909   18.8788 H   0  0  0  0  0  0
  -27.3764  -12.5648   17.7967 H   0  0  0  0  0  0
  -27.6503  -14.2487   19.5135 H   0  0  0  0  0  0
  -28.7215  -12.0900   21.3936 H   0  0  0  0  0  0
  -28.4551  -13.7559   21.8259 H   0  0  0  0  0  0
  -25.2763   -9.5610   22.4781 H   0  0  0  0  0  0
  -23.9963   -7.4579   22.7491 H   0  0  0  0  0  0
  -21.0822   -8.8766   19.8956 H   0  0  0  0  0  0
  -22.3730  -10.9636   19.6169 H   0  0  0  0  0  0
  -21.2014   -7.6143   23.9714 H   0  0  0  0  0  0
  -21.1466   -6.0510   25.9073 H   0  0  0  0  0  0
  -22.0609   -2.7594   23.2844 H   0  0  0  0  0  0
  -22.3983  -11.9817   22.4878 H   0  0  0  0  0  0
  -21.1018  -13.1213   22.2635 H   0  0  0  0  0  0
  -24.5451  -15.7650   20.4260 H   0  0  0  0  0  0
  -26.1364  -15.5875   19.8903 H   0  0  0  0  0  0
  -26.7167  -32.5465   23.1125 H   0  0  0  0  0  0
  -25.0062  -33.9730   25.0445 H   0  0  0  0  0  0
  -22.7123  -31.3041   21.4031 H   0  0  0  0  0  0
  -23.3750  -35.9630   23.3278 H   0  0  0  0  0  0
  -24.3603  -36.8930   22.2056 H   0  0  0  0  0  0
  -23.7238  -37.6492   23.6666 H   0  0  0  0  0  0
  -26.0916  -31.5610   20.6097 H   0  0  0  0  0  0
  -26.8391  -30.8421   22.0056 H   0  0  0  0  0  0
  -28.1187  -28.9996   21.1843 H   0  0  0  0  0  0
  -25.9777  -25.9458   18.9882 H   0  0  0  0  0  0
  -23.9741  -27.3081   19.0158 H   0  0  0  0  0  0
  -23.7578  -30.5995   19.4066 H   0  0  0  0  0  0
  -22.7561  -29.2520   19.8539 H   0  0  0  0  0  0
  -25.1277  -36.1941   25.0828 H   0  0  0  0  0  0
  -20.9985  -28.3268   24.1394 H   0  0  0  0  0  0
  -20.5678  -26.2301   23.3601 H   0  0  0  0  0  0
  -21.6652  -26.7436   22.1197 H   0  0  0  0  0  0
  -19.6915  -25.6293   21.1233 H   0  0  0  0  0  0
  -19.6684  -27.3190   20.6730 H   0  0  0  0  0  0
  -17.4201  -26.6655   21.4039 H   0  0  0  0  0  0
  -18.0351  -26.0070   22.9023 H   0  0  0  0  0  0
  -19.7945  -30.7268   24.2266 H   0  0  0  0  0  0
  -17.5021  -31.6262   24.5164 H   0  0  0  0  0  0
  -15.5359  -30.2984   23.7640 H   0  0  0  0  0  0
  -15.8682  -28.0814   22.7058 H   0  0  0  0  0  0
  -24.5876  -30.7117   25.7799 H   0  0  0  0  0  0
  -24.8977  -32.2898   26.4949 H   0  0  0  0  0  0
  -25.8060  -30.8848   27.0218 H   0  0  0  0  0  0
  -26.2899  -29.6746   24.1224 H   0  0  0  0  0  0
  -27.4066  -29.7276   25.4669 H   0  0  0  0  0  0
  -27.8756  -30.4303   23.9376 H   0  0  0  0  0  0
  -27.2733  -33.3612   26.2053 H   0  0  0  0  0  0
  -28.3878  -32.6822   25.0276 H   0  0  0  0  0  0
  -28.0757  -31.8414   26.5377 H   0  0  0  0  0  0
  -28.2569  -38.0120   24.7548 H   0  0  0  0  0  0
  -28.1115  -36.2655   24.6213 H   0  0  0  0  0  0
  -27.2319  -37.1353   25.8860 H   0  0  0  0  0  0
  -20.9362  -29.8791   21.6901 H   0  0  0  0  0  0
  -26.0166  -38.2845   24.1443 H   0  0  0  0  0  0
  -32.1730  -19.8331   20.9404 H   0  0  0  0  0  0
  -32.0891  -17.3769   21.0553 H   0  0  0  0  0  0
  -28.0084  -19.9646   19.9282 H   0  0  0  0  0  0
  -31.1237  -22.0611   20.7042 H   0  0  0  0  0  0
  -28.1822  -22.2528   19.9139 H   0  0  0  0  0  0
  -26.4579  -16.4848   18.2283 H   0  0  0  0  0  0
  -28.1904  -16.1566   18.2303 H   0  0  0  0  0  0
  -27.5913  -17.7473   17.7847 H   0  0  0  0  0  0
  -26.7116  -18.0680   20.1387 H   0  0  0  0  0  0
  -27.3851  -16.5477   20.6266 H   0  0  0  0  0  0
  -27.2953  -24.7236   20.4634 H   0  0  0  0  0  0
  -27.9324  -24.9161   18.8399 H   0  0  0  0  0  0
  -28.8832  -15.4443   20.9062 H   0  0  0  0  0  0
  1 25  1  0  0  0
  1 30  2  0  0  0
  1 83  1  0  0  0
  2  3  1  0  0  0
  2 25  1  0  0  0
  2 85  1  0  0  0
  2 86  1  0  0  0
  3  4  1  0  0  0
  3 87  1  0  0  0
  3 88  1  0  0  0
  4  5  1  0  0  0
  4 89  1  0  0  0
  4 90  1  0  0  0
  5  6  1  0  0  0
  5 26  1  0  0  0
  5 91  1  0  0  0
  6 25  1  0  0  0
  6 92  1  0  0  0
  6 93  1  0  0  0
  7  8  2  0  0  0
  7 26  1  0  0  0
  7 29  1  0  0  0
  8  9  1  0  0  0
  8 22  1  0  0  0
  9 10  1  0  0  0
  9 27  2  0  0  0
 10 11  2  0  0  0
 10 15  1  0  0  0
 11 12  1  0  0  0
 11 94  1  0  0  0
 12 13  2  0  0  0
 12 95  1  0  0  0
 13 14  1  0  0  0
 13 31  1  0  0  0
 14 15  2  0  0  0
 14 96  1  0  0  0
 15 97  1  0  0  0
 16 17  2  0  0  0
 16 21  1  0  0  0
 16 31  1  0  0  0
 17 18  1  0  0  0
 17 98  1  0  0  0
 18 19  2  0  0  0
 18 99  1  0  0  0
 19 20  1  0  0  0
 19 24  1  0  0  0
 20 21  2  0  0  0
 20100  1  0  0  0
 21 23  1  0  0  0
 22 28  1  0  0  0
 22 32  2  0  0  0
 26 27  1  0  0  0
 28101  1  0  0  0
 28102  1  0  0  0
 29103  1  0  0  0
 29104  1  0  0  0
 33 34  1  0  0  0
 33 66  1  0  0  0
 33 70  2  0  0  0
 34 36  1  0  0  0
 34 59  1  0  0  0
 34105  1  0  0  0
 35 44  2  0  0  0
 35 45  1  0  0  0
 35 68  1  0  0  0
 36 56  1  0  0  0
 36106  1  0  0  0
 37 39  1  0  0  0
 37 47  1  0  0  0
 37 66  1  0  0  0
 37107  1  0  0  0
 38 43  2  0  0  0
 38 46  1  0  0  0
 38 47  1  0  0  0
 39 64  1  0  0  0
 39 67  2  0  0  0
 40 52  1  0  0  0
 40 53  2  0  0  0
 40 58  1  0  0  0
 41108  1  0  0  0
 41109  1  0  0  0
 41110  1  0  0  0
 41 48  1  0  0  0
 42 43  1  0  0  0
 42 66  1  0  0  0
 42111  1  0  0  0
 42112  1  0  0  0
 43 44  1  0  0  0
 44113  1  0  0  0
 45 46  2  0  0  0
 45114  1  0  0  0
 46115  1  0  0  0
 47116  1  0  0  0
 47117  1  0  0  0
 48 56  1  0  0  0
 48 65  1  0  0  0
 48118  1  0  0  0
 49 50  1  0  0  0
 49 53  1  0  0  0
 49 64  1  0  0  0
 49119  1  0  0  0
 50 51  1  0  0  0
 50120  1  0  0  0
 50121  1  0  0  0
 51 52  1  0  0  0
 51122  1  0  0  0
 51123  1  0  0  0
 52124  1  0  0  0
 52125  1  0  0  0
 53 54  1  0  0  0
 54 55  2  0  0  0
 54126  1  0  0  0
 55 57  1  0  0  0
 55127  1  0  0  0
 56 69  2  0  0  0
 57 58  2  0  0  0
 57128  1  0  0  0
 58129  1  0  0  0
 59 60  1  0  0  0
 59 61  1  0  0  0
 59 62  1  0  0  0
 60130  1  0  0  0
 60131  1  0  0  0
 60132  1  0  0  0
 61133  1  0  0  0
 61134  1  0  0  0
 61135  1  0  0  0
 62136  1  0  0  0
 62137  1  0  0  0
 62138  1  0  0  0
 63 65  1  0  0  0
 63139  1  0  0  0
 63140  1  0  0  0
 63141  1  0  0  0
 64142  1  0  0  0
 65143  1  0  0  0
 68 82  1  0  0  0
 71 72  2  0  0  0
 71 74  1  0  0  0
 71144  1  0  0  0
 72 76  1  0  0  0
 72145  1  0  0  0
 73 74  2  0  0  0
 73 75  1  0  0  0
 73146  1  0  0  0
 74 77  1  0  0  0
 75 76  2  0  0  0
 75 81  1  0  0  0
 76 83  1  0  0  0
 77 78  2  0  0  0
 77147  1  0  0  0
 78 79  1  0  0  0
 78148  1  0  0  0
 79 82  1  0  0  0
 79 84  2  0  0  0
 80 81  1  0  0  0
 80149  1  0  0  0
 80150  1  0  0  0
 80151  1  0  0  0
 81152  1  0  0  0
 81153  1  0  0  0
 82154  1  0  0  0
 82155  1  0  0  0
 83156  1  0  0  0
M  ISO  4   1 100  68 101  82 101  83 100
M  END
> <chiral flag>
0

> <version>
0

> <s_m_source_file>
/data/baiqing/PycharmProjects/Reinvent-master-3.2/result/LINK_invent/BTK/process_docking_weight1_custom_product_contain_oxygen_bond_distance_aromatic_linkinvent_7_9_3/rearranged_h_0130.sdf

> <i_m_source_file_index>
26

> <r_mmod_Potential_Energy-OPLS-2005>
31.8995704650879

> <r_mmod_Stretch_Energy-OPLS-2005>
77.0539016723633

> <r_mmod_Bend_Energy-OPLS-2005>
127.921928405762

> <r_mmod_Torsional_Energy-OPLS-2005>
216.776718139648

> <r_mmod_Improper_Torsional_Energy-OPLS-2005>
6.49543905258179

> <r_mmod_Van_der_Waal_Energy-OPLS-2005>
146.129379272461

> <r_mmod_Electrostatic_Energy-OPLS-2005>
-364.775726318359

> <r_mmod_Solvation_Energy-OPLS-2005>
-227.465255737305

> <b_mmod_Minimization_Converged-OPLS-2005>
0

> <r_mmod_RMS_Derivative-OPLS-2005>
1.43183290958405

$$$$
26
                    3D
 Structure written by MMmdl.
159167  0  0  1  0            999 V2000
  -30.6424  -14.6856   20.4685 C   0  0  0  0  0  0
  -30.4314  -12.4152   19.4833 C   0  0  0  0  0  0
  -29.5204  -12.5050   18.2397 C   0  0  0  0  0  0
  -28.0424  -12.3400   18.6456 C   0  0  0  0  0  0
  -27.6500  -13.2326   19.8549 C   0  0  2  0  0  0
  -28.6881  -13.1456   20.9975 C   0  0  0  0  0  0
  -25.2537  -13.8192   20.5685 C   0  0  0  0  0  0
  -24.1816  -13.0441   20.9171 C   0  0  0  0  0  0
  -24.6402  -11.6914   20.8695 C   0  0  0  0  0  0
  -23.9067  -10.4288   21.0370 C   0  0  0  0  0  0
  -24.3605   -9.4207   21.9160 C   0  0  0  0  0  0
  -23.6279   -8.2246   22.0755 C   0  0  0  0  0  0
  -22.4256   -8.0280   21.3556 C   0  0  0  0  0  0
  -21.9887   -9.0248   20.4662 C   0  0  0  0  0  0
  -22.7223  -10.2126   20.3047 C   0  0  0  0  0  0
  -21.6862   -6.0708   22.5262 C   0  0  0  0  0  0
  -21.4026   -6.5615   23.8196 C   0  0  0  0  0  0
  -21.3659   -5.6776   24.9163 C   0  0  0  0  0  0
  -21.6053   -4.3038   24.7221 C   0  0  0  0  0  0
  -21.8826   -3.8124   23.4338 C   0  0  0  0  0  0
  -21.9198   -4.6933   22.3390 C   0  0  0  0  0  0
  -22.7842  -13.5240   21.1821 C   0  0  0  0  0  0
  -22.1672   -4.2117   21.0969 F   0  0  0  0  0  0
  -21.5620   -3.4527   25.7734 F   0  0  0  0  0  0
  -30.0046  -13.4685   20.4312 N   0  0  0  0  0  0
  -26.2973  -12.9418   20.3262 N   0  0  0  0  0  0
  -25.9336  -11.6548   20.5708 N   0  0  0  0  0  0
  -22.0480  -12.8259   22.0402 N   0  0  0  0  0  0
  -25.4234  -15.1921   20.4111 N   0  0  0  0  0  0
  -31.8123  -14.7848   20.0884 O   0  0  0  0  0  0
  -21.6656   -6.8850   21.4230 O   0  0  0  0  0  0
  -22.3512  -14.5519   20.6635 O   0  0  0  0  0  0
  -24.6268  -31.8614   23.1994 C   0  0  0  0  0  0
  -25.9106  -32.4787   23.8361 C   0  0  1  0  0  0
  -27.2177  -27.2983   20.1189 C   0  0  0  0  0  0
  -25.5910  -33.8584   24.2265 N   0  0  0  0  0  0
  -23.4236  -30.4832   21.5445 C   0  0  2  0  0  0
  -24.8695  -28.9392   20.1075 C   0  0  0  0  0  0
  -22.7505  -29.4629   22.4936 C   0  0  0  0  0  0
  -18.0283  -28.1397   22.8482 C   0  0  0  0  0  0
  -24.1488  -36.7299   23.2638 C   0  0  0  0  0  0
  -25.9686  -30.7788   21.3817 C   0  0  0  0  0  0
  -26.0380  -29.4080   20.7211 C   0  0  0  0  0  0
  -27.2139  -28.5975   20.7195 C   0  0  0  0  0  0
  -26.0310  -26.9011   19.4599 C   0  0  0  0  0  0
  -24.8698  -27.6941   19.4651 C   0  0  0  0  0  0
  -23.6391  -29.8213   20.1592 C   0  0  0  0  0  0
  -25.4117  -36.3094   24.0327 C   0  0  1  0  0  0
  -20.5895  -28.3699   23.1273 C   0  0  2  0  0  0
  -20.6775  -26.9418   22.5418 C   0  0  0  0  0  0
  -19.5752  -26.6392   21.5220 C   0  0  0  0  0  0
  -18.1924  -26.7940   22.1619 C   0  0  0  0  0  0
  -19.1538  -28.8868   23.2870 C   0  0  0  0  0  0
  -18.9463  -30.1466   23.8897 C   0  0  0  0  0  0
  -17.6459  -30.6595   24.0567 C   0  0  0  0  0  0
  -25.9053  -34.9463   23.5105 C   0  0  0  0  0  0
  -16.5352  -29.9101   23.6330 C   0  0  0  0  0  0
  -16.7270  -28.6517   23.0356 C   0  0  0  0  0  0
  -26.4474  -31.6624   25.0760 C   0  0  0  0  0  0
  -25.3669  -31.3820   26.1470 C   0  0  0  0  0  0
  -27.0300  -30.3025   24.6269 C   0  0  0  0  0  0
  -27.6042  -32.4373   25.7509 C   0  0  0  0  0  0
  -27.5589  -37.1810   24.8453 C   0  0  0  0  0  0
  -21.4215  -29.3041   22.3676 N   0  0  0  0  0  0
  -26.4300  -37.3781   23.9404 N   0  0  0  0  0  0
  -24.6918  -31.0604   22.0971 N   0  0  0  0  0  0
  -23.4219  -28.8176   23.3024 O   0  0  0  0  0  0
  -28.3237  -26.4276   20.1975 O   0  0  0  0  0  0
  -26.5643  -34.8934   22.4684 O   0  0  0  0  0  0
  -23.5415  -32.1447   23.7284 O   0  0  0  0  0  0
  -29.6858  -18.4105   20.8013 C   0  0  0  0  0  0
  -30.0218  -19.6585   18.7351 C   0  0  0  0  0  0
  -30.2726  -17.2188   18.7623 C   0  0  0  0  0  0
  -29.7146  -19.6897   20.1136 C   0  0  0  0  0  0
  -29.9802  -17.1480   20.1442 C   0  0  0  0  0  0
  -30.2903  -18.4457   18.0717 C   0  0  0  0  0  0
  -30.5265  -24.3136   20.4693 C   0  0  0  0  0  0
  -28.6836  -23.8512   22.1190 C   0  0  0  0  0  0
  -29.5269  -21.0937   20.8224 C   0  0  0  0  0  0
  -28.9184  -22.3659   20.0352 C   0  0  0  0  0  0
  -28.1432  -24.9740   19.9081 C   0  0  0  0  0  0
  -29.0613  -23.8676   20.6251 C   0  0  0  0  0  0
  -29.9123  -15.8158   20.7811 N   0  0  0  0  0  0
  -30.5750  -18.4624   16.7473 F   0  0  0  0  0  0
  -31.4788  -12.5140   19.1926 H   0  0  0  0  0  0
  -30.3519  -11.4326   19.9492 H   0  0  0  0  0  0
  -29.8005  -11.7375   17.5166 H   0  0  0  0  0  0
  -29.6637  -13.4652   17.7398 H   0  0  0  0  0  0
  -27.8923  -11.2905   18.9006 H   0  0  0  0  0  0
  -27.3934  -12.5442   17.7935 H   0  0  0  0  0  0
  -27.6545  -14.2589   19.4854 H   0  0  0  0  0  0
  -28.7010  -12.1490   21.4409 H   0  0  0  0  0  0
  -28.4271  -13.8332   21.8033 H   0  0  0  0  0  0
  -25.2747   -9.5692   22.4731 H   0  0  0  0  0  0
  -23.9992   -7.4648   22.7471 H   0  0  0  0  0  0
  -21.0822   -8.8755   19.8979 H   0  0  0  0  0  0
  -22.3664  -10.9649   19.6148 H   0  0  0  0  0  0
  -21.2039   -7.6130   23.9689 H   0  0  0  0  0  0
  -21.1477   -6.0509   25.9064 H   0  0  0  0  0  0
  -22.0610   -2.7585   23.2848 H   0  0  0  0  0  0
  -22.4097  -11.9962   22.4867 H   0  0  0  0  0  0
  -21.1086  -13.1290   22.2551 H   0  0  0  0  0  0
  -24.6525  -15.8427   20.5162 H   0  0  0  0  0  0
  -26.2767  -15.6338   20.0936 H   0  0  0  0  0  0
  -26.7189  -32.5449   23.1119 H   0  0  0  0  0  0
  -25.0003  -33.9734   25.0377 H   0  0  0  0  0  0
  -22.7175  -31.3042   21.4015 H   0  0  0  0  0  0
  -23.3763  -35.9618   23.3292 H   0  0  0  0  0  0
  -24.3567  -36.8927   22.2053 H   0  0  0  0  0  0
  -23.7239  -37.6499   23.6665 H   0  0  0  0  0  0
  -26.1175  -31.5410   20.6169 H   0  0  0  0  0  0
  -26.8425  -30.8177   22.0199 H   0  0  0  0  0  0
  -28.1079  -28.9468   21.2172 H   0  0  0  0  0  0
  -25.9674  -25.9612   18.9338 H   0  0  0  0  0  0
  -23.9798  -27.3383   18.9642 H   0  0  0  0  0  0
  -23.7581  -30.5993   19.4033 H   0  0  0  0  0  0
  -22.7583  -29.2510   19.8579 H   0  0  0  0  0  0
  -25.1301  -36.1949   25.0821 H   0  0  0  0  0  0
  -20.9971  -28.3280   24.1400 H   0  0  0  0  0  0
  -20.5672  -26.2319   23.3627 H   0  0  0  0  0  0
  -21.6643  -26.7452   22.1215 H   0  0  0  0  0  0
  -19.6904  -25.6302   21.1260 H   0  0  0  0  0  0
  -19.6679  -27.3196   20.6743 H   0  0  0  0  0  0
  -17.4202  -26.6695   21.4010 H   0  0  0  0  0  0
  -18.0292  -26.0092   22.9019 H   0  0  0  0  0  0
  -19.7942  -30.7274   24.2274 H   0  0  0  0  0  0
  -17.5021  -31.6265   24.5184 H   0  0  0  0  0  0
  -15.5355  -30.3000   23.7654 H   0  0  0  0  0  0
  -15.8673  -28.0833   22.7075 H   0  0  0  0  0  0
  -24.5805  -30.7216   25.7799 H   0  0  0  0  0  0
  -24.8894  -32.3008   26.4894 H   0  0  0  0  0  0
  -25.7935  -30.8991   27.0269 H   0  0  0  0  0  0
  -26.2886  -29.6807   24.1235 H   0  0  0  0  0  0
  -27.3889  -29.7271   25.4819 H   0  0  0  0  0  0
  -27.8813  -30.4289   23.9572 H   0  0  0  0  0  0
  -27.2657  -33.3656   26.2134 H   0  0  0  0  0  0
  -28.3808  -32.6990   25.0306 H   0  0  0  0  0  0
  -28.0779  -31.8497   26.5390 H   0  0  0  0  0  0
  -28.2615  -38.0105   24.7508 H   0  0  0  0  0  0
  -28.1087  -36.2642   24.6263 H   0  0  0  0  0  0
  -27.2304  -37.1428   25.8855 H   0  0  0  0  0  0
  -20.9412  -29.8777   21.6887 H   0  0  0  0  0  0
  -26.0187  -38.2859   24.1411 H   0  0  0  0  0  0
  -29.4562  -18.4068   21.8574 H   0  0  0  0  0  0
  -30.0779  -20.5686   18.1576 H   0  0  0  0  0  0
  -30.4732  -16.3207   18.1961 H   0  0  0  0  0  0
  -31.2109  -23.6371   20.9792 H   0  0  0  0  0  0
  -30.6912  -25.3078   20.8864 H   0  0  0  0  0  0
  -30.8178  -24.3482   19.4186 H   0  0  0  0  0  0
  -29.3316  -23.1891   22.6956 H   0  0  0  0  0  0
  -27.6550  -23.5145   22.2619 H   0  0  0  0  0  0
  -28.7622  -24.8458   22.5606 H   0  0  0  0  0  0
  -30.5169  -21.3729   21.1813 H   0  0  0  0  0  0
  -28.9358  -20.9261   21.7236 H   0  0  0  0  0  0
  -27.8623  -22.1585   19.8632 H   0  0  0  0  0  0
  -29.3548  -22.4011   19.0383 H   0  0  0  0  0  0
  -27.1230  -24.6811   20.1558 H   0  0  0  0  0  0
  -28.2349  -24.8556   18.8268 H   0  0  0  0  0  0
  -29.0828  -15.6454   21.3322 H   0  0  0  0  0  0
  1 25  1  0  0  0
  1 30  2  0  0  0
  1 83  1  0  0  0
  2  3  1  0  0  0
  2 25  1  0  0  0
  2 85  1  0  0  0
  2 86  1  0  0  0
  3  4  1  0  0  0
  3 87  1  0  0  0
  3 88  1  0  0  0
  4  5  1  0  0  0
  4 89  1  0  0  0
  4 90  1  0  0  0
  5  6  1  0  0  0
  5 26  1  0  0  0
  5 91  1  0  0  0
  6 25  1  0  0  0
  6 92  1  0  0  0
  6 93  1  0  0  0
  7  8  2  0  0  0
  7 26  1  0  0  0
  7 29  1  0  0  0
  8  9  1  0  0  0
  8 22  1  0  0  0
  9 10  1  0  0  0
  9 27  2  0  0  0
 10 11  2  0  0  0
 10 15  1  0  0  0
 11 12  1  0  0  0
 11 94  1  0  0  0
 12 13  2  0  0  0
 12 95  1  0  0  0
 13 14  1  0  0  0
 13 31  1  0  0  0
 14 15  2  0  0  0
 14 96  1  0  0  0
 15 97  1  0  0  0
 16 17  2  0  0  0
 16 21  1  0  0  0
 16 31  1  0  0  0
 17 18  1  0  0  0
 17 98  1  0  0  0
 18 19  2  0  0  0
 18 99  1  0  0  0
 19 20  1  0  0  0
 19 24  1  0  0  0
 20 21  2  0  0  0
 20100  1  0  0  0
 21 23  1  0  0  0
 22 28  1  0  0  0
 22 32  2  0  0  0
 26 27  1  0  0  0
 28101  1  0  0  0
 28102  1  0  0  0
 29103  1  0  0  0
 29104  1  0  0  0
 33 34  1  0  0  0
 33 66  1  0  0  0
 33 70  2  0  0  0
 34 36  1  0  0  0
 34 59  1  0  0  0
 34105  1  0  0  0
 35 44  2  0  0  0
 35 45  1  0  0  0
 35 68  1  0  0  0
 36 56  1  0  0  0
 36106  1  0  0  0
 37 39  1  0  0  0
 37 47  1  0  0  0
 37 66  1  0  0  0
 37107  1  0  0  0
 38 43  2  0  0  0
 38 46  1  0  0  0
 38 47  1  0  0  0
 39 64  1  0  0  0
 39 67  2  0  0  0
 40 52  1  0  0  0
 40 53  2  0  0  0
 40 58  1  0  0  0
 41108  1  0  0  0
 41109  1  0  0  0
 41110  1  0  0  0
 41 48  1  0  0  0
 42 43  1  0  0  0
 42 66  1  0  0  0
 42111  1  0  0  0
 42112  1  0  0  0
 43 44  1  0  0  0
 44113  1  0  0  0
 45 46  2  0  0  0
 45114  1  0  0  0
 46115  1  0  0  0
 47116  1  0  0  0
 47117  1  0  0  0
 48 56  1  0  0  0
 48 65  1  0  0  0
 48118  1  0  0  0
 49 50  1  0  0  0
 49 53  1  0  0  0
 49 64  1  0  0  0
 49119  1  0  0  0
 50 51  1  0  0  0
 50120  1  0  0  0
 50121  1  0  0  0
 51 52  1  0  0  0
 51122  1  0  0  0
 51123  1  0  0  0
 52124  1  0  0  0
 52125  1  0  0  0
 53 54  1  0  0  0
 54 55  2  0  0  0
 54126  1  0  0  0
 55 57  1  0  0  0
 55127  1  0  0  0
 56 69  2  0  0  0
 57 58  2  0  0  0
 57128  1  0  0  0
 58129  1  0  0  0
 59 60  1  0  0  0
 59 61  1  0  0  0
 59 62  1  0  0  0
 60130  1  0  0  0
 60131  1  0  0  0
 60132  1  0  0  0
 61133  1  0  0  0
 61134  1  0  0  0
 61135  1  0  0  0
 62136  1  0  0  0
 62137  1  0  0  0
 62138  1  0  0  0
 63 65  1  0  0  0
 63139  1  0  0  0
 63140  1  0  0  0
 63141  1  0  0  0
 64142  1  0  0  0
 65143  1  0  0  0
 68 81  1  0  0  0
 71 74  2  0  0  0
 71 75  1  0  0  0
 71144  1  0  0  0
 72 74  1  0  0  0
 72 76  2  0  0  0
 72145  1  0  0  0
 73 75  2  0  0  0
 73 76  1  0  0  0
 73146  1  0  0  0
 74 79  1  0  0  0
 75 83  1  0  0  0
 76 84  1  0  0  0
 77147  1  0  0  0
 77148  1  0  0  0
 77149  1  0  0  0
 77 82  1  0  0  0
 78 82  1  0  0  0
 78150  1  0  0  0
 78151  1  0  0  0
 78152  1  0  0  0
 79 80  1  0  0  0
 79153  1  0  0  0
 79154  1  0  0  0
 80 82  1  0  0  0
 80155  1  0  0  0
 80156  1  0  0  0
 81 82  1  0  0  0
 81157  1  0  0  0
 81158  1  0  0  0
 83159  1  0  0  0
M  ISO  4   1 100  68 101  81 101  83 100
M  END
> <chiral flag>
0

> <version>
0

> <s_m_source_file>
/data/baiqing/PycharmProjects/Reinvent-master-3.2/result/LINK_invent/BTK/process_docking_weight1_custom_product_contain_oxygen_bond_distance_aromatic_linkinvent_7_9_3/rearranged_h_0130.sdf

> <i_m_source_file_index>
27

> <r_mmod_Potential_Energy-OPLS-2005>
159.569519042969

> <r_mmod_Stretch_Energy-OPLS-2005>
105.513343811035

> <r_mmod_Bend_Energy-OPLS-2005>
144.762710571289

> <r_mmod_Torsional_Energy-OPLS-2005>
243.896392822266

> <r_mmod_Improper_Torsional_Energy-OPLS-2005>
4.67775201797485

> <r_mmod_Van_der_Waal_Energy-OPLS-2005>
142.051513671875

> <r_mmod_Electrostatic_Energy-OPLS-2005>
-349.547698974609

> <r_mmod_Solvation_Energy-OPLS-2005>
-196.510940551758

> <b_mmod_Minimization_Converged-OPLS-2005>
0

> <r_mmod_RMS_Derivative-OPLS-2005>
2.59854006767273

$$$$
27
                    3D
 Structure written by MMmdl.
165173  0  0  1  0            999 V2000
  -30.6608  -14.5347   20.4596 C   0  0  0  0  0  0
  -30.4337  -12.2908   19.4662 C   0  0  0  0  0  0
  -29.5060  -12.3571   18.2323 C   0  0  0  0  0  0
  -28.0153  -12.3193   18.6318 C   0  0  0  0  0  0
  -27.6561  -13.2013   19.8602 C   0  0  2  0  0  0
  -28.6987  -13.0432   20.9886 C   0  0  0  0  0  0
  -25.2588  -13.8155   20.5678 C   0  0  0  0  0  0
  -24.1834  -13.0445   20.9191 C   0  0  0  0  0  0
  -24.6378  -11.6907   20.8756 C   0  0  0  0  0  0
  -23.9045  -10.4296   21.0417 C   0  0  0  0  0  0
  -24.3606   -9.4208   21.9188 C   0  0  0  0  0  0
  -23.6287   -8.2240   22.0757 C   0  0  0  0  0  0
  -22.4267   -8.0281   21.3548 C   0  0  0  0  0  0
  -21.9895   -9.0256   20.4655 C   0  0  0  0  0  0
  -22.7222  -10.2137   20.3062 C   0  0  0  0  0  0
  -21.6854   -6.0731   22.5271 C   0  0  0  0  0  0
  -21.4013   -6.5633   23.8204 C   0  0  0  0  0  0
  -21.3663   -5.6791   24.9168 C   0  0  0  0  0  0
  -21.6046   -4.3052   24.7218 C   0  0  0  0  0  0
  -21.8823   -3.8142   23.4338 C   0  0  0  0  0  0
  -21.9196   -4.6959   22.3395 C   0  0  0  0  0  0
  -22.7862  -13.5251   21.1851 C   0  0  0  0  0  0
  -22.1668   -4.2144   21.0973 F   0  0  0  0  0  0
  -21.5631   -3.4539   25.7733 F   0  0  0  0  0  0
  -30.0219  -13.3334   20.4188 N   0  0  0  0  0  0
  -26.3001  -12.9308   20.3329 N   0  0  0  0  0  0
  -25.9300  -11.6485   20.5808 N   0  0  0  0  0  0
  -22.0498  -12.8247   22.0411 N   0  0  0  0  0  0
  -25.4334  -15.1869   20.4073 N   0  0  0  0  0  0
  -31.8430  -14.6705   20.1339 O   0  0  0  0  0  0
  -21.6639   -6.8869   21.4237 O   0  0  0  0  0  0
  -22.3551  -14.5563   20.6708 O   0  0  0  0  0  0
  -24.6140  -31.8667   23.2082 C   0  0  0  0  0  0
  -25.9038  -32.4815   23.8379 C   0  0  1  0  0  0
  -27.2432  -27.4294   20.0956 C   0  0  0  0  0  0
  -25.5894  -33.8610   24.2314 N   0  0  0  0  0  0
  -23.4016  -30.4880   21.5482 C   0  0  2  0  0  0
  -24.8486  -28.9476   20.1149 C   0  0  0  0  0  0
  -22.7406  -29.4642   22.4984 C   0  0  0  0  0  0
  -18.0274  -28.1372   22.8493 C   0  0  0  0  0  0
  -24.1480  -36.7309   23.2634 C   0  0  0  0  0  0
  -25.9292  -30.8289   21.3624 C   0  0  0  0  0  0
  -26.0051  -29.4615   20.7116 C   0  0  0  0  0  0
  -27.1990  -28.7073   20.7007 C   0  0  0  0  0  0
  -26.0641  -26.9231   19.5010 C   0  0  0  0  0  0
  -24.8725  -27.6777   19.5096 C   0  0  0  0  0  0
  -23.6105  -29.8153   20.1636 C   0  0  0  0  0  0
  -25.4103  -36.3102   24.0333 C   0  0  1  0  0  0
  -20.5862  -28.3654   23.1323 C   0  0  2  0  0  0
  -20.6757  -26.9388   22.5419 C   0  0  0  0  0  0
  -19.5738  -26.6381   21.5208 C   0  0  0  0  0  0
  -18.1917  -26.7923   22.1622 C   0  0  0  0  0  0
  -19.1522  -28.8831   23.2906 C   0  0  0  0  0  0
  -18.9451  -30.1440   23.8913 C   0  0  0  0  0  0
  -17.6452  -30.6578   24.0564 C   0  0  0  0  0  0
  -25.9029  -34.9471   23.5120 C   0  0  0  0  0  0
  -16.5346  -29.9079   23.6325 C   0  0  0  0  0  0
  -16.7264  -28.6498   23.0344 C   0  0  0  0  0  0
  -26.4467  -31.6603   25.0715 C   0  0  0  0  0  0
  -25.3742  -31.3734   26.1477 C   0  0  0  0  0  0
  -27.0287  -30.3040   24.6101 C   0  0  0  0  0  0
  -27.6041  -32.4326   25.7484 C   0  0  0  0  0  0
  -27.5579  -37.1810   24.8457 C   0  0  0  0  0  0
  -21.4131  -29.3022   22.3733 N   0  0  0  0  0  0
  -26.4289  -37.3789   23.9405 N   0  0  0  0  0  0
  -24.6662  -31.0765   22.0979 N   0  0  0  0  0  0
  -23.4180  -28.8190   23.3028 O   0  0  0  0  0  0
  -28.4460  -26.7497   20.1243 O   0  0  0  0  0  0
  -26.5588  -34.8927   22.4679 O   0  0  0  0  0  0
  -23.5334  -32.1422   23.7480 O   0  0  0  0  0  0
  -30.1123  -18.2496   17.9574 C   0  0  0  0  0  0
  -29.9278  -18.0927   20.7387 C   0  0  0  0  0  0
  -30.1591  -19.4398   18.7050 C   0  0  0  0  0  0
  -30.0029  -16.9920   18.5712 C   0  0  0  0  0  0
  -30.0159  -19.3745   20.1169 C   0  0  0  0  0  0
  -29.9625  -16.8849   19.9885 C   0  0  0  0  0  0
  -29.8943  -15.7998   17.6464 C   0  0  0  0  0  0
  -31.0328  -20.6937   16.5985 C   0  0  0  0  0  0
  -30.3525  -20.7672   17.9755 C   0  0  0  0  0  0
  -30.0292  -20.6520   20.9838 C   0  0  0  0  0  0
  -28.8824  -21.6937   20.7610 C   0  0  0  0  0  0
  -29.3216  -23.0896   20.2221 C   0  0  0  0  0  0
  -28.3054  -24.2532   20.3953 C   0  0  0  0  0  0
  -28.6193  -25.4754   19.4888 C   0  0  0  0  0  0
  -29.8609  -15.6105   20.6551 N   0  0  0  0  0  0
  -31.4773  -12.3921   19.1607 H   0  0  0  0  0  0
  -30.3586  -11.3124   19.9428 H   0  0  0  0  0  0
  -29.7177  -11.5081   17.5807 H   0  0  0  0  0  0
  -29.7280  -13.2217   17.6213 H   0  0  0  0  0  0
  -27.7833  -11.2778   18.8563 H   0  0  0  0  0  0
  -27.3894  -12.5870   17.7796 H   0  0  0  0  0  0
  -27.6808  -14.2362   19.5234 H   0  0  0  0  0  0
  -28.6796  -12.0288   21.3890 H   0  0  0  0  0  0
  -28.4688  -13.6992   21.8299 H   0  0  0  0  0  0
  -25.2758   -9.5694   22.4754 H   0  0  0  0  0  0
  -24.0011   -7.4627   22.7468 H   0  0  0  0  0  0
  -21.0827   -8.8770   19.8958 H   0  0  0  0  0  0
  -22.3681  -10.9675   19.6167 H   0  0  0  0  0  0
  -21.2004   -7.6142   23.9702 H   0  0  0  0  0  0
  -21.1484   -6.0522   25.9070 H   0  0  0  0  0  0
  -22.0602   -2.7606   23.2840 H   0  0  0  0  0  0
  -22.4102  -11.9909   22.4811 H   0  0  0  0  0  0
  -21.1118  -13.1283   22.2600 H   0  0  0  0  0  0
  -24.6698  -15.8448   20.5175 H   0  0  0  0  0  0
  -26.2845  -15.6243   20.0775 H   0  0  0  0  0  0
  -26.7106  -32.5525   23.1138 H   0  0  0  0  0  0
  -25.0058  -33.9772   25.0470 H   0  0  0  0  0  0
  -22.6895  -31.3035   21.4070 H   0  0  0  0  0  0
  -23.3741  -35.9642   23.3300 H   0  0  0  0  0  0
  -24.3574  -36.8922   22.2047 H   0  0  0  0  0  0
  -23.7238  -37.6516   23.6650 H   0  0  0  0  0  0
  -26.0432  -31.5941   20.5933 H   0  0  0  0  0  0
  -26.8163  -30.8822   21.9815 H   0  0  0  0  0  0
  -28.0942  -29.1029   21.1604 H   0  0  0  0  0  0
  -26.0426  -25.9491   19.0351 H   0  0  0  0  0  0
  -23.9798  -27.2736   19.0523 H   0  0  0  0  0  0
  -23.7180  -30.5872   19.4005 H   0  0  0  0  0  0
  -22.7354  -29.2330   19.8708 H   0  0  0  0  0  0
  -25.1279  -36.1960   25.0826 H   0  0  0  0  0  0
  -20.9952  -28.3214   24.1443 H   0  0  0  0  0  0
  -20.5648  -26.2253   23.3599 H   0  0  0  0  0  0
  -21.6632  -26.7423   22.1221 H   0  0  0  0  0  0
  -19.6891  -25.6294   21.1224 H   0  0  0  0  0  0
  -19.6680  -27.3201   20.6744 H   0  0  0  0  0  0
  -17.4183  -26.6675   21.4026 H   0  0  0  0  0  0
  -18.0318  -26.0066   22.9019 H   0  0  0  0  0  0
  -19.7925  -30.7251   24.2289 H   0  0  0  0  0  0
  -17.5008  -31.6264   24.5156 H   0  0  0  0  0  0
  -15.5346  -30.2981   23.7642 H   0  0  0  0  0  0
  -15.8667  -28.0820   22.7045 H   0  0  0  0  0  0
  -24.5889  -30.7102   25.7835 H   0  0  0  0  0  0
  -24.8967  -32.2903   26.4940 H   0  0  0  0  0  0
  -25.8101  -30.8897   27.0226 H   0  0  0  0  0  0
  -26.2832  -29.6826   24.1124 H   0  0  0  0  0  0
  -27.4014  -29.7256   25.4565 H   0  0  0  0  0  0
  -27.8687  -30.4349   23.9274 H   0  0  0  0  0  0
  -27.2653  -33.3612   26.2089 H   0  0  0  0  0  0
  -28.3843  -32.6910   25.0313 H   0  0  0  0  0  0
  -28.0717  -31.8436   26.5386 H   0  0  0  0  0  0
  -28.2594  -38.0108   24.7500 H   0  0  0  0  0  0
  -28.1077  -36.2639   24.6277 H   0  0  0  0  0  0
  -27.2303  -37.1459   25.8863 H   0  0  0  0  0  0
  -20.9281  -29.8756   21.6973 H   0  0  0  0  0  0
  -26.0174  -38.2866   24.1407 H   0  0  0  0  0  0
  -30.1595  -18.2838   16.8796 H   0  0  0  0  0  0
  -29.8498  -18.0337   21.8160 H   0  0  0  0  0  0
  -29.7888  -16.0970   16.6030 H   0  0  0  0  0  0
  -29.0064  -15.2261   17.9020 H   0  0  0  0  0  0
  -30.7855  -15.1776   17.7139 H   0  0  0  0  0  0
  -31.2146  -21.6972   16.2120 H   0  0  0  0  0  0
  -30.4151  -20.1823   15.8605 H   0  0  0  0  0  0
  -31.9957  -20.1853   16.6573 H   0  0  0  0  0  0
  -30.9704  -21.4160   18.5931 H   0  0  0  0  0  0
  -29.3752  -21.2360   17.8606 H   0  0  0  0  0  0
  -31.0047  -21.1289   20.8860 H   0  0  0  0  0  0
  -29.9929  -20.3402   22.0285 H   0  0  0  0  0  0
  -28.4051  -21.8565   21.7287 H   0  0  0  0  0  0
  -28.1003  -21.2711   20.1292 H   0  0  0  0  0  0
  -29.5495  -23.0159   19.1626 H   0  0  0  0  0  0
  -30.2565  -23.3861   20.7004 H   0  0  0  0  0  0
  -28.3089  -24.5626   21.4407 H   0  0  0  0  0  0
  -27.2924  -23.9085   20.1848 H   0  0  0  0  0  0
  -28.1038  -25.4092   18.5300 H   0  0  0  0  0  0
  -29.6776  -25.4447   19.2280 H   0  0  0  0  0  0
  -28.9673  -15.4099   21.0784 H   0  0  0  0  0  0
  1 25  1  0  0  0
  1 30  2  0  0  0
  1 85  1  0  0  0
  2  3  1  0  0  0
  2 25  1  0  0  0
  2 86  1  0  0  0
  2 87  1  0  0  0
  3  4  1  0  0  0
  3 88  1  0  0  0
  3 89  1  0  0  0
  4  5  1  0  0  0
  4 90  1  0  0  0
  4 91  1  0  0  0
  5  6  1  0  0  0
  5 26  1  0  0  0
  5 92  1  0  0  0
  6 25  1  0  0  0
  6 93  1  0  0  0
  6 94  1  0  0  0
  7  8  2  0  0  0
  7 26  1  0  0  0
  7 29  1  0  0  0
  8  9  1  0  0  0
  8 22  1  0  0  0
  9 10  1  0  0  0
  9 27  2  0  0  0
 10 11  2  0  0  0
 10 15  1  0  0  0
 11 12  1  0  0  0
 11 95  1  0  0  0
 12 13  2  0  0  0
 12 96  1  0  0  0
 13 14  1  0  0  0
 13 31  1  0  0  0
 14 15  2  0  0  0
 14 97  1  0  0  0
 15 98  1  0  0  0
 16 17  2  0  0  0
 16 21  1  0  0  0
 16 31  1  0  0  0
 17 18  1  0  0  0
 17 99  1  0  0  0
 18 19  2  0  0  0
 18100  1  0  0  0
 19 20  1  0  0  0
 19 24  1  0  0  0
 20 21  2  0  0  0
 20101  1  0  0  0
 21 23  1  0  0  0
 22 28  1  0  0  0
 22 32  2  0  0  0
 26 27  1  0  0  0
 28102  1  0  0  0
 28103  1  0  0  0
 29104  1  0  0  0
 29105  1  0  0  0
 33 34  1  0  0  0
 33 66  1  0  0  0
 33 70  2  0  0  0
 34 36  1  0  0  0
 34 59  1  0  0  0
 34106  1  0  0  0
 35 44  2  0  0  0
 35 45  1  0  0  0
 35 68  1  0  0  0
 36 56  1  0  0  0
 36107  1  0  0  0
 37 39  1  0  0  0
 37 47  1  0  0  0
 37 66  1  0  0  0
 37108  1  0  0  0
 38 43  2  0  0  0
 38 46  1  0  0  0
 38 47  1  0  0  0
 39 64  1  0  0  0
 39 67  2  0  0  0
 40 52  1  0  0  0
 40 53  2  0  0  0
 40 58  1  0  0  0
 41109  1  0  0  0
 41110  1  0  0  0
 41111  1  0  0  0
 41 48  1  0  0  0
 42 43  1  0  0  0
 42 66  1  0  0  0
 42112  1  0  0  0
 42113  1  0  0  0
 43 44  1  0  0  0
 44114  1  0  0  0
 45 46  2  0  0  0
 45115  1  0  0  0
 46116  1  0  0  0
 47117  1  0  0  0
 47118  1  0  0  0
 48 56  1  0  0  0
 48 65  1  0  0  0
 48119  1  0  0  0
 49 50  1  0  0  0
 49 53  1  0  0  0
 49 64  1  0  0  0
 49120  1  0  0  0
 50 51  1  0  0  0
 50121  1  0  0  0
 50122  1  0  0  0
 51 52  1  0  0  0
 51123  1  0  0  0
 51124  1  0  0  0
 52125  1  0  0  0
 52126  1  0  0  0
 53 54  1  0  0  0
 54 55  2  0  0  0
 54127  1  0  0  0
 55 57  1  0  0  0
 55128  1  0  0  0
 56 69  2  0  0  0
 57 58  2  0  0  0
 57129  1  0  0  0
 58130  1  0  0  0
 59 60  1  0  0  0
 59 61  1  0  0  0
 59 62  1  0  0  0
 60131  1  0  0  0
 60132  1  0  0  0
 60133  1  0  0  0
 61134  1  0  0  0
 61135  1  0  0  0
 61136  1  0  0  0
 62137  1  0  0  0
 62138  1  0  0  0
 62139  1  0  0  0
 63 65  1  0  0  0
 63140  1  0  0  0
 63141  1  0  0  0
 63142  1  0  0  0
 64143  1  0  0  0
 65144  1  0  0  0
 68 84  1  0  0  0
 71 73  2  0  0  0
 71 74  1  0  0  0
 71145  1  0  0  0
 72 75  2  0  0  0
 72 76  1  0  0  0
 72146  1  0  0  0
 73 75  1  0  0  0
 73 79  1  0  0  0
 74 76  2  0  0  0
 74 77  1  0  0  0
 75 80  1  0  0  0
 76 85  1  0  0  0
 77147  1  0  0  0
 77148  1  0  0  0
 77149  1  0  0  0
 78 79  1  0  0  0
 78150  1  0  0  0
 78151  1  0  0  0
 78152  1  0  0  0
 79153  1  0  0  0
 79154  1  0  0  0
 80 81  1  0  0  0
 80155  1  0  0  0
 80156  1  0  0  0
 81 82  1  0  0  0
 81157  1  0  0  0
 81158  1  0  0  0
 82 83  1  0  0  0
 82159  1  0  0  0
 82160  1  0  0  0
 83 84  1  0  0  0
 83161  1  0  0  0
 83162  1  0  0  0
 84163  1  0  0  0
 84164  1  0  0  0
 85165  1  0  0  0
M  ISO  4   1 100  68 101  84 101  85 100
M  END
> <chiral flag>
0

> <version>
0

> <s_m_source_file>
/data/baiqing/PycharmProjects/Reinvent-master-3.2/result/LINK_invent/BTK/process_docking_weight1_custom_product_contain_oxygen_bond_distance_aromatic_linkinvent_7_9_3/rearranged_h_0130.sdf

> <i_m_source_file_index>
28

> <r_mmod_Potential_Energy-OPLS-2005>
23.2665195465088

> <r_mmod_Stretch_Energy-OPLS-2005>
44.2137756347656

> <r_mmod_Bend_Energy-OPLS-2005>
115.88606262207

> <r_mmod_Torsional_Energy-OPLS-2005>
261.508819580078

> <r_mmod_Improper_Torsional_Energy-OPLS-2005>
6.42021608352661

> <r_mmod_Van_der_Waal_Energy-OPLS-2005>
158.499206542969

> <r_mmod_Electrostatic_Energy-OPLS-2005>
-388.521728515625

> <r_mmod_Solvation_Energy-OPLS-2005>
-200.304458618164

> <b_mmod_Minimization_Converged-OPLS-2005>
0

> <r_mmod_RMS_Derivative-OPLS-2005>
1.19533431529999

$$$$
28
                    3D
 Structure written by MMmdl.
157165  0  0  1  0            999 V2000
  -30.6841  -14.5015   20.5273 C   0  0  0  0  0  0
  -30.4258  -12.3050   19.4471 C   0  0  0  0  0  0
  -29.5077  -12.4897   18.2196 C   0  0  0  0  0  0
  -28.0244  -12.3637   18.6207 C   0  0  0  0  0  0
  -27.6625  -13.2100   19.8716 C   0  0  2  0  0  0
  -28.7010  -13.0108   21.0003 C   0  0  0  0  0  0
  -25.2598  -13.8167   20.5681 C   0  0  0  0  0  0
  -24.1840  -13.0442   20.9151 C   0  0  0  0  0  0
  -24.6391  -11.6909   20.8703 C   0  0  0  0  0  0
  -23.9053  -10.4294   21.0385 C   0  0  0  0  0  0
  -24.3601   -9.4212   21.9167 C   0  0  0  0  0  0
  -23.6272   -8.2251   22.0747 C   0  0  0  0  0  0
  -22.4257   -8.0279   21.3545 C   0  0  0  0  0  0
  -21.9890   -9.0249   20.4649 C   0  0  0  0  0  0
  -22.7217  -10.2127   20.3048 C   0  0  0  0  0  0
  -21.6852   -6.0723   22.5271 C   0  0  0  0  0  0
  -21.4017   -6.5629   23.8205 C   0  0  0  0  0  0
  -21.3666   -5.6780   24.9165 C   0  0  0  0  0  0
  -21.6047   -4.3043   24.7219 C   0  0  0  0  0  0
  -21.8819   -3.8138   23.4337 C   0  0  0  0  0  0
  -21.9198   -4.6952   22.3395 C   0  0  0  0  0  0
  -22.7864  -13.5245   21.1821 C   0  0  0  0  0  0
  -22.1668   -4.2143   21.0973 F   0  0  0  0  0  0
  -21.5628   -3.4532   25.7730 F   0  0  0  0  0  0
  -30.0361  -13.3062   20.4545 N   0  0  0  0  0  0
  -26.3028  -12.9341   20.3326 N   0  0  0  0  0  0
  -25.9318  -11.6498   20.5718 N   0  0  0  0  0  0
  -22.0498  -12.8251   22.0380 N   0  0  0  0  0  0
  -25.4350  -15.1882   20.4151 N   0  0  0  0  0  0
  -31.8216  -14.6729   20.0795 O   0  0  0  0  0  0
  -21.6634   -6.8865   21.4235 O   0  0  0  0  0  0
  -22.3556  -14.5558   20.6677 O   0  0  0  0  0  0
  -24.6176  -31.8667   23.2083 C   0  0  0  0  0  0
  -25.9067  -32.4812   23.8377 C   0  0  1  0  0  0
  -27.2262  -27.4046   20.0974 C   0  0  0  0  0  0
  -25.5911  -33.8610   24.2307 N   0  0  0  0  0  0
  -23.4051  -30.4918   21.5505 C   0  0  2  0  0  0
  -24.8494  -28.9578   20.1120 C   0  0  0  0  0  0
  -22.7420  -29.4661   22.4981 C   0  0  0  0  0  0
  -18.0274  -28.1378   22.8491 C   0  0  0  0  0  0
  -24.1488  -36.7308   23.2635 C   0  0  0  0  0  0
  -25.9378  -30.8241   21.3652 C   0  0  0  0  0  0
  -26.0137  -29.4578   20.7092 C   0  0  0  0  0  0
  -27.2058  -28.6905   20.6961 C   0  0  0  0  0  0
  -26.0419  -26.9354   19.4820 C   0  0  0  0  0  0
  -24.8607  -27.6975   19.4941 C   0  0  0  0  0  0
  -23.6132  -29.8276   20.1641 C   0  0  0  0  0  0
  -25.4108  -36.3100   24.0330 C   0  0  1  0  0  0
  -20.5867  -28.3671   23.1313 C   0  0  2  0  0  0
  -20.6769  -26.9406   22.5416 C   0  0  0  0  0  0
  -19.5743  -26.6389   21.5213 C   0  0  0  0  0  0
  -18.1922  -26.7926   22.1625 C   0  0  0  0  0  0
  -19.1525  -28.8838   23.2899 C   0  0  0  0  0  0
  -18.9455  -30.1447   23.8911 C   0  0  0  0  0  0
  -17.6458  -30.6588   24.0567 C   0  0  0  0  0  0
  -25.9041  -34.9468   23.5115 C   0  0  0  0  0  0
  -16.5349  -29.9092   23.6325 C   0  0  0  0  0  0
  -16.7265  -28.6506   23.0350 C   0  0  0  0  0  0
  -26.4482  -31.6596   25.0714 C   0  0  0  0  0  0
  -25.3738  -31.3725   26.1455 C   0  0  0  0  0  0
  -27.0311  -30.3031   24.6111 C   0  0  0  0  0  0
  -27.6050  -32.4318   25.7485 C   0  0  0  0  0  0
  -27.5580  -37.1807   24.8462 C   0  0  0  0  0  0
  -21.4146  -29.3041   22.3724 N   0  0  0  0  0  0
  -26.4290  -37.3788   23.9410 N   0  0  0  0  0  0
  -24.6720  -31.0747   22.0998 N   0  0  0  0  0  0
  -23.4182  -28.8204   23.3031 O   0  0  0  0  0  0
  -28.3731  -26.6242   20.1354 O   0  0  0  0  0  0
  -26.5607  -34.8926   22.4681 O   0  0  0  0  0  0
  -23.5365  -32.1437   23.7465 O   0  0  0  0  0  0
  -29.1695  -17.8039   18.0713 C   0  0  0  0  0  0
  -29.5239  -16.6663   18.8103 C   0  0  0  0  0  0
  -29.5797  -18.0215   20.8258 C   0  0  0  0  0  0
  -29.2358  -19.1986   20.0926 C   0  0  0  0  0  0
  -29.0033  -19.0590   18.6919 C   0  0  0  0  0  0
  -29.7207  -16.7498   20.2041 C   0  0  0  0  0  0
  -29.1456  -20.4931   20.8455 C   0  0  0  0  0  0
  -29.1720  -21.7819   20.4139 C   0  0  0  0  0  0
  -28.5161  -20.1933   17.8059 C   0  0  0  0  0  0
  -29.0236  -22.9903   21.3421 C   0  0  0  0  0  0
  -29.3655  -24.3999   20.7591 C   0  0  0  0  0  0
  -28.1712  -25.1891   20.1607 C   0  0  0  0  0  0
  -29.9507  -15.5505   20.9621 N   0  0  0  0  0  0
  -31.4745  -12.3880   19.1555 H   0  0  0  0  0  0
  -30.3128  -11.3015   19.8592 H   0  0  0  0  0  0
  -29.7504  -11.7501   17.4559 H   0  0  0  0  0  0
  -29.6856  -13.4634   17.7621 H   0  0  0  0  0  0
  -27.8243  -11.3093   18.8144 H   0  0  0  0  0  0
  -27.3847  -12.6407   17.7824 H   0  0  0  0  0  0
  -27.7002  -14.2548   19.5636 H   0  0  0  0  0  0
  -28.6734  -11.9821   21.3614 H   0  0  0  0  0  0
  -28.4612  -13.6324   21.8645 H   0  0  0  0  0  0
  -25.2749   -9.5688   22.4733 H   0  0  0  0  0  0
  -23.9987   -7.4646   22.7467 H   0  0  0  0  0  0
  -21.0819   -8.8757   19.8954 H   0  0  0  0  0  0
  -22.3666  -10.9654   19.6157 H   0  0  0  0  0  0
  -21.2008   -7.6136   23.9695 H   0  0  0  0  0  0
  -21.1491   -6.0518   25.9066 H   0  0  0  0  0  0
  -22.0600   -2.7598   23.2834 H   0  0  0  0  0  0
  -22.4102  -11.9916   22.4792 H   0  0  0  0  0  0
  -21.1124  -13.1301   22.2587 H   0  0  0  0  0  0
  -24.6740  -15.8484   20.5290 H   0  0  0  0  0  0
  -26.3011  -15.6276   20.1288 H   0  0  0  0  0  0
  -26.7137  -32.5508   23.1135 H   0  0  0  0  0  0
  -25.0066  -33.9767   25.0457 H   0  0  0  0  0  0
  -22.6942  -31.3092   21.4130 H   0  0  0  0  0  0
  -23.3742  -35.9650   23.3308 H   0  0  0  0  0  0
  -24.3581  -36.8917   22.2049 H   0  0  0  0  0  0
  -23.7256  -37.6520   23.6649 H   0  0  0  0  0  0
  -26.0535  -31.5896   20.5963 H   0  0  0  0  0  0
  -26.8246  -30.8749   21.9855 H   0  0  0  0  0  0
  -28.1010  -29.0702   21.1689 H   0  0  0  0  0  0
  -26.0104  -25.9740   18.9902 H   0  0  0  0  0  0
  -23.9676  -27.3068   19.0259 H   0  0  0  0  0  0
  -23.7243  -30.6046   19.4065 H   0  0  0  0  0  0
  -22.7348  -29.2513   19.8664 H   0  0  0  0  0  0
  -25.1288  -36.1954   25.0822 H   0  0  0  0  0  0
  -20.9956  -28.3241   24.1433 H   0  0  0  0  0  0
  -20.5677  -26.2279   23.3606 H   0  0  0  0  0  0
  -21.6642  -26.7455   22.1207 H   0  0  0  0  0  0
  -19.6906  -25.6303   21.1239 H   0  0  0  0  0  0
  -19.6679  -27.3204   20.6746 H   0  0  0  0  0  0
  -17.4193  -26.6675   21.4027 H   0  0  0  0  0  0
  -18.0320  -26.0068   22.9020 H   0  0  0  0  0  0
  -19.7932  -30.7256   24.2288 H   0  0  0  0  0  0
  -17.5017  -31.6270   24.5169 H   0  0  0  0  0  0
  -15.5350  -30.3001   23.7642 H   0  0  0  0  0  0
  -15.8664  -28.0833   22.7058 H   0  0  0  0  0  0
  -24.5898  -30.7085   25.7799 H   0  0  0  0  0  0
  -24.8942  -32.2890   26.4896 H   0  0  0  0  0  0
  -25.8073  -30.8897   27.0220 H   0  0  0  0  0  0
  -26.2865  -29.6794   24.1149 H   0  0  0  0  0  0
  -27.4057  -29.7266   25.4581 H   0  0  0  0  0  0
  -27.8709  -30.4341   23.9282 H   0  0  0  0  0  0
  -27.2659  -33.3606   26.2087 H   0  0  0  0  0  0
  -28.3849  -32.6899   25.0308 H   0  0  0  0  0  0
  -28.0728  -31.8426   26.5384 H   0  0  0  0  0  0
  -28.2598  -38.0103   24.7507 H   0  0  0  0  0  0
  -28.1074  -36.2634   24.6283 H   0  0  0  0  0  0
  -27.2299  -37.1459   25.8865 H   0  0  0  0  0  0
  -20.9304  -29.8764   21.6950 H   0  0  0  0  0  0
  -26.0171  -38.2865   24.1407 H   0  0  0  0  0  0
  -28.9968  -17.6930   17.0092 H   0  0  0  0  0  0
  -29.6033  -15.7235   18.2902 H   0  0  0  0  0  0
  -29.7322  -18.0960   21.8936 H   0  0  0  0  0  0
  -29.0198  -20.3644   21.9120 H   0  0  0  0  0  0
  -29.3023  -22.0252   19.3729 H   0  0  0  0  0  0
  -28.0833  -19.8111   16.8808 H   0  0  0  0  0  0
  -29.3404  -20.8499   17.5284 H   0  0  0  0  0  0
  -27.7321  -20.7704   18.2963 H   0  0  0  0  0  0
  -29.6838  -22.8051   22.1907 H   0  0  0  0  0  0
  -28.0150  -22.9885   21.7573 H   0  0  0  0  0  0
  -30.1882  -24.3410   20.0458 H   0  0  0  0  0  0
  -29.7452  -24.9965   21.5899 H   0  0  0  0  0  0
  -27.2915  -24.9687   20.7681 H   0  0  0  0  0  0
  -27.9656  -24.8216   19.1543 H   0  0  0  0  0  0
  -29.1970  -15.3011   21.5851 H   0  0  0  0  0  0
  1 25  1  0  0  0
  1 30  2  0  0  0
  1 83  1  0  0  0
  2  3  1  0  0  0
  2 25  1  0  0  0
  2 84  1  0  0  0
  2 85  1  0  0  0
  3  4  1  0  0  0
  3 86  1  0  0  0
  3 87  1  0  0  0
  4  5  1  0  0  0
  4 88  1  0  0  0
  4 89  1  0  0  0
  5  6  1  0  0  0
  5 26  1  0  0  0
  5 90  1  0  0  0
  6 25  1  0  0  0
  6 91  1  0  0  0
  6 92  1  0  0  0
  7  8  2  0  0  0
  7 26  1  0  0  0
  7 29  1  0  0  0
  8  9  1  0  0  0
  8 22  1  0  0  0
  9 10  1  0  0  0
  9 27  2  0  0  0
 10 11  2  0  0  0
 10 15  1  0  0  0
 11 12  1  0  0  0
 11 93  1  0  0  0
 12 13  2  0  0  0
 12 94  1  0  0  0
 13 14  1  0  0  0
 13 31  1  0  0  0
 14 15  2  0  0  0
 14 95  1  0  0  0
 15 96  1  0  0  0
 16 17  2  0  0  0
 16 21  1  0  0  0
 16 31  1  0  0  0
 17 18  1  0  0  0
 17 97  1  0  0  0
 18 19  2  0  0  0
 18 98  1  0  0  0
 19 20  1  0  0  0
 19 24  1  0  0  0
 20 21  2  0  0  0
 20 99  1  0  0  0
 21 23  1  0  0  0
 22 28  1  0  0  0
 22 32  2  0  0  0
 26 27  1  0  0  0
 28100  1  0  0  0
 28101  1  0  0  0
 29102  1  0  0  0
 29103  1  0  0  0
 33 34  1  0  0  0
 33 66  1  0  0  0
 33 70  2  0  0  0
 34 36  1  0  0  0
 34 59  1  0  0  0
 34104  1  0  0  0
 35 44  2  0  0  0
 35 45  1  0  0  0
 35 68  1  0  0  0
 36 56  1  0  0  0
 36105  1  0  0  0
 37 39  1  0  0  0
 37 47  1  0  0  0
 37 66  1  0  0  0
 37106  1  0  0  0
 38 43  2  0  0  0
 38 46  1  0  0  0
 38 47  1  0  0  0
 39 64  1  0  0  0
 39 67  2  0  0  0
 40 52  1  0  0  0
 40 53  2  0  0  0
 40 58  1  0  0  0
 41107  1  0  0  0
 41108  1  0  0  0
 41109  1  0  0  0
 41 48  1  0  0  0
 42 43  1  0  0  0
 42 66  1  0  0  0
 42110  1  0  0  0
 42111  1  0  0  0
 43 44  1  0  0  0
 44112  1  0  0  0
 45 46  2  0  0  0
 45113  1  0  0  0
 46114  1  0  0  0
 47115  1  0  0  0
 47116  1  0  0  0
 48 56  1  0  0  0
 48 65  1  0  0  0
 48117  1  0  0  0
 49 50  1  0  0  0
 49 53  1  0  0  0
 49 64  1  0  0  0
 49118  1  0  0  0
 50 51  1  0  0  0
 50119  1  0  0  0
 50120  1  0  0  0
 51 52  1  0  0  0
 51121  1  0  0  0
 51122  1  0  0  0
 52123  1  0  0  0
 52124  1  0  0  0
 53 54  1  0  0  0
 54 55  2  0  0  0
 54125  1  0  0  0
 55 57  1  0  0  0
 55126  1  0  0  0
 56 69  2  0  0  0
 57 58  2  0  0  0
 57127  1  0  0  0
 58128  1  0  0  0
 59 60  1  0  0  0
 59 61  1  0  0  0
 59 62  1  0  0  0
 60129  1  0  0  0
 60130  1  0  0  0
 60131  1  0  0  0
 61132  1  0  0  0
 61133  1  0  0  0
 61134  1  0  0  0
 62135  1  0  0  0
 62136  1  0  0  0
 62137  1  0  0  0
 63 65  1  0  0  0
 63138  1  0  0  0
 63139  1  0  0  0
 63140  1  0  0  0
 64141  1  0  0  0
 65142  1  0  0  0
 68 82  1  0  0  0
 71 72  2  0  0  0
 71 75  1  0  0  0
 71143  1  0  0  0
 72 76  1  0  0  0
 72144  1  0  0  0
 73 74  1  0  0  0
 73 76  2  0  0  0
 73145  1  0  0  0
 74 75  2  0  0  0
 74 77  1  0  0  0
 75 79  1  0  0  0
 76 83  1  0  0  0
 77 78  2  0  0  0
 77146  1  0  0  0
 78 80  1  0  0  0
 78147  1  0  0  0
 79148  1  0  0  0
 79149  1  0  0  0
 79150  1  0  0  0
 80 81  1  0  0  0
 80151  1  0  0  0
 80152  1  0  0  0
 81 82  1  0  0  0
 81153  1  0  0  0
 81154  1  0  0  0
 82155  1  0  0  0
 82156  1  0  0  0
 83157  1  0  0  0
M  ISO  4   1 100  68 101  82 101  83 100
M  END
> <chiral flag>
0

> <version>
0

> <s_m_source_file>
/data/baiqing/PycharmProjects/Reinvent-master-3.2/result/LINK_invent/BTK/process_docking_weight1_custom_product_contain_oxygen_bond_distance_aromatic_linkinvent_7_9_3/rearranged_h_0130.sdf

> <i_m_source_file_index>
29

> <r_mmod_Potential_Energy-OPLS-2005>
32.5816268920898

> <r_mmod_Stretch_Energy-OPLS-2005>
45.6307907104492

> <r_mmod_Bend_Energy-OPLS-2005>
105.298713684082

> <r_mmod_Torsional_Energy-OPLS-2005>
265.013458251953

> <r_mmod_Improper_Torsional_Energy-OPLS-2005>
6.46704339981079

> <r_mmod_Van_der_Waal_Energy-OPLS-2005>
156.291061401367

> <r_mmod_Electrostatic_Energy-OPLS-2005>
-360.215545654297

> <r_mmod_Solvation_Energy-OPLS-2005>
-204.573516845703

> <b_mmod_Minimization_Converged-OPLS-2005>
0

> <r_mmod_RMS_Derivative-OPLS-2005>
1.34924864768982

$$$$
29
                    3D
 Structure written by MMmdl.
147155  0  0  1  0            999 V2000
  -30.6454  -14.7185   20.4318 C   0  0  0  0  0  0
  -30.4136  -12.4309   19.4797 C   0  0  0  0  0  0
  -29.5049  -12.5164   18.2339 C   0  0  0  0  0  0
  -28.0278  -12.3504   18.6365 C   0  0  0  0  0  0
  -27.6371  -13.2426   19.8450 C   0  0  2  0  0  0
  -28.6792  -13.1768   20.9813 C   0  0  0  0  0  0
  -25.2488  -13.8223   20.5722 C   0  0  0  0  0  0
  -24.1792  -13.0441   20.9185 C   0  0  0  0  0  0
  -24.6387  -11.6922   20.8715 C   0  0  0  0  0  0
  -23.9070  -10.4295   21.0399 C   0  0  0  0  0  0
  -24.3635   -9.4196   21.9169 C   0  0  0  0  0  0
  -23.6315   -8.2231   22.0749 C   0  0  0  0  0  0
  -22.4287   -8.0274   21.3548 C   0  0  0  0  0  0
  -21.9917   -9.0251   20.4658 C   0  0  0  0  0  0
  -22.7232  -10.2139   20.3065 C   0  0  0  0  0  0
  -21.6862   -6.0719   22.5277 C   0  0  0  0  0  0
  -21.4017   -6.5622   23.8203 C   0  0  0  0  0  0
  -21.3674   -5.6787   24.9179 C   0  0  0  0  0  0
  -21.6068   -4.3051   24.7232 C   0  0  0  0  0  0
  -21.8826   -3.8129   23.4350 C   0  0  0  0  0  0
  -21.9195   -4.6946   22.3400 C   0  0  0  0  0  0
  -22.7811  -13.5192   21.1876 C   0  0  0  0  0  0
  -22.1661   -4.2132   21.0977 F   0  0  0  0  0  0
  -21.5642   -3.4535   25.7740 F   0  0  0  0  0  0
  -29.9906  -13.5048   20.4102 N   0  0  0  0  0  0
  -26.2918  -12.9455   20.3256 N   0  0  0  0  0  0
  -25.9318  -11.6572   20.5687 N   0  0  0  0  0  0
  -22.0514  -12.8183   22.0469 N   0  0  0  0  0  0
  -25.4198  -15.1962   20.4234 N   0  0  0  0  0  0
  -31.8389  -14.7397   20.1168 O   0  0  0  0  0  0
  -21.6654   -6.8865   21.4239 O   0  0  0  0  0  0
  -22.3462  -14.5487   20.6713 O   0  0  0  0  0  0
  -24.6308  -31.8571   23.1988 C   0  0  0  0  0  0
  -25.9151  -32.4759   23.8325 C   0  0  1  0  0  0
  -27.2193  -27.2750   20.1229 C   0  0  0  0  0  0
  -25.5964  -33.8563   24.2248 N   0  0  0  0  0  0
  -23.4275  -30.4799   21.5423 C   0  0  2  0  0  0
  -24.8745  -28.9278   20.1117 C   0  0  0  0  0  0
  -22.7509  -29.4617   22.4918 C   0  0  0  0  0  0
  -18.0306  -28.1413   22.8461 C   0  0  0  0  0  0
  -24.1498  -36.7273   23.2643 C   0  0  0  0  0  0
  -25.9743  -30.7724   21.3811 C   0  0  0  0  0  0
  -26.0467  -29.3964   20.7195 C   0  0  0  0  0  0
  -27.2250  -28.5825   20.7120 C   0  0  0  0  0  0
  -26.0296  -26.8779   19.4751 C   0  0  0  0  0  0
  -24.8696  -27.6745   19.4801 C   0  0  0  0  0  0
  -23.6451  -29.8137   20.1592 C   0  0  0  0  0  0
  -25.4123  -36.3060   24.0326 C   0  0  1  0  0  0
  -20.5899  -28.3718   23.1292 C   0  0  2  0  0  0
  -20.6772  -26.9411   22.5502 C   0  0  0  0  0  0
  -19.5801  -26.6378   21.5240 C   0  0  0  0  0  0
  -18.1935  -26.7979   22.1546 C   0  0  0  0  0  0
  -19.1551  -28.8878   23.2872 C   0  0  0  0  0  0
  -18.9464  -30.1468   23.8908 C   0  0  0  0  0  0
  -17.6462  -30.6592   24.0573 C   0  0  0  0  0  0
  -25.9068  -34.9440   23.5076 C   0  0  0  0  0  0
  -16.5361  -29.9096   23.6324 C   0  0  0  0  0  0
  -16.7292  -28.6522   23.0332 C   0  0  0  0  0  0
  -26.4480  -31.6603   25.0737 C   0  0  0  0  0  0
  -25.3671  -31.3904   26.1463 C   0  0  0  0  0  0
  -27.0229  -30.2942   24.6326 C   0  0  0  0  0  0
  -27.6095  -32.4300   25.7466 C   0  0  0  0  0  0
  -27.5620  -37.1765   24.8420 C   0  0  0  0  0  0
  -21.4220  -29.3038   22.3653 N   0  0  0  0  0  0
  -26.4289  -37.3773   23.9422 N   0  0  0  0  0  0
  -24.6961  -31.0547   22.0962 N   0  0  0  0  0  0
  -23.4198  -28.8178   23.3040 O   0  0  0  0  0  0
  -28.3035  -26.3729   20.1501 O   0  0  0  0  0  0
  -26.5629  -34.8920   22.4638 O   0  0  0  0  0  0
  -23.5461  -32.1397   23.7288 O   0  0  0  0  0  0
  -30.9434  -19.6155   19.5993 C   0  0  0  0  0  0
  -30.5235  -20.9980   19.6402 C   0  0  0  0  0  0
  -30.0941  -18.6966   20.1802 C   0  0  0  0  0  0
  -29.3184  -21.2439   20.2649 C   0  0  0  0  0  0
  -30.3953  -17.2298   20.2223 C   0  0  0  0  0  0
  -29.8815  -16.0095   20.6404 C   0  0  0  0  0  0
  -28.9451  -23.7715   20.1032 C   0  0  0  0  0  0
  -28.0158  -24.9698   20.6105 C   0  0  0  0  0  0
  -28.6652  -22.4663   20.4902 N   0  0  0  0  0  0
  -29.8970  -24.0373   19.3628 O   0  0  0  0  0  0
  -28.7017  -19.6292   20.7994 S   0  0  0  0  0  0
  -31.4597  -12.5149   19.1823 H   0  0  0  0  0  0
  -30.3184  -11.4544   19.9583 H   0  0  0  0  0  0
  -29.7818  -11.7584   17.5013 H   0  0  0  0  0  0
  -29.6436  -13.4800   17.7405 H   0  0  0  0  0  0
  -27.8675  -11.3007   18.8824 H   0  0  0  0  0  0
  -27.3784  -12.5665   17.7869 H   0  0  0  0  0  0
  -27.6296  -14.2661   19.4689 H   0  0  0  0  0  0
  -28.6986  -12.1828   21.4309 H   0  0  0  0  0  0
  -28.4178  -13.8665   21.7842 H   0  0  0  0  0  0
  -25.2809   -9.5665   22.4694 H   0  0  0  0  0  0
  -24.0038   -7.4630   22.7467 H   0  0  0  0  0  0
  -21.0837   -8.8768   19.8973 H   0  0  0  0  0  0
  -22.3686  -10.9674   19.6166 H   0  0  0  0  0  0
  -21.1998   -7.6132   23.9690 H   0  0  0  0  0  0
  -21.1504   -6.0531   25.9088 H   0  0  0  0  0  0
  -22.0593   -2.7585   23.2867 H   0  0  0  0  0  0
  -22.4152  -11.9827   22.4807 H   0  0  0  0  0  0
  -21.1159  -13.1212   22.2769 H   0  0  0  0  0  0
  -24.6599  -15.8557   20.5524 H   0  0  0  0  0  0
  -26.2835  -15.6403   20.1378 H   0  0  0  0  0  0
  -26.7239  -32.5400   23.1089 H   0  0  0  0  0  0
  -25.0149  -33.9724   25.0420 H   0  0  0  0  0  0
  -22.7223  -31.3009   21.3952 H   0  0  0  0  0  0
  -23.3804  -35.9554   23.3214 H   0  0  0  0  0  0
  -24.3598  -36.8998   22.2071 H   0  0  0  0  0  0
  -23.7201  -37.6420   23.6733 H   0  0  0  0  0  0
  -26.1228  -31.5391   20.6188 H   0  0  0  0  0  0
  -26.8465  -30.8116   22.0228 H   0  0  0  0  0  0
  -28.1246  -28.9352   21.1958 H   0  0  0  0  0  0
  -25.9830  -25.9281   18.9618 H   0  0  0  0  0  0
  -23.9736  -27.3138   18.9945 H   0  0  0  0  0  0
  -23.7710  -30.5897   19.4033 H   0  0  0  0  0  0
  -22.7636  -29.2473   19.8542 H   0  0  0  0  0  0
  -25.1307  -36.1886   25.0822 H   0  0  0  0  0  0
  -20.9995  -28.3348   24.1410 H   0  0  0  0  0  0
  -20.5573  -26.2357   23.3737 H   0  0  0  0  0  0
  -21.6663  -26.7374   22.1397 H   0  0  0  0  0  0
  -19.6965  -25.6280   21.1303 H   0  0  0  0  0  0
  -19.6819  -27.3166   20.6757 H   0  0  0  0  0  0
  -17.4284  -26.6852   21.3854 H   0  0  0  0  0  0
  -18.0193  -26.0095   22.8881 H   0  0  0  0  0  0
  -19.7939  -30.7281   24.2300 H   0  0  0  0  0  0
  -17.5015  -31.6260   24.5206 H   0  0  0  0  0  0
  -15.5359  -30.2986   23.7649 H   0  0  0  0  0  0
  -15.8697  -28.0835   22.7020 H   0  0  0  0  0  0
  -24.6095  -30.6872   25.7980 H   0  0  0  0  0  0
  -24.8539  -32.3075   26.4372 H   0  0  0  0  0  0
  -25.8015  -30.9655   27.0523 H   0  0  0  0  0  0
  -26.2802  -29.6780   24.1249 H   0  0  0  0  0  0
  -27.3648  -29.7175   25.4930 H   0  0  0  0  0  0
  -27.8819  -30.4059   23.9713 H   0  0  0  0  0  0
  -27.2779  -33.3647   26.2000 H   0  0  0  0  0  0
  -28.3916  -32.6766   25.0272 H   0  0  0  0  0  0
  -28.0748  -31.8436   26.5402 H   0  0  0  0  0  0
  -28.2603  -38.0093   24.7500 H   0  0  0  0  0  0
  -28.1147  -36.2637   24.6136 H   0  0  0  0  0  0
  -27.2393  -37.1324   25.8838 H   0  0  0  0  0  0
  -20.9415  -29.8728   21.6823 H   0  0  0  0  0  0
  -26.0165  -38.2826   24.1517 H   0  0  0  0  0  0
  -31.8841  -19.3499   19.1362 H   0  0  0  0  0  0
  -31.1502  -21.7662   19.2093 H   0  0  0  0  0  0
  -31.3591  -17.0946   19.7514 H   0  0  0  0  0  0
  -28.9164  -15.9883   21.1230 H   0  0  0  0  0  0
  -28.0981  -24.9815   21.6974 H   0  0  0  0  0  0
  -26.9887  -24.6708   20.4106 H   0  0  0  0  0  0
  -27.8342  -22.3933   21.0609 H   0  0  0  0  0  0
  1 25  1  0  0  0
  1 30  2  0  0  0
  1 76  1  0  0  0
  2  3  1  0  0  0
  2 25  1  0  0  0
  2 82  1  0  0  0
  2 83  1  0  0  0
  3  4  1  0  0  0
  3 84  1  0  0  0
  3 85  1  0  0  0
  4  5  1  0  0  0
  4 86  1  0  0  0
  4 87  1  0  0  0
  5  6  1  0  0  0
  5 26  1  0  0  0
  5 88  1  0  0  0
  6 25  1  0  0  0
  6 89  1  0  0  0
  6 90  1  0  0  0
  7  8  2  0  0  0
  7 26  1  0  0  0
  7 29  1  0  0  0
  8  9  1  0  0  0
  8 22  1  0  0  0
  9 10  1  0  0  0
  9 27  2  0  0  0
 10 11  2  0  0  0
 10 15  1  0  0  0
 11 12  1  0  0  0
 11 91  1  0  0  0
 12 13  2  0  0  0
 12 92  1  0  0  0
 13 14  1  0  0  0
 13 31  1  0  0  0
 14 15  2  0  0  0
 14 93  1  0  0  0
 15 94  1  0  0  0
 16 17  2  0  0  0
 16 21  1  0  0  0
 16 31  1  0  0  0
 17 18  1  0  0  0
 17 95  1  0  0  0
 18 19  2  0  0  0
 18 96  1  0  0  0
 19 20  1  0  0  0
 19 24  1  0  0  0
 20 21  2  0  0  0
 20 97  1  0  0  0
 21 23  1  0  0  0
 22 28  1  0  0  0
 22 32  2  0  0  0
 26 27  1  0  0  0
 28 98  1  0  0  0
 28 99  1  0  0  0
 29100  1  0  0  0
 29101  1  0  0  0
 33 34  1  0  0  0
 33 66  1  0  0  0
 33 70  2  0  0  0
 34 36  1  0  0  0
 34 59  1  0  0  0
 34102  1  0  0  0
 35 44  2  0  0  0
 35 45  1  0  0  0
 35 68  1  0  0  0
 36 56  1  0  0  0
 36103  1  0  0  0
 37 39  1  0  0  0
 37 47  1  0  0  0
 37 66  1  0  0  0
 37104  1  0  0  0
 38 43  2  0  0  0
 38 46  1  0  0  0
 38 47  1  0  0  0
 39 64  1  0  0  0
 39 67  2  0  0  0
 40 52  1  0  0  0
 40 53  2  0  0  0
 40 58  1  0  0  0
 41105  1  0  0  0
 41106  1  0  0  0
 41107  1  0  0  0
 41 48  1  0  0  0
 42 43  1  0  0  0
 42 66  1  0  0  0
 42108  1  0  0  0
 42109  1  0  0  0
 43 44  1  0  0  0
 44110  1  0  0  0
 45 46  2  0  0  0
 45111  1  0  0  0
 46112  1  0  0  0
 47113  1  0  0  0
 47114  1  0  0  0
 48 56  1  0  0  0
 48 65  1  0  0  0
 48115  1  0  0  0
 49 50  1  0  0  0
 49 53  1  0  0  0
 49 64  1  0  0  0
 49116  1  0  0  0
 50 51  1  0  0  0
 50117  1  0  0  0
 50118  1  0  0  0
 51 52  1  0  0  0
 51119  1  0  0  0
 51120  1  0  0  0
 52121  1  0  0  0
 52122  1  0  0  0
 53 54  1  0  0  0
 54 55  2  0  0  0
 54123  1  0  0  0
 55 57  1  0  0  0
 55124  1  0  0  0
 56 69  2  0  0  0
 57 58  2  0  0  0
 57125  1  0  0  0
 58126  1  0  0  0
 59 60  1  0  0  0
 59 61  1  0  0  0
 59 62  1  0  0  0
 60127  1  0  0  0
 60128  1  0  0  0
 60129  1  0  0  0
 61130  1  0  0  0
 61131  1  0  0  0
 61132  1  0  0  0
 62133  1  0  0  0
 62134  1  0  0  0
 62135  1  0  0  0
 63 65  1  0  0  0
 63136  1  0  0  0
 63137  1  0  0  0
 63138  1  0  0  0
 64139  1  0  0  0
 65140  1  0  0  0
 68 78  1  0  0  0
 71 72  1  0  0  0
 71 73  2  0  0  0
 71141  1  0  0  0
 72 74  2  0  0  0
 72142  1  0  0  0
 73 75  1  0  0  0
 73 81  1  0  0  0
 74 79  1  0  0  0
 74 81  1  0  0  0
 75 76  2  0  0  0
 75143  1  0  0  0
 76144  1  0  0  0
 77 78  1  0  0  0
 77 79  1  0  0  0
 77 80  2  0  0  0
 78145  1  0  0  0
 78146  1  0  0  0
 79147  1  0  0  0
M  ISO  4   1 100  68 101  76 100  78 101
M  END
> <chiral flag>
0

> <version>
0

> <s_m_source_file>
/data/baiqing/PycharmProjects/Reinvent-master-3.2/result/LINK_invent/BTK/process_docking_weight1_custom_product_contain_oxygen_bond_distance_aromatic_linkinvent_7_9_3/rearranged_h_0130.sdf

> <i_m_source_file_index>
30

> <r_mmod_Potential_Energy-OPLS-2005>
140.835952758789

> <r_mmod_Stretch_Energy-OPLS-2005>
105.165260314941

> <r_mmod_Bend_Energy-OPLS-2005>
180.574264526367

> <r_mmod_Torsional_Energy-OPLS-2005>
203.695495605469

> <r_mmod_Improper_Torsional_Energy-OPLS-2005>
3.80208802223206

> <r_mmod_Van_der_Waal_Energy-OPLS-2005>
126.784530639648

> <r_mmod_Electrostatic_Energy-OPLS-2005>
-329.240112304688

> <r_mmod_Solvation_Energy-OPLS-2005>
-227.595550537109

> <b_mmod_Minimization_Converged-OPLS-2005>
0

> <r_mmod_RMS_Derivative-OPLS-2005>
2.09553933143616

$$$$
30
                    3D
 Structure written by MMmdl.
158166  0  0  1  0            999 V2000
  -30.6487  -14.6324   20.5785 C   0  0  0  0  0  0
  -30.4329  -12.4099   19.4612 C   0  0  0  0  0  0
  -29.5082  -12.5368   18.2295 C   0  0  0  0  0  0
  -28.0299  -12.3646   18.6298 C   0  0  0  0  0  0
  -27.6533  -13.2178   19.8686 C   0  0  2  0  0  0
  -28.6878  -13.0376   20.9979 C   0  0  0  0  0  0
  -25.2540  -13.8167   20.5656 C   0  0  0  0  0  0
  -24.1817  -13.0434   20.9188 C   0  0  0  0  0  0
  -24.6386  -11.6906   20.8733 C   0  0  0  0  0  0
  -23.9058  -10.4290   21.0406 C   0  0  0  0  0  0
  -24.3612   -9.4209   21.9183 C   0  0  0  0  0  0
  -23.6291   -8.2241   22.0752 C   0  0  0  0  0  0
  -22.4272   -8.0279   21.3543 C   0  0  0  0  0  0
  -21.9906   -9.0251   20.4645 C   0  0  0  0  0  0
  -22.7232  -10.2132   20.3056 C   0  0  0  0  0  0
  -21.6852   -6.0735   22.5280 C   0  0  0  0  0  0
  -21.4014   -6.5638   23.8213 C   0  0  0  0  0  0
  -21.3661   -5.6790   24.9175 C   0  0  0  0  0  0
  -21.6046   -4.3054   24.7226 C   0  0  0  0  0  0
  -21.8820   -3.8145   23.4347 C   0  0  0  0  0  0
  -21.9193   -4.6961   22.3403 C   0  0  0  0  0  0
  -22.7841  -13.5229   21.1859 C   0  0  0  0  0  0
  -22.1663   -4.2146   21.0980 F   0  0  0  0  0  0
  -21.5627   -3.4539   25.7739 F   0  0  0  0  0  0
  -30.0105  -13.4137   20.4662 N   0  0  0  0  0  0
  -26.2969  -12.9354   20.3298 N   0  0  0  0  0  0
  -25.9311  -11.6507   20.5730 N   0  0  0  0  0  0
  -22.0487  -12.8219   22.0417 N   0  0  0  0  0  0
  -25.4228  -15.1882   20.4023 N   0  0  0  0  0  0
  -31.7293  -14.8288   20.0120 O   0  0  0  0  0  0
  -21.6636   -6.8877   21.4241 O   0  0  0  0  0  0
  -22.3528  -14.5539   20.6710 O   0  0  0  0  0  0
  -24.6241  -31.8586   23.1997 C   0  0  0  0  0  0
  -25.9092  -32.4768   23.8333 C   0  0  1  0  0  0
  -27.2336  -27.3230   20.1130 C   0  0  0  0  0  0
  -25.5911  -33.8571   24.2264 N   0  0  0  0  0  0
  -23.4179  -30.4791   21.5419 C   0  0  2  0  0  0
  -24.8652  -28.9268   20.1099 C   0  0  0  0  0  0
  -22.7460  -29.4615   22.4936 C   0  0  0  0  0  0
  -18.0282  -28.1377   22.8488 C   0  0  0  0  0  0
  -24.1489  -36.7295   23.2640 C   0  0  0  0  0  0
  -25.9560  -30.7890   21.3692 C   0  0  0  0  0  0
  -26.0295  -29.4151   20.7134 C   0  0  0  0  0  0
  -27.2119  -28.6223   20.7065 C   0  0  0  0  0  0
  -26.0441  -26.8733   19.4986 C   0  0  0  0  0  0
  -24.8736  -27.6615   19.4964 C   0  0  0  0  0  0
  -23.6316  -29.8062   20.1588 C   0  0  0  0  0  0
  -25.4116  -36.3081   24.0328 C   0  0  1  0  0  0
  -20.5879  -28.3681   23.1287 C   0  0  2  0  0  0
  -20.6768  -26.9405   22.5412 C   0  0  0  0  0  0
  -19.5747  -26.6380   21.5208 C   0  0  0  0  0  0
  -18.1927  -26.7922   22.1620 C   0  0  0  0  0  0
  -19.1534  -28.8846   23.2883 C   0  0  0  0  0  0
  -18.9458  -30.1449   23.8897 C   0  0  0  0  0  0
  -17.6459  -30.6582   24.0564 C   0  0  0  0  0  0
  -25.9049  -34.9449   23.5102 C   0  0  0  0  0  0
  -16.5350  -29.9082   23.6327 C   0  0  0  0  0  0
  -16.7270  -28.6497   23.0351 C   0  0  0  0  0  0
  -26.4483  -31.6585   25.0709 C   0  0  0  0  0  0
  -25.3719  -31.3722   26.1439 C   0  0  0  0  0  0
  -27.0333  -30.3011   24.6169 C   0  0  0  0  0  0
  -27.6041  -32.4324   25.7478 C   0  0  0  0  0  0
  -27.5581  -37.1803   24.8464 C   0  0  0  0  0  0
  -21.4175  -29.3037   22.3682 N   0  0  0  0  0  0
  -26.4295  -37.3775   23.9405 N   0  0  0  0  0  0
  -24.6845  -31.0599   22.0940 N   0  0  0  0  0  0
  -23.4186  -28.8168   23.3025 O   0  0  0  0  0  0
  -28.3891  -26.5341   20.1783 O   0  0  0  0  0  0
  -26.5626  -34.8919   22.4673 O   0  0  0  0  0  0
  -23.5406  -32.1391   23.7327 O   0  0  0  0  0  0
  -28.3352  -17.6000   21.1431 C   0  0  0  0  0  0
  -27.9088  -18.9449   20.9815 C   0  0  0  0  0  0
  -30.1469  -19.5981   20.4479 C   0  0  0  0  0  0
  -29.6881  -17.1885   21.0082 C   0  0  0  0  0  0
  -30.6021  -18.2395   20.6415 C   0  0  0  0  0  0
  -28.7963  -19.9951   20.6542 C   0  0  0  0  0  0
  -30.0267  -15.7550   21.4961 C   0  0  0  0  0  0
  -33.0533  -19.1187   20.6446 C   0  0  0  0  0  0
  -32.0955  -17.9227   20.5169 C   0  0  0  0  0  0
  -28.2203  -23.8795   20.4745 C   0  0  0  0  0  0
  -28.5180  -25.1785   19.6007 C   0  0  0  0  0  0
  -28.9133  -22.4897   20.0722 C   0  0  0  0  0  0
  -29.7859  -15.5012   22.7163 N   0  0  0  0  0  0
  -28.2622  -21.3043   20.6337 O   0  0  0  0  0  0
  -31.4755  -12.5325   19.1631 H   0  0  0  0  0  0
  -30.3696  -11.4061   19.8840 H   0  0  0  0  0  0
  -29.7797  -11.7978   17.4749 H   0  0  0  0  0  0
  -29.6502  -13.5145   17.7666 H   0  0  0  0  0  0
  -27.8631  -11.3082   18.8436 H   0  0  0  0  0  0
  -27.3792  -12.6117   17.7901 H   0  0  0  0  0  0
  -27.6843  -14.2614   19.5549 H   0  0  0  0  0  0
  -28.7046  -11.9993   21.3327 H   0  0  0  0  0  0
  -28.3835  -13.6071   21.8724 H   0  0  0  0  0  0
  -25.2762   -9.5683   22.4751 H   0  0  0  0  0  0
  -24.0002   -7.4633   22.7471 H   0  0  0  0  0  0
  -21.0838   -8.8772   19.8950 H   0  0  0  0  0  0
  -22.3695  -10.9670   19.6161 H   0  0  0  0  0  0
  -21.2008   -7.6147   23.9717 H   0  0  0  0  0  0
  -21.1482   -6.0520   25.9079 H   0  0  0  0  0  0
  -22.0598   -2.7606   23.2847 H   0  0  0  0  0  0
  -22.4108  -11.9882   22.4804 H   0  0  0  0  0  0
  -21.1107  -13.1242   22.2635 H   0  0  0  0  0  0
  -24.6469  -15.8355   20.4906 H   0  0  0  0  0  0
  -26.2571  -15.6192   20.0260 H   0  0  0  0  0  0
  -26.7158  -32.5436   23.1078 H   0  0  0  0  0  0
  -25.0042  -33.9714   25.0398 H   0  0  0  0  0  0
  -22.7114  -31.2989   21.3957 H   0  0  0  0  0  0
  -23.3750  -35.9628   23.3301 H   0  0  0  0  0  0
  -24.3577  -36.8921   22.2055 H   0  0  0  0  0  0
  -23.7247  -37.6498   23.6666 H   0  0  0  0  0  0
  -26.0868  -31.5515   20.6001 H   0  0  0  0  0  0
  -26.8363  -30.8384   21.9986 H   0  0  0  0  0  0
  -28.1080  -28.9952   21.1828 H   0  0  0  0  0  0
  -25.9929  -25.8990   19.0362 H   0  0  0  0  0  0
  -23.9770  -27.2794   19.0282 H   0  0  0  0  0  0
  -23.7465  -30.5790   19.3979 H   0  0  0  0  0  0
  -22.7525  -29.2318   19.8616 H   0  0  0  0  0  0
  -25.1297  -36.1933   25.0822 H   0  0  0  0  0  0
  -20.9972  -28.3256   24.1407 H   0  0  0  0  0  0
  -20.5658  -26.2293   23.3612 H   0  0  0  0  0  0
  -21.6639  -26.7428   22.1213 H   0  0  0  0  0  0
  -19.6911  -25.6290   21.1240 H   0  0  0  0  0  0
  -19.6686  -27.3187   20.6737 H   0  0  0  0  0  0
  -17.4199  -26.6668   21.4024 H   0  0  0  0  0  0
  -18.0330  -26.0061   22.9013 H   0  0  0  0  0  0
  -19.7935  -30.7264   24.2267 H   0  0  0  0  0  0
  -17.5014  -31.6262   24.5163 H   0  0  0  0  0  0
  -15.5350  -30.2984   23.7649 H   0  0  0  0  0  0
  -15.8670  -28.0815   22.7067 H   0  0  0  0  0  0
  -24.5889  -30.7078   25.7766 H   0  0  0  0  0  0
  -24.8913  -32.2887   26.4873 H   0  0  0  0  0  0
  -25.8044  -30.8892   27.0210 H   0  0  0  0  0  0
  -26.2910  -29.6754   24.1199 H   0  0  0  0  0  0
  -27.4040  -29.7276   25.4675 H   0  0  0  0  0  0
  -27.8770  -30.4301   23.9385 H   0  0  0  0  0  0
  -27.2649  -33.3622   26.2060 H   0  0  0  0  0  0
  -28.3845  -32.6894   25.0303 H   0  0  0  0  0  0
  -28.0719  -31.8452   26.5392 H   0  0  0  0  0  0
  -28.2599  -38.0100   24.7509 H   0  0  0  0  0  0
  -28.1078  -36.2632   24.6290 H   0  0  0  0  0  0
  -27.2298  -37.1449   25.8866 H   0  0  0  0  0  0
  -20.9351  -29.8756   21.6890 H   0  0  0  0  0  0
  -26.0178  -38.2853   24.1395 H   0  0  0  0  0  0
  -27.5969  -16.8724   21.4515 H   0  0  0  0  0  0
  -26.8674  -19.1789   21.1518 H   0  0  0  0  0  0
  -30.8536  -20.3723   20.1936 H   0  0  0  0  0  0
  -34.0887  -18.7776   20.6398 H   0  0  0  0  0  0
  -32.8926  -19.6614   21.5768 H   0  0  0  0  0  0
  -32.9476  -19.8168   19.8141 H   0  0  0  0  0  0
  -32.2643  -17.4300   19.5586 H   0  0  0  0  0  0
  -32.3732  -17.2047   21.2888 H   0  0  0  0  0  0
  -27.1398  -23.7376   20.4872 H   0  0  0  0  0  0
  -28.4918  -24.0923   21.5080 H   0  0  0  0  0  0
  -27.9951  -25.1138   18.6469 H   0  0  0  0  0  0
  -29.5704  -25.1173   19.3220 H   0  0  0  0  0  0
  -29.9617  -22.5149   20.3692 H   0  0  0  0  0  0
  -28.9001  -22.3831   18.9870 H   0  0  0  0  0  0
  -29.3975  -16.3139   23.1799 H   0  0  0  0  0  0
  1 25  1  0  0  0
  1 30  2  0  0  0
  1 77  1  0  0  0
  2  3  1  0  0  0
  2 25  1  0  0  0
  2 85  1  0  0  0
  2 86  1  0  0  0
  3  4  1  0  0  0
  3 87  1  0  0  0
  3 88  1  0  0  0
  4  5  1  0  0  0
  4 89  1  0  0  0
  4 90  1  0  0  0
  5  6  1  0  0  0
  5 26  1  0  0  0
  5 91  1  0  0  0
  6 25  1  0  0  0
  6 92  1  0  0  0
  6 93  1  0  0  0
  7  8  2  0  0  0
  7 26  1  0  0  0
  7 29  1  0  0  0
  8  9  1  0  0  0
  8 22  1  0  0  0
  9 10  1  0  0  0
  9 27  2  0  0  0
 10 11  2  0  0  0
 10 15  1  0  0  0
 11 12  1  0  0  0
 11 94  1  0  0  0
 12 13  2  0  0  0
 12 95  1  0  0  0
 13 14  1  0  0  0
 13 31  1  0  0  0
 14 15  2  0  0  0
 14 96  1  0  0  0
 15 97  1  0  0  0
 16 17  2  0  0  0
 16 21  1  0  0  0
 16 31  1  0  0  0
 17 18  1  0  0  0
 17 98  1  0  0  0
 18 19  2  0  0  0
 18 99  1  0  0  0
 19 20  1  0  0  0
 19 24  1  0  0  0
 20 21  2  0  0  0
 20100  1  0  0  0
 21 23  1  0  0  0
 22 28  1  0  0  0
 22 32  2  0  0  0
 26 27  1  0  0  0
 28101  1  0  0  0
 28102  1  0  0  0
 29103  1  0  0  0
 29104  1  0  0  0
 33 34  1  0  0  0
 33 66  1  0  0  0
 33 70  2  0  0  0
 34 36  1  0  0  0
 34 59  1  0  0  0
 34105  1  0  0  0
 35 44  2  0  0  0
 35 45  1  0  0  0
 35 68  1  0  0  0
 36 56  1  0  0  0
 36106  1  0  0  0
 37 39  1  0  0  0
 37 47  1  0  0  0
 37 66  1  0  0  0
 37107  1  0  0  0
 38 43  2  0  0  0
 38 46  1  0  0  0
 38 47  1  0  0  0
 39 64  1  0  0  0
 39 67  2  0  0  0
 40 52  1  0  0  0
 40 53  2  0  0  0
 40 58  1  0  0  0
 41108  1  0  0  0
 41109  1  0  0  0
 41110  1  0  0  0
 41 48  1  0  0  0
 42 43  1  0  0  0
 42 66  1  0  0  0
 42111  1  0  0  0
 42112  1  0  0  0
 43 44  1  0  0  0
 44113  1  0  0  0
 45 46  2  0  0  0
 45114  1  0  0  0
 46115  1  0  0  0
 47116  1  0  0  0
 47117  1  0  0  0
 48 56  1  0  0  0
 48 65  1  0  0  0
 48118  1  0  0  0
 49 50  1  0  0  0
 49 53  1  0  0  0
 49 64  1  0  0  0
 49119  1  0  0  0
 50 51  1  0  0  0
 50120  1  0  0  0
 50121  1  0  0  0
 51 52  1  0  0  0
 51122  1  0  0  0
 51123  1  0  0  0
 52124  1  0  0  0
 52125  1  0  0  0
 53 54  1  0  0  0
 54 55  2  0  0  0
 54126  1  0  0  0
 55 57  1  0  0  0
 55127  1  0  0  0
 56 69  2  0  0  0
 57 58  2  0  0  0
 57128  1  0  0  0
 58129  1  0  0  0
 59 60  1  0  0  0
 59 61  1  0  0  0
 59 62  1  0  0  0
 60130  1  0  0  0
 60131  1  0  0  0
 60132  1  0  0  0
 61133  1  0  0  0
 61134  1  0  0  0
 61135  1  0  0  0
 62136  1  0  0  0
 62137  1  0  0  0
 62138  1  0  0  0
 63 65  1  0  0  0
 63139  1  0  0  0
 63140  1  0  0  0
 63141  1  0  0  0
 64142  1  0  0  0
 65143  1  0  0  0
 68 81  1  0  0  0
 71 72  2  0  0  0
 71 74  1  0  0  0
 71144  1  0  0  0
 72 76  1  0  0  0
 72145  1  0  0  0
 73 75  1  0  0  0
 73 76  2  0  0  0
 73146  1  0  0  0
 74 75  2  0  0  0
 74 77  1  0  0  0
 75 79  1  0  0  0
 76 84  1  0  0  0
 77 83  2  0  0  0
 78 79  1  0  0  0
 78147  1  0  0  0
 78148  1  0  0  0
 78149  1  0  0  0
 79150  1  0  0  0
 79151  1  0  0  0
 80 81  1  0  0  0
 80 82  1  0  0  0
 80152  1  0  0  0
 80153  1  0  0  0
 81154  1  0  0  0
 81155  1  0  0  0
 82 84  1  0  0  0
 82156  1  0  0  0
 82157  1  0  0  0
 83158  1  0  0  0
M  ISO  4   1 100  68 101  77 100  81 101
M  END
> <chiral flag>
0

> <version>
0

> <s_m_source_file>
/data/baiqing/PycharmProjects/Reinvent-master-3.2/result/LINK_invent/BTK/process_docking_weight1_custom_product_contain_oxygen_bond_distance_aromatic_linkinvent_7_9_3/rearranged_h_0130.sdf

> <i_m_source_file_index>
31

> <r_mmod_Potential_Energy-OPLS-2005>
265.106140136719

> <r_mmod_Stretch_Energy-OPLS-2005>
94.928596496582

> <r_mmod_Bend_Energy-OPLS-2005>
185.231323242188

> <r_mmod_Torsional_Energy-OPLS-2005>
217.678787231445

> <r_mmod_Improper_Torsional_Energy-OPLS-2005>
4.04621839523315

> <r_mmod_Van_der_Waal_Energy-OPLS-2005>
142.506500244141

> <r_mmod_Electrostatic_Energy-OPLS-2005>
-228.729736328125

> <r_mmod_Solvation_Energy-OPLS-2005>
-193.728546142578

> <b_mmod_Minimization_Converged-OPLS-2005>
0

> <r_mmod_RMS_Derivative-OPLS-2005>
0.531260311603546

$$$$
31
                    3D
 Structure written by MMmdl.
161169  0  0  1  0            999 V2000
  -30.6348  -14.5594   20.4751 C   0  0  0  0  0  0
  -30.4316  -12.3332   19.4423 C   0  0  0  0  0  0
  -29.5038  -12.4955   18.2167 C   0  0  0  0  0  0
  -28.0218  -12.3405   18.6203 C   0  0  0  0  0  0
  -27.6522  -13.1928   19.8625 C   0  0  2  0  0  0
  -28.6981  -13.0104   20.9874 C   0  0  0  0  0  0
  -25.2574  -13.8057   20.5720 C   0  0  0  0  0  0
  -24.1805  -13.0364   20.9193 C   0  0  0  0  0  0
  -24.6354  -11.6837   20.8739 C   0  0  0  0  0  0
  -23.9019  -10.4252   21.0421 C   0  0  0  0  0  0
  -24.3581   -9.4174   21.9194 C   0  0  0  0  0  0
  -23.6267   -8.2205   22.0758 C   0  0  0  0  0  0
  -22.4256   -8.0248   21.3540 C   0  0  0  0  0  0
  -21.9883   -9.0223   20.4645 C   0  0  0  0  0  0
  -22.7200  -10.2108   20.3059 C   0  0  0  0  0  0
  -21.6837   -6.0719   22.5284 C   0  0  0  0  0  0
  -21.4005   -6.5626   23.8215 C   0  0  0  0  0  0
  -21.3656   -5.6784   24.9177 C   0  0  0  0  0  0
  -21.6041   -4.3044   24.7237 C   0  0  0  0  0  0
  -21.8817   -3.8138   23.4358 C   0  0  0  0  0  0
  -21.9181   -4.6950   22.3409 C   0  0  0  0  0  0
  -22.7845  -13.5207   21.1861 C   0  0  0  0  0  0
  -22.1651   -4.2134   21.0988 F   0  0  0  0  0  0
  -21.5639   -3.4524   25.7750 F   0  0  0  0  0  0
  -30.0226  -13.3381   20.4376 N   0  0  0  0  0  0
  -26.2976  -12.9207   20.3312 N   0  0  0  0  0  0
  -25.9269  -11.6386   20.5735 N   0  0  0  0  0  0
  -22.0457  -12.8229   22.0423 N   0  0  0  0  0  0
  -25.4318  -15.1748   20.4246 N   0  0  0  0  0  0
  -31.8197  -14.6931   20.1549 O   0  0  0  0  0  0
  -21.6611   -6.8854   21.4246 O   0  0  0  0  0  0
  -22.3569  -14.5526   20.6705 O   0  0  0  0  0  0
  -24.6163  -31.8661   23.2078 C   0  0  0  0  0  0
  -25.9059  -32.4805   23.8382 C   0  0  1  0  0  0
  -27.2384  -27.4092   20.0846 C   0  0  0  0  0  0
  -25.5911  -33.8601   24.2312 N   0  0  0  0  0  0
  -23.4046  -30.4898   21.5496 C   0  0  2  0  0  0
  -24.8497  -28.9494   20.1162 C   0  0  0  0  0  0
  -22.7418  -29.4649   22.4984 C   0  0  0  0  0  0
  -18.0278  -28.1380   22.8490 C   0  0  0  0  0  0
  -24.1493  -36.7306   23.2637 C   0  0  0  0  0  0
  -25.9365  -30.8205   21.3666 C   0  0  0  0  0  0
  -26.0110  -29.4530   20.7125 C   0  0  0  0  0  0
  -27.2024  -28.6893   20.6944 C   0  0  0  0  0  0
  -26.0481  -26.9177   19.4984 C   0  0  0  0  0  0
  -24.8646  -27.6819   19.5096 C   0  0  0  0  0  0
  -23.6146  -29.8216   20.1644 C   0  0  0  0  0  0
  -25.4110  -36.3094   24.0335 C   0  0  1  0  0  0
  -20.5868  -28.3664   23.1329 C   0  0  2  0  0  0
  -20.6771  -26.9396   22.5438 C   0  0  0  0  0  0
  -19.5764  -26.6381   21.5215 C   0  0  0  0  0  0
  -18.1930  -26.7935   22.1602 C   0  0  0  0  0  0
  -19.1527  -28.8840   23.2906 C   0  0  0  0  0  0
  -18.9450  -30.1446   23.8917 C   0  0  0  0  0  0
  -17.6452  -30.6582   24.0570 C   0  0  0  0  0  0
  -25.9040  -34.9466   23.5121 C   0  0  0  0  0  0
  -16.5342  -29.9080   23.6326 C   0  0  0  0  0  0
  -16.7267  -28.6499   23.0340 C   0  0  0  0  0  0
  -26.4471  -31.6590   25.0724 C   0  0  0  0  0  0
  -25.3731  -31.3716   26.1471 C   0  0  0  0  0  0
  -27.0297  -30.3026   24.6121 C   0  0  0  0  0  0
  -27.6059  -32.4301   25.7478 C   0  0  0  0  0  0
  -27.5578  -37.1810   24.8462 C   0  0  0  0  0  0
  -21.4143  -29.3032   22.3728 N   0  0  0  0  0  0
  -26.4287  -37.3783   23.9409 N   0  0  0  0  0  0
  -24.6710  -31.0742   22.0990 N   0  0  0  0  0  0
  -23.4181  -28.8194   23.3033 O   0  0  0  0  0  0
  -28.4332  -26.7049   20.0983 O   0  0  0  0  0  0
  -26.5595  -34.8921   22.4677 O   0  0  0  0  0  0
  -23.5356  -32.1424   23.7475 O   0  0  0  0  0  0
  -27.8101  -17.9207   19.7798 C   0  0  0  0  0  0
  -29.4839  -19.4753   20.5776 C   0  0  0  0  0  0
  -29.1252  -18.1442   20.2370 C   0  0  0  0  0  0
  -26.8706  -18.9668   19.6692 C   0  0  0  0  0  0
  -27.2312  -20.2931   20.0324 C   0  0  0  0  0  0
  -28.5618  -20.5554   20.4683 C   0  0  0  0  0  0
  -30.0718  -16.9915   20.3234 C   0  0  0  0  0  0
  -29.7211  -15.7115   20.6229 C   0  0  0  0  0  0
  -28.5411  -24.2250   20.4121 C   0  0  0  0  0  0
  -25.4804  -18.6191   19.1514 C   0  0  0  0  0  0
  -25.7939  -21.9276   18.6380 C   0  0  0  0  0  0
  -26.1739  -21.4020   20.0341 C   0  0  0  0  0  0
  -28.5719  -25.4250   19.4326 C   0  0  0  0  0  0
  -29.0432  -22.8545   19.8830 C   0  0  0  0  0  0
  -28.1372  -24.3560   21.5742 O   0  0  0  0  0  0
  -28.9582  -21.8174   20.8831 O   0  0  0  0  0  0
  -31.4760  -12.4393   19.1452 H   0  0  0  0  0  0
  -30.3444  -11.3307   19.8620 H   0  0  0  0  0  0
  -29.7615  -11.7642   17.4499 H   0  0  0  0  0  0
  -29.6585  -13.4758   17.7639 H   0  0  0  0  0  0
  -27.8449  -11.2856   18.8302 H   0  0  0  0  0  0
  -27.3715  -12.5959   17.7838 H   0  0  0  0  0  0
  -27.6710  -14.2277   19.5255 H   0  0  0  0  0  0
  -28.6926  -11.9798   21.3454 H   0  0  0  0  0  0
  -28.4599  -13.6163   21.8633 H   0  0  0  0  0  0
  -25.2723   -9.5647   22.4774 H   0  0  0  0  0  0
  -23.9960   -7.4602   22.7491 H   0  0  0  0  0  0
  -21.0799   -8.8740   19.8971 H   0  0  0  0  0  0
  -22.3651  -10.9647   19.6169 H   0  0  0  0  0  0
  -21.1994   -7.6137   23.9710 H   0  0  0  0  0  0
  -21.1486   -6.0519   25.9079 H   0  0  0  0  0  0
  -22.0604   -2.7601   23.2862 H   0  0  0  0  0  0
  -22.4026  -11.9861   22.4799 H   0  0  0  0  0  0
  -21.1100  -13.1327   22.2648 H   0  0  0  0  0  0
  -24.6711  -15.8310   20.5609 H   0  0  0  0  0  0
  -26.2921  -15.6154   20.1343 H   0  0  0  0  0  0
  -26.7124  -32.5513   23.1138 H   0  0  0  0  0  0
  -25.0092  -33.9756   25.0479 H   0  0  0  0  0  0
  -22.6939  -31.3072   21.4108 H   0  0  0  0  0  0
  -23.3750  -35.9644   23.3294 H   0  0  0  0  0  0
  -24.3585  -36.8920   22.2050 H   0  0  0  0  0  0
  -23.7248  -37.6515   23.6646 H   0  0  0  0  0  0
  -26.0565  -31.5858   20.5989 H   0  0  0  0  0  0
  -26.8216  -30.8694   21.9889 H   0  0  0  0  0  0
  -28.1012  -29.0794   21.1531 H   0  0  0  0  0  0
  -25.9979  -25.9452   19.0335 H   0  0  0  0  0  0
  -23.9673  -27.2831   19.0549 H   0  0  0  0  0  0
  -23.7299  -30.5967   19.4065 H   0  0  0  0  0  0
  -22.7368  -29.2473   19.8633 H   0  0  0  0  0  0
  -25.1285  -36.1957   25.0826 H   0  0  0  0  0  0
  -20.9967  -28.3241   24.1447 H   0  0  0  0  0  0
  -20.5666  -26.2276   23.3631 H   0  0  0  0  0  0
  -21.6651  -26.7431   22.1249 H   0  0  0  0  0  0
  -19.6925  -25.6294   21.1238 H   0  0  0  0  0  0
  -19.6729  -27.3206   20.6758 H   0  0  0  0  0  0
  -17.4225  -26.6731   21.3962 H   0  0  0  0  0  0
  -18.0281  -26.0051   22.8962 H   0  0  0  0  0  0
  -19.7920  -30.7257   24.2302 H   0  0  0  0  0  0
  -17.4995  -31.6264   24.5162 H   0  0  0  0  0  0
  -15.5341  -30.2980   23.7631 H   0  0  0  0  0  0
  -15.8671  -28.0816   22.7039 H   0  0  0  0  0  0
  -24.5915  -30.7038   25.7816 H   0  0  0  0  0  0
  -24.8908  -32.2885   26.4884 H   0  0  0  0  0  0
  -25.8084  -30.8922   27.0249 H   0  0  0  0  0  0
  -26.2847  -29.6808   24.1140 H   0  0  0  0  0  0
  -27.4012  -29.7245   25.4587 H   0  0  0  0  0  0
  -27.8706  -30.4325   23.9304 H   0  0  0  0  0  0
  -27.2685  -33.3601   26.2066 H   0  0  0  0  0  0
  -28.3859  -32.6855   25.0292 H   0  0  0  0  0  0
  -28.0730  -31.8415   26.5382 H   0  0  0  0  0  0
  -28.2601  -38.0104   24.7507 H   0  0  0  0  0  0
  -28.1073  -36.2639   24.6289 H   0  0  0  0  0  0
  -27.2304  -37.1457   25.8867 H   0  0  0  0  0  0
  -20.9308  -29.8754   21.6947 H   0  0  0  0  0  0
  -26.0182  -38.2864   24.1406 H   0  0  0  0  0  0
  -27.5207  -16.9254   19.4761 H   0  0  0  0  0  0
  -30.4847  -19.6757   20.9330 H   0  0  0  0  0  0
  -31.0961  -17.2046   20.0474 H   0  0  0  0  0  0
  -28.7035  -15.5565   20.9381 H   0  0  0  0  0  0
  -25.3052  -17.5457   19.1714 H   0  0  0  0  0  0
  -25.3679  -18.9322   18.1138 H   0  0  0  0  0  0
  -24.6888  -19.0764   19.7424 H   0  0  0  0  0  0
  -25.0912  -22.7574   18.7226 H   0  0  0  0  0  0
  -25.3132  -21.1645   18.0292 H   0  0  0  0  0  0
  -26.6531  -22.2885   18.0761 H   0  0  0  0  0  0
  -26.4978  -22.2298   20.6617 H   0  0  0  0  0  0
  -25.2786  -21.0397   20.5396 H   0  0  0  0  0  0
  -27.8597  -25.2764   18.6246 H   0  0  0  0  0  0
  -29.5497  -25.4203   18.9517 H   0  0  0  0  0  0
  -30.0880  -22.9617   19.5912 H   0  0  0  0  0  0
  -28.5024  -22.5859   18.9799 H   0  0  0  0  0  0
  1 25  1  0  0  0
  1 30  2  0  0  0
  1 78  1  0  0  0
  2  3  1  0  0  0
  2 25  1  0  0  0
  2 87  1  0  0  0
  2 88  1  0  0  0
  3  4  1  0  0  0
  3 89  1  0  0  0
  3 90  1  0  0  0
  4  5  1  0  0  0
  4 91  1  0  0  0
  4 92  1  0  0  0
  5  6  1  0  0  0
  5 26  1  0  0  0
  5 93  1  0  0  0
  6 25  1  0  0  0
  6 94  1  0  0  0
  6 95  1  0  0  0
  7  8  2  0  0  0
  7 26  1  0  0  0
  7 29  1  0  0  0
  8  9  1  0  0  0
  8 22  1  0  0  0
  9 10  1  0  0  0
  9 27  2  0  0  0
 10 11  2  0  0  0
 10 15  1  0  0  0
 11 12  1  0  0  0
 11 96  1  0  0  0
 12 13  2  0  0  0
 12 97  1  0  0  0
 13 14  1  0  0  0
 13 31  1  0  0  0
 14 15  2  0  0  0
 14 98  1  0  0  0
 15 99  1  0  0  0
 16 17  2  0  0  0
 16 21  1  0  0  0
 16 31  1  0  0  0
 17 18  1  0  0  0
 17100  1  0  0  0
 18 19  2  0  0  0
 18101  1  0  0  0
 19 20  1  0  0  0
 19 24  1  0  0  0
 20 21  2  0  0  0
 20102  1  0  0  0
 21 23  1  0  0  0
 22 28  1  0  0  0
 22 32  2  0  0  0
 26 27  1  0  0  0
 28103  1  0  0  0
 28104  1  0  0  0
 29105  1  0  0  0
 29106  1  0  0  0
 33 34  1  0  0  0
 33 66  1  0  0  0
 33 70  2  0  0  0
 34 36  1  0  0  0
 34 59  1  0  0  0
 34107  1  0  0  0
 35 44  2  0  0  0
 35 45  1  0  0  0
 35 68  1  0  0  0
 36 56  1  0  0  0
 36108  1  0  0  0
 37 39  1  0  0  0
 37 47  1  0  0  0
 37 66  1  0  0  0
 37109  1  0  0  0
 38 43  2  0  0  0
 38 46  1  0  0  0
 38 47  1  0  0  0
 39 64  1  0  0  0
 39 67  2  0  0  0
 40 52  1  0  0  0
 40 53  2  0  0  0
 40 58  1  0  0  0
 41110  1  0  0  0
 41111  1  0  0  0
 41112  1  0  0  0
 41 48  1  0  0  0
 42 43  1  0  0  0
 42 66  1  0  0  0
 42113  1  0  0  0
 42114  1  0  0  0
 43 44  1  0  0  0
 44115  1  0  0  0
 45 46  2  0  0  0
 45116  1  0  0  0
 46117  1  0  0  0
 47118  1  0  0  0
 47119  1  0  0  0
 48 56  1  0  0  0
 48 65  1  0  0  0
 48120  1  0  0  0
 49 50  1  0  0  0
 49 53  1  0  0  0
 49 64  1  0  0  0
 49121  1  0  0  0
 50 51  1  0  0  0
 50122  1  0  0  0
 50123  1  0  0  0
 51 52  1  0  0  0
 51124  1  0  0  0
 51125  1  0  0  0
 52126  1  0  0  0
 52127  1  0  0  0
 53 54  1  0  0  0
 54 55  2  0  0  0
 54128  1  0  0  0
 55 57  1  0  0  0
 55129  1  0  0  0
 56 69  2  0  0  0
 57 58  2  0  0  0
 57130  1  0  0  0
 58131  1  0  0  0
 59 60  1  0  0  0
 59 61  1  0  0  0
 59 62  1  0  0  0
 60132  1  0  0  0
 60133  1  0  0  0
 60134  1  0  0  0
 61135  1  0  0  0
 61136  1  0  0  0
 61137  1  0  0  0
 62138  1  0  0  0
 62139  1  0  0  0
 62140  1  0  0  0
 63 65  1  0  0  0
 63141  1  0  0  0
 63142  1  0  0  0
 63143  1  0  0  0
 64144  1  0  0  0
 65145  1  0  0  0
 68 83  1  0  0  0
 71 73  2  0  0  0
 71 74  1  0  0  0
 71146  1  0  0  0
 72 73  1  0  0  0
 72 76  2  0  0  0
 72147  1  0  0  0
 73 77  1  0  0  0
 74 75  2  0  0  0
 74 80  1  0  0  0
 75 76  1  0  0  0
 75 82  1  0  0  0
 76 86  1  0  0  0
 77 78  2  0  0  0
 77148  1  0  0  0
 78149  1  0  0  0
 79 83  1  0  0  0
 79 84  1  0  0  0
 79 85  2  0  0  0
 80150  1  0  0  0
 80151  1  0  0  0
 80152  1  0  0  0
 81 82  1  0  0  0
 81153  1  0  0  0
 81154  1  0  0  0
 81155  1  0  0  0
 82156  1  0  0  0
 82157  1  0  0  0
 83158  1  0  0  0
 83159  1  0  0  0
 84 86  1  0  0  0
 84160  1  0  0  0
 84161  1  0  0  0
M  ISO  4   1 100  68 101  78 100  83 101
M  END
> <chiral flag>
0

> <version>
0

> <s_m_source_file>
/data/baiqing/PycharmProjects/Reinvent-master-3.2/result/LINK_invent/BTK/process_docking_weight1_custom_product_contain_oxygen_bond_distance_aromatic_linkinvent_7_9_3/rearranged_h_0130.sdf

> <i_m_source_file_index>
32

> <r_mmod_Potential_Energy-OPLS-2005>
39.8987197875977

> <r_mmod_Stretch_Energy-OPLS-2005>
48.2649345397949

> <r_mmod_Bend_Energy-OPLS-2005>
110.703605651855

> <r_mmod_Torsional_Energy-OPLS-2005>
219.169036865234

> <r_mmod_Improper_Torsional_Energy-OPLS-2005>
8.23822402954102

> <r_mmod_Van_der_Waal_Energy-OPLS-2005>
151.95866394043

> <r_mmod_Electrostatic_Energy-OPLS-2005>
-297.272644042969

> <r_mmod_Solvation_Energy-OPLS-2005>
-225.20654296875

> <b_mmod_Minimization_Converged-OPLS-2005>
0

> <r_mmod_RMS_Derivative-OPLS-2005>
1.80460798740387

$$$$
32
                    3D
 Structure written by MMmdl.
159167  0  0  1  0            999 V2000
  -30.7052  -14.4855   20.5725 C   0  0  0  0  0  0
  -30.4206  -12.3168   19.4257 C   0  0  0  0  0  0
  -29.4963  -12.5147   18.2081 C   0  0  0  0  0  0
  -28.0189  -12.3622   18.6207 C   0  0  0  0  0  0
  -27.6589  -13.2099   19.8711 C   0  0  2  0  0  0
  -28.7002  -13.0091   20.9952 C   0  0  0  0  0  0
  -25.2573  -13.8155   20.5678 C   0  0  0  0  0  0
  -24.1840  -13.0434   20.9196 C   0  0  0  0  0  0
  -24.6392  -11.6905   20.8747 C   0  0  0  0  0  0
  -23.9067  -10.4293   21.0402 C   0  0  0  0  0  0
  -24.3626   -9.4213   21.9182 C   0  0  0  0  0  0
  -23.6311   -8.2246   22.0751 C   0  0  0  0  0  0
  -22.4291   -8.0279   21.3544 C   0  0  0  0  0  0
  -21.9923   -9.0252   20.4642 C   0  0  0  0  0  0
  -22.7240  -10.2136   20.3050 C   0  0  0  0  0  0
  -21.6864   -6.0743   22.5278 C   0  0  0  0  0  0
  -21.4015   -6.5644   23.8216 C   0  0  0  0  0  0
  -21.3671   -5.6794   24.9177 C   0  0  0  0  0  0
  -21.6047   -4.3055   24.7222 C   0  0  0  0  0  0
  -21.8822   -3.8154   23.4341 C   0  0  0  0  0  0
  -21.9200   -4.6972   22.3399 C   0  0  0  0  0  0
  -22.7864  -13.5233   21.1863 C   0  0  0  0  0  0
  -22.1663   -4.2165   21.0970 F   0  0  0  0  0  0
  -21.5630   -3.4530   25.7729 F   0  0  0  0  0  0
  -30.0312  -13.3092   20.4396 N   0  0  0  0  0  0
  -26.3012  -12.9337   20.3347 N   0  0  0  0  0  0
  -25.9321  -11.6499   20.5776 N   0  0  0  0  0  0
  -22.0496  -12.8224   22.0406 N   0  0  0  0  0  0
  -25.4264  -15.1873   20.4051 N   0  0  0  0  0  0
  -31.8392  -14.6545   20.1139 O   0  0  0  0  0  0
  -21.6655   -6.8879   21.4237 O   0  0  0  0  0  0
  -22.3554  -14.5540   20.6712 O   0  0  0  0  0  0
  -24.6138  -31.8660   23.2065 C   0  0  0  0  0  0
  -25.9015  -32.4820   23.8375 C   0  0  1  0  0  0
  -27.2414  -27.4109   20.0940 C   0  0  0  0  0  0
  -25.5870  -33.8624   24.2302 N   0  0  0  0  0  0
  -23.4033  -30.4845   21.5504 C   0  0  2  0  0  0
  -24.8509  -28.9447   20.1168 C   0  0  0  0  0  0
  -22.7405  -29.4619   22.5010 C   0  0  0  0  0  0
  -18.0252  -28.1361   22.8475 C   0  0  0  0  0  0
  -24.1496  -36.7325   23.2638 C   0  0  0  0  0  0
  -25.9338  -30.8228   21.3622 C   0  0  0  0  0  0
  -26.0106  -29.4538   20.7112 C   0  0  0  0  0  0
  -27.2037  -28.6931   20.6983 C   0  0  0  0  0  0
  -26.0555  -26.9166   19.5041 C   0  0  0  0  0  0
  -24.8692  -27.6760   19.5125 C   0  0  0  0  0  0
  -23.6118  -29.8112   20.1666 C   0  0  0  0  0  0
  -25.4118  -36.3122   24.0333 C   0  0  1  0  0  0
  -20.5848  -28.3634   23.1317 C   0  0  2  0  0  0
  -20.6744  -26.9370   22.5409 C   0  0  0  0  0  0
  -19.5732  -26.6364   21.5199 C   0  0  0  0  0  0
  -18.1904  -26.7904   22.1603 C   0  0  0  0  0  0
  -19.1504  -28.8814   23.2887 C   0  0  0  0  0  0
  -18.9444  -30.1423   23.8893 C   0  0  0  0  0  0
  -17.6450  -30.6573   24.0550 C   0  0  0  0  0  0
  -25.9040  -34.9484   23.5118 C   0  0  0  0  0  0
  -16.5336  -29.9078   23.6327 C   0  0  0  0  0  0
  -16.7240  -28.6496   23.0342 C   0  0  0  0  0  0
  -26.4433  -31.6609   25.0711 C   0  0  0  0  0  0
  -25.3690  -31.3711   26.1451 C   0  0  0  0  0  0
  -27.0234  -30.3047   24.6072 C   0  0  0  0  0  0
  -27.6011  -32.4325   25.7469 C   0  0  0  0  0  0
  -27.5591  -37.1807   24.8452 C   0  0  0  0  0  0
  -21.4132  -29.3003   22.3734 N   0  0  0  0  0  0
  -26.4304  -37.3805   23.9402 N   0  0  0  0  0  0
  -24.6689  -31.0729   22.0978 N   0  0  0  0  0  0
  -23.4168  -28.8165   23.3062 O   0  0  0  0  0  0
  -28.4383  -26.7104   20.1094 O   0  0  0  0  0  0
  -26.5620  -34.8930   22.4692 O   0  0  0  0  0  0
  -23.5327  -32.1426   23.7434 O   0  0  0  0  0  0
  -31.9846  -18.5228   22.0698 C   0  0  0  0  0  0
  -31.1902  -19.5714   21.5685 C   0  0  0  0  0  0
  -31.5958  -17.1857   21.8854 C   0  0  0  0  0  0
  -29.9907  -19.3106   20.8650 C   0  0  0  0  0  0
  -29.5710  -17.9454   20.7310 C   0  0  0  0  0  0
  -30.3906  -16.8789   21.2181 C   0  0  0  0  0  0
  -29.2124  -20.4555   20.2921 C   0  0  0  0  0  0
  -29.2706  -21.7710   20.6332 C   0  0  0  0  0  0
  -28.4703  -22.8101   19.9230 C   0  0  0  0  0  0
  -28.4534  -17.2761   18.5515 C   0  0  0  0  0  0
  -28.2537  -17.6053   20.0375 C   0  0  0  0  0  0
  -28.3273  -24.2249   20.5333 C   0  0  0  0  0  0
  -28.5631  -25.3925   19.5295 C   0  0  0  0  0  0
  -29.9906  -15.5068   21.0919 N   0  0  0  0  0  0
  -27.8953  -22.5746   18.8556 O   0  0  0  0  0  0
  -31.4667  -12.4087   19.1290 H   0  0  0  0  0  0
  -30.3118  -11.3082   19.8282 H   0  0  0  0  0  0
  -29.7437  -11.7962   17.4256 H   0  0  0  0  0  0
  -29.6575  -13.5064   17.7791 H   0  0  0  0  0  0
  -27.8417  -11.3052   18.8265 H   0  0  0  0  0  0
  -27.3647  -12.6219   17.7882 H   0  0  0  0  0  0
  -27.6972  -14.2552   19.5648 H   0  0  0  0  0  0
  -28.6785  -11.9798   21.3565 H   0  0  0  0  0  0
  -28.4602  -13.6244   21.8635 H   0  0  0  0  0  0
  -25.2765   -9.5717   22.4758 H   0  0  0  0  0  0
  -24.0041   -7.4643   22.7463 H   0  0  0  0  0  0
  -21.0860   -8.8762   19.8939 H   0  0  0  0  0  0
  -22.3688  -10.9686   19.6168 H   0  0  0  0  0  0
  -21.2004   -7.6155   23.9728 H   0  0  0  0  0  0
  -21.1490   -6.0516   25.9082 H   0  0  0  0  0  0
  -22.0597   -2.7619   23.2829 H   0  0  0  0  0  0
  -22.4111  -11.9899   22.4825 H   0  0  0  0  0  0
  -21.1109  -13.1248   22.2589 H   0  0  0  0  0  0
  -24.6520  -15.8346   20.5011 H   0  0  0  0  0  0
  -26.2594  -15.6182   20.0273 H   0  0  0  0  0  0
  -26.7074  -32.5515   23.1130 H   0  0  0  0  0  0
  -24.9977  -33.9804   25.0414 H   0  0  0  0  0  0
  -22.6906  -31.2993   21.4085 H   0  0  0  0  0  0
  -23.3768  -35.9648   23.3297 H   0  0  0  0  0  0
  -24.3591  -36.8950   22.2054 H   0  0  0  0  0  0
  -23.7238  -37.6522   23.6659 H   0  0  0  0  0  0
  -26.0475  -31.5867   20.5911 H   0  0  0  0  0  0
  -26.8207  -30.8786   21.9813 H   0  0  0  0  0  0
  -28.0998  -29.0888   21.1548 H   0  0  0  0  0  0
  -26.0161  -25.9444   19.0371 H   0  0  0  0  0  0
  -23.9750  -27.2750   19.0566 H   0  0  0  0  0  0
  -23.7167  -30.5841   19.4050 H   0  0  0  0  0  0
  -22.7356  -29.2280   19.8746 H   0  0  0  0  0  0
  -25.1300  -36.1993   25.0829 H   0  0  0  0  0  0
  -20.9919  -28.3197   24.1447 H   0  0  0  0  0  0
  -20.5628  -26.2240   23.3592 H   0  0  0  0  0  0
  -21.6616  -26.7398   22.1215 H   0  0  0  0  0  0
  -19.6897  -25.6277   21.1216 H   0  0  0  0  0  0
  -19.6691  -27.3182   20.6737 H   0  0  0  0  0  0
  -17.4171  -26.6624   21.4010 H   0  0  0  0  0  0
  -18.0318  -26.0049   22.9007 H   0  0  0  0  0  0
  -19.7926  -30.7225   24.2268 H   0  0  0  0  0  0
  -17.5013  -31.6261   24.5137 H   0  0  0  0  0  0
  -15.5339  -30.2981   23.7661 H   0  0  0  0  0  0
  -15.8633  -28.0819   22.7066 H   0  0  0  0  0  0
  -24.5861  -30.7068   25.7770 H   0  0  0  0  0  0
  -24.8881  -32.2864   26.4917 H   0  0  0  0  0  0
  -25.8038  -30.8855   27.0196 H   0  0  0  0  0  0
  -26.2758  -29.6850   24.1103 H   0  0  0  0  0  0
  -27.3967  -29.7245   25.4521 H   0  0  0  0  0  0
  -27.8622  -30.4361   23.9230 H   0  0  0  0  0  0
  -27.2628  -33.3604   26.2094 H   0  0  0  0  0  0
  -28.3792  -32.6920   25.0279 H   0  0  0  0  0  0
  -28.0708  -31.8418   26.5344 H   0  0  0  0  0  0
  -28.2590  -38.0124   24.7536 H   0  0  0  0  0  0
  -28.1105  -36.2654   24.6238 H   0  0  0  0  0  0
  -27.2303  -37.1410   25.8851 H   0  0  0  0  0  0
  -20.9286  -29.8744   21.6973 H   0  0  0  0  0  0
  -26.0199  -38.2879   24.1427 H   0  0  0  0  0  0
  -32.9059  -18.7407   22.5914 H   0  0  0  0  0  0
  -31.5409  -20.5843   21.7081 H   0  0  0  0  0  0
  -32.2247  -16.3960   22.2739 H   0  0  0  0  0  0
  -28.5486  -20.1978   19.4802 H   0  0  0  0  0  0
  -29.9088  -22.1092   21.4353 H   0  0  0  0  0  0
  -27.4998  -17.0676   18.0666 H   0  0  0  0  0  0
  -29.0899  -16.4004   18.4182 H   0  0  0  0  0  0
  -28.9239  -18.1052   18.0226 H   0  0  0  0  0  0
  -27.5330  -18.4140   20.1539 H   0  0  0  0  0  0
  -27.7880  -16.7618   20.5456 H   0  0  0  0  0  0
  -29.0122  -24.3192   21.3749 H   0  0  0  0  0  0
  -27.3219  -24.2981   20.9463 H   0  0  0  0  0  0
  -27.9755  -25.2825   18.6192 H   0  0  0  0  0  0
  -29.5964  -25.3223   19.1866 H   0  0  0  0  0  0
  -29.0253  -15.2936   21.2905 H   0  0  0  0  0  0
  1 25  1  0  0  0
  1 30  2  0  0  0
  1 84  1  0  0  0
  2  3  1  0  0  0
  2 25  1  0  0  0
  2 86  1  0  0  0
  2 87  1  0  0  0
  3  4  1  0  0  0
  3 88  1  0  0  0
  3 89  1  0  0  0
  4  5  1  0  0  0
  4 90  1  0  0  0
  4 91  1  0  0  0
  5  6  1  0  0  0
  5 26  1  0  0  0
  5 92  1  0  0  0
  6 25  1  0  0  0
  6 93  1  0  0  0
  6 94  1  0  0  0
  7  8  2  0  0  0
  7 26  1  0  0  0
  7 29  1  0  0  0
  8  9  1  0  0  0
  8 22  1  0  0  0
  9 10  1  0  0  0
  9 27  2  0  0  0
 10 11  2  0  0  0
 10 15  1  0  0  0
 11 12  1  0  0  0
 11 95  1  0  0  0
 12 13  2  0  0  0
 12 96  1  0  0  0
 13 14  1  0  0  0
 13 31  1  0  0  0
 14 15  2  0  0  0
 14 97  1  0  0  0
 15 98  1  0  0  0
 16 17  2  0  0  0
 16 21  1  0  0  0
 16 31  1  0  0  0
 17 18  1  0  0  0
 17 99  1  0  0  0
 18 19  2  0  0  0
 18100  1  0  0  0
 19 20  1  0  0  0
 19 24  1  0  0  0
 20 21  2  0  0  0
 20101  1  0  0  0
 21 23  1  0  0  0
 22 28  1  0  0  0
 22 32  2  0  0  0
 26 27  1  0  0  0
 28102  1  0  0  0
 28103  1  0  0  0
 29104  1  0  0  0
 29105  1  0  0  0
 33 34  1  0  0  0
 33 66  1  0  0  0
 33 70  2  0  0  0
 34 36  1  0  0  0
 34 59  1  0  0  0
 34106  1  0  0  0
 35 44  2  0  0  0
 35 45  1  0  0  0
 35 68  1  0  0  0
 36 56  1  0  0  0
 36107  1  0  0  0
 37 39  1  0  0  0
 37 47  1  0  0  0
 37 66  1  0  0  0
 37108  1  0  0  0
 38 43  2  0  0  0
 38 46  1  0  0  0
 38 47  1  0  0  0
 39 64  1  0  0  0
 39 67  2  0  0  0
 40 52  1  0  0  0
 40 53  2  0  0  0
 40 58  1  0  0  0
 41109  1  0  0  0
 41110  1  0  0  0
 41111  1  0  0  0
 41 48  1  0  0  0
 42 43  1  0  0  0
 42 66  1  0  0  0
 42112  1  0  0  0
 42113  1  0  0  0
 43 44  1  0  0  0
 44114  1  0  0  0
 45 46  2  0  0  0
 45115  1  0  0  0
 46116  1  0  0  0
 47117  1  0  0  0
 47118  1  0  0  0
 48 56  1  0  0  0
 48 65  1  0  0  0
 48119  1  0  0  0
 49 50  1  0  0  0
 49 53  1  0  0  0
 49 64  1  0  0  0
 49120  1  0  0  0
 50 51  1  0  0  0
 50121  1  0  0  0
 50122  1  0  0  0
 51 52  1  0  0  0
 51123  1  0  0  0
 51124  1  0  0  0
 52125  1  0  0  0
 52126  1  0  0  0
 53 54  1  0  0  0
 54 55  2  0  0  0
 54127  1  0  0  0
 55 57  1  0  0  0
 55128  1  0  0  0
 56 69  2  0  0  0
 57 58  2  0  0  0
 57129  1  0  0  0
 58130  1  0  0  0
 59 60  1  0  0  0
 59 61  1  0  0  0
 59 62  1  0  0  0
 60131  1  0  0  0
 60132  1  0  0  0
 60133  1  0  0  0
 61134  1  0  0  0
 61135  1  0  0  0
 61136  1  0  0  0
 62137  1  0  0  0
 62138  1  0  0  0
 62139  1  0  0  0
 63 65  1  0  0  0
 63140  1  0  0  0
 63141  1  0  0  0
 63142  1  0  0  0
 64143  1  0  0  0
 65144  1  0  0  0
 68 83  1  0  0  0
 71 72  2  0  0  0
 71 73  1  0  0  0
 71145  1  0  0  0
 72 74  1  0  0  0
 72146  1  0  0  0
 73 76  2  0  0  0
 73147  1  0  0  0
 74 75  2  0  0  0
 74 77  1  0  0  0
 75 76  1  0  0  0
 75 81  1  0  0  0
 76 84  1  0  0  0
 77 78  2  0  0  0
 77148  1  0  0  0
 78 79  1  0  0  0
 78149  1  0  0  0
 79 82  1  0  0  0
 79 85  2  0  0  0
 80 81  1  0  0  0
 80150  1  0  0  0
 80151  1  0  0  0
 80152  1  0  0  0
 81153  1  0  0  0
 81154  1  0  0  0
 82 83  1  0  0  0
 82155  1  0  0  0
 82156  1  0  0  0
 83157  1  0  0  0
 83158  1  0  0  0
 84159  1  0  0  0
M  ISO  4   1 100  68 101  83 101  84 100
M  END
> <chiral flag>
0

> <version>
0

> <s_m_source_file>
/data/baiqing/PycharmProjects/Reinvent-master-3.2/result/LINK_invent/BTK/process_docking_weight1_custom_product_contain_oxygen_bond_distance_aromatic_linkinvent_7_9_3/rearranged_h_0130.sdf

> <i_m_source_file_index>
33

> <r_mmod_Potential_Energy-OPLS-2005>
-69.626106262207

> <r_mmod_Stretch_Energy-OPLS-2005>
46.0146102905273

> <r_mmod_Bend_Energy-OPLS-2005>
105.669845581055

> <r_mmod_Torsional_Energy-OPLS-2005>
221.838012695312

> <r_mmod_Improper_Torsional_Energy-OPLS-2005>
4.18725919723511

> <r_mmod_Van_der_Waal_Energy-OPLS-2005>
150.890655517578

> <r_mmod_Electrostatic_Energy-OPLS-2005>
-396.726776123047

> <r_mmod_Solvation_Energy-OPLS-2005>
-216.44499206543

> <b_mmod_Minimization_Converged-OPLS-2005>
0

> <r_mmod_RMS_Derivative-OPLS-2005>
2.0383632183075

$$$$
33
                    3D
 Structure written by MMmdl.
161169  0  0  1  0            999 V2000
  -30.6909  -14.4919   20.6058 C   0  0  0  0  0  0
  -30.4329  -12.3256   19.4201 C   0  0  0  0  0  0
  -29.4964  -12.5045   18.2063 C   0  0  0  0  0  0
  -28.0203  -12.3517   18.6237 C   0  0  0  0  0  0
  -27.6637  -13.2026   19.8706 C   0  0  2  0  0  0
  -28.7074  -12.9925   20.9911 C   0  0  0  0  0  0
  -25.2624  -13.8149   20.5688 C   0  0  0  0  0  0
  -24.1864  -13.0432   20.9171 C   0  0  0  0  0  0
  -24.6409  -11.6897   20.8732 C   0  0  0  0  0  0
  -23.9063  -10.4290   21.0398 C   0  0  0  0  0  0
  -24.3612   -9.4210   21.9180 C   0  0  0  0  0  0
  -23.6287   -8.2248   22.0757 C   0  0  0  0  0  0
  -22.4270   -8.0283   21.3543 C   0  0  0  0  0  0
  -21.9905   -9.0254   20.4642 C   0  0  0  0  0  0
  -22.7235  -10.2133   20.3049 C   0  0  0  0  0  0
  -21.6850   -6.0737   22.5279 C   0  0  0  0  0  0
  -21.4010   -6.5641   23.8214 C   0  0  0  0  0  0
  -21.3654   -5.6793   24.9173 C   0  0  0  0  0  0
  -21.6042   -4.3057   24.7224 C   0  0  0  0  0  0
  -21.8821   -3.8149   23.4347 C   0  0  0  0  0  0
  -21.9195   -4.6965   22.3403 C   0  0  0  0  0  0
  -22.7889  -13.5239   21.1830 C   0  0  0  0  0  0
  -22.1665   -4.2156   21.0977 F   0  0  0  0  0  0
  -21.5628   -3.4541   25.7736 F   0  0  0  0  0  0
  -30.0370  -13.3061   20.4442 N   0  0  0  0  0  0
  -26.3049  -12.9307   20.3356 N   0  0  0  0  0  0
  -25.9337  -11.6472   20.5763 N   0  0  0  0  0  0
  -22.0518  -12.8230   22.0381 N   0  0  0  0  0  0
  -25.4366  -15.1869   20.4112 N   0  0  0  0  0  0
  -31.7942  -14.6875   20.0819 O   0  0  0  0  0  0
  -21.6634   -6.8880   21.4238 O   0  0  0  0  0  0
  -22.3573  -14.5544   20.6685 O   0  0  0  0  0  0
  -24.6168  -31.8673   23.2113 C   0  0  0  0  0  0
  -25.9058  -32.4817   23.8400 C   0  0  1  0  0  0
  -27.2265  -27.4052   20.0907 C   0  0  0  0  0  0
  -25.5909  -33.8610   24.2331 N   0  0  0  0  0  0
  -23.4044  -30.4935   21.5539 C   0  0  2  0  0  0
  -24.8495  -28.9630   20.1123 C   0  0  0  0  0  0
  -22.7428  -29.4655   22.4992 C   0  0  0  0  0  0
  -18.0276  -28.1371   22.8479 C   0  0  0  0  0  0
  -24.1486  -36.7298   23.2636 C   0  0  0  0  0  0
  -25.9386  -30.8215   21.3723 C   0  0  0  0  0  0
  -26.0121  -29.4552   20.7166 C   0  0  0  0  0  0
  -27.2003  -28.6812   20.7098 C   0  0  0  0  0  0
  -26.0423  -26.9513   19.4573 C   0  0  0  0  0  0
  -24.8604  -27.7109   19.4807 C   0  0  0  0  0  0
  -23.6127  -29.8319   20.1664 C   0  0  0  0  0  0
  -25.4110  -36.3105   24.0342 C   0  0  1  0  0  0
  -20.5864  -28.3653   23.1315 C   0  0  2  0  0  0
  -20.6768  -26.9390   22.5412 C   0  0  0  0  0  0
  -19.5752  -26.6382   21.5197 C   0  0  0  0  0  0
  -18.1925  -26.7915   22.1611 C   0  0  0  0  0  0
  -19.1526  -28.8831   23.2888 C   0  0  0  0  0  0
  -18.9459  -30.1426   23.8911 C   0  0  0  0  0  0
  -17.6462  -30.6574   24.0562 C   0  0  0  0  0  0
  -25.9047  -34.9466   23.5135 C   0  0  0  0  0  0
  -16.5352  -29.9078   23.6324 C   0  0  0  0  0  0
  -16.7267  -28.6496   23.0351 C   0  0  0  0  0  0
  -26.4475  -31.6595   25.0724 C   0  0  0  0  0  0
  -25.3730  -31.3678   26.1462 C   0  0  0  0  0  0
  -27.0318  -30.3047   24.6087 C   0  0  0  0  0  0
  -27.6049  -32.4298   25.7497 C   0  0  0  0  0  0
  -27.5577  -37.1806   24.8465 C   0  0  0  0  0  0
  -21.4156  -29.3024   22.3737 N   0  0  0  0  0  0
  -26.4293  -37.3793   23.9416 N   0  0  0  0  0  0
  -24.6717  -31.0756   22.1035 N   0  0  0  0  0  0
  -23.4202  -28.8180   23.3025 O   0  0  0  0  0  0
  -28.3824  -26.6351   20.1312 O   0  0  0  0  0  0
  -26.5596  -34.8916   22.4689 O   0  0  0  0  0  0
  -23.5350  -32.1444   23.7493 O   0  0  0  0  0  0
  -29.8211  -18.8926   18.3016 C   0  0  0  0  0  0
  -30.1390  -17.8711   19.2124 C   0  0  0  0  0  0
  -29.6914  -20.2211   18.7383 C   0  0  0  0  0  0
  -30.3186  -18.1436   20.5863 C   0  0  0  0  0  0
  -30.1480  -19.5028   21.0308 C   0  0  0  0  0  0
  -29.8577  -20.5526   20.1048 C   0  0  0  0  0  0
  -32.1813  -20.3646   24.0688 C   0  0  0  0  0  0
  -31.5824  -20.5026   22.8769 C   0  0  0  0  0  0
  -30.7346  -16.9928   21.4705 C   0  0  0  0  0  0
  -29.3162  -24.3007   20.2936 C   0  0  0  0  0  0
  -30.2484  -19.8850   22.5078 C   0  0  0  0  0  0
  -29.9775  -15.6473   21.3744 C   0  0  0  0  0  0
  -28.2645  -25.2582   19.6928 C   0  0  0  0  0  0
  -29.4155  -22.9050   19.6335 C   0  0  0  0  0  0
  -31.6498  -17.1200   22.3391 N   0  0  0  0  0  0
  -30.0324  -24.6272   21.2475 O   0  0  0  0  0  0
  -29.7575  -21.8629   20.5704 O   0  0  0  0  0  0
  -31.4747  -12.4352   19.1136 H   0  0  0  0  0  0
  -30.3488  -11.3147   19.8222 H   0  0  0  0  0  0
  -29.7415  -11.7756   17.4328 H   0  0  0  0  0  0
  -29.6526  -13.4884   17.7607 H   0  0  0  0  0  0
  -27.8466  -11.2961   18.8373 H   0  0  0  0  0  0
  -27.3618  -12.6043   17.7916 H   0  0  0  0  0  0
  -27.7052  -14.2467   19.5615 H   0  0  0  0  0  0
  -28.6922  -11.9565   21.3340 H   0  0  0  0  0  0
  -28.4565  -13.5888   21.8671 H   0  0  0  0  0  0
  -25.2753   -9.5692   22.4758 H   0  0  0  0  0  0
  -23.9993   -7.4643   22.7487 H   0  0  0  0  0  0
  -21.0837   -8.8766   19.8951 H   0  0  0  0  0  0
  -22.3688  -10.9670   19.6162 H   0  0  0  0  0  0
  -21.1999   -7.6147   23.9716 H   0  0  0  0  0  0
  -21.1471   -6.0522   25.9073 H   0  0  0  0  0  0
  -22.0607   -2.7612   23.2842 H   0  0  0  0  0  0
  -22.4108  -11.9873   22.4754 H   0  0  0  0  0  0
  -21.1142  -13.1270   22.2590 H   0  0  0  0  0  0
  -24.6727  -15.8445   20.5206 H   0  0  0  0  0  0
  -26.2927  -15.6252   20.0953 H   0  0  0  0  0  0
  -26.7117  -32.5531   23.1155 H   0  0  0  0  0  0
  -25.0067  -33.9769   25.0478 H   0  0  0  0  0  0
  -22.6931  -31.3108   21.4169 H   0  0  0  0  0  0
  -23.3750  -35.9626   23.3304 H   0  0  0  0  0  0
  -24.3570  -36.8917   22.2048 H   0  0  0  0  0  0
  -23.7236  -37.6503   23.6646 H   0  0  0  0  0  0
  -26.0543  -31.5863   20.6029 H   0  0  0  0  0  0
  -26.8259  -30.8745   21.9920 H   0  0  0  0  0  0
  -28.0925  -29.0508   21.1952 H   0  0  0  0  0  0
  -25.9925  -26.0112   18.9281 H   0  0  0  0  0  0
  -23.9710  -27.3314   18.9974 H   0  0  0  0  0  0
  -23.7187  -30.6102   19.4098 H   0  0  0  0  0  0
  -22.7368  -29.2524   19.8694 H   0  0  0  0  0  0
  -25.1280  -36.1975   25.0835 H   0  0  0  0  0  0
  -20.9943  -28.3226   24.1442 H   0  0  0  0  0  0
  -20.5679  -26.2261   23.3594 H   0  0  0  0  0  0
  -21.6638  -26.7443   22.1192 H   0  0  0  0  0  0
  -19.6923  -25.6304   21.1202 H   0  0  0  0  0  0
  -19.6696  -27.3210   20.6741 H   0  0  0  0  0  0
  -17.4190  -26.6654   21.4011 H   0  0  0  0  0  0
  -18.0327  -26.0056   22.9006 H   0  0  0  0  0  0
  -19.7942  -30.7218   24.2309 H   0  0  0  0  0  0
  -17.5024  -31.6263   24.5144 H   0  0  0  0  0  0
  -15.5351  -30.2985   23.7644 H   0  0  0  0  0  0
  -15.8666  -28.0814   22.7076 H   0  0  0  0  0  0
  -24.5945  -30.6988   25.7791 H   0  0  0  0  0  0
  -24.8857  -32.2810   26.4883 H   0  0  0  0  0  0
  -25.8068  -30.8877   27.0245 H   0  0  0  0  0  0
  -26.2869  -29.6819   24.1125 H   0  0  0  0  0  0
  -27.4100  -29.7270   25.4534 H   0  0  0  0  0  0
  -27.8695  -30.4386   23.9240 H   0  0  0  0  0  0
  -27.2678  -33.3595   26.2090 H   0  0  0  0  0  0
  -28.3859  -32.6864   25.0328 H   0  0  0  0  0  0
  -28.0709  -31.8407   26.5411 H   0  0  0  0  0  0
  -28.2588  -38.0107   24.7512 H   0  0  0  0  0  0
  -28.1081  -36.2638   24.6289 H   0  0  0  0  0  0
  -27.2281  -37.1455   25.8862 H   0  0  0  0  0  0
  -20.9320  -29.8766   21.6973 H   0  0  0  0  0  0
  -26.0187  -38.2875   24.1418 H   0  0  0  0  0  0
  -29.6936  -18.6569   17.2542 H   0  0  0  0  0  0
  -30.2661  -16.8667   18.8322 H   0  0  0  0  0  0
  -29.4674  -20.9696   17.9926 H   0  0  0  0  0  0
  -33.1282  -20.8441   24.2714 H   0  0  0  0  0  0
  -31.7401  -19.7752   24.8600 H   0  0  0  0  0  0
  -32.0530  -21.1105   22.1162 H   0  0  0  0  0  0
  -30.0098  -19.0512   23.1677 H   0  0  0  0  0  0
  -29.4755  -20.6245   22.7197 H   0  0  0  0  0  0
  -29.0063  -15.8282   20.9160 H   0  0  0  0  0  0
  -29.7762  -15.3093   22.3908 H   0  0  0  0  0  0
  -27.3081  -24.8374   20.0009 H   0  0  0  0  0  0
  -28.3160  -25.2166   18.6047 H   0  0  0  0  0  0
  -30.1739  -22.9609   18.8519 H   0  0  0  0  0  0
  -28.4615  -22.6776   19.1576 H   0  0  0  0  0  0
  -32.0373  -18.0585   22.3289 H   0  0  0  0  0  0
  1 25  1  0  0  0
  1 30  2  0  0  0
  1 82  1  0  0  0
  2  3  1  0  0  0
  2 25  1  0  0  0
  2 88  1  0  0  0
  2 89  1  0  0  0
  3  4  1  0  0  0
  3 90  1  0  0  0
  3 91  1  0  0  0
  4  5  1  0  0  0
  4 92  1  0  0  0
  4 93  1  0  0  0
  5  6  1  0  0  0
  5 26  1  0  0  0
  5 94  1  0  0  0
  6 25  1  0  0  0
  6 95  1  0  0  0
  6 96  1  0  0  0
  7  8  2  0  0  0
  7 26  1  0  0  0
  7 29  1  0  0  0
  8  9  1  0  0  0
  8 22  1  0  0  0
  9 10  1  0  0  0
  9 27  2  0  0  0
 10 11  2  0  0  0
 10 15  1  0  0  0
 11 12  1  0  0  0
 11 97  1  0  0  0
 12 13  2  0  0  0
 12 98  1  0  0  0
 13 14  1  0  0  0
 13 31  1  0  0  0
 14 15  2  0  0  0
 14 99  1  0  0  0
 15100  1  0  0  0
 16 17  2  0  0  0
 16 21  1  0  0  0
 16 31  1  0  0  0
 17 18  1  0  0  0
 17101  1  0  0  0
 18 19  2  0  0  0
 18102  1  0  0  0
 19 20  1  0  0  0
 19 24  1  0  0  0
 20 21  2  0  0  0
 20103  1  0  0  0
 21 23  1  0  0  0
 22 28  1  0  0  0
 22 32  2  0  0  0
 26 27  1  0  0  0
 28104  1  0  0  0
 28105  1  0  0  0
 29106  1  0  0  0
 29107  1  0  0  0
 33 34  1  0  0  0
 33 66  1  0  0  0
 33 70  2  0  0  0
 34 36  1  0  0  0
 34 59  1  0  0  0
 34108  1  0  0  0
 35 44  2  0  0  0
 35 45  1  0  0  0
 35 68  1  0  0  0
 36 56  1  0  0  0
 36109  1  0  0  0
 37 39  1  0  0  0
 37 47  1  0  0  0
 37 66  1  0  0  0
 37110  1  0  0  0
 38 43  2  0  0  0
 38 46  1  0  0  0
 38 47  1  0  0  0
 39 64  1  0  0  0
 39 67  2  0  0  0
 40 52  1  0  0  0
 40 53  2  0  0  0
 40 58  1  0  0  0
 41111  1  0  0  0
 41112  1  0  0  0
 41113  1  0  0  0
 41 48  1  0  0  0
 42 43  1  0  0  0
 42 66  1  0  0  0
 42114  1  0  0  0
 42115  1  0  0  0
 43 44  1  0  0  0
 44116  1  0  0  0
 45 46  2  0  0  0
 45117  1  0  0  0
 46118  1  0  0  0
 47119  1  0  0  0
 47120  1  0  0  0
 48 56  1  0  0  0
 48 65  1  0  0  0
 48121  1  0  0  0
 49 50  1  0  0  0
 49 53  1  0  0  0
 49 64  1  0  0  0
 49122  1  0  0  0
 50 51  1  0  0  0
 50123  1  0  0  0
 50124  1  0  0  0
 51 52  1  0  0  0
 51125  1  0  0  0
 51126  1  0  0  0
 52127  1  0  0  0
 52128  1  0  0  0
 53 54  1  0  0  0
 54 55  2  0  0  0
 54129  1  0  0  0
 55 57  1  0  0  0
 55130  1  0  0  0
 56 69  2  0  0  0
 57 58  2  0  0  0
 57131  1  0  0  0
 58132  1  0  0  0
 59 60  1  0  0  0
 59 61  1  0  0  0
 59 62  1  0  0  0
 60133  1  0  0  0
 60134  1  0  0  0
 60135  1  0  0  0
 61136  1  0  0  0
 61137  1  0  0  0
 61138  1  0  0  0
 62139  1  0  0  0
 62140  1  0  0  0
 62141  1  0  0  0
 63 65  1  0  0  0
 63142  1  0  0  0
 63143  1  0  0  0
 63144  1  0  0  0
 64145  1  0  0  0
 65146  1  0  0  0
 68 83  1  0  0  0
 71 72  2  0  0  0
 71 73  1  0  0  0
 71147  1  0  0  0
 72 74  1  0  0  0
 72148  1  0  0  0
 73 76  2  0  0  0
 73149  1  0  0  0
 74 75  2  0  0  0
 74 79  1  0  0  0
 75 76  1  0  0  0
 75 81  1  0  0  0
 76 87  1  0  0  0
 77 78  2  0  0  0
 77150  1  0  0  0
 77151  1  0  0  0
 78 81  1  0  0  0
 78152  1  0  0  0
 79 82  1  0  0  0
 79 85  2  0  0  0
 80 83  1  0  0  0
 80 84  1  0  0  0
 80 86  2  0  0  0
 81153  1  0  0  0
 81154  1  0  0  0
 82155  1  0  0  0
 82156  1  0  0  0
 83157  1  0  0  0
 83158  1  0  0  0
 84 87  1  0  0  0
 84159  1  0  0  0
 84160  1  0  0  0
 85161  1  0  0  0
M  ISO  4   1 100  68 101  82 100  83 101
M  END
> <chiral flag>
0

> <version>
0

> <s_m_source_file>
/data/baiqing/PycharmProjects/Reinvent-master-3.2/result/LINK_invent/BTK/process_docking_weight1_custom_product_contain_oxygen_bond_distance_aromatic_linkinvent_7_9_3/rearranged_h_0130.sdf

> <i_m_source_file_index>
34

> <r_mmod_Potential_Energy-OPLS-2005>
23.5974807739258

> <r_mmod_Stretch_Energy-OPLS-2005>
50.8351249694824

> <r_mmod_Bend_Energy-OPLS-2005>
108.410270690918

> <r_mmod_Torsional_Energy-OPLS-2005>
184.074890136719

> <r_mmod_Improper_Torsional_Energy-OPLS-2005>
2.83864879608154

> <r_mmod_Van_der_Waal_Energy-OPLS-2005>
161.315979003906

> <r_mmod_Electrostatic_Energy-OPLS-2005>
-258.620513916016

> <r_mmod_Solvation_Energy-OPLS-2005>
-241.651428222656

> <b_mmod_Minimization_Converged-OPLS-2005>
0

> <r_mmod_RMS_Derivative-OPLS-2005>
1.47122693061829

$$$$
34
                    3D
 Structure written by MMmdl.
158166  0  0  1  0            999 V2000
  -30.6611  -14.5931   20.4630 C   0  0  0  0  0  0
  -30.4325  -12.3416   19.4805 C   0  0  0  0  0  0
  -29.5170  -12.4519   18.2404 C   0  0  0  0  0  0
  -28.0383  -12.2811   18.6500 C   0  0  0  0  0  0
  -27.6443  -13.1899   19.8412 C   0  0  2  0  0  0
  -28.6866  -13.1004   20.9824 C   0  0  0  0  0  0
  -25.2612  -13.8097   20.5689 C   0  0  0  0  0  0
  -24.1838  -13.0425   20.9219 C   0  0  0  0  0  0
  -24.6335  -11.6872   20.8758 C   0  0  0  0  0  0
  -23.8969  -10.4285   21.0432 C   0  0  0  0  0  0
  -24.3568   -9.4209   21.9176 C   0  0  0  0  0  0
  -23.6280   -8.2226   22.0710 C   0  0  0  0  0  0
  -22.4280   -8.0236   21.3492 C   0  0  0  0  0  0
  -21.9879   -9.0206   20.4629 C   0  0  0  0  0  0
  -22.7157  -10.2124   20.3052 C   0  0  0  0  0  0
  -21.6840   -6.0703   22.5275 C   0  0  0  0  0  0
  -21.4006   -6.5621   23.8217 C   0  0  0  0  0  0
  -21.3680   -5.6774   24.9178 C   0  0  0  0  0  0
  -21.6055   -4.3042   24.7247 C   0  0  0  0  0  0
  -21.8827   -3.8107   23.4370 C   0  0  0  0  0  0
  -21.9203   -4.6931   22.3415 C   0  0  0  0  0  0
  -22.7888  -13.5268   21.1888 C   0  0  0  0  0  0
  -22.1670   -4.2104   21.0985 F   0  0  0  0  0  0
  -21.5646   -3.4528   25.7764 F   0  0  0  0  0  0
  -30.0151  -13.3880   20.4284 N   0  0  0  0  0  0
  -26.2950  -12.9209   20.3223 N   0  0  0  0  0  0
  -25.9249  -11.6406   20.5730 N   0  0  0  0  0  0
  -22.0529  -12.8267   22.0468 N   0  0  0  0  0  0
  -25.4432  -15.1798   20.4140 N   0  0  0  0  0  0
  -31.8684  -14.6736   20.2302 O   0  0  0  0  0  0
  -21.6644   -6.8837   21.4208 O   0  0  0  0  0  0
  -22.3617  -14.5601   20.6748 O   0  0  0  0  0  0
  -24.6163  -31.8650   23.2074 C   0  0  0  0  0  0
  -25.9054  -32.4820   23.8357 C   0  0  1  0  0  0
  -27.2488  -27.4267   20.0799 C   0  0  0  0  0  0
  -25.5906  -33.8614   24.2298 N   0  0  0  0  0  0
  -23.4033  -30.4851   21.5509 C   0  0  2  0  0  0
  -24.8507  -28.9445   20.1242 C   0  0  0  0  0  0
  -22.7417  -29.4622   22.5034 C   0  0  0  0  0  0
  -18.0274  -28.1402   22.8484 C   0  0  0  0  0  0
  -24.1487  -36.7329   23.2625 C   0  0  0  0  0  0
  -25.9320  -30.8290   21.3589 C   0  0  0  0  0  0
  -26.0123  -29.4602   20.7104 C   0  0  0  0  0  0
  -27.2100  -28.7101   20.6779 C   0  0  0  0  0  0
  -26.0557  -26.9202   19.5080 C   0  0  0  0  0  0
  -24.8675  -27.6753   19.5247 C   0  0  0  0  0  0
  -23.6130  -29.8093   20.1695 C   0  0  0  0  0  0
  -25.4105  -36.3107   24.0322 C   0  0  1  0  0  0
  -20.5853  -28.3656   23.1352 C   0  0  2  0  0  0
  -20.6761  -26.9394   22.5438 C   0  0  0  0  0  0
  -19.5751  -26.6394   21.5234 C   0  0  0  0  0  0
  -18.1921  -26.7950   22.1619 C   0  0  0  0  0  0
  -19.1521  -28.8846   23.2914 C   0  0  0  0  0  0
  -18.9447  -30.1460   23.8911 C   0  0  0  0  0  0
  -17.6443  -30.6595   24.0564 C   0  0  0  0  0  0
  -25.9025  -34.9478   23.5108 C   0  0  0  0  0  0
  -16.5334  -29.9089   23.6340 C   0  0  0  0  0  0
  -16.7253  -28.6524   23.0325 C   0  0  0  0  0  0
  -26.4480  -31.6617   25.0693 C   0  0  0  0  0  0
  -25.3759  -31.3754   26.1475 C   0  0  0  0  0  0
  -27.0254  -30.3028   24.6073 C   0  0  0  0  0  0
  -27.6091  -32.4312   25.7430 C   0  0  0  0  0  0
  -27.5598  -37.1800   24.8445 C   0  0  0  0  0  0
  -21.4138  -29.3028   22.3789 N   0  0  0  0  0  0
  -26.4295  -37.3798   23.9410 N   0  0  0  0  0  0
  -24.6693  -31.0714   22.1001 N   0  0  0  0  0  0
  -23.4193  -28.8185   23.3080 O   0  0  0  0  0  0
  -28.4561  -26.7498   20.0569 O   0  0  0  0  0  0
  -26.5592  -34.8932   22.4675 O   0  0  0  0  0  0
  -23.5357  -32.1429   23.7478 O   0  0  0  0  0  0
  -28.6087  -18.0661   18.7646 C   0  0  0  0  0  0
  -28.0009  -19.1615   18.1280 C   0  0  0  0  0  0
  -29.6054  -19.5751   20.3788 C   0  0  0  0  0  0
  -29.4688  -18.2511   19.8630 C   0  0  0  0  0  0
  -28.2032  -20.4857   18.5776 C   0  0  0  0  0  0
  -28.9713  -20.7031   19.7599 C   0  0  0  0  0  0
  -30.2671  -17.0636   20.3057 C   0  0  0  0  0  0
  -27.6505  -21.5894   17.7427 C   0  0  0  0  0  0
  -29.7916  -15.7881   20.4078 C   0  0  0  0  0  0
  -29.2715  -22.1410   20.2701 C   0  0  0  0  0  0
  -28.0931  -22.9705   20.8719 C   0  0  0  0  0  0
  -28.3341  -24.5003   21.0525 C   0  0  0  0  0  0
  -28.5248  -25.3404   19.7692 C   0  0  0  0  0  0
  -27.4843  -21.5315   16.4868 N   0  0  0  0  0  0
  -31.4808  -12.4387   19.1932 H   0  0  0  0  0  0
  -30.3371  -11.3593   19.9467 H   0  0  0  0  0  0
  -29.7901  -11.6885   17.5114 H   0  0  0  0  0  0
  -29.6705  -13.4118   17.7476 H   0  0  0  0  0  0
  -27.8993  -11.2346   18.9304 H   0  0  0  0  0  0
  -27.3798  -12.4540   17.7990 H   0  0  0  0  0  0
  -27.6341  -14.1967   19.4340 H   0  0  0  0  0  0
  -28.6894  -12.1043   21.4286 H   0  0  0  0  0  0
  -28.4435  -13.7882   21.7929 H   0  0  0  0  0  0
  -25.2714   -9.5698   22.4741 H   0  0  0  0  0  0
  -24.0009   -7.4626   22.7397 H   0  0  0  0  0  0
  -21.0805   -8.8682   19.8959 H   0  0  0  0  0  0
  -22.3553  -10.9648   19.6170 H   0  0  0  0  0  0
  -21.1961   -7.6129   23.9707 H   0  0  0  0  0  0
  -21.1513   -6.0501   25.9081 H   0  0  0  0  0  0
  -22.0594   -2.7565   23.2882 H   0  0  0  0  0  0
  -22.4158  -11.9950   22.4886 H   0  0  0  0  0  0
  -21.1115  -13.1236   22.2632 H   0  0  0  0  0  0
  -24.6867  -15.8438   20.5385 H   0  0  0  0  0  0
  -26.2986  -15.6079   20.0869 H   0  0  0  0  0  0
  -26.7112  -32.5498   23.1113 H   0  0  0  0  0  0
  -25.0050  -33.9771   25.0440 H   0  0  0  0  0  0
  -22.6934  -31.3023   21.4059 H   0  0  0  0  0  0
  -23.3761  -35.9644   23.3248 H   0  0  0  0  0  0
  -24.3584  -36.9000   22.2044 H   0  0  0  0  0  0
  -23.7239  -37.6514   23.6686 H   0  0  0  0  0  0
  -26.0310  -31.5913   20.5845 H   0  0  0  0  0  0
  -26.8267  -30.8940   21.9673 H   0  0  0  0  0  0
  -28.1129  -29.1134   21.1152 H   0  0  0  0  0  0
  -26.0121  -25.9552   19.0287 H   0  0  0  0  0  0
  -23.9709  -27.2731   19.0718 H   0  0  0  0  0  0
  -23.7220  -30.5783   19.4056 H   0  0  0  0  0  0
  -22.7396  -29.2240   19.8736 H   0  0  0  0  0  0
  -25.1294  -36.1941   25.0814 H   0  0  0  0  0  0
  -20.9902  -28.3182   24.1492 H   0  0  0  0  0  0
  -20.5688  -26.2226   23.3601 H   0  0  0  0  0  0
  -21.6625  -26.7468   22.1203 H   0  0  0  0  0  0
  -19.6894  -25.6309   21.1257 H   0  0  0  0  0  0
  -19.6724  -27.3216   20.6776 H   0  0  0  0  0  0
  -17.4198  -26.6724   21.4009 H   0  0  0  0  0  0
  -18.0286  -26.0092   22.9010 H   0  0  0  0  0  0
  -19.7904  -30.7300   24.2262 H   0  0  0  0  0  0
  -17.4981  -31.6276   24.5175 H   0  0  0  0  0  0
  -15.5329  -30.2987   23.7691 H   0  0  0  0  0  0
  -15.8643  -28.0870   22.7011 H   0  0  0  0  0  0
  -24.5891  -30.7144   25.7841 H   0  0  0  0  0  0
  -24.9006  -32.2923   26.4955 H   0  0  0  0  0  0
  -25.8110  -30.8890   27.0223 H   0  0  0  0  0  0
  -26.2742  -29.6804   24.1185 H   0  0  0  0  0  0
  -27.4066  -29.7258   25.4525 H   0  0  0  0  0  0
  -27.8589  -30.4317   23.9158 H   0  0  0  0  0  0
  -27.2739  -33.3588   26.2087 H   0  0  0  0  0  0
  -28.3841  -32.6925   25.0210 H   0  0  0  0  0  0
  -28.0838  -31.8390   26.5270 H   0  0  0  0  0  0
  -28.2607  -38.0105   24.7510 H   0  0  0  0  0  0
  -28.1107  -36.2652   24.6231 H   0  0  0  0  0  0
  -27.2327  -37.1386   25.8848 H   0  0  0  0  0  0
  -20.9328  -29.8699   21.6967 H   0  0  0  0  0  0
  -26.0181  -38.2865   24.1464 H   0  0  0  0  0  0
  -28.4803  -17.0847   18.3325 H   0  0  0  0  0  0
  -27.4080  -18.9723   17.2454 H   0  0  0  0  0  0
  -30.2623  -19.7414   21.2187 H   0  0  0  0  0  0
  -31.3284  -17.2369   20.4228 H   0  0  0  0  0  0
  -27.3764  -22.5131   18.2531 H   0  0  0  0  0  0
  -28.7253  -15.6777   20.3546 H   0  0  0  0  0  0
  -29.7223  -22.6978   19.4466 H   0  0  0  0  0  0
  -30.0513  -22.0825   21.0300 H   0  0  0  0  0  0
  -27.8478  -22.5624   21.8520 H   0  0  0  0  0  0
  -27.1787  -22.8535   20.2961 H   0  0  0  0  0  0
  -29.1824  -24.6718   21.7161 H   0  0  0  0  0  0
  -27.4716  -24.9108   21.5782 H   0  0  0  0  0  0
  -27.8547  -25.0254   18.9755 H   0  0  0  0  0  0
  -29.5252  -25.1525   19.3775 H   0  0  0  0  0  0
  -27.8002  -20.6426   16.1168 H   0  0  0  0  0  0
  1 25  1  0  0  0
  1 30  2  0  0  0
  1 79  1  0  0  0
  2  3  1  0  0  0
  2 25  1  0  0  0
  2 85  1  0  0  0
  2 86  1  0  0  0
  3  4  1  0  0  0
  3 87  1  0  0  0
  3 88  1  0  0  0
  4  5  1  0  0  0
  4 89  1  0  0  0
  4 90  1  0  0  0
  5  6  1  0  0  0
  5 26  1  0  0  0
  5 91  1  0  0  0
  6 25  1  0  0  0
  6 92  1  0  0  0
  6 93  1  0  0  0
  7  8  2  0  0  0
  7 26  1  0  0  0
  7 29  1  0  0  0
  8  9  1  0  0  0
  8 22  1  0  0  0
  9 10  1  0  0  0
  9 27  2  0  0  0
 10 11  2  0  0  0
 10 15  1  0  0  0
 11 12  1  0  0  0
 11 94  1  0  0  0
 12 13  2  0  0  0
 12 95  1  0  0  0
 13 14  1  0  0  0
 13 31  1  0  0  0
 14 15  2  0  0  0
 14 96  1  0  0  0
 15 97  1  0  0  0
 16 17  2  0  0  0
 16 21  1  0  0  0
 16 31  1  0  0  0
 17 18  1  0  0  0
 17 98  1  0  0  0
 18 19  2  0  0  0
 18 99  1  0  0  0
 19 20  1  0  0  0
 19 24  1  0  0  0
 20 21  2  0  0  0
 20100  1  0  0  0
 21 23  1  0  0  0
 22 28  1  0  0  0
 22 32  2  0  0  0
 26 27  1  0  0  0
 28101  1  0  0  0
 28102  1  0  0  0
 29103  1  0  0  0
 29104  1  0  0  0
 33 34  1  0  0  0
 33 66  1  0  0  0
 33 70  2  0  0  0
 34 36  1  0  0  0
 34 59  1  0  0  0
 34105  1  0  0  0
 35 44  2  0  0  0
 35 45  1  0  0  0
 35 68  1  0  0  0
 36 56  1  0  0  0
 36106  1  0  0  0
 37 39  1  0  0  0
 37 47  1  0  0  0
 37 66  1  0  0  0
 37107  1  0  0  0
 38 43  2  0  0  0
 38 46  1  0  0  0
 38 47  1  0  0  0
 39 64  1  0  0  0
 39 67  2  0  0  0
 40 52  1  0  0  0
 40 53  2  0  0  0
 40 58  1  0  0  0
 41108  1  0  0  0
 41109  1  0  0  0
 41110  1  0  0  0
 41 48  1  0  0  0
 42 43  1  0  0  0
 42 66  1  0  0  0
 42111  1  0  0  0
 42112  1  0  0  0
 43 44  1  0  0  0
 44113  1  0  0  0
 45 46  2  0  0  0
 45114  1  0  0  0
 46115  1  0  0  0
 47116  1  0  0  0
 47117  1  0  0  0
 48 56  1  0  0  0
 48 65  1  0  0  0
 48118  1  0  0  0
 49 50  1  0  0  0
 49 53  1  0  0  0
 49 64  1  0  0  0
 49119  1  0  0  0
 50 51  1  0  0  0
 50120  1  0  0  0
 50121  1  0  0  0
 51 52  1  0  0  0
 51122  1  0  0  0
 51123  1  0  0  0
 52124  1  0  0  0
 52125  1  0  0  0
 53 54  1  0  0  0
 54 55  2  0  0  0
 54126  1  0  0  0
 55 57  1  0  0  0
 55127  1  0  0  0
 56 69  2  0  0  0
 57 58  2  0  0  0
 57128  1  0  0  0
 58129  1  0  0  0
 59 60  1  0  0  0
 59 61  1  0  0  0
 59 62  1  0  0  0
 60130  1  0  0  0
 60131  1  0  0  0
 60132  1  0  0  0
 61133  1  0  0  0
 61134  1  0  0  0
 61135  1  0  0  0
 62136  1  0  0  0
 62137  1  0  0  0
 62138  1  0  0  0
 63 65  1  0  0  0
 63139  1  0  0  0
 63140  1  0  0  0
 63141  1  0  0  0
 64142  1  0  0  0
 65143  1  0  0  0
 68 83  1  0  0  0
 71 72  2  0  0  0
 71 74  1  0  0  0
 71144  1  0  0  0
 72 75  1  0  0  0
 72145  1  0  0  0
 73 74  2  0  0  0
 73 76  1  0  0  0
 73146  1  0  0  0
 74 77  1  0  0  0
 75 76  2  0  0  0
 75 78  1  0  0  0
 76 80  1  0  0  0
 77 79  2  0  0  0
 77147  1  0  0  0
 78 84  2  0  0  0
 78148  1  0  0  0
 79149  1  0  0  0
 80 81  1  0  0  0
 80150  1  0  0  0
 80151  1  0  0  0
 81 82  1  0  0  0
 81152  1  0  0  0
 81153  1  0  0  0
 82 83  1  0  0  0
 82154  1  0  0  0
 82155  1  0  0  0
 83156  1  0  0  0
 83157  1  0  0  0
 84158  1  0  0  0
M  ISO  4   1 100  68 101  79 100  83 101
M  END
> <chiral flag>
0

> <version>
0

> <s_m_source_file>
/data/baiqing/PycharmProjects/Reinvent-master-3.2/result/LINK_invent/BTK/process_docking_weight1_custom_product_contain_oxygen_bond_distance_aromatic_linkinvent_7_9_3/rearranged_h_0130.sdf

> <i_m_source_file_index>
35

> <r_mmod_Potential_Energy-OPLS-2005>
70.8744583129883

> <r_mmod_Stretch_Energy-OPLS-2005>
49.502758026123

> <r_mmod_Bend_Energy-OPLS-2005>
114.209167480469

> <r_mmod_Torsional_Energy-OPLS-2005>
224.321823120117

> <r_mmod_Improper_Torsional_Energy-OPLS-2005>
13.9576473236084

> <r_mmod_Van_der_Waal_Energy-OPLS-2005>
154.646240234375

> <r_mmod_Electrostatic_Energy-OPLS-2005>
-314.199737548828

> <r_mmod_Solvation_Energy-OPLS-2005>
-205.010559082031

> <b_mmod_Minimization_Converged-OPLS-2005>
0

> <r_mmod_RMS_Derivative-OPLS-2005>
4.55764007568359

$$$$
35
                    3D
 Structure written by MMmdl.
164172  0  0  1  0            999 V2000
  -30.6058  -14.8565   20.4202 C   0  0  0  0  0  0
  -30.4251  -12.5242   19.4981 C   0  0  0  0  0  0
  -29.5148  -12.4993   18.2489 C   0  0  0  0  0  0
  -28.0418  -12.3119   18.6615 C   0  0  0  0  0  0
  -27.6281  -13.2439   19.8320 C   0  0  2  0  0  0
  -28.6680  -13.2600   20.9711 C   0  0  0  0  0  0
  -25.2479  -13.8223   20.5739 C   0  0  0  0  0  0
  -24.1770  -13.0468   20.9202 C   0  0  0  0  0  0
  -24.6354  -11.6937   20.8728 C   0  0  0  0  0  0
  -23.9031  -10.4307   21.0385 C   0  0  0  0  0  0
  -24.3593   -9.4228   21.9156 C   0  0  0  0  0  0
  -23.6291   -8.2246   22.0736 C   0  0  0  0  0  0
  -22.4272   -8.0259   21.3525 C   0  0  0  0  0  0
  -21.9885   -9.0225   20.4632 C   0  0  0  0  0  0
  -22.7200  -10.2115   20.3044 C   0  0  0  0  0  0
  -21.6859   -6.0727   22.5270 C   0  0  0  0  0  0
  -21.4025   -6.5641   23.8202 C   0  0  0  0  0  0
  -21.3664   -5.6792   24.9164 C   0  0  0  0  0  0
  -21.6046   -4.3052   24.7210 C   0  0  0  0  0  0
  -21.8824   -3.8146   23.4332 C   0  0  0  0  0  0
  -21.9203   -4.6960   22.3393 C   0  0  0  0  0  0
  -22.7799  -13.5239   21.1888 C   0  0  0  0  0  0
  -22.1673   -4.2149   21.0968 F   0  0  0  0  0  0
  -21.5622   -3.4536   25.7719 F   0  0  0  0  0  0
  -29.9549  -13.6326   20.3730 N   0  0  0  0  0  0
  -26.2876  -12.9440   20.3235 N   0  0  0  0  0  0
  -25.9286  -11.6573   20.5714 N   0  0  0  0  0  0
  -22.0459  -12.8201   22.0429 N   0  0  0  0  0  0
  -25.4243  -15.1939   20.4218 N   0  0  0  0  0  0
  -31.8108  -14.8745   20.1547 O   0  0  0  0  0  0
  -21.6651   -6.8848   21.4219 O   0  0  0  0  0  0
  -22.3455  -14.5541   20.6741 O   0  0  0  0  0  0
  -24.6373  -31.8479   23.1918 C   0  0  0  0  0  0
  -25.9177  -32.4695   23.8271 C   0  0  1  0  0  0
  -27.2072  -27.1777   20.1403 C   0  0  0  0  0  0
  -25.5957  -33.8503   24.2187 N   0  0  0  0  0  0
  -23.4352  -30.4708   21.5368 C   0  0  2  0  0  0
  -24.8807  -28.9018   20.1082 C   0  0  0  0  0  0
  -22.7520  -29.4572   22.4874 C   0  0  0  0  0  0
  -18.0298  -28.1396   22.8480 C   0  0  0  0  0  0
  -24.1491  -36.7261   23.2637 C   0  0  0  0  0  0
  -25.9877  -30.7334   21.3844 C   0  0  0  0  0  0
  -26.0551  -29.3488   20.7247 C   0  0  0  0  0  0
  -27.2169  -28.5001   20.7282 C   0  0  0  0  0  0
  -26.0064  -26.8158   19.4911 C   0  0  0  0  0  0
  -24.8660  -27.6466   19.4808 C   0  0  0  0  0  0
  -23.6571  -29.8018   20.1540 C   0  0  0  0  0  0
  -25.4121  -36.3027   24.0309 C   0  0  1  0  0  0
  -20.5905  -28.3716   23.1255 C   0  0  2  0  0  0
  -20.6792  -26.9432   22.5406 C   0  0  0  0  0  0
  -19.5761  -26.6389   21.5220 C   0  0  0  0  0  0
  -18.1939  -26.7935   22.1630 C   0  0  0  0  0  0
  -19.1549  -28.8871   23.2861 C   0  0  0  0  0  0
  -18.9478  -30.1473   23.8883 C   0  0  0  0  0  0
  -17.6474  -30.6596   24.0561 C   0  0  0  0  0  0
  -25.9074  -34.9405   23.5052 C   0  0  0  0  0  0
  -16.5364  -29.9092   23.6334 C   0  0  0  0  0  0
  -16.7284  -28.6508   23.0354 C   0  0  0  0  0  0
  -26.4513  -31.6558   25.0700 C   0  0  0  0  0  0
  -25.3703  -31.3783   26.1407 C   0  0  0  0  0  0
  -27.0372  -30.2942   24.6282 C   0  0  0  0  0  0
  -27.6025  -32.4330   25.7501 C   0  0  0  0  0  0
  -27.5574  -37.1788   24.8461 C   0  0  0  0  0  0
  -21.4222  -29.3047   22.3625 N   0  0  0  0  0  0
  -26.4277  -37.3742   23.9409 N   0  0  0  0  0  0
  -24.7060  -31.0374   22.0929 N   0  0  0  0  0  0
  -23.4194  -28.8123   23.3000 O   0  0  0  0  0  0
  -28.2990  -26.2579   20.2190 O   0  0  0  0  0  0
  -26.5652  -34.8899   22.4626 O   0  0  0  0  0  0
  -23.5509  -32.1349   23.7173 O   0  0  0  0  0  0
  -28.2452  -18.1039   23.8197 C   0  0  0  0  0  0
  -28.2507  -18.8099   22.6091 C   0  0  0  0  0  0
  -29.4444  -16.3277   22.7327 C   0  0  0  0  0  0
  -28.8949  -16.8721   23.8997 C   0  0  0  0  0  0
  -29.4440  -16.9948   21.4742 C   0  0  0  0  0  0
  -28.9508  -18.4214   21.4480 C   0  0  0  0  0  0
  -28.1967  -23.6656   21.0140 C   0  0  0  0  0  0
  -28.4946  -22.3096   21.3284 C   0  0  0  0  0  0
  -30.3441  -15.8381   25.7254 C   0  0  0  0  0  0
  -28.5092  -23.1126   23.8456 C   0  0  0  0  0  0
  -28.9230  -16.0913   25.2040 C   0  0  0  0  0  0
  -28.2703  -24.7616   19.8470 C   0  0  0  0  0  0
  -28.2648  -21.9858   22.8213 C   0  0  0  0  0  0
  -29.0664  -21.0101   20.4812 C   0  0  0  0  0  0
  -29.9109  -16.0863   20.3877 N   0  0  0  0  0  0
  -28.9248  -19.4421   20.4169 O   0  0  0  0  0  0
  -31.4681  -12.6454   19.1974 H   0  0  0  0  0  0
  -30.3782  -11.5739   20.0331 H   0  0  0  0  0  0
  -29.8202  -11.6961   17.5756 H   0  0  0  0  0  0
  -29.6229  -13.4294   17.6887 H   0  0  0  0  0  0
  -27.9167  -11.2711   18.9612 H   0  0  0  0  0  0
  -27.3796  -12.4560   17.8063 H   0  0  0  0  0  0
  -27.5983  -14.2481   19.4078 H   0  0  0  0  0  0
  -28.7280  -12.2903   21.4663 H   0  0  0  0  0  0
  -28.3727  -13.9773   21.7358 H   0  0  0  0  0  0
  -25.2726   -9.5747   22.4728 H   0  0  0  0  0  0
  -24.0031   -7.4656   22.7466 H   0  0  0  0  0  0
  -21.0813   -8.8728   19.8939 H   0  0  0  0  0  0
  -22.3632  -10.9645   19.6167 H   0  0  0  0  0  0
  -21.2025   -7.6154   23.9700 H   0  0  0  0  0  0
  -21.1485   -6.0524   25.9064 H   0  0  0  0  0  0
  -22.0598   -2.7608   23.2827 H   0  0  0  0  0  0
  -22.4101  -11.9883   22.4839 H   0  0  0  0  0  0
  -21.1064  -13.1192   22.2640 H   0  0  0  0  0  0
  -24.6723  -15.8588   20.5627 H   0  0  0  0  0  0
  -26.2998  -15.6282   20.1546 H   0  0  0  0  0  0
  -26.7231  -32.5305   23.0988 H   0  0  0  0  0  0
  -25.0080  -33.9624   25.0320 H   0  0  0  0  0  0
  -22.7333  -31.2948   21.3873 H   0  0  0  0  0  0
  -23.3742  -35.9605   23.3288 H   0  0  0  0  0  0
  -24.3568  -36.8904   22.2053 H   0  0  0  0  0  0
  -23.7275  -37.6464   23.6681 H   0  0  0  0  0  0
  -26.1404  -31.4906   20.6133 H   0  0  0  0  0  0
  -26.8578  -30.7782   22.0274 H   0  0  0  0  0  0
  -28.1137  -28.8353   21.2305 H   0  0  0  0  0  0
  -25.9027  -25.8611   19.0014 H   0  0  0  0  0  0
  -23.9663  -27.2971   18.9947 H   0  0  0  0  0  0
  -23.7924  -30.5772   19.3996 H   0  0  0  0  0  0
  -22.7699  -29.2479   19.8434 H   0  0  0  0  0  0
  -25.1315  -36.1835   25.0801 H   0  0  0  0  0  0
  -21.0002  -28.3313   24.1375 H   0  0  0  0  0  0
  -20.5703  -26.2338   23.3622 H   0  0  0  0  0  0
  -21.6662  -26.7455   22.1202 H   0  0  0  0  0  0
  -19.6927  -25.6296   21.1261 H   0  0  0  0  0  0
  -19.6694  -27.3189   20.6742 H   0  0  0  0  0  0
  -17.4214  -26.6676   21.4026 H   0  0  0  0  0  0
  -18.0338  -26.0078   22.9031 H   0  0  0  0  0  0
  -19.7954  -30.7293   24.2240 H   0  0  0  0  0  0
  -17.5032  -31.6275   24.5174 H   0  0  0  0  0  0
  -15.5363  -30.2994   23.7675 H   0  0  0  0  0  0
  -15.8684  -28.0830   22.7077 H   0  0  0  0  0  0
  -24.5857  -30.7146   25.7756 H   0  0  0  0  0  0
  -24.8928  -32.2995   26.4751 H   0  0  0  0  0  0
  -25.7983  -30.9014   27.0234 H   0  0  0  0  0  0
  -26.2997  -29.6671   24.1253 H   0  0  0  0  0  0
  -27.3941  -29.7225   25.4863 H   0  0  0  0  0  0
  -27.8918  -30.4158   23.9623 H   0  0  0  0  0  0
  -27.2571  -33.3623   26.2046 H   0  0  0  0  0  0
  -28.3860  -32.6914   25.0365 H   0  0  0  0  0  0
  -28.0664  -31.8490   26.5461 H   0  0  0  0  0  0
  -28.2580  -38.0093   24.7489 H   0  0  0  0  0  0
  -28.1074  -36.2618   24.6292 H   0  0  0  0  0  0
  -27.2284  -37.1448   25.8861 H   0  0  0  0  0  0
  -20.9415  -29.8754   21.6812 H   0  0  0  0  0  0
  -26.0132  -38.2803   24.1408 H   0  0  0  0  0  0
  -27.7271  -18.5097   24.6781 H   0  0  0  0  0  0
  -27.6278  -19.6737   22.5598 H   0  0  0  0  0  0
  -29.8528  -15.3350   22.8385 H   0  0  0  0  0  0
  -27.7495  -24.2193   21.8202 H   0  0  0  0  0  0
  -30.8764  -16.7744   25.8937 H   0  0  0  0  0  0
  -30.3127  -15.2966   26.6710 H   0  0  0  0  0  0
  -30.9322  -15.2389   25.0304 H   0  0  0  0  0  0
  -28.5893  -22.6926   24.8479 H   0  0  0  0  0  0
  -27.6888  -23.8295   23.8821 H   0  0  0  0  0  0
  -29.4386  -23.6450   23.6419 H   0  0  0  0  0  0
  -28.4187  -15.1371   25.0483 H   0  0  0  0  0  0
  -28.3497  -16.6243   25.9647 H   0  0  0  0  0  0
  -27.4913  -24.5399   19.1223 H   0  0  0  0  0  0
  -29.1956  -24.5665   19.3042 H   0  0  0  0  0  0
  -28.9636  -21.2099   23.1290 H   0  0  0  0  0  0
  -27.2459  -21.6225   22.9616 H   0  0  0  0  0  0
  -28.0091  -20.8003   20.6400 H   0  0  0  0  0  0
  -29.8800  -20.8871   21.1957 H   0  0  0  0  0  0
  -30.2395  -16.6400   19.6089 H   0  0  0  0  0  0
  1 25  1  0  0  0
  1 30  2  0  0  0
  1 85  1  0  0  0
  2  3  1  0  0  0
  2 25  1  0  0  0
  2 87  1  0  0  0
  2 88  1  0  0  0
  3  4  1  0  0  0
  3 89  1  0  0  0
  3 90  1  0  0  0
  4  5  1  0  0  0
  4 91  1  0  0  0
  4 92  1  0  0  0
  5  6  1  0  0  0
  5 26  1  0  0  0
  5 93  1  0  0  0
  6 25  1  0  0  0
  6 94  1  0  0  0
  6 95  1  0  0  0
  7  8  2  0  0  0
  7 26  1  0  0  0
  7 29  1  0  0  0
  8  9  1  0  0  0
  8 22  1  0  0  0
  9 10  1  0  0  0
  9 27  2  0  0  0
 10 11  2  0  0  0
 10 15  1  0  0  0
 11 12  1  0  0  0
 11 96  1  0  0  0
 12 13  2  0  0  0
 12 97  1  0  0  0
 13 14  1  0  0  0
 13 31  1  0  0  0
 14 15  2  0  0  0
 14 98  1  0  0  0
 15 99  1  0  0  0
 16 17  2  0  0  0
 16 21  1  0  0  0
 16 31  1  0  0  0
 17 18  1  0  0  0
 17100  1  0  0  0
 18 19  2  0  0  0
 18101  1  0  0  0
 19 20  1  0  0  0
 19 24  1  0  0  0
 20 21  2  0  0  0
 20102  1  0  0  0
 21 23  1  0  0  0
 22 28  1  0  0  0
 22 32  2  0  0  0
 26 27  1  0  0  0
 28103  1  0  0  0
 28104  1  0  0  0
 29105  1  0  0  0
 29106  1  0  0  0
 33 34  1  0  0  0
 33 66  1  0  0  0
 33 70  2  0  0  0
 34 36  1  0  0  0
 34 59  1  0  0  0
 34107  1  0  0  0
 35 44  2  0  0  0
 35 45  1  0  0  0
 35 68  1  0  0  0
 36 56  1  0  0  0
 36108  1  0  0  0
 37 39  1  0  0  0
 37 47  1  0  0  0
 37 66  1  0  0  0
 37109  1  0  0  0
 38 43  2  0  0  0
 38 46  1  0  0  0
 38 47  1  0  0  0
 39 64  1  0  0  0
 39 67  2  0  0  0
 40 52  1  0  0  0
 40 53  2  0  0  0
 40 58  1  0  0  0
 41110  1  0  0  0
 41111  1  0  0  0
 41112  1  0  0  0
 41 48  1  0  0  0
 42 43  1  0  0  0
 42 66  1  0  0  0
 42113  1  0  0  0
 42114  1  0  0  0
 43 44  1  0  0  0
 44115  1  0  0  0
 45 46  2  0  0  0
 45116  1  0  0  0
 46117  1  0  0  0
 47118  1  0  0  0
 47119  1  0  0  0
 48 56  1  0  0  0
 48 65  1  0  0  0
 48120  1  0  0  0
 49 50  1  0  0  0
 49 53  1  0  0  0
 49 64  1  0  0  0
 49121  1  0  0  0
 50 51  1  0  0  0
 50122  1  0  0  0
 50123  1  0  0  0
 51 52  1  0  0  0
 51124  1  0  0  0
 51125  1  0  0  0
 52126  1  0  0  0
 52127  1  0  0  0
 53 54  1  0  0  0
 54 55  2  0  0  0
 54128  1  0  0  0
 55 57  1  0  0  0
 55129  1  0  0  0
 56 69  2  0  0  0
 57 58  2  0  0  0
 57130  1  0  0  0
 58131  1  0  0  0
 59 60  1  0  0  0
 59 61  1  0  0  0
 59 62  1  0  0  0
 60132  1  0  0  0
 60133  1  0  0  0
 60134  1  0  0  0
 61135  1  0  0  0
 61136  1  0  0  0
 61137  1  0  0  0
 62138  1  0  0  0
 62139  1  0  0  0
 62140  1  0  0  0
 63 65  1  0  0  0
 63141  1  0  0  0
 63142  1  0  0  0
 63143  1  0  0  0
 64144  1  0  0  0
 65145  1  0  0  0
 68 82  1  0  0  0
 71 72  2  0  0  0
 71 74  1  0  0  0
 71146  1  0  0  0
 72 76  1  0  0  0
 72147  1  0  0  0
 73 74  2  0  0  0
 73 75  1  0  0  0
 73148  1  0  0  0
 74 81  1  0  0  0
 75 76  2  0  0  0
 75 85  1  0  0  0
 76 86  1  0  0  0
 77 78  2  0  0  0
 77 82  1  0  0  0
 77149  1  0  0  0
 78 83  1  0  0  0
 78 84  1  0  0  0
 79 81  1  0  0  0
 79150  1  0  0  0
 79151  1  0  0  0
 79152  1  0  0  0
 80 83  1  0  0  0
 80153  1  0  0  0
 80154  1  0  0  0
 80155  1  0  0  0
 81156  1  0  0  0
 81157  1  0  0  0
 82158  1  0  0  0
 82159  1  0  0  0
 83160  1  0  0  0
 83161  1  0  0  0
 84 86  1  0  0  0
 84162  1  0  0  0
 84163  1  0  0  0
 85164  1  0  0  0
M  ISO  4   1 100  68 101  82 101  85 100
M  END
> <chiral flag>
0

> <version>
0

> <s_m_source_file>
/data/baiqing/PycharmProjects/Reinvent-master-3.2/result/LINK_invent/BTK/process_docking_weight1_custom_product_contain_oxygen_bond_distance_aromatic_linkinvent_7_9_3/rearranged_h_0130.sdf

> <i_m_source_file_index>
36

> <r_mmod_Potential_Energy-OPLS-2005>
813.803100585938

> <r_mmod_Stretch_Energy-OPLS-2005>
232.813110351562

> <r_mmod_Bend_Energy-OPLS-2005>
576.849365234375

> <r_mmod_Torsional_Energy-OPLS-2005>
281.053558349609

> <r_mmod_Improper_Torsional_Energy-OPLS-2005>
13.7833404541016

> <r_mmod_Van_der_Waal_Energy-OPLS-2005>
162.933792114258

> <r_mmod_Electrostatic_Energy-OPLS-2005>
-407.701049804688

> <r_mmod_Solvation_Energy-OPLS-2005>
-188.408325195312

> <b_mmod_Minimization_Converged-OPLS-2005>
0

> <r_mmod_RMS_Derivative-OPLS-2005>
2.34529113769531

$$$$
36
                    3D
 Structure written by MMmdl.
156164  0  0  1  0            999 V2000
  -30.5774  -14.6645   20.4967 C   0  0  0  0  0  0
  -30.4508  -12.4051   19.4520 C   0  0  0  0  0  0
  -29.5145  -12.5145   18.2261 C   0  0  0  0  0  0
  -28.0336  -12.3534   18.6300 C   0  0  0  0  0  0
  -27.6576  -13.2107   19.8665 C   0  0  2  0  0  0
  -28.7029  -13.0408   20.9924 C   0  0  0  0  0  0
  -25.2576  -13.8158   20.5634 C   0  0  0  0  0  0
  -24.1846  -13.0435   20.9163 C   0  0  0  0  0  0
  -24.6408  -11.6892   20.8737 C   0  0  0  0  0  0
  -23.9060  -10.4282   21.0393 C   0  0  0  0  0  0
  -24.3612   -9.4188   21.9160 C   0  0  0  0  0  0
  -23.6278   -8.2231   22.0759 C   0  0  0  0  0  0
  -22.4256   -8.0277   21.3551 C   0  0  0  0  0  0
  -21.9896   -9.0243   20.4644 C   0  0  0  0  0  0
  -22.7240  -10.2109   20.3039 C   0  0  0  0  0  0
  -21.6860   -6.0709   22.5271 C   0  0  0  0  0  0
  -21.4022   -6.5623   23.8198 C   0  0  0  0  0  0
  -21.3661   -5.6790   24.9167 C   0  0  0  0  0  0
  -21.6045   -4.3052   24.7227 C   0  0  0  0  0  0
  -21.8825   -3.8130   23.4354 C   0  0  0  0  0  0
  -21.9186   -4.6934   22.3400 C   0  0  0  0  0  0
  -22.7862  -13.5221   21.1801 C   0  0  0  0  0  0
  -22.1658   -4.2110   21.0981 F   0  0  0  0  0  0
  -21.5620   -3.4546   25.7742 F   0  0  0  0  0  0
  -30.0177  -13.4118   20.4389 N   0  0  0  0  0  0
  -26.3013  -12.9325   20.3314 N   0  0  0  0  0  0
  -25.9335  -11.6474   20.5744 N   0  0  0  0  0  0
  -22.0514  -12.8227   22.0369 N   0  0  0  0  0  0
  -25.4296  -15.1884   20.4015 N   0  0  0  0  0  0
  -31.7216  -14.8831   20.0812 O   0  0  0  0  0  0
  -21.6653   -6.8854   21.4231 O   0  0  0  0  0  0
  -22.3519  -14.5493   20.6601 O   0  0  0  0  0  0
  -24.6231  -31.8561   23.1969 C   0  0  0  0  0  0
  -25.9058  -32.4772   23.8315 C   0  0  1  0  0  0
  -27.2349  -27.3331   20.1396 C   0  0  0  0  0  0
  -25.5859  -33.8553   24.2255 N   0  0  0  0  0  0
  -23.4178  -30.4752   21.5375 C   0  0  2  0  0  0
  -24.8663  -28.9186   20.1186 C   0  0  0  0  0  0
  -22.7474  -29.4588   22.4922 C   0  0  0  0  0  0
  -18.0287  -28.1413   22.8517 C   0  0  0  0  0  0
  -24.1464  -36.7319   23.2656 C   0  0  0  0  0  0
  -25.9532  -30.7989   21.3560 C   0  0  0  0  0  0
  -26.0312  -29.4195   20.7159 C   0  0  0  0  0  0
  -27.2200  -28.6394   20.7082 C   0  0  0  0  0  0
  -26.0487  -26.8632   19.5410 C   0  0  0  0  0  0
  -24.8758  -27.6466   19.5211 C   0  0  0  0  0  0
  -23.6340  -29.7983   20.1560 C   0  0  0  0  0  0
  -25.4089  -36.3097   24.0367 C   0  0  1  0  0  0
  -20.5902  -28.3683   23.1333 C   0  0  2  0  0  0
  -20.6782  -26.9408   22.5450 C   0  0  0  0  0  0
  -19.5744  -26.6408   21.5242 C   0  0  0  0  0  0
  -18.1929  -26.7964   22.1648 C   0  0  0  0  0  0
  -19.1555  -28.8868   23.2922 C   0  0  0  0  0  0
  -18.9463  -30.1496   23.8888 C   0  0  0  0  0  0
  -17.6463  -30.6616   24.0609 C   0  0  0  0  0  0
  -25.9024  -34.9446   23.5139 C   0  0  0  0  0  0
  -16.5356  -29.9139   23.6341 C   0  0  0  0  0  0
  -16.7279  -28.6567   23.0354 C   0  0  0  0  0  0
  -26.4419  -31.6594   25.0703 C   0  0  0  0  0  0
  -25.3671  -31.3778   26.1473 C   0  0  0  0  0  0
  -27.0282  -30.3028   24.6134 C   0  0  0  0  0  0
  -27.5980  -32.4318   25.7473 C   0  0  0  0  0  0
  -27.5582  -37.1810   24.8466 C   0  0  0  0  0  0
  -21.4179  -29.3032   22.3707 N   0  0  0  0  0  0
  -26.4262  -37.3813   23.9452 N   0  0  0  0  0  0
  -24.6851  -31.0640   22.0887 N   0  0  0  0  0  0
  -23.4209  -28.8106   23.2966 O   0  0  0  0  0  0
  -28.3906  -26.5544   20.1083 O   0  0  0  0  0  0
  -26.5625  -34.8926   22.4718 O   0  0  0  0  0  0
  -23.5392  -32.1302   23.7325 O   0  0  0  0  0  0
  -30.1794  -19.4530   20.2472 C   0  0  0  0  0  0
  -30.4743  -18.0453   20.2431 C   0  0  0  0  0  0
  -28.3438  -17.6259   21.2625 C   0  0  0  0  0  0
  -28.9657  -19.9885   20.7784 C   0  0  0  0  0  0
  -28.0385  -19.0150   21.2652 C   0  0  0  0  0  0
  -29.5660  -17.0914   20.7892 C   0  0  0  0  0  0
  -26.6930  -19.4193   21.8517 C   0  0  0  0  0  0
  -28.6838  -21.5419   20.9671 C   0  0  0  0  0  0
  -28.9633  -22.5904   19.8138 C   0  0  0  0  0  0
  -28.1207  -23.9502   19.7286 C   0  0  0  0  0  0
  -28.4053  -25.1906   20.6706 C   0  0  0  0  0  0
  -29.7234  -15.6393   20.9388 N   0  0  0  0  0  0
  -31.4887  -12.5525   19.1511 H   0  0  0  0  0  0
  -30.4073  -11.4039   19.8859 H   0  0  0  0  0  0
  -29.7822  -11.7648   17.4809 H   0  0  0  0  0  0
  -29.6559  -13.4847   17.7488 H   0  0  0  0  0  0
  -27.8635  -11.2993   18.8454 H   0  0  0  0  0  0
  -27.3840  -12.6051   17.7884 H   0  0  0  0  0  0
  -27.6807  -14.2505   19.5361 H   0  0  0  0  0  0
  -28.7238  -12.0079   21.3454 H   0  0  0  0  0  0
  -28.4405  -13.6407   21.8646 H   0  0  0  0  0  0
  -25.2769   -9.5657   22.4717 H   0  0  0  0  0  0
  -23.9978   -7.4634   22.7514 H   0  0  0  0  0  0
  -21.0811   -8.8764   19.8970 H   0  0  0  0  0  0
  -22.3710  -10.9628   19.6133 H   0  0  0  0  0  0
  -21.2044   -7.6138   23.9683 H   0  0  0  0  0  0
  -21.1474   -6.0529   25.9056 H   0  0  0  0  0  0
  -22.0602   -2.7589   23.2878 H   0  0  0  0  0  0
  -22.4175  -11.9925   22.4789 H   0  0  0  0  0  0
  -21.1108  -13.1211   22.2524 H   0  0  0  0  0  0
  -24.6580  -15.8393   20.4921 H   0  0  0  0  0  0
  -26.2584  -15.6146   20.0104 H   0  0  0  0  0  0
  -26.7146  -32.5440   23.1076 H   0  0  0  0  0  0
  -24.9989  -33.9648   25.0390 H   0  0  0  0  0  0
  -22.7101  -31.2955   21.3879 H   0  0  0  0  0  0
  -23.3708  -35.9668   23.3295 H   0  0  0  0  0  0
  -24.3584  -36.8940   22.2076 H   0  0  0  0  0  0
  -23.7189  -37.6522   23.6654 H   0  0  0  0  0  0
  -26.0679  -31.5463   20.5689 H   0  0  0  0  0  0
  -26.8431  -30.8678   21.9708 H   0  0  0  0  0  0
  -28.1214  -29.0335   21.1567 H   0  0  0  0  0  0
  -26.0325  -25.8848   19.0827 H   0  0  0  0  0  0
  -23.9828  -27.2589   19.0497 H   0  0  0  0  0  0
  -23.7539  -30.5650   19.3905 H   0  0  0  0  0  0
  -22.7533  -29.2300   19.8529 H   0  0  0  0  0  0
  -25.1248  -36.1970   25.0866 H   0  0  0  0  0  0
  -21.0021  -28.3247   24.1435 H   0  0  0  0  0  0
  -20.5715  -26.2243   23.3626 H   0  0  0  0  0  0
  -21.6641  -26.7462   22.1202 H   0  0  0  0  0  0
  -19.6883  -25.6319   21.1255 H   0  0  0  0  0  0
  -19.6699  -27.3238   20.6788 H   0  0  0  0  0  0
  -17.4219  -26.6757   21.4048 H   0  0  0  0  0  0
  -18.0295  -26.0101   22.9015 H   0  0  0  0  0  0
  -19.7942  -30.7377   24.2179 H   0  0  0  0  0  0
  -17.5018  -31.6259   24.5270 H   0  0  0  0  0  0
  -15.5375  -30.3060   23.7645 H   0  0  0  0  0  0
  -15.8673  -28.0919   22.7010 H   0  0  0  0  0  0
  -24.5831  -30.7113   25.7876 H   0  0  0  0  0  0
  -24.8887  -32.2974   26.4839 H   0  0  0  0  0  0
  -25.8046  -30.9043   27.0268 H   0  0  0  0  0  0
  -26.2868  -29.6766   24.1170 H   0  0  0  0  0  0
  -27.4025  -29.7284   25.4623 H   0  0  0  0  0  0
  -27.8684  -30.4346   23.9320 H   0  0  0  0  0  0
  -27.2573  -33.3607   26.2041 H   0  0  0  0  0  0
  -28.3807  -32.6888   25.0326 H   0  0  0  0  0  0
  -28.0607  -31.8446   26.5398 H   0  0  0  0  0  0
  -28.2612  -38.0106   24.7572 H   0  0  0  0  0  0
  -28.1085  -36.2660   24.6211 H   0  0  0  0  0  0
  -27.2353  -37.1378   25.8884 H   0  0  0  0  0  0
  -20.9330  -29.8725   21.6911 H   0  0  0  0  0  0
  -26.0151  -38.2892   24.1463 H   0  0  0  0  0  0
  -30.9281  -20.1292   19.8589 H   0  0  0  0  0  0
  -31.4227  -17.7168   19.8416 H   0  0  0  0  0  0
  -27.6079  -16.9449   21.6680 H   0  0  0  0  0  0
  -26.0650  -18.5526   22.0631 H   0  0  0  0  0  0
  -26.1331  -20.0507   21.1602 H   0  0  0  0  0  0
  -26.8393  -19.9540   22.7921 H   0  0  0  0  0  0
  -29.2403  -21.8638   21.8514 H   0  0  0  0  0  0
  -27.6411  -21.6867   21.2473 H   0  0  0  0  0  0
  -28.7264  -22.0738   18.8807 H   0  0  0  0  0  0
  -30.0329  -22.8032   19.7581 H   0  0  0  0  0  0
  -27.0603  -23.7047   19.8036 H   0  0  0  0  0  0
  -28.2441  -24.3233   18.7122 H   0  0  0  0  0  0
  -29.4083  -25.0655   21.0760 H   0  0  0  0  0  0
  -27.7479  -25.1441   21.5408 H   0  0  0  0  0  0
  -28.9067  -15.2091   21.3456 H   0  0  0  0  0  0
  1 25  1  0  0  0
  1 30  2  0  0  0
  1 82  1  0  0  0
  2  3  1  0  0  0
  2 25  1  0  0  0
  2 83  1  0  0  0
  2 84  1  0  0  0
  3  4  1  0  0  0
  3 85  1  0  0  0
  3 86  1  0  0  0
  4  5  1  0  0  0
  4 87  1  0  0  0
  4 88  1  0  0  0
  5  6  1  0  0  0
  5 26  1  0  0  0
  5 89  1  0  0  0
  6 25  1  0  0  0
  6 90  1  0  0  0
  6 91  1  0  0  0
  7  8  2  0  0  0
  7 26  1  0  0  0
  7 29  1  0  0  0
  8  9  1  0  0  0
  8 22  1  0  0  0
  9 10  1  0  0  0
  9 27  2  0  0  0
 10 11  2  0  0  0
 10 15  1  0  0  0
 11 12  1  0  0  0
 11 92  1  0  0  0
 12 13  2  0  0  0
 12 93  1  0  0  0
 13 14  1  0  0  0
 13 31  1  0  0  0
 14 15  2  0  0  0
 14 94  1  0  0  0
 15 95  1  0  0  0
 16 17  2  0  0  0
 16 21  1  0  0  0
 16 31  1  0  0  0
 17 18  1  0  0  0
 17 96  1  0  0  0
 18 19  2  0  0  0
 18 97  1  0  0  0
 19 20  1  0  0  0
 19 24  1  0  0  0
 20 21  2  0  0  0
 20 98  1  0  0  0
 21 23  1  0  0  0
 22 28  1  0  0  0
 22 32  2  0  0  0
 26 27  1  0  0  0
 28 99  1  0  0  0
 28100  1  0  0  0
 29101  1  0  0  0
 29102  1  0  0  0
 33 34  1  0  0  0
 33 66  1  0  0  0
 33 70  2  0  0  0
 34 36  1  0  0  0
 34 59  1  0  0  0
 34103  1  0  0  0
 35 44  2  0  0  0
 35 45  1  0  0  0
 35 68  1  0  0  0
 36 56  1  0  0  0
 36104  1  0  0  0
 37 39  1  0  0  0
 37 47  1  0  0  0
 37 66  1  0  0  0
 37105  1  0  0  0
 38 43  2  0  0  0
 38 46  1  0  0  0
 38 47  1  0  0  0
 39 64  1  0  0  0
 39 67  2  0  0  0
 40 52  1  0  0  0
 40 53  2  0  0  0
 40 58  1  0  0  0
 41106  1  0  0  0
 41107  1  0  0  0
 41108  1  0  0  0
 41 48  1  0  0  0
 42 43  1  0  0  0
 42 66  1  0  0  0
 42109  1  0  0  0
 42110  1  0  0  0
 43 44  1  0  0  0
 44111  1  0  0  0
 45 46  2  0  0  0
 45112  1  0  0  0
 46113  1  0  0  0
 47114  1  0  0  0
 47115  1  0  0  0
 48 56  1  0  0  0
 48 65  1  0  0  0
 48116  1  0  0  0
 49 50  1  0  0  0
 49 53  1  0  0  0
 49 64  1  0  0  0
 49117  1  0  0  0
 50 51  1  0  0  0
 50118  1  0  0  0
 50119  1  0  0  0
 51 52  1  0  0  0
 51120  1  0  0  0
 51121  1  0  0  0
 52122  1  0  0  0
 52123  1  0  0  0
 53 54  1  0  0  0
 54 55  2  0  0  0
 54124  1  0  0  0
 55 57  1  0  0  0
 55125  1  0  0  0
 56 69  2  0  0  0
 57 58  2  0  0  0
 57126  1  0  0  0
 58127  1  0  0  0
 59 60  1  0  0  0
 59 61  1  0  0  0
 59 62  1  0  0  0
 60128  1  0  0  0
 60129  1  0  0  0
 60130  1  0  0  0
 61131  1  0  0  0
 61132  1  0  0  0
 61133  1  0  0  0
 62134  1  0  0  0
 62135  1  0  0  0
 62136  1  0  0  0
 63 65  1  0  0  0
 63137  1  0  0  0
 63138  1  0  0  0
 63139  1  0  0  0
 64140  1  0  0  0
 65141  1  0  0  0
 68 81  1  0  0  0
 71 72  2  0  0  0
 71 74  1  0  0  0
 71142  1  0  0  0
 72 76  1  0  0  0
 72143  1  0  0  0
 73 75  1  0  0  0
 73 76  2  0  0  0
 73144  1  0  0  0
 74 75  2  0  0  0
 74 78  1  0  0  0
 75 77  1  0  0  0
 76 82  1  0  0  0
 77145  1  0  0  0
 77146  1  0  0  0
 77147  1  0  0  0
 78 79  1  0  0  0
 78148  1  0  0  0
 78149  1  0  0  0
 79 80  1  0  0  0
 79150  1  0  0  0
 79151  1  0  0  0
 80 81  1  0  0  0
 80152  1  0  0  0
 80153  1  0  0  0
 81154  1  0  0  0
 81155  1  0  0  0
 82156  1  0  0  0
M  ISO  4   1 100  68 101  81 101  82 100
M  END
> <chiral flag>
0

> <version>
0

> <s_m_source_file>
/data/baiqing/PycharmProjects/Reinvent-master-3.2/result/LINK_invent/BTK/process_docking_weight1_custom_product_contain_oxygen_bond_distance_aromatic_linkinvent_7_9_3/rearranged_h_0130.sdf

> <i_m_source_file_index>
37

> <r_mmod_Potential_Energy-OPLS-2005>
108.129653930664

> <r_mmod_Stretch_Energy-OPLS-2005>
80.9955291748047

> <r_mmod_Bend_Energy-OPLS-2005>
172.392364501953

> <r_mmod_Torsional_Energy-OPLS-2005>
241.13899230957

> <r_mmod_Improper_Torsional_Energy-OPLS-2005>
4.29039430618286

> <r_mmod_Van_der_Waal_Energy-OPLS-2005>
133.989562988281

> <r_mmod_Electrostatic_Energy-OPLS-2005>
-372.778259277344

> <r_mmod_Solvation_Energy-OPLS-2005>
-199.953170776367

> <b_mmod_Minimization_Converged-OPLS-2005>
0

> <r_mmod_RMS_Derivative-OPLS-2005>
4.54835605621338

$$$$
37
                    3D
 Structure written by MMmdl.
150158  0  0  1  0            999 V2000
  -30.7132  -14.5758   20.5462 C   0  0  0  0  0  0
  -30.4224  -12.3706   19.4524 C   0  0  0  0  0  0
  -29.5026  -12.4977   18.2223 C   0  0  0  0  0  0
  -28.0286  -12.3380   18.6389 C   0  0  0  0  0  0
  -27.6534  -13.2185   19.8615 C   0  0  2  0  0  0
  -28.6976  -13.1005   20.9944 C   0  0  0  0  0  0
  -25.2541  -13.8176   20.5667 C   0  0  0  0  0  0
  -24.1821  -13.0433   20.9198 C   0  0  0  0  0  0
  -24.6406  -11.6913   20.8754 C   0  0  0  0  0  0
  -23.9081  -10.4292   21.0424 C   0  0  0  0  0  0
  -24.3631   -9.4196   21.9191 C   0  0  0  0  0  0
  -23.6301   -8.2235   22.0753 C   0  0  0  0  0  0
  -22.4278   -8.0280   21.3547 C   0  0  0  0  0  0
  -21.9927   -9.0260   20.4644 C   0  0  0  0  0  0
  -22.7263  -10.2137   20.3060 C   0  0  0  0  0  0
  -21.6858   -6.0730   22.5280 C   0  0  0  0  0  0
  -21.4016   -6.5637   23.8208 C   0  0  0  0  0  0
  -21.3657   -5.6786   24.9170 C   0  0  0  0  0  0
  -21.6051   -4.3052   24.7221 C   0  0  0  0  0  0
  -21.8820   -3.8143   23.4342 C   0  0  0  0  0  0
  -21.9190   -4.6961   22.3396 C   0  0  0  0  0  0
  -22.7842  -13.5224   21.1853 C   0  0  0  0  0  0
  -22.1656   -4.2145   21.0976 F   0  0  0  0  0  0
  -21.5631   -3.4535   25.7736 F   0  0  0  0  0  0
  -30.0153  -13.4059   20.4222 N   0  0  0  0  0  0
  -26.2992  -12.9373   20.3328 N   0  0  0  0  0  0
  -25.9342  -11.6525   20.5801 N   0  0  0  0  0  0
  -22.0490  -12.8213   22.0418 N   0  0  0  0  0  0
  -25.4177  -15.1888   20.4015 N   0  0  0  0  0  0
  -31.8661  -14.6858   20.1302 O   0  0  0  0  0  0
  -21.6635   -6.8881   21.4246 O   0  0  0  0  0  0
  -22.3520  -14.5525   20.6700 O   0  0  0  0  0  0
  -24.6205  -31.8634   23.2060 C   0  0  0  0  0  0
  -25.9073  -32.4799   23.8368 C   0  0  1  0  0  0
  -27.2245  -27.3692   20.1170 C   0  0  0  0  0  0
  -25.5906  -33.8597   24.2302 N   0  0  0  0  0  0
  -23.4121  -30.4882   21.5473 C   0  0  2  0  0  0
  -24.8593  -28.9482   20.1106 C   0  0  0  0  0  0
  -22.7436  -29.4641   22.4943 C   0  0  0  0  0  0
  -18.0282  -28.1398   22.8461 C   0  0  0  0  0  0
  -24.1488  -36.7309   23.2644 C   0  0  0  0  0  0
  -25.9479  -30.8115   21.3682 C   0  0  0  0  0  0
  -26.0252  -29.4422   20.7115 C   0  0  0  0  0  0
  -27.2153  -28.6646   20.7039 C   0  0  0  0  0  0
  -26.0430  -26.9103   19.4984 C   0  0  0  0  0  0
  -24.8673  -27.6844   19.4948 C   0  0  0  0  0  0
  -23.6236  -29.8224   20.1617 C   0  0  0  0  0  0
  -25.4112  -36.3101   24.0342 C   0  0  1  0  0  0
  -20.5871  -28.3690   23.1322 C   0  0  2  0  0  0
  -20.6742  -26.9399   22.5479 C   0  0  0  0  0  0
  -19.5778  -26.6394   21.5207 C   0  0  0  0  0  0
  -18.1927  -26.7967   22.1534 C   0  0  0  0  0  0
  -19.1521  -28.8849   23.2908 C   0  0  0  0  0  0
  -18.9440  -30.1432   23.8956 C   0  0  0  0  0  0
  -17.6445  -30.6573   24.0606 C   0  0  0  0  0  0
  -25.9046  -34.9466   23.5119 C   0  0  0  0  0  0
  -16.5340  -29.9097   23.6316 C   0  0  0  0  0  0
  -16.7266  -28.6521   23.0316 C   0  0  0  0  0  0
  -26.4477  -31.6593   25.0716 C   0  0  0  0  0  0
  -25.3728  -31.3710   26.1448 C   0  0  0  0  0  0
  -27.0319  -30.3032   24.6127 C   0  0  0  0  0  0
  -27.6043  -32.4317   25.7482 C   0  0  0  0  0  0
  -27.5577  -37.1810   24.8469 C   0  0  0  0  0  0
  -21.4144  -29.3045   22.3698 N   0  0  0  0  0  0
  -26.4297  -37.3785   23.9405 N   0  0  0  0  0  0
  -24.6790  -31.0694   22.0985 N   0  0  0  0  0  0
  -23.4185  -28.8170   23.2991 O   0  0  0  0  0  0
  -28.3286  -26.5258   20.1516 O   0  0  0  0  0  0
  -26.5608  -34.8925   22.4683 O   0  0  0  0  0  0
  -23.5381  -32.1411   23.7418 O   0  0  0  0  0  0
  -28.3391  -19.0264   20.2273 C   0  0  0  0  0  0
  -30.0325  -20.5215   20.7971 C   0  0  0  0  0  0
  -28.7324  -20.4099   20.3817 C   0  0  0  0  0  0
  -29.3127  -18.0858   20.5165 C   0  0  0  0  0  0
  -27.7452  -21.5115   20.1036 C   0  0  0  0  0  0
  -27.6803  -22.8807   20.1003 C   0  0  0  0  0  0
  -28.6698  -23.9680   20.3673 C   0  0  0  0  0  0
  -29.1708  -16.5557   20.3744 C   0  0  0  0  0  0
  -28.1115  -25.3150   20.9464 C   0  0  0  0  0  0
  -30.1112  -15.6616   21.0976 N   0  0  0  0  0  0
  -29.8811  -23.8429   20.1636 O   0  0  0  0  0  0
  -30.7745  -18.9307   20.9955 S   0  0  0  0  0  0
  -31.4668  -12.4634   19.1496 H   0  0  0  0  0  0
  -30.3328  -11.3793   19.9004 H   0  0  0  0  0  0
  -29.7687  -11.7483   17.4755 H   0  0  0  0  0  0
  -29.6507  -13.4685   17.7465 H   0  0  0  0  0  0
  -27.8694  -11.2860   18.8789 H   0  0  0  0  0  0
  -27.3712  -12.5586   17.7976 H   0  0  0  0  0  0
  -27.6706  -14.2493   19.5105 H   0  0  0  0  0  0
  -28.6983  -12.0958   21.4185 H   0  0  0  0  0  0
  -28.4522  -13.7761   21.8153 H   0  0  0  0  0  0
  -25.2787   -9.5655   22.4755 H   0  0  0  0  0  0
  -23.9998   -7.4624   22.7483 H   0  0  0  0  0  0
  -21.0847   -8.8801   19.8951 H   0  0  0  0  0  0
  -22.3748  -10.9673   19.6150 H   0  0  0  0  0  0
  -21.2018   -7.6146   23.9720 H   0  0  0  0  0  0
  -21.1477   -6.0512   25.9073 H   0  0  0  0  0  0
  -22.0606   -2.7608   23.2847 H   0  0  0  0  0  0
  -22.4116  -11.9863   22.4771 H   0  0  0  0  0  0
  -21.1103  -13.1219   22.2637 H   0  0  0  0  0  0
  -24.6459  -15.8365   20.5144 H   0  0  0  0  0  0
  -26.2601  -15.6328   20.0637 H   0  0  0  0  0  0
  -26.7146  -32.5495   23.1125 H   0  0  0  0  0  0
  -25.0048  -33.9741   25.0441 H   0  0  0  0  0  0
  -22.7063  -31.3093   21.4066 H   0  0  0  0  0  0
  -23.3739  -35.9650   23.3318 H   0  0  0  0  0  0
  -24.3591  -36.8909   22.2057 H   0  0  0  0  0  0
  -23.7242  -37.6521   23.6652 H   0  0  0  0  0  0
  -26.0680  -31.5769   20.6003 H   0  0  0  0  0  0
  -26.8334  -30.8634   21.9906 H   0  0  0  0  0  0
  -28.1121  -29.0376   21.1795 H   0  0  0  0  0  0
  -26.0233  -25.9351   19.0336 H   0  0  0  0  0  0
  -23.9738  -27.2970   19.0247 H   0  0  0  0  0  0
  -23.7380  -30.5990   19.4052 H   0  0  0  0  0  0
  -22.7449  -29.2490   19.8599 H   0  0  0  0  0  0
  -25.1285  -36.1969   25.0836 H   0  0  0  0  0  0
  -20.9990  -28.3300   24.1433 H   0  0  0  0  0  0
  -20.5516  -26.2336   23.3706 H   0  0  0  0  0  0
  -21.6641  -26.7372   22.1368 H   0  0  0  0  0  0
  -19.6963  -25.6322   21.1185 H   0  0  0  0  0  0
  -19.6775  -27.3229   20.6773 H   0  0  0  0  0  0
  -17.4259  -26.6869   21.3852 H   0  0  0  0  0  0
  -18.0226  -26.0044   22.8836 H   0  0  0  0  0  0
  -19.7908  -30.7219   24.2379 H   0  0  0  0  0  0
  -17.5020  -31.6216   24.5283 H   0  0  0  0  0  0
  -15.5336  -30.2997   23.7635 H   0  0  0  0  0  0
  -15.8660  -28.0858   22.7012 H   0  0  0  0  0  0
  -24.5895  -30.7064   25.7774 H   0  0  0  0  0  0
  -24.8919  -32.2868   26.4901 H   0  0  0  0  0  0
  -25.8067  -30.8864   27.0203 H   0  0  0  0  0  0
  -26.2878  -29.6777   24.1177 H   0  0  0  0  0  0
  -27.4068  -29.7287   25.4605 H   0  0  0  0  0  0
  -27.8723  -30.4334   23.9305 H   0  0  0  0  0  0
  -27.2661  -33.3614   26.2071 H   0  0  0  0  0  0
  -28.3856  -32.6882   25.0314 H   0  0  0  0  0  0
  -28.0712  -31.8432   26.5388 H   0  0  0  0  0  0
  -28.2613  -38.0090   24.7497 H   0  0  0  0  0  0
  -28.1059  -36.2619   24.6325 H   0  0  0  0  0  0
  -27.2300  -37.1503   25.8876 H   0  0  0  0  0  0
  -20.9301  -29.8774   21.6926 H   0  0  0  0  0  0
  -26.0189  -38.2871   24.1375 H   0  0  0  0  0  0
  -27.3447  -18.7606   19.8973 H   0  0  0  0  0  0
  -30.6040  -21.4212   20.9971 H   0  0  0  0  0  0
  -26.7876  -21.0873   19.8355 H   0  0  0  0  0  0
  -26.7052  -23.2738   19.8512 H   0  0  0  0  0  0
  -28.1724  -16.2796   20.7120 H   0  0  0  0  0  0
  -29.2006  -16.3088   19.3110 H   0  0  0  0  0  0
  -27.0514  -25.1755   21.1616 H   0  0  0  0  0  0
  -28.5857  -25.4716   21.9155 H   0  0  0  0  0  0
  -30.7888  -16.2240   21.5909 H   0  0  0  0  0  0
  1 25  1  0  0  0
  1 30  2  0  0  0
  1 80  1  0  0  0
  2  3  1  0  0  0
  2 25  1  0  0  0
  2 83  1  0  0  0
  2 84  1  0  0  0
  3  4  1  0  0  0
  3 85  1  0  0  0
  3 86  1  0  0  0
  4  5  1  0  0  0
  4 87  1  0  0  0
  4 88  1  0  0  0
  5  6  1  0  0  0
  5 26  1  0  0  0
  5 89  1  0  0  0
  6 25  1  0  0  0
  6 90  1  0  0  0
  6 91  1  0  0  0
  7  8  2  0  0  0
  7 26  1  0  0  0
  7 29  1  0  0  0
  8  9  1  0  0  0
  8 22  1  0  0  0
  9 10  1  0  0  0
  9 27  2  0  0  0
 10 11  2  0  0  0
 10 15  1  0  0  0
 11 12  1  0  0  0
 11 92  1  0  0  0
 12 13  2  0  0  0
 12 93  1  0  0  0
 13 14  1  0  0  0
 13 31  1  0  0  0
 14 15  2  0  0  0
 14 94  1  0  0  0
 15 95  1  0  0  0
 16 17  2  0  0  0
 16 21  1  0  0  0
 16 31  1  0  0  0
 17 18  1  0  0  0
 17 96  1  0  0  0
 18 19  2  0  0  0
 18 97  1  0  0  0
 19 20  1  0  0  0
 19 24  1  0  0  0
 20 21  2  0  0  0
 20 98  1  0  0  0
 21 23  1  0  0  0
 22 28  1  0  0  0
 22 32  2  0  0  0
 26 27  1  0  0  0
 28 99  1  0  0  0
 28100  1  0  0  0
 29101  1  0  0  0
 29102  1  0  0  0
 33 34  1  0  0  0
 33 66  1  0  0  0
 33 70  2  0  0  0
 34 36  1  0  0  0
 34 59  1  0  0  0
 34103  1  0  0  0
 35 44  2  0  0  0
 35 45  1  0  0  0
 35 68  1  0  0  0
 36 56  1  0  0  0
 36104  1  0  0  0
 37 39  1  0  0  0
 37 47  1  0  0  0
 37 66  1  0  0  0
 37105  1  0  0  0
 38 43  2  0  0  0
 38 46  1  0  0  0
 38 47  1  0  0  0
 39 64  1  0  0  0
 39 67  2  0  0  0
 40 52  1  0  0  0
 40 53  2  0  0  0
 40 58  1  0  0  0
 41106  1  0  0  0
 41107  1  0  0  0
 41108  1  0  0  0
 41 48  1  0  0  0
 42 43  1  0  0  0
 42 66  1  0  0  0
 42109  1  0  0  0
 42110  1  0  0  0
 43 44  1  0  0  0
 44111  1  0  0  0
 45 46  2  0  0  0
 45112  1  0  0  0
 46113  1  0  0  0
 47114  1  0  0  0
 47115  1  0  0  0
 48 56  1  0  0  0
 48 65  1  0  0  0
 48116  1  0  0  0
 49 50  1  0  0  0
 49 53  1  0  0  0
 49 64  1  0  0  0
 49117  1  0  0  0
 50 51  1  0  0  0
 50118  1  0  0  0
 50119  1  0  0  0
 51 52  1  0  0  0
 51120  1  0  0  0
 51121  1  0  0  0
 52122  1  0  0  0
 52123  1  0  0  0
 53 54  1  0  0  0
 54 55  2  0  0  0
 54124  1  0  0  0
 55 57  1  0  0  0
 55125  1  0  0  0
 56 69  2  0  0  0
 57 58  2  0  0  0
 57126  1  0  0  0
 58127  1  0  0  0
 59 60  1  0  0  0
 59 61  1  0  0  0
 59 62  1  0  0  0
 60128  1  0  0  0
 60129  1  0  0  0
 60130  1  0  0  0
 61131  1  0  0  0
 61132  1  0  0  0
 61133  1  0  0  0
 62134  1  0  0  0
 62135  1  0  0  0
 62136  1  0  0  0
 63 65  1  0  0  0
 63137  1  0  0  0
 63138  1  0  0  0
 63139  1  0  0  0
 64140  1  0  0  0
 65141  1  0  0  0
 68 79  1  0  0  0
 71 73  1  0  0  0
 71 74  2  0  0  0
 71142  1  0  0  0
 72 73  2  0  0  0
 72 82  1  0  0  0
 72143  1  0  0  0
 73 75  1  0  0  0
 74 78  1  0  0  0
 74 82  1  0  0  0
 75 76  2  0  0  0
 75144  1  0  0  0
 76 77  1  0  0  0
 76145  1  0  0  0
 77 79  1  0  0  0
 77 81  2  0  0  0
 78 80  1  0  0  0
 78146  1  0  0  0
 78147  1  0  0  0
 79148  1  0  0  0
 79149  1  0  0  0
 80150  1  0  0  0
M  ISO  4   1 100  68 101  79 101  80 100
M  END
> <chiral flag>
0

> <version>
0

> <s_m_source_file>
/data/baiqing/PycharmProjects/Reinvent-master-3.2/result/LINK_invent/BTK/process_docking_weight1_custom_product_contain_oxygen_bond_distance_aromatic_linkinvent_7_9_3/rearranged_h_0130.sdf

> <i_m_source_file_index>
38

> <r_mmod_Potential_Energy-OPLS-2005>
42.7831916809082

> <r_mmod_Stretch_Energy-OPLS-2005>
54.672607421875

> <r_mmod_Bend_Energy-OPLS-2005>
172.185668945312

> <r_mmod_Torsional_Energy-OPLS-2005>
288.628295898438

> <r_mmod_Improper_Torsional_Energy-OPLS-2005>
6.45768451690674

> <r_mmod_Van_der_Waal_Energy-OPLS-2005>
112.265510559082

> <r_mmod_Electrostatic_Energy-OPLS-2005>
-395.595916748047

> <r_mmod_Solvation_Energy-OPLS-2005>
-229.954864501953

> <b_mmod_Minimization_Converged-OPLS-2005>
0

> <r_mmod_RMS_Derivative-OPLS-2005>
2.01702570915222

$$$$
38
                    3D
 Structure written by MMmdl.
151159  0  0  1  0            999 V2000
  -30.6325  -14.6899   20.4960 C   0  0  0  0  0  0
  -30.4368  -12.4248   19.4772 C   0  0  0  0  0  0
  -29.5152  -12.5265   18.2393 C   0  0  0  0  0  0
  -28.0356  -12.3556   18.6391 C   0  0  0  0  0  0
  -27.6515  -13.2229   19.8672 C   0  0  2  0  0  0
  -28.6923  -13.0722   20.9958 C   0  0  0  0  0  0
  -25.2545  -13.8179   20.5704 C   0  0  0  0  0  0
  -24.1816  -13.0433   20.9181 C   0  0  0  0  0  0
  -24.6394  -11.6907   20.8726 C   0  0  0  0  0  0
  -23.9068  -10.4290   21.0396 C   0  0  0  0  0  0
  -24.3618   -9.4206   21.9174 C   0  0  0  0  0  0
  -23.6289   -8.2245   22.0750 C   0  0  0  0  0  0
  -22.4267   -8.0287   21.3548 C   0  0  0  0  0  0
  -21.9906   -9.0259   20.4646 C   0  0  0  0  0  0
  -22.7239  -10.2133   20.3049 C   0  0  0  0  0  0
  -21.6852   -6.0736   22.5280 C   0  0  0  0  0  0
  -21.4016   -6.5641   23.8215 C   0  0  0  0  0  0
  -21.3659   -5.6794   24.9178 C   0  0  0  0  0  0
  -21.6043   -4.3057   24.7224 C   0  0  0  0  0  0
  -21.8818   -3.8149   23.4345 C   0  0  0  0  0  0
  -21.9192   -4.6965   22.3403 C   0  0  0  0  0  0
  -22.7838  -13.5221   21.1857 C   0  0  0  0  0  0
  -22.1662   -4.2151   21.0980 F   0  0  0  0  0  0
  -21.5628   -3.4540   25.7736 F   0  0  0  0  0  0
  -30.0047  -13.4579   20.4507 N   0  0  0  0  0  0
  -26.2979  -12.9374   20.3329 N   0  0  0  0  0  0
  -25.9323  -11.6517   20.5730 N   0  0  0  0  0  0
  -22.0489  -12.8209   22.0416 N   0  0  0  0  0  0
  -25.4250  -15.1905   20.4169 N   0  0  0  0  0  0
  -31.7817  -14.8082   20.0556 O   0  0  0  0  0  0
  -21.6637   -6.8879   21.4243 O   0  0  0  0  0  0
  -22.3515  -14.5528   20.6712 O   0  0  0  0  0  0
  -24.6284  -31.8587   23.2006 C   0  0  0  0  0  0
  -25.9126  -32.4770   23.8339 C   0  0  1  0  0  0
  -27.2237  -27.2895   20.1091 C   0  0  0  0  0  0
  -25.5931  -33.8570   24.2266 N   0  0  0  0  0  0
  -23.4230  -30.4828   21.5443 C   0  0  2  0  0  0
  -24.8685  -28.9365   20.1095 C   0  0  0  0  0  0
  -22.7485  -29.4623   22.4926 C   0  0  0  0  0  0
  -18.0292  -28.1385   22.8491 C   0  0  0  0  0  0
  -24.1492  -36.7295   23.2637 C   0  0  0  0  0  0
  -25.9673  -30.7778   21.3780 C   0  0  0  0  0  0
  -26.0382  -29.4025   20.7206 C   0  0  0  0  0  0
  -27.2128  -28.5880   20.7181 C   0  0  0  0  0  0
  -26.0288  -26.8948   19.4595 C   0  0  0  0  0  0
  -24.8674  -27.6886   19.4725 C   0  0  0  0  0  0
  -23.6380  -29.8190   20.1594 C   0  0  0  0  0  0
  -25.4116  -36.3079   24.0325 C   0  0  1  0  0  0
  -20.5893  -28.3697   23.1278 C   0  0  2  0  0  0
  -20.6780  -26.9417   22.5414 C   0  0  0  0  0  0
  -19.5753  -26.6382   21.5220 C   0  0  0  0  0  0
  -18.1933  -26.7928   22.1631 C   0  0  0  0  0  0
  -19.1544  -28.8858   23.2879 C   0  0  0  0  0  0
  -18.9463  -30.1458   23.8900 C   0  0  0  0  0  0
  -17.6463  -30.6588   24.0562 C   0  0  0  0  0  0
  -25.9055  -34.9449   23.5098 C   0  0  0  0  0  0
  -16.5355  -29.9087   23.6326 C   0  0  0  0  0  0
  -16.7278  -28.6501   23.0355 C   0  0  0  0  0  0
  -26.4495  -31.6579   25.0718 C   0  0  0  0  0  0
  -25.3715  -31.3742   26.1438 C   0  0  0  0  0  0
  -27.0328  -30.2992   24.6192 C   0  0  0  0  0  0
  -27.6054  -32.4309   25.7495 C   0  0  0  0  0  0
  -27.5581  -37.1803   24.8460 C   0  0  0  0  0  0
  -21.4197  -29.3049   22.3668 N   0  0  0  0  0  0
  -26.4293  -37.3775   23.9404 N   0  0  0  0  0  0
  -24.6921  -31.0571   22.0973 N   0  0  0  0  0  0
  -23.4199  -28.8164   23.3015 O   0  0  0  0  0  0
  -28.3427  -26.4315   20.1862 O   0  0  0  0  0  0
  -26.5631  -34.8921   22.4670 O   0  0  0  0  0  0
  -23.5441  -32.1403   23.7315 O   0  0  0  0  0  0
  -30.2313  -18.5036   18.0654 C   0  0  0  0  0  0
  -29.9475  -19.7565   18.6440 C   0  0  0  0  0  0
  -30.2266  -17.3204   18.8314 C   0  0  0  0  0  0
  -29.6579  -18.6487   20.7788 C   0  0  0  0  0  0
  -29.6576  -19.8849   20.0196 C   0  0  0  0  0  0
  -29.9435  -17.3352   20.2170 C   0  0  0  0  0  0
  -29.3646  -21.2848   20.5869 C   0  0  0  0  0  0
  -29.1189  -22.4681   19.9110 C   0  0  0  0  0  0
  -29.8591  -15.9954   21.0045 C   0  0  0  0  0  0
  -28.8988  -23.8600   20.5165 C   0  0  0  0  0  0
  -28.3089  -25.0413   19.6318 C   0  0  0  0  0  0
  -29.1856  -15.9851   22.0782 N   0  0  0  0  0  0
  -29.1629  -24.0916   21.7008 O   0  0  0  0  0  0
  -31.4797  -12.5397   19.1778 H   0  0  0  0  0  0
  -30.3739  -11.4304   19.9226 H   0  0  0  0  0  0
  -29.7913  -11.7754   17.4978 H   0  0  0  0  0  0
  -29.6542  -13.4966   17.7599 H   0  0  0  0  0  0
  -27.8764  -11.3009   18.8678 H   0  0  0  0  0  0
  -27.3853  -12.5856   17.7944 H   0  0  0  0  0  0
  -27.6702  -14.2611   19.5358 H   0  0  0  0  0  0
  -28.7217  -12.0382   21.3425 H   0  0  0  0  0  0
  -28.4068  -13.6457   21.8739 H   0  0  0  0  0  0
  -25.2766   -9.5684   22.4742 H   0  0  0  0  0  0
  -24.0005   -7.4633   22.7461 H   0  0  0  0  0  0
  -21.0843   -8.8774   19.8944 H   0  0  0  0  0  0
  -22.3699  -10.9671   19.6156 H   0  0  0  0  0  0
  -21.2010   -7.6148   23.9721 H   0  0  0  0  0  0
  -21.1483   -6.0524   25.9082 H   0  0  0  0  0  0
  -22.0596   -2.7610   23.2846 H   0  0  0  0  0  0
  -22.4118  -11.9874   22.4806 H   0  0  0  0  0  0
  -21.1109  -13.1233   22.2631 H   0  0  0  0  0  0
  -24.6670  -15.8504   20.5539 H   0  0  0  0  0  0
  -26.2977  -15.6361   20.1630 H   0  0  0  0  0  0
  -26.7197  -32.5429   23.1085 H   0  0  0  0  0  0
  -25.0052  -33.9709   25.0394 H   0  0  0  0  0  0
  -22.7182  -31.3043   21.4010 H   0  0  0  0  0  0
  -23.3752  -35.9628   23.3288 H   0  0  0  0  0  0
  -24.3586  -36.8932   22.2054 H   0  0  0  0  0  0
  -23.7244  -37.6493   23.6672 H   0  0  0  0  0  0
  -26.1026  -31.5381   20.6074 H   0  0  0  0  0  0
  -26.8469  -30.8274   22.0080 H   0  0  0  0  0  0
  -28.1060  -28.9392   21.2158 H   0  0  0  0  0  0
  -25.9334  -25.9619   18.9311 H   0  0  0  0  0  0
  -23.9728  -27.3291   18.9826 H   0  0  0  0  0  0
  -23.7582  -30.5958   19.4034 H   0  0  0  0  0  0
  -22.7572  -29.2498   19.8572 H   0  0  0  0  0  0
  -25.1295  -36.1930   25.0818 H   0  0  0  0  0  0
  -20.9990  -28.3277   24.1395 H   0  0  0  0  0  0
  -20.5687  -26.2309   23.3618 H   0  0  0  0  0  0
  -21.6646  -26.7444   22.1203 H   0  0  0  0  0  0
  -19.6913  -25.6290   21.1253 H   0  0  0  0  0  0
  -19.6686  -27.3190   20.6747 H   0  0  0  0  0  0
  -17.4203  -26.6678   21.4034 H   0  0  0  0  0  0
  -18.0329  -26.0070   22.9028 H   0  0  0  0  0  0
  -19.7939  -30.7273   24.2269 H   0  0  0  0  0  0
  -17.5018  -31.6269   24.5164 H   0  0  0  0  0  0
  -15.5356  -30.2991   23.7642 H   0  0  0  0  0  0
  -15.8678  -28.0818   22.7071 H   0  0  0  0  0  0
  -24.5871  -30.7117   25.7759 H   0  0  0  0  0  0
  -24.8929  -32.2922   26.4857 H   0  0  0  0  0  0
  -25.8017  -30.8908   27.0216 H   0  0  0  0  0  0
  -26.2902  -29.6747   24.1210 H   0  0  0  0  0  0
  -27.4002  -29.7249   25.4705 H   0  0  0  0  0  0
  -27.8787  -30.4258   23.9431 H   0  0  0  0  0  0
  -27.2666  -33.3612   26.2063 H   0  0  0  0  0  0
  -28.3872  -32.6857   25.0330 H   0  0  0  0  0  0
  -28.0707  -31.8432   26.5418 H   0  0  0  0  0  0
  -28.2589  -38.0110   24.7511 H   0  0  0  0  0  0
  -28.1089  -36.2639   24.6278 H   0  0  0  0  0  0
  -27.2303  -37.1442   25.8864 H   0  0  0  0  0  0
  -20.9376  -29.8775   21.6879 H   0  0  0  0  0  0
  -26.0172  -38.2851   24.1401 H   0  0  0  0  0  0
  -30.4500  -18.4479   17.0079 H   0  0  0  0  0  0
  -29.9733  -20.6264   18.0047 H   0  0  0  0  0  0
  -30.4275  -16.3881   18.3225 H   0  0  0  0  0  0
  -29.4263  -18.7131   21.8323 H   0  0  0  0  0  0
  -29.3821  -21.3413   21.6667 H   0  0  0  0  0  0
  -29.0799  -22.4455   18.8329 H   0  0  0  0  0  0
  -27.3048  -24.7035   19.4046 H   0  0  0  0  0  0
  -28.8468  -25.0507   18.6840 H   0  0  0  0  0  0
  -28.7693  -16.8907   22.2543 H   0  0  0  0  0  0
  1 25  1  0  0  0
  1 30  2  0  0  0
  1 79  1  0  0  0
  2  3  1  0  0  0
  2 25  1  0  0  0
  2 84  1  0  0  0
  2 85  1  0  0  0
  3  4  1  0  0  0
  3 86  1  0  0  0
  3 87  1  0  0  0
  4  5  1  0  0  0
  4 88  1  0  0  0
  4 89  1  0  0  0
  5  6  1  0  0  0
  5 26  1  0  0  0
  5 90  1  0  0  0
  6 25  1  0  0  0
  6 91  1  0  0  0
  6 92  1  0  0  0
  7  8  2  0  0  0
  7 26  1  0  0  0
  7 29  1  0  0  0
  8  9  1  0  0  0
  8 22  1  0  0  0
  9 10  1  0  0  0
  9 27  2  0  0  0
 10 11  2  0  0  0
 10 15  1  0  0  0
 11 12  1  0  0  0
 11 93  1  0  0  0
 12 13  2  0  0  0
 12 94  1  0  0  0
 13 14  1  0  0  0
 13 31  1  0  0  0
 14 15  2  0  0  0
 14 95  1  0  0  0
 15 96  1  0  0  0
 16 17  2  0  0  0
 16 21  1  0  0  0
 16 31  1  0  0  0
 17 18  1  0  0  0
 17 97  1  0  0  0
 18 19  2  0  0  0
 18 98  1  0  0  0
 19 20  1  0  0  0
 19 24  1  0  0  0
 20 21  2  0  0  0
 20 99  1  0  0  0
 21 23  1  0  0  0
 22 28  1  0  0  0
 22 32  2  0  0  0
 26 27  1  0  0  0
 28100  1  0  0  0
 28101  1  0  0  0
 29102  1  0  0  0
 29103  1  0  0  0
 33 34  1  0  0  0
 33 66  1  0  0  0
 33 70  2  0  0  0
 34 36  1  0  0  0
 34 59  1  0  0  0
 34104  1  0  0  0
 35 44  2  0  0  0
 35 45  1  0  0  0
 35 68  1  0  0  0
 36 56  1  0  0  0
 36105  1  0  0  0
 37 39  1  0  0  0
 37 47  1  0  0  0
 37 66  1  0  0  0
 37106  1  0  0  0
 38 43  2  0  0  0
 38 46  1  0  0  0
 38 47  1  0  0  0
 39 64  1  0  0  0
 39 67  2  0  0  0
 40 52  1  0  0  0
 40 53  2  0  0  0
 40 58  1  0  0  0
 41107  1  0  0  0
 41108  1  0  0  0
 41109  1  0  0  0
 41 48  1  0  0  0
 42 43  1  0  0  0
 42 66  1  0  0  0
 42110  1  0  0  0
 42111  1  0  0  0
 43 44  1  0  0  0
 44112  1  0  0  0
 45 46  2  0  0  0
 45113  1  0  0  0
 46114  1  0  0  0
 47115  1  0  0  0
 47116  1  0  0  0
 48 56  1  0  0  0
 48 65  1  0  0  0
 48117  1  0  0  0
 49 50  1  0  0  0
 49 53  1  0  0  0
 49 64  1  0  0  0
 49118  1  0  0  0
 50 51  1  0  0  0
 50119  1  0  0  0
 50120  1  0  0  0
 51 52  1  0  0  0
 51121  1  0  0  0
 51122  1  0  0  0
 52123  1  0  0  0
 52124  1  0  0  0
 53 54  1  0  0  0
 54 55  2  0  0  0
 54125  1  0  0  0
 55 57  1  0  0  0
 55126  1  0  0  0
 56 69  2  0  0  0
 57 58  2  0  0  0
 57127  1  0  0  0
 58128  1  0  0  0
 59 60  1  0  0  0
 59 61  1  0  0  0
 59 62  1  0  0  0
 60129  1  0  0  0
 60130  1  0  0  0
 60131  1  0  0  0
 61132  1  0  0  0
 61133  1  0  0  0
 61134  1  0  0  0
 62135  1  0  0  0
 62136  1  0  0  0
 62137  1  0  0  0
 63 65  1  0  0  0
 63138  1  0  0  0
 63139  1  0  0  0
 63140  1  0  0  0
 64141  1  0  0  0
 65142  1  0  0  0
 68 81  1  0  0  0
 71 72  2  0  0  0
 71 73  1  0  0  0
 71143  1  0  0  0
 72 75  1  0  0  0
 72144  1  0  0  0
 73 76  2  0  0  0
 73145  1  0  0  0
 74 75  2  0  0  0
 74 76  1  0  0  0
 74146  1  0  0  0
 75 77  1  0  0  0
 76 79  1  0  0  0
 77 78  2  0  0  0
 77147  1  0  0  0
 78 80  1  0  0  0
 78148  1  0  0  0
 79 82  2  0  0  0
 80 81  1  0  0  0
 80 83  2  0  0  0
 81149  1  0  0  0
 81150  1  0  0  0
 82151  1  0  0  0
M  ISO  4   1 100  68 101  79 100  81 101
M  END
> <chiral flag>
0

> <version>
0

> <s_m_source_file>
/data/baiqing/PycharmProjects/Reinvent-master-3.2/result/LINK_invent/BTK/process_docking_weight1_custom_product_contain_oxygen_bond_distance_aromatic_linkinvent_7_9_3/rearranged_h_0130.sdf

> <i_m_source_file_index>
39

> <r_mmod_Potential_Energy-OPLS-2005>
251.221313476562

> <r_mmod_Stretch_Energy-OPLS-2005>
116.692314147949

> <r_mmod_Bend_Energy-OPLS-2005>
152.332183837891

> <r_mmod_Torsional_Energy-OPLS-2005>
194.853973388672

> <r_mmod_Improper_Torsional_Energy-OPLS-2005>
2.9155740737915

> <r_mmod_Van_der_Waal_Energy-OPLS-2005>
150.354217529297

> <r_mmod_Electrostatic_Energy-OPLS-2005>
-203.153900146484

> <r_mmod_Solvation_Energy-OPLS-2005>
-223.993530273438

> <b_mmod_Minimization_Converged-OPLS-2005>
0

> <r_mmod_RMS_Derivative-OPLS-2005>
0.687828779220581

$$$$
39
                    3D
 Structure written by MMmdl.
168176  0  0  1  0            999 V2000
  -30.7024  -14.4419   20.5481 C   0  0  0  0  0  0
  -30.4158  -12.2795   19.4228 C   0  0  0  0  0  0
  -29.4939  -12.5043   18.2086 C   0  0  0  0  0  0
  -28.0121  -12.3843   18.6135 C   0  0  0  0  0  0
  -27.6630  -13.2068   19.8823 C   0  0  2  0  0  0
  -28.7046  -12.9771   21.0007 C   0  0  0  0  0  0
  -25.2624  -13.8156   20.5837 C   0  0  0  0  0  0
  -24.1830  -13.0431   20.9211 C   0  0  0  0  0  0
  -24.6391  -11.6889   20.8739 C   0  0  0  0  0  0
  -23.9061  -10.4290   21.0427 C   0  0  0  0  0  0
  -24.3609   -9.4204   21.9209 C   0  0  0  0  0  0
  -23.6277   -8.2232   22.0726 C   0  0  0  0  0  0
  -22.4250   -8.0311   21.3536 C   0  0  0  0  0  0
  -21.9915   -9.0279   20.4621 C   0  0  0  0  0  0
  -22.7253  -10.2149   20.3047 C   0  0  0  0  0  0
  -21.6840   -6.0763   22.5288 C   0  0  0  0  0  0
  -21.4019   -6.5661   23.8240 C   0  0  0  0  0  0
  -21.3644   -5.6800   24.9192 C   0  0  0  0  0  0
  -21.6054   -4.3057   24.7226 C   0  0  0  0  0  0
  -21.8814   -3.8169   23.4331 C   0  0  0  0  0  0
  -21.9172   -4.6998   22.3408 C   0  0  0  0  0  0
  -22.7869  -13.5240   21.1869 C   0  0  0  0  0  0
  -22.1625   -4.2194   21.0971 F   0  0  0  0  0  0
  -21.5600   -3.4526   25.7716 F   0  0  0  0  0  0
  -30.0388  -13.2620   20.4447 N   0  0  0  0  0  0
  -26.3036  -12.9334   20.3383 N   0  0  0  0  0  0
  -25.9309  -11.6477   20.5728 N   0  0  0  0  0  0
  -22.0484  -12.8186   22.0383 N   0  0  0  0  0  0
  -25.4394  -15.1891   20.4507 N   0  0  0  0  0  0
  -31.8451  -14.6211   20.1146 O   0  0  0  0  0  0
  -21.6600   -6.8911   21.4250 O   0  0  0  0  0  0
  -22.3579  -14.5550   20.6733 O   0  0  0  0  0  0
  -24.6097  -31.8662   23.2089 C   0  0  0  0  0  0
  -25.9012  -32.4796   23.8368 C   0  0  1  0  0  0
  -27.2504  -27.4569   20.0797 C   0  0  0  0  0  0
  -25.5871  -33.8599   24.2287 N   0  0  0  0  0  0
  -23.3964  -30.4870   21.5498 C   0  0  2  0  0  0
  -24.8445  -28.9530   20.1124 C   0  0  0  0  0  0
  -22.7370  -29.4651   22.5027 C   0  0  0  0  0  0
  -18.0238  -28.1412   22.8517 C   0  0  0  0  0  0
  -24.1486  -36.7319   23.2635 C   0  0  0  0  0  0
  -25.9194  -30.8380   21.3556 C   0  0  0  0  0  0
  -25.9990  -29.4700   20.7119 C   0  0  0  0  0  0
  -27.1953  -28.7205   20.7086 C   0  0  0  0  0  0
  -26.0740  -26.9426   19.4867 C   0  0  0  0  0  0
  -24.8753  -27.6843   19.5046 C   0  0  0  0  0  0
  -23.6017  -29.8136   20.1640 C   0  0  0  0  0  0
  -25.4093  -36.3085   24.0349 C   0  0  1  0  0  0
  -20.5827  -28.3677   23.1366 C   0  0  2  0  0  0
  -20.6737  -26.9417   22.5467 C   0  0  0  0  0  0
  -19.5717  -26.6418   21.5260 C   0  0  0  0  0  0
  -18.1885  -26.7968   22.1640 C   0  0  0  0  0  0
  -19.1498  -28.8862   23.2941 C   0  0  0  0  0  0
  -18.9414  -30.1469   23.8953 C   0  0  0  0  0  0
  -17.6419  -30.6614   24.0590 C   0  0  0  0  0  0
  -25.9030  -34.9467   23.5103 C   0  0  0  0  0  0
  -16.5310  -29.9125   23.6347 C   0  0  0  0  0  0
  -16.7216  -28.6550   23.0348 C   0  0  0  0  0  0
  -26.4456  -31.6599   25.0702 C   0  0  0  0  0  0
  -25.3739  -31.3683   26.1458 C   0  0  0  0  0  0
  -27.0265  -30.3050   24.6053 C   0  0  0  0  0  0
  -27.6017  -32.4347   25.7473 C   0  0  0  0  0  0
  -27.5584  -37.1774   24.8421 C   0  0  0  0  0  0
  -21.4100  -29.3039   22.3775 N   0  0  0  0  0  0
  -26.4257  -37.3816   23.9434 N   0  0  0  0  0  0
  -24.6603  -31.0782   22.0979 N   0  0  0  0  0  0
  -23.4157  -28.8205   23.3068 O   0  0  0  0  0  0
  -28.4568  -26.7868   20.0897 O   0  0  0  0  0  0
  -26.5637  -34.8935   22.4676 O   0  0  0  0  0  0
  -23.5308  -32.1401   23.7515 O   0  0  0  0  0  0
  -30.9114  -17.6757   21.3757 C   0  0  0  0  0  0
  -29.6405  -18.5907   19.0429 C   0  0  0  0  0  0
  -31.0711  -19.0215   20.9837 C   0  0  0  0  0  0
  -30.4205  -19.4873   19.8126 C   0  0  0  0  0  0
  -30.1352  -16.7894   20.6018 C   0  0  0  0  0  0
  -29.5088  -17.2294   19.4107 C   0  0  0  0  0  0
  -28.6571  -24.3541   19.8018 C   0  0  0  0  0  0
  -31.9475  -19.9362   21.8280 C   0  0  0  0  0  0
  -26.1584  -15.6941   17.0351 C   0  0  0  0  0  0
  -30.5697  -20.9269   19.3282 C   0  0  0  0  0  0
  -29.6377  -23.3037   19.2652 C   0  0  0  0  0  0
  -28.7168  -25.7412   19.1436 C   0  0  0  0  0  0
  -27.1013  -16.9081   17.0425 C   0  0  0  0  0  0
  -29.5527  -21.9139   19.9358 C   0  0  0  0  0  0
  -28.5695  -16.5227   17.2802 C   0  0  0  0  0  0
  -29.9679  -15.4521   21.0272 N   0  0  0  0  0  0
  -27.8559  -24.0962   20.7067 O   0  0  0  0  0  0
  -28.8135  -16.2901   18.6698 O   0  0  0  0  0  0
  -31.4646  -12.3637   19.1287 H   0  0  0  0  0  0
  -30.2998  -11.2725   19.8235 H   0  0  0  0  0  0
  -29.7208  -11.7865   17.4198 H   0  0  0  0  0  0
  -29.6800  -13.4917   17.7828 H   0  0  0  0  0  0
  -27.8037  -11.3280   18.7910 H   0  0  0  0  0  0
  -27.3708  -12.6850   17.7842 H   0  0  0  0  0  0
  -27.7051  -14.2571   19.6031 H   0  0  0  0  0  0
  -28.6672  -11.9452   21.3480 H   0  0  0  0  0  0
  -28.4755  -13.5853   21.8789 H   0  0  0  0  0  0
  -25.2743   -9.5663   22.4815 H   0  0  0  0  0  0
  -23.9996   -7.4582   22.7380 H   0  0  0  0  0  0
  -21.0876   -8.8817   19.8889 H   0  0  0  0  0  0
  -22.3757  -10.9706   19.6151 H   0  0  0  0  0  0
  -21.2021   -7.6179   23.9783 H   0  0  0  0  0  0
  -21.1465   -6.0509   25.9098 H   0  0  0  0  0  0
  -22.0604   -2.7626   23.2812 H   0  0  0  0  0  0
  -22.4136  -11.9870   22.4785 H   0  0  0  0  0  0
  -21.1058  -13.1130   22.2489 H   0  0  0  0  0  0
  -24.6760  -15.8443   20.5711 H   0  0  0  0  0  0
  -26.2920  -15.6261   20.1228 H   0  0  0  0  0  0
  -26.7093  -32.5509   23.1137 H   0  0  0  0  0  0
  -25.0007  -33.9771   25.0426 H   0  0  0  0  0  0
  -22.6872  -31.3050   21.4111 H   0  0  0  0  0  0
  -23.3768  -35.9617   23.3175 H   0  0  0  0  0  0
  -24.3641  -36.9045   22.2074 H   0  0  0  0  0  0
  -23.7190  -37.6459   23.6742 H   0  0  0  0  0  0
  -26.0188  -31.5997   20.5808 H   0  0  0  0  0  0
  -26.8111  -30.8980   21.9676 H   0  0  0  0  0  0
  -28.0816  -29.1204   21.1804 H   0  0  0  0  0  0
  -26.0613  -25.9685   19.0192 H   0  0  0  0  0  0
  -23.9889  -27.2729   19.0416 H   0  0  0  0  0  0
  -23.6969  -30.5855   19.3986 H   0  0  0  0  0  0
  -22.7280  -29.2242   19.8783 H   0  0  0  0  0  0
  -25.1284  -36.1890   25.0837 H   0  0  0  0  0  0
  -20.9912  -28.3210   24.1488 H   0  0  0  0  0  0
  -20.5659  -26.2275   23.3655 H   0  0  0  0  0  0
  -21.6601  -26.7509   22.1215 H   0  0  0  0  0  0
  -19.6880  -25.6329   21.1275 H   0  0  0  0  0  0
  -19.6677  -27.3254   20.6812 H   0  0  0  0  0  0
  -17.4183  -26.6749   21.4003 H   0  0  0  0  0  0
  -18.0238  -26.0104   22.9019 H   0  0  0  0  0  0
  -19.7878  -30.7282   24.2338 H   0  0  0  0  0  0
  -17.4967  -31.6312   24.5169 H   0  0  0  0  0  0
  -15.5307  -30.3053   23.7683 H   0  0  0  0  0  0
  -15.8601  -28.0913   22.7044 H   0  0  0  0  0  0
  -24.5992  -30.6918   25.7823 H   0  0  0  0  0  0
  -24.8845  -32.2802   26.4880 H   0  0  0  0  0  0
  -25.8129  -30.8926   27.0231 H   0  0  0  0  0  0
  -26.2764  -29.6828   24.1147 H   0  0  0  0  0  0
  -27.4046  -29.7286   25.4492 H   0  0  0  0  0  0
  -27.8610  -30.4347   23.9165 H   0  0  0  0  0  0
  -27.2609  -33.3674   26.1993 H   0  0  0  0  0  0
  -28.3873  -32.6840   25.0327 H   0  0  0  0  0  0
  -28.0633  -31.8504   26.5438 H   0  0  0  0  0  0
  -28.2467  -38.0207   24.7681 H   0  0  0  0  0  0
  -28.1223  -36.2762   24.5968 H   0  0  0  0  0  0
  -27.2374  -37.1049   25.8833 H   0  0  0  0  0  0
  -20.9244  -29.8757   21.7008 H   0  0  0  0  0  0
  -26.0099  -38.2833   24.1596 H   0  0  0  0  0  0
  -31.3968  -17.3087   22.2692 H   0  0  0  0  0  0
  -29.1511  -18.9681   18.1562 H   0  0  0  0  0  0
  -32.3455  -19.4124   22.6968 H   0  0  0  0  0  0
  -31.3772  -20.7933   22.1861 H   0  0  0  0  0  0
  -32.7987  -20.3034   21.2530 H   0  0  0  0  0  0
  -25.1138  -16.0010   16.9617 H   0  0  0  0  0  0
  -26.2656  -15.0965   17.9366 H   0  0  0  0  0  0
  -26.3697  -15.0352   16.1914 H   0  0  0  0  0  0
  -30.4648  -20.9357   18.2425 H   0  0  0  0  0  0
  -31.5862  -21.2746   19.5113 H   0  0  0  0  0  0
  -30.6434  -23.7038   19.3959 H   0  0  0  0  0  0
  -29.4821  -23.2073   18.1900 H   0  0  0  0  0  0
  -28.0641  -25.7785   18.2729 H   0  0  0  0  0  0
  -29.7282  -25.8883   18.7627 H   0  0  0  0  0  0
  -26.7785  -17.6334   17.7893 H   0  0  0  0  0  0
  -27.0110  -17.4038   16.0755 H   0  0  0  0  0  0
  -29.7190  -22.0125   21.0095 H   0  0  0  0  0  0
  -28.5425  -21.5191   19.8168 H   0  0  0  0  0  0
  -29.2422  -17.2588   16.8418 H   0  0  0  0  0  0
  -28.7863  -15.5968   16.7430 H   0  0  0  0  0  0
  -29.0297  -15.1855   21.2842 H   0  0  0  0  0  0
  1 25  1  0  0  0
  1 30  2  0  0  0
  1 86  1  0  0  0
  2  3  1  0  0  0
  2 25  1  0  0  0
  2 89  1  0  0  0
  2 90  1  0  0  0
  3  4  1  0  0  0
  3 91  1  0  0  0
  3 92  1  0  0  0
  4  5  1  0  0  0
  4 93  1  0  0  0
  4 94  1  0  0  0
  5  6  1  0  0  0
  5 26  1  0  0  0
  5 95  1  0  0  0
  6 25  1  0  0  0
  6 96  1  0  0  0
  6 97  1  0  0  0
  7  8  2  0  0  0
  7 26  1  0  0  0
  7 29  1  0  0  0
  8  9  1  0  0  0
  8 22  1  0  0  0
  9 10  1  0  0  0
  9 27  2  0  0  0
 10 11  2  0  0  0
 10 15  1  0  0  0
 11 12  1  0  0  0
 11 98  1  0  0  0
 12 13  2  0  0  0
 12 99  1  0  0  0
 13 14  1  0  0  0
 13 31  1  0  0  0
 14 15  2  0  0  0
 14100  1  0  0  0
 15101  1  0  0  0
 16 17  2  0  0  0
 16 21  1  0  0  0
 16 31  1  0  0  0
 17 18  1  0  0  0
 17102  1  0  0  0
 18 19  2  0  0  0
 18103  1  0  0  0
 19 20  1  0  0  0
 19 24  1  0  0  0
 20 21  2  0  0  0
 20104  1  0  0  0
 21 23  1  0  0  0
 22 28  1  0  0  0
 22 32  2  0  0  0
 26 27  1  0  0  0
 28105  1  0  0  0
 28106  1  0  0  0
 29107  1  0  0  0
 29108  1  0  0  0
 33 34  1  0  0  0
 33 66  1  0  0  0
 33 70  2  0  0  0
 34 36  1  0  0  0
 34 59  1  0  0  0
 34109  1  0  0  0
 35 44  2  0  0  0
 35 45  1  0  0  0
 35 68  1  0  0  0
 36 56  1  0  0  0
 36110  1  0  0  0
 37 39  1  0  0  0
 37 47  1  0  0  0
 37 66  1  0  0  0
 37111  1  0  0  0
 38 43  2  0  0  0
 38 46  1  0  0  0
 38 47  1  0  0  0
 39 64  1  0  0  0
 39 67  2  0  0  0
 40 52  1  0  0  0
 40 53  2  0  0  0
 40 58  1  0  0  0
 41112  1  0  0  0
 41113  1  0  0  0
 41114  1  0  0  0
 41 48  1  0  0  0
 42 43  1  0  0  0
 42 66  1  0  0  0
 42115  1  0  0  0
 42116  1  0  0  0
 43 44  1  0  0  0
 44117  1  0  0  0
 45 46  2  0  0  0
 45118  1  0  0  0
 46119  1  0  0  0
 47120  1  0  0  0
 47121  1  0  0  0
 48 56  1  0  0  0
 48 65  1  0  0  0
 48122  1  0  0  0
 49 50  1  0  0  0
 49 53  1  0  0  0
 49 64  1  0  0  0
 49123  1  0  0  0
 50 51  1  0  0  0
 50124  1  0  0  0
 50125  1  0  0  0
 51 52  1  0  0  0
 51126  1  0  0  0
 51127  1  0  0  0
 52128  1  0  0  0
 52129  1  0  0  0
 53 54  1  0  0  0
 54 55  2  0  0  0
 54130  1  0  0  0
 55 57  1  0  0  0
 55131  1  0  0  0
 56 69  2  0  0  0
 57 58  2  0  0  0
 57132  1  0  0  0
 58133  1  0  0  0
 59 60  1  0  0  0
 59 61  1  0  0  0
 59 62  1  0  0  0
 60134  1  0  0  0
 60135  1  0  0  0
 60136  1  0  0  0
 61137  1  0  0  0
 61138  1  0  0  0
 61139  1  0  0  0
 62140  1  0  0  0
 62141  1  0  0  0
 62142  1  0  0  0
 63 65  1  0  0  0
 63143  1  0  0  0
 63144  1  0  0  0
 63145  1  0  0  0
 64146  1  0  0  0
 65147  1  0  0  0
 68 82  1  0  0  0
 71 73  2  0  0  0
 71 75  1  0  0  0
 71148  1  0  0  0
 72 74  2  0  0  0
 72 76  1  0  0  0
 72149  1  0  0  0
 73 74  1  0  0  0
 73 78  1  0  0  0
 74 80  1  0  0  0
 75 76  2  0  0  0
 75 86  1  0  0  0
 76 88  1  0  0  0
 77 81  1  0  0  0
 77 82  1  0  0  0
 77 87  2  0  0  0
 78150  1  0  0  0
 78151  1  0  0  0
 78152  1  0  0  0
 79 83  1  0  0  0
 79153  1  0  0  0
 79154  1  0  0  0
 79155  1  0  0  0
 80 84  1  0  0  0
 80156  1  0  0  0
 80157  1  0  0  0
 81 84  1  0  0  0
 81158  1  0  0  0
 81159  1  0  0  0
 82160  1  0  0  0
 82161  1  0  0  0
 83 85  1  0  0  0
 83162  1  0  0  0
 83163  1  0  0  0
 84164  1  0  0  0
 84165  1  0  0  0
 85 88  1  0  0  0
 85166  1  0  0  0
 85167  1  0  0  0
 86168  1  0  0  0
M  ISO  4   1 100  68 101  82 101  86 100
M  END
> <chiral flag>
0

> <version>
0

> <s_m_source_file>
/data/baiqing/PycharmProjects/Reinvent-master-3.2/result/LINK_invent/BTK/process_docking_weight1_custom_product_contain_oxygen_bond_distance_aromatic_linkinvent_7_9_3/rearranged_h_0130.sdf

> <i_m_source_file_index>
40

> <r_mmod_Potential_Energy-OPLS-2005>
-73.576789855957

> <r_mmod_Stretch_Energy-OPLS-2005>
35.6015243530273

> <r_mmod_Bend_Energy-OPLS-2005>
106.688842773438

> <r_mmod_Torsional_Energy-OPLS-2005>
245.894424438477

> <r_mmod_Improper_Torsional_Energy-OPLS-2005>
5.6606650352478

> <r_mmod_Van_der_Waal_Energy-OPLS-2005>
142.044189453125

> <r_mmod_Electrostatic_Energy-OPLS-2005>
-399.681365966797

> <r_mmod_Solvation_Energy-OPLS-2005>
-221.547546386719

> <b_mmod_Minimization_Converged-OPLS-2005>
0

> <r_mmod_RMS_Derivative-OPLS-2005>
4.37372732162476

$$$$
40
                    3D
 Structure written by MMmdl.
149157  0  0  1  0            999 V2000
  -30.5991  -14.6877   20.4772 C   0  0  0  0  0  0
  -30.4411  -12.4164   19.4636 C   0  0  0  0  0  0
  -29.5132  -12.5084   18.2311 C   0  0  0  0  0  0
  -28.0352  -12.3413   18.6399 C   0  0  0  0  0  0
  -27.6509  -13.2212   19.8597 C   0  0  2  0  0  0
  -28.6944  -13.0978   20.9924 C   0  0  0  0  0  0
  -25.2550  -13.8183   20.5690 C   0  0  0  0  0  0
  -24.1822  -13.0443   20.9199 C   0  0  0  0  0  0
  -24.6395  -11.6915   20.8738 C   0  0  0  0  0  0
  -23.9068  -10.4293   21.0402 C   0  0  0  0  0  0
  -24.3626   -9.4210   21.9177 C   0  0  0  0  0  0
  -23.6301   -8.2245   22.0750 C   0  0  0  0  0  0
  -22.4280   -8.0285   21.3543 C   0  0  0  0  0  0
  -21.9913   -9.0259   20.4647 C   0  0  0  0  0  0
  -22.7242  -10.2136   20.3051 C   0  0  0  0  0  0
  -21.6852   -6.0742   22.5279 C   0  0  0  0  0  0
  -21.4015   -6.5643   23.8216 C   0  0  0  0  0  0
  -21.3659   -5.6792   24.9177 C   0  0  0  0  0  0
  -21.6046   -4.3056   24.7224 C   0  0  0  0  0  0
  -21.8817   -3.8151   23.4344 C   0  0  0  0  0  0
  -21.9191   -4.6969   22.3403 C   0  0  0  0  0  0
  -22.7842  -13.5232   21.1861 C   0  0  0  0  0  0
  -22.1657   -4.2155   21.0978 F   0  0  0  0  0  0
  -21.5631   -3.4537   25.7737 F   0  0  0  0  0  0
  -30.0059  -13.4499   20.4276 N   0  0  0  0  0  0
  -26.2977  -12.9371   20.3299 N   0  0  0  0  0  0
  -25.9324  -11.6524   20.5750 N   0  0  0  0  0  0
  -22.0476  -12.8229   22.0417 N   0  0  0  0  0  0
  -25.4262  -15.1909   20.4113 N   0  0  0  0  0  0
  -31.7660  -14.8429   20.1014 O   0  0  0  0  0  0
  -21.6642   -6.8885   21.4241 O   0  0  0  0  0  0
  -22.3527  -14.5537   20.6708 O   0  0  0  0  0  0
  -24.6262  -31.8568   23.1995 C   0  0  0  0  0  0
  -25.9105  -32.4765   23.8332 C   0  0  1  0  0  0
  -27.2317  -27.2974   20.1164 C   0  0  0  0  0  0
  -25.5921  -33.8567   24.2264 N   0  0  0  0  0  0
  -23.4219  -30.4770   21.5421 C   0  0  2  0  0  0
  -24.8688  -28.9238   20.1111 C   0  0  0  0  0  0
  -22.7476  -29.4598   22.4927 C   0  0  0  0  0  0
  -18.0279  -28.1382   22.8477 C   0  0  0  0  0  0
  -24.1489  -36.7289   23.2641 C   0  0  0  0  0  0
  -25.9629  -30.7798   21.3735 C   0  0  0  0  0  0
  -26.0361  -29.4045   20.7156 C   0  0  0  0  0  0
  -27.2150  -28.6016   20.7084 C   0  0  0  0  0  0
  -26.0349  -26.8627   19.5038 C   0  0  0  0  0  0
  -24.8709  -27.6596   19.4995 C   0  0  0  0  0  0
  -23.6381  -29.8074   20.1586 C   0  0  0  0  0  0
  -25.4117  -36.3078   24.0326 C   0  0  1  0  0  0
  -20.5880  -28.3687   23.1276 C   0  0  2  0  0  0
  -20.6770  -26.9410   22.5406 C   0  0  0  0  0  0
  -19.5751  -26.6376   21.5206 C   0  0  0  0  0  0
  -18.1927  -26.7922   22.1615 C   0  0  0  0  0  0
  -19.1533  -28.8849   23.2870 C   0  0  0  0  0  0
  -18.9459  -30.1448   23.8892 C   0  0  0  0  0  0
  -17.6463  -30.6586   24.0554 C   0  0  0  0  0  0
  -25.9051  -34.9446   23.5097 C   0  0  0  0  0  0
  -16.5352  -29.9084   23.6329 C   0  0  0  0  0  0
  -16.7267  -28.6498   23.0354 C   0  0  0  0  0  0
  -26.4492  -31.6594   25.0719 C   0  0  0  0  0  0
  -25.3730  -31.3741   26.1454 C   0  0  0  0  0  0
  -27.0348  -30.3018   24.6196 C   0  0  0  0  0  0
  -27.6039  -32.4349   25.7496 C   0  0  0  0  0  0
  -27.5578  -37.1800   24.8463 C   0  0  0  0  0  0
  -21.4186  -29.3037   22.3674 N   0  0  0  0  0  0
  -26.4291  -37.3773   23.9404 N   0  0  0  0  0  0
  -24.6892  -31.0557   22.0953 N   0  0  0  0  0  0
  -23.4192  -28.8140   23.3015 O   0  0  0  0  0  0
  -28.3810  -26.4881   20.1813 O   0  0  0  0  0  0
  -26.5622  -34.8917   22.4667 O   0  0  0  0  0  0
  -23.5424  -32.1372   23.7316 O   0  0  0  0  0  0
  -30.5242  -19.3288   19.8832 C   0  0  0  0  0  0
  -30.7942  -17.8997   19.9182 C   0  0  0  0  0  0
  -29.3822  -19.7239   20.5468 C   0  0  0  0  0  0
  -29.8709  -17.1272   20.6011 C   0  0  0  0  0  0
  -28.7620  -21.0877   20.8302 C   0  0  0  0  0  0
  -29.0247  -22.4088   19.9900 C   0  0  0  0  0  0
  -28.4741  -23.8199   20.5580 C   0  0  0  0  0  0
  -28.4923  -25.1160   19.6146 C   0  0  0  0  0  0
  -29.7834  -15.7474   20.8114 N   0  0  0  0  0  0
  -27.9631  -21.1862   21.7659 O   0  0  0  0  0  0
  -28.6341  -18.2536   21.2162 S   0  0  0  0  0  0
  -31.4820  -12.5456   19.1622 H   0  0  0  0  0  0
  -30.3837  -11.4262   19.9181 H   0  0  0  0  0  0
  -29.7862  -11.7490   17.4969 H   0  0  0  0  0  0
  -29.6509  -13.4726   17.7387 H   0  0  0  0  0  0
  -27.8754  -11.2897   18.8801 H   0  0  0  0  0  0
  -27.3821  -12.5602   17.7944 H   0  0  0  0  0  0
  -27.6632  -14.2527   19.5068 H   0  0  0  0  0  0
  -28.7123  -12.0813   21.3882 H   0  0  0  0  0  0
  -28.4342  -13.7406   21.8348 H   0  0  0  0  0  0
  -25.2770   -9.5693   22.4756 H   0  0  0  0  0  0
  -24.0013   -7.4637   22.7467 H   0  0  0  0  0  0
  -21.0843   -8.8780   19.8956 H   0  0  0  0  0  0
  -22.3697  -10.9679   19.6165 H   0  0  0  0  0  0
  -21.2004   -7.6148   23.9727 H   0  0  0  0  0  0
  -21.1483   -6.0515   25.9082 H   0  0  0  0  0  0
  -22.0597   -2.7611   23.2840 H   0  0  0  0  0  0
  -22.4086  -11.9898   22.4827 H   0  0  0  0  0  0
  -21.1094  -13.1261   22.2620 H   0  0  0  0  0  0
  -24.6588  -15.8443   20.5231 H   0  0  0  0  0  0
  -26.2719  -15.6310   20.0716 H   0  0  0  0  0  0
  -26.7169  -32.5422   23.1073 H   0  0  0  0  0  0
  -25.0077  -33.9713   25.0416 H   0  0  0  0  0  0
  -22.7162  -31.2976   21.3965 H   0  0  0  0  0  0
  -23.3755  -35.9619   23.3307 H   0  0  0  0  0  0
  -24.3573  -36.8907   22.2052 H   0  0  0  0  0  0
  -23.7243  -37.6488   23.6670 H   0  0  0  0  0  0
  -26.0987  -31.5432   20.6064 H   0  0  0  0  0  0
  -26.8408  -30.8272   22.0058 H   0  0  0  0  0  0
  -28.1115  -28.9665   21.1893 H   0  0  0  0  0  0
  -25.9597  -25.8898   19.0442 H   0  0  0  0  0  0
  -23.9708  -27.2809   19.0350 H   0  0  0  0  0  0
  -23.7590  -30.5815   19.3999 H   0  0  0  0  0  0
  -22.7581  -29.2372   19.8557 H   0  0  0  0  0  0
  -25.1302  -36.1927   25.0819 H   0  0  0  0  0  0
  -20.9960  -28.3267   24.1402 H   0  0  0  0  0  0
  -20.5665  -26.2301   23.3610 H   0  0  0  0  0  0
  -21.6642  -26.7434   22.1212 H   0  0  0  0  0  0
  -19.6917  -25.6284   21.1242 H   0  0  0  0  0  0
  -19.6694  -27.3179   20.6732 H   0  0  0  0  0  0
  -17.4199  -26.6657   21.4015 H   0  0  0  0  0  0
  -18.0331  -26.0066   22.9015 H   0  0  0  0  0  0
  -19.7941  -30.7248   24.2271 H   0  0  0  0  0  0
  -17.5027  -31.6266   24.5156 H   0  0  0  0  0  0
  -15.5358  -30.2990   23.7654 H   0  0  0  0  0  0
  -15.8663  -28.0809   22.7093 H   0  0  0  0  0  0
  -24.5886  -30.7115   25.7786 H   0  0  0  0  0  0
  -24.8951  -32.2914   26.4901 H   0  0  0  0  0  0
  -25.8052  -30.8895   27.0220 H   0  0  0  0  0  0
  -26.2927  -29.6763   24.1220 H   0  0  0  0  0  0
  -27.4037  -29.7282   25.4711 H   0  0  0  0  0  0
  -27.8801  -30.4303   23.9433 H   0  0  0  0  0  0
  -27.2628  -33.3640   26.2077 H   0  0  0  0  0  0
  -28.3845  -32.6930   25.0330 H   0  0  0  0  0  0
  -28.0724  -31.8488   26.5413 H   0  0  0  0  0  0
  -28.2597  -38.0095   24.7507 H   0  0  0  0  0  0
  -28.1072  -36.2624   24.6298 H   0  0  0  0  0  0
  -27.2293  -37.1459   25.8864 H   0  0  0  0  0  0
  -20.9377  -29.8761   21.6877 H   0  0  0  0  0  0
  -26.0173  -38.2847   24.1409 H   0  0  0  0  0  0
  -31.1961  -20.0125   19.3834 H   0  0  0  0  0  0
  -31.6687  -17.4959   19.4268 H   0  0  0  0  0  0
  -28.5845  -22.2371   19.0080 H   0  0  0  0  0  0
  -30.0988  -22.4862   19.8226 H   0  0  0  0  0  0
  -29.0533  -24.0532   21.4517 H   0  0  0  0  0  0
  -27.4517  -23.6845   20.9107 H   0  0  0  0  0  0
  -27.8130  -24.9660   18.7784 H   0  0  0  0  0  0
  -29.4728  -25.1190   19.1383 H   0  0  0  0  0  0
  -28.8981  -15.4442   21.1877 H   0  0  0  0  0  0
  1 25  1  0  0  0
  1 30  2  0  0  0
  1 79  1  0  0  0
  2  3  1  0  0  0
  2 25  1  0  0  0
  2 82  1  0  0  0
  2 83  1  0  0  0
  3  4  1  0  0  0
  3 84  1  0  0  0
  3 85  1  0  0  0
  4  5  1  0  0  0
  4 86  1  0  0  0
  4 87  1  0  0  0
  5  6  1  0  0  0
  5 26  1  0  0  0
  5 88  1  0  0  0
  6 25  1  0  0  0
  6 89  1  0  0  0
  6 90  1  0  0  0
  7  8  2  0  0  0
  7 26  1  0  0  0
  7 29  1  0  0  0
  8  9  1  0  0  0
  8 22  1  0  0  0
  9 10  1  0  0  0
  9 27  2  0  0  0
 10 11  2  0  0  0
 10 15  1  0  0  0
 11 12  1  0  0  0
 11 91  1  0  0  0
 12 13  2  0  0  0
 12 92  1  0  0  0
 13 14  1  0  0  0
 13 31  1  0  0  0
 14 15  2  0  0  0
 14 93  1  0  0  0
 15 94  1  0  0  0
 16 17  2  0  0  0
 16 21  1  0  0  0
 16 31  1  0  0  0
 17 18  1  0  0  0
 17 95  1  0  0  0
 18 19  2  0  0  0
 18 96  1  0  0  0
 19 20  1  0  0  0
 19 24  1  0  0  0
 20 21  2  0  0  0
 20 97  1  0  0  0
 21 23  1  0  0  0
 22 28  1  0  0  0
 22 32  2  0  0  0
 26 27  1  0  0  0
 28 98  1  0  0  0
 28 99  1  0  0  0
 29100  1  0  0  0
 29101  1  0  0  0
 33 34  1  0  0  0
 33 66  1  0  0  0
 33 70  2  0  0  0
 34 36  1  0  0  0
 34 59  1  0  0  0
 34102  1  0  0  0
 35 44  2  0  0  0
 35 45  1  0  0  0
 35 68  1  0  0  0
 36 56  1  0  0  0
 36103  1  0  0  0
 37 39  1  0  0  0
 37 47  1  0  0  0
 37 66  1  0  0  0
 37104  1  0  0  0
 38 43  2  0  0  0
 38 46  1  0  0  0
 38 47  1  0  0  0
 39 64  1  0  0  0
 39 67  2  0  0  0
 40 52  1  0  0  0
 40 53  2  0  0  0
 40 58  1  0  0  0
 41105  1  0  0  0
 41106  1  0  0  0
 41107  1  0  0  0
 41 48  1  0  0  0
 42 43  1  0  0  0
 42 66  1  0  0  0
 42108  1  0  0  0
 42109  1  0  0  0
 43 44  1  0  0  0
 44110  1  0  0  0
 45 46  2  0  0  0
 45111  1  0  0  0
 46112  1  0  0  0
 47113  1  0  0  0
 47114  1  0  0  0
 48 56  1  0  0  0
 48 65  1  0  0  0
 48115  1  0  0  0
 49 50  1  0  0  0
 49 53  1  0  0  0
 49 64  1  0  0  0
 49116  1  0  0  0
 50 51  1  0  0  0
 50117  1  0  0  0
 50118  1  0  0  0
 51 52  1  0  0  0
 51119  1  0  0  0
 51120  1  0  0  0
 52121  1  0  0  0
 52122  1  0  0  0
 53 54  1  0  0  0
 54 55  2  0  0  0
 54123  1  0  0  0
 55 57  1  0  0  0
 55124  1  0  0  0
 56 69  2  0  0  0
 57 58  2  0  0  0
 57125  1  0  0  0
 58126  1  0  0  0
 59 60  1  0  0  0
 59 61  1  0  0  0
 59 62  1  0  0  0
 60127  1  0  0  0
 60128  1  0  0  0
 60129  1  0  0  0
 61130  1  0  0  0
 61131  1  0  0  0
 61132  1  0  0  0
 62133  1  0  0  0
 62134  1  0  0  0
 62135  1  0  0  0
 63 65  1  0  0  0
 63136  1  0  0  0
 63137  1  0  0  0
 63138  1  0  0  0
 64139  1  0  0  0
 65140  1  0  0  0
 68 78  1  0  0  0
 71 72  1  0  0  0
 71 73  2  0  0  0
 71141  1  0  0  0
 72 74  2  0  0  0
 72142  1  0  0  0
 73 75  1  0  0  0
 73 81  1  0  0  0
 74 79  1  0  0  0
 74 81  1  0  0  0
 75 76  1  0  0  0
 75 80  2  0  0  0
 76 77  1  0  0  0
 76143  1  0  0  0
 76144  1  0  0  0
 77 78  1  0  0  0
 77145  1  0  0  0
 77146  1  0  0  0
 78147  1  0  0  0
 78148  1  0  0  0
 79149  1  0  0  0
M  ISO  4   1 100  68 101  78 101  79 100
M  END
> <chiral flag>
0

> <version>
0

> <s_m_source_file>
/data/baiqing/PycharmProjects/Reinvent-master-3.2/result/LINK_invent/BTK/process_docking_weight1_custom_product_contain_oxygen_bond_distance_aromatic_linkinvent_7_9_3/rearranged_h_0130.sdf

> <i_m_source_file_index>
41

> <r_mmod_Potential_Energy-OPLS-2005>
51.2126274108887

> <r_mmod_Stretch_Energy-OPLS-2005>
90.735725402832

> <r_mmod_Bend_Energy-OPLS-2005>
163.129486083984

> <r_mmod_Torsional_Energy-OPLS-2005>
226.526443481445

> <r_mmod_Improper_Torsional_Energy-OPLS-2005>
3.95857858657837

> <r_mmod_Van_der_Waal_Energy-OPLS-2005>
117.792488098145

> <r_mmod_Electrostatic_Energy-OPLS-2005>
-392.136047363281

> <r_mmod_Solvation_Energy-OPLS-2005>
-218.40705871582

> <b_mmod_Minimization_Converged-OPLS-2005>
0

> <r_mmod_RMS_Derivative-OPLS-2005>
0.969896495342255

$$$$
41
                    3D
 Structure written by MMmdl.
157165  0  0  1  0            999 V2000
  -30.6902  -14.5452   20.5563 C   0  0  0  0  0  0
  -30.4419  -12.3267   19.5025 C   0  0  0  0  0  0
  -29.5559  -12.4706   18.2481 C   0  0  0  0  0  0
  -28.0517  -12.4090   18.6033 C   0  0  0  0  0  0
  -27.6660  -13.2323   19.8660 C   0  0  2  0  0  0
  -28.6920  -13.0517   21.0077 C   0  0  0  0  0  0
  -25.2588  -13.8211   20.5585 C   0  0  0  0  0  0
  -24.1846  -13.0469   20.9075 C   0  0  0  0  0  0
  -24.6433  -11.6926   20.8597 C   0  0  0  0  0  0
  -23.9101  -10.4320   21.0325 C   0  0  0  0  0  0
  -24.3657   -9.4242   21.9117 C   0  0  0  0  0  0
  -23.6340   -8.2268   22.0704 C   0  0  0  0  0  0
  -22.4298   -8.0314   21.3522 C   0  0  0  0  0  0
  -21.9924   -9.0285   20.4640 C   0  0  0  0  0  0
  -22.7251  -10.2163   20.3015 C   0  0  0  0  0  0
  -21.6867   -6.0763   22.5259 C   0  0  0  0  0  0
  -21.4024   -6.5651   23.8211 C   0  0  0  0  0  0
  -21.3650   -5.6799   24.9144 C   0  0  0  0  0  0
  -21.6035   -4.3052   24.7205 C   0  0  0  0  0  0
  -21.8831   -3.8165   23.4317 C   0  0  0  0  0  0
  -21.9213   -4.6974   22.3386 C   0  0  0  0  0  0
  -22.7896  -13.5239   21.1873 C   0  0  0  0  0  0
  -22.1682   -4.2165   21.0954 F   0  0  0  0  0  0
  -21.5650   -3.4543   25.7721 F   0  0  0  0  0  0
  -30.0211  -13.3595   20.4651 N   0  0  0  0  0  0
  -26.3028  -12.9426   20.3174 N   0  0  0  0  0  0
  -25.9354  -11.6557   20.5512 N   0  0  0  0  0  0
  -22.0566  -12.8195   22.0426 N   0  0  0  0  0  0
  -25.4382  -15.1949   20.4141 N   0  0  0  0  0  0
  -31.8814  -14.6390   20.2645 O   0  0  0  0  0  0
  -21.6660   -6.8909   21.4237 O   0  0  0  0  0  0
  -22.3562  -14.5587   20.6805 O   0  0  0  0  0  0
  -24.6228  -31.8608   23.1990 C   0  0  0  0  0  0
  -25.9142  -32.4737   23.8289 C   0  0  1  0  0  0
  -27.2319  -27.3821   20.0924 C   0  0  0  0  0  0
  -25.6007  -33.8535   24.2240 N   0  0  0  0  0  0
  -23.4084  -30.4845   21.5407 C   0  0  2  0  0  0
  -24.8533  -28.9406   20.1046 C   0  0  0  0  0  0
  -22.7455  -29.4651   22.4953 C   0  0  0  0  0  0
  -18.0285  -28.1408   22.8457 C   0  0  0  0  0  0
  -24.1508  -36.7280   23.2620 C   0  0  0  0  0  0
  -25.9410  -30.8042   21.3639 C   0  0  0  0  0  0
  -26.0129  -29.4379   20.7094 C   0  0  0  0  0  0
  -27.1998  -28.6617   20.7058 C   0  0  0  0  0  0
  -26.0539  -26.9204   19.4611 C   0  0  0  0  0  0
  -24.8707  -27.6825   19.4782 C   0  0  0  0  0  0
  -23.6148  -29.8063   20.1577 C   0  0  0  0  0  0
  -25.4115  -36.3042   24.0326 C   0  0  1  0  0  0
  -20.5881  -28.3701   23.1314 C   0  0  2  0  0  0
  -20.6776  -26.9437   22.5433 C   0  0  0  0  0  0
  -19.5785  -26.6412   21.5209 C   0  0  0  0  0  0
  -18.1939  -26.7976   22.1553 C   0  0  0  0  0  0
  -19.1537  -28.8871   23.2869 C   0  0  0  0  0  0
  -18.9448  -30.1465   23.8886 C   0  0  0  0  0  0
  -17.6465  -30.6592   24.0571 C   0  0  0  0  0  0
  -25.9066  -34.9425   23.5066 C   0  0  0  0  0  0
  -16.5347  -29.9089   23.6346 C   0  0  0  0  0  0
  -16.7280  -28.6511   23.0340 C   0  0  0  0  0  0
  -26.4538  -31.6529   25.0649 C   0  0  0  0  0  0
  -25.3798  -31.3727   26.1405 C   0  0  0  0  0  0
  -27.0355  -30.2940   24.6099 C   0  0  0  0  0  0
  -27.6102  -32.4259   25.7420 C   0  0  0  0  0  0
  -27.5616  -37.1738   24.8416 C   0  0  0  0  0  0
  -21.4182  -29.3043   22.3714 N   0  0  0  0  0  0
  -26.4273  -37.3763   23.9444 N   0  0  0  0  0  0
  -24.6746  -31.0696   22.0891 N   0  0  0  0  0  0
  -23.4216  -28.8242   23.3052 O   0  0  0  0  0  0
  -28.3922  -26.6217   20.1648 O   0  0  0  0  0  0
  -26.5592  -34.8918   22.4594 O   0  0  0  0  0  0
  -23.5439  -32.1393   23.7408 O   0  0  0  0  0  0
  -30.5462  -19.6586   19.3316 C   0  0  0  0  0  0
  -30.8464  -18.5640   18.5207 C   0  0  0  0  0  0
  -29.8432  -18.1523   21.1055 C   0  0  0  0  0  0
  -29.9676  -19.4901   20.6011 C   0  0  0  0  0  0
  -30.6076  -17.2515   18.9593 C   0  0  0  0  0  0
  -30.1742  -17.0067   20.2981 C   0  0  0  0  0  0
  -29.4449  -20.7489   21.2347 C   0  0  0  0  0  0
  -29.0051  -21.8005   20.4789 C   0  0  0  0  0  0
  -30.7273  -16.1722   17.8948 C   0  0  0  0  0  0
  -28.5383  -23.1974   20.9224 C   0  0  0  0  0  0
  -27.8912  -24.0755   19.7911 C   0  0  0  0  0  0
  -28.5734  -25.4270   19.3669 C   0  0  0  0  0  0
  -29.9353  -15.6568   20.7845 N   0  0  0  0  0  0
  -31.4983  -12.4108   19.2370 H   0  0  0  0  0  0
  -30.3283  -11.3378   19.9467 H   0  0  0  0  0  0
  -29.8054  -11.6833   17.5361 H   0  0  0  0  0  0
  -29.7964  -13.4061   17.7470 H   0  0  0  0  0  0
  -27.7836  -11.3601   18.7321 H   0  0  0  0  0  0
  -27.4753  -12.7652   17.7498 H   0  0  0  0  0  0
  -27.7031  -14.2828   19.5723 H   0  0  0  0  0  0
  -28.6710  -12.0248   21.3799 H   0  0  0  0  0  0
  -28.4441  -13.6887   21.8591 H   0  0  0  0  0  0
  -25.2819   -9.5735   22.4661 H   0  0  0  0  0  0
  -24.0080   -7.4644   22.7397 H   0  0  0  0  0  0
  -21.0841   -8.8818   19.8967 H   0  0  0  0  0  0
  -22.3697  -10.9697   19.6130 H   0  0  0  0  0  0
  -21.2005   -7.6161   23.9704 H   0  0  0  0  0  0
  -21.1479   -6.0513   25.9055 H   0  0  0  0  0  0
  -22.0625   -2.7618   23.2783 H   0  0  0  0  0  0
  -22.4238  -11.9828   22.4714 H   0  0  0  0  0  0
  -21.1230  -13.1246   22.2813 H   0  0  0  0  0  0
  -24.6822  -15.8607   20.5296 H   0  0  0  0  0  0
  -26.3093  -15.6264   20.1315 H   0  0  0  0  0  0
  -26.7201  -32.5405   23.1024 H   0  0  0  0  0  0
  -25.0264  -33.9638   25.0472 H   0  0  0  0  0  0
  -22.6983  -31.3015   21.3955 H   0  0  0  0  0  0
  -23.3790  -35.9578   23.3151 H   0  0  0  0  0  0
  -24.3657  -36.9018   22.2058 H   0  0  0  0  0  0
  -23.7222  -37.6434   23.6716 H   0  0  0  0  0  0
  -26.0742  -31.5650   20.5949 H   0  0  0  0  0  0
  -26.8225  -30.8450   21.9918 H   0  0  0  0  0  0
  -28.0943  -29.0373   21.1812 H   0  0  0  0  0  0
  -26.0204  -25.9635   18.9625 H   0  0  0  0  0  0
  -23.9793  -27.2973   19.0000 H   0  0  0  0  0  0
  -23.7140  -30.5660   19.3834 H   0  0  0  0  0  0
  -22.7397  -29.2196   19.8766 H   0  0  0  0  0  0
  -25.1281  -36.1814   25.0820 H   0  0  0  0  0  0
  -20.9961  -28.3269   24.1438 H   0  0  0  0  0  0
  -20.5667  -26.2320   23.3627 H   0  0  0  0  0  0
  -21.6651  -26.7480   22.1238 H   0  0  0  0  0  0
  -19.6943  -25.6314   21.1252 H   0  0  0  0  0  0
  -19.6781  -27.3218   20.6733 H   0  0  0  0  0  0
  -17.4268  -26.6793   21.3881 H   0  0  0  0  0  0
  -18.0269  -26.0095   22.8916 H   0  0  0  0  0  0
  -19.7933  -30.7271   24.2263 H   0  0  0  0  0  0
  -17.5020  -31.6267   24.5194 H   0  0  0  0  0  0
  -15.5349  -30.2962   23.7715 H   0  0  0  0  0  0
  -15.8684  -28.0840   22.7047 H   0  0  0  0  0  0
  -24.5997  -30.7022   25.7779 H   0  0  0  0  0  0
  -24.8999  -32.2944   26.4720 H   0  0  0  0  0  0
  -25.8175  -30.9006   27.0215 H   0  0  0  0  0  0
  -26.2876  -29.6665   24.1246 H   0  0  0  0  0  0
  -27.4166  -29.7225   25.4568 H   0  0  0  0  0  0
  -27.8715  -30.4183   23.9217 H   0  0  0  0  0  0
  -27.2682  -33.3518   26.2057 H   0  0  0  0  0  0
  -28.3894  -32.6870   25.0244 H   0  0  0  0  0  0
  -28.0817  -31.8360   26.5292 H   0  0  0  0  0  0
  -28.2485  -38.0180   24.7645 H   0  0  0  0  0  0
  -28.1261  -36.2721   24.5958 H   0  0  0  0  0  0
  -27.2408  -37.1049   25.8832 H   0  0  0  0  0  0
  -20.9406  -29.8709   21.6849 H   0  0  0  0  0  0
  -26.0126  -38.2805   24.1548 H   0  0  0  0  0  0
  -30.7029  -20.6476   18.9265 H   0  0  0  0  0  0
  -31.1881  -18.7635   17.5167 H   0  0  0  0  0  0
  -29.4544  -17.9967   22.1035 H   0  0  0  0  0  0
  -29.4670  -20.8277   22.3150 H   0  0  0  0  0  0
  -28.9798  -21.6555   19.4087 H   0  0  0  0  0  0
  -30.8319  -16.6091   16.9010 H   0  0  0  0  0  0
  -29.8127  -15.5839   17.8820 H   0  0  0  0  0  0
  -31.5931  -15.5288   18.0373 H   0  0  0  0  0  0
  -29.3742  -23.7243   21.3824 H   0  0  0  0  0  0
  -27.7930  -23.0490   21.7034 H   0  0  0  0  0  0
  -26.8534  -24.2611   20.0569 H   0  0  0  0  0  0
  -27.8243  -23.4751   18.8810 H   0  0  0  0  0  0
  -28.2671  -25.6656   18.3475 H   0  0  0  0  0  0
  -29.6471  -25.2589   19.2917 H   0  0  0  0  0  0
  -29.0271  -15.4925   21.1896 H   0  0  0  0  0  0
  1 25  1  0  0  0
  1 30  2  0  0  0
  1 83  1  0  0  0
  2  3  1  0  0  0
  2 25  1  0  0  0
  2 84  1  0  0  0
  2 85  1  0  0  0
  3  4  1  0  0  0
  3 86  1  0  0  0
  3 87  1  0  0  0
  4  5  1  0  0  0
  4 88  1  0  0  0
  4 89  1  0  0  0
  5  6  1  0  0  0
  5 26  1  0  0  0
  5 90  1  0  0  0
  6 25  1  0  0  0
  6 91  1  0  0  0
  6 92  1  0  0  0
  7  8  2  0  0  0
  7 26  1  0  0  0
  7 29  1  0  0  0
  8  9  1  0  0  0
  8 22  1  0  0  0
  9 10  1  0  0  0
  9 27  2  0  0  0
 10 11  2  0  0  0
 10 15  1  0  0  0
 11 12  1  0  0  0
 11 93  1  0  0  0
 12 13  2  0  0  0
 12 94  1  0  0  0
 13 14  1  0  0  0
 13 31  1  0  0  0
 14 15  2  0  0  0
 14 95  1  0  0  0
 15 96  1  0  0  0
 16 17  2  0  0  0
 16 21  1  0  0  0
 16 31  1  0  0  0
 17 18  1  0  0  0
 17 97  1  0  0  0
 18 19  2  0  0  0
 18 98  1  0  0  0
 19 20  1  0  0  0
 19 24  1  0  0  0
 20 21  2  0  0  0
 20 99  1  0  0  0
 21 23  1  0  0  0
 22 28  1  0  0  0
 22 32  2  0  0  0
 26 27  1  0  0  0
 28100  1  0  0  0
 28101  1  0  0  0
 29102  1  0  0  0
 29103  1  0  0  0
 33 34  1  0  0  0
 33 66  1  0  0  0
 33 70  2  0  0  0
 34 36  1  0  0  0
 34 59  1  0  0  0
 34104  1  0  0  0
 35 44  2  0  0  0
 35 45  1  0  0  0
 35 68  1  0  0  0
 36 56  1  0  0  0
 36105  1  0  0  0
 37 39  1  0  0  0
 37 47  1  0  0  0
 37 66  1  0  0  0
 37106  1  0  0  0
 38 43  2  0  0  0
 38 46  1  0  0  0
 38 47  1  0  0  0
 39 64  1  0  0  0
 39 67  2  0  0  0
 40 52  1  0  0  0
 40 53  2  0  0  0
 40 58  1  0  0  0
 41107  1  0  0  0
 41108  1  0  0  0
 41109  1  0  0  0
 41 48  1  0  0  0
 42 43  1  0  0  0
 42 66  1  0  0  0
 42110  1  0  0  0
 42111  1  0  0  0
 43 44  1  0  0  0
 44112  1  0  0  0
 45 46  2  0  0  0
 45113  1  0  0  0
 46114  1  0  0  0
 47115  1  0  0  0
 47116  1  0  0  0
 48 56  1  0  0  0
 48 65  1  0  0  0
 48117  1  0  0  0
 49 50  1  0  0  0
 49 53  1  0  0  0
 49 64  1  0  0  0
 49118  1  0  0  0
 50 51  1  0  0  0
 50119  1  0  0  0
 50120  1  0  0  0
 51 52  1  0  0  0
 51121  1  0  0  0
 51122  1  0  0  0
 52123  1  0  0  0
 52124  1  0  0  0
 53 54  1  0  0  0
 54 55  2  0  0  0
 54125  1  0  0  0
 55 57  1  0  0  0
 55126  1  0  0  0
 56 69  2  0  0  0
 57 58  2  0  0  0
 57127  1  0  0  0
 58128  1  0  0  0
 59 60  1  0  0  0
 59 61  1  0  0  0
 59 62  1  0  0  0
 60129  1  0  0  0
 60130  1  0  0  0
 60131  1  0  0  0
 61132  1  0  0  0
 61133  1  0  0  0
 61134  1  0  0  0
 62135  1  0  0  0
 62136  1  0  0  0
 62137  1  0  0  0
 63 65  1  0  0  0
 63138  1  0  0  0
 63139  1  0  0  0
 63140  1  0  0  0
 64141  1  0  0  0
 65142  1  0  0  0
 68 82  1  0  0  0
 71 72  2  0  0  0
 71 74  1  0  0  0
 71143  1  0  0  0
 72 75  1  0  0  0
 72144  1  0  0  0
 73 74  2  0  0  0
 73 76  1  0  0  0
 73145  1  0  0  0
 74 77  1  0  0  0
 75 76  2  0  0  0
 75 79  1  0  0  0
 76 83  1  0  0  0
 77 78  2  0  0  0
 77146  1  0  0  0
 78 80  1  0  0  0
 78147  1  0  0  0
 79148  1  0  0  0
 79149  1  0  0  0
 79150  1  0  0  0
 80 81  1  0  0  0
 80151  1  0  0  0
 80152  1  0  0  0
 81 82  1  0  0  0
 81153  1  0  0  0
 81154  1  0  0  0
 82155  1  0  0  0
 82156  1  0  0  0
 83157  1  0  0  0
M  ISO  4   1 100  68 101  82 101  83 100
M  END
> <chiral flag>
0

> <version>
0

> <s_m_source_file>
/data/baiqing/PycharmProjects/Reinvent-master-3.2/result/LINK_invent/BTK/process_docking_weight1_custom_product_contain_oxygen_bond_distance_aromatic_linkinvent_7_9_3/rearranged_h_0130.sdf

> <i_m_source_file_index>
42

> <r_mmod_Potential_Energy-OPLS-2005>
76.4987487792969

> <r_mmod_Stretch_Energy-OPLS-2005>
56.9033203125

> <r_mmod_Bend_Energy-OPLS-2005>
128.943862915039

> <r_mmod_Torsional_Energy-OPLS-2005>
263.209381103516

> <r_mmod_Improper_Torsional_Energy-OPLS-2005>
5.98338317871094

> <r_mmod_Van_der_Waal_Energy-OPLS-2005>
162.838973999023

> <r_mmod_Electrostatic_Energy-OPLS-2005>
-369.270050048828

> <r_mmod_Solvation_Energy-OPLS-2005>
-204.405242919922

> <b_mmod_Minimization_Converged-OPLS-2005>
0

> <r_mmod_RMS_Derivative-OPLS-2005>
6.75812959671021

$$$$
42
                    3D
 Structure written by MMmdl.
153161  0  0  1  0            999 V2000
  -30.7214  -14.5030   20.5602 C   0  0  0  0  0  0
  -30.4160  -12.3260   19.4319 C   0  0  0  0  0  0
  -29.4925  -12.5010   18.2101 C   0  0  0  0  0  0
  -28.0159  -12.3571   18.6255 C   0  0  0  0  0  0
  -27.6563  -13.2152   19.8684 C   0  0  2  0  0  0
  -28.7010  -13.0419   20.9946 C   0  0  0  0  0  0
  -25.2566  -13.8178   20.5682 C   0  0  0  0  0  0
  -24.1830  -13.0446   20.9189 C   0  0  0  0  0  0
  -24.6398  -11.6916   20.8748 C   0  0  0  0  0  0
  -23.9069  -10.4297   21.0411 C   0  0  0  0  0  0
  -24.3620   -9.4210   21.9187 C   0  0  0  0  0  0
  -23.6295   -8.2244   22.0757 C   0  0  0  0  0  0
  -22.4277   -8.0282   21.3546 C   0  0  0  0  0  0
  -21.9912   -9.0257   20.4650 C   0  0  0  0  0  0
  -22.7242  -10.2138   20.3060 C   0  0  0  0  0  0
  -21.6851   -6.0737   22.5279 C   0  0  0  0  0  0
  -21.4014   -6.5643   23.8213 C   0  0  0  0  0  0
  -21.3660   -5.6795   24.9175 C   0  0  0  0  0  0
  -21.6042   -4.3057   24.7224 C   0  0  0  0  0  0
  -21.8819   -3.8149   23.4346 C   0  0  0  0  0  0
  -21.9193   -4.6965   22.3401 C   0  0  0  0  0  0
  -22.7852  -13.5237   21.1847 C   0  0  0  0  0  0
  -22.1661   -4.2152   21.0978 F   0  0  0  0  0  0
  -21.5628   -3.4537   25.7737 F   0  0  0  0  0  0
  -30.0267  -13.3375   20.4302 N   0  0  0  0  0  0
  -26.3004  -12.9363   20.3358 N   0  0  0  0  0  0
  -25.9328  -11.6515   20.5782 N   0  0  0  0  0  0
  -22.0492  -12.8230   22.0405 N   0  0  0  0  0  0
  -25.4274  -15.1896   20.4062 N   0  0  0  0  0  0
  -31.8618  -14.6329   20.1074 O   0  0  0  0  0  0
  -21.6640   -6.8881   21.4242 O   0  0  0  0  0  0
  -22.3539  -14.5542   20.6697 O   0  0  0  0  0  0
  -24.6184  -31.8662   23.2098 C   0  0  0  0  0  0
  -25.9066  -32.4816   23.8393 C   0  0  1  0  0  0
  -27.2215  -27.4013   20.1015 C   0  0  0  0  0  0
  -25.5911  -33.8615   24.2323 N   0  0  0  0  0  0
  -23.4078  -30.4929   21.5505 C   0  0  2  0  0  0
  -24.8539  -28.9643   20.1077 C   0  0  0  0  0  0
  -22.7434  -29.4658   22.4967 C   0  0  0  0  0  0
  -18.0278  -28.1377   22.8496 C   0  0  0  0  0  0
  -24.1489  -36.7307   23.2636 C   0  0  0  0  0  0
  -25.9426  -30.8229   21.3698 C   0  0  0  0  0  0
  -26.0184  -29.4582   20.7108 C   0  0  0  0  0  0
  -27.2086  -28.6856   20.7036 C   0  0  0  0  0  0
  -26.0443  -26.9494   19.4628 C   0  0  0  0  0  0
  -24.8641  -27.7115   19.4770 C   0  0  0  0  0  0
  -23.6167  -29.8326   20.1629 C   0  0  0  0  0  0
  -25.4113  -36.3108   24.0335 C   0  0  1  0  0  0
  -20.5875  -28.3671   23.1305 C   0  0  2  0  0  0
  -20.6776  -26.9401   22.5418 C   0  0  0  0  0  0
  -19.5752  -26.6386   21.5216 C   0  0  0  0  0  0
  -18.1928  -26.7931   22.1623 C   0  0  0  0  0  0
  -19.1529  -28.8841   23.2900 C   0  0  0  0  0  0
  -18.9457  -30.1450   23.8907 C   0  0  0  0  0  0
  -17.6458  -30.6586   24.0564 C   0  0  0  0  0  0
  -25.9038  -34.9472   23.5128 C   0  0  0  0  0  0
  -16.5348  -29.9088   23.6326 C   0  0  0  0  0  0
  -16.7266  -28.6503   23.0350 C   0  0  0  0  0  0
  -26.4478  -31.6600   25.0729 C   0  0  0  0  0  0
  -25.3738  -31.3722   26.1473 C   0  0  0  0  0  0
  -27.0305  -30.3037   24.6126 C   0  0  0  0  0  0
  -27.6059  -32.4314   25.7489 C   0  0  0  0  0  0
  -27.5584  -37.1809   24.8464 C   0  0  0  0  0  0
  -21.4157  -29.3035   22.3707 N   0  0  0  0  0  0
  -26.4298  -37.3792   23.9404 N   0  0  0  0  0  0
  -24.6746  -31.0748   22.1010 N   0  0  0  0  0  0
  -23.4196  -28.8192   23.3008 O   0  0  0  0  0  0
  -28.3310  -26.5704   20.1595 O   0  0  0  0  0  0
  -26.5597  -34.8925   22.4686 O   0  0  0  0  0  0
  -23.5370  -32.1419   23.7482 O   0  0  0  0  0  0
  -33.7015  -18.5535   22.5443 C   0  0  0  0  0  0
  -31.8511  -17.0920   21.7944 C   0  0  0  0  0  0
  -31.6003  -19.5184   21.6535 C   0  0  0  0  0  0
  -29.7823  -18.0603   20.9478 C   0  0  0  0  0  0
  -32.3683  -18.3863   21.9896 C   0  0  0  0  0  0
  -30.5600  -16.9033   21.2501 C   0  0  0  0  0  0
  -30.2887  -19.3813   21.1341 C   0  0  0  0  0  0
  -29.1529  -24.2441   20.7942 C   0  0  0  0  0  0
  -28.9390  -22.9041   20.8628 C   0  0  0  0  0  0
  -28.0219  -25.2768   20.7449 C   0  0  0  0  0  0
  -30.0023  -21.8127   21.0221 C   0  0  0  0  0  0
  -34.7643  -18.6873   22.9871 N   0  0  0  0  0  0
  -30.0432  -15.5714   21.0492 N   0  0  0  0  0  0
  -29.4908  -20.4775   20.8042 O   0  0  0  0  0  0
  -31.4611  -12.4107   19.1289 H   0  0  0  0  0  0
  -30.3107  -11.3250   19.8529 H   0  0  0  0  0  0
  -29.7384  -11.7652   17.4432 H   0  0  0  0  0  0
  -29.6555  -13.4808   17.7584 H   0  0  0  0  0  0
  -27.8365  -11.3029   18.8398 H   0  0  0  0  0  0
  -27.3621  -12.6112   17.7905 H   0  0  0  0  0  0
  -27.6877  -14.2564   19.5464 H   0  0  0  0  0  0
  -28.6839  -12.0208   21.3786 H   0  0  0  0  0  0
  -28.4646  -13.6822   21.8458 H   0  0  0  0  0  0
  -25.2766   -9.5681   22.4760 H   0  0  0  0  0  0
  -24.0003   -7.4633   22.7475 H   0  0  0  0  0  0
  -21.0843   -8.8777   19.8955 H   0  0  0  0  0  0
  -22.3702  -10.9675   19.6168 H   0  0  0  0  0  0
  -21.2005   -7.6151   23.9717 H   0  0  0  0  0  0
  -21.1480   -6.0525   25.9079 H   0  0  0  0  0  0
  -22.0597   -2.7612   23.2843 H   0  0  0  0  0  0
  -22.4104  -11.9887   22.4785 H   0  0  0  0  0  0
  -21.1115  -13.1263   22.2617 H   0  0  0  0  0  0
  -24.6581  -15.8434   20.5034 H   0  0  0  0  0  0
  -26.2746  -15.6253   20.0643 H   0  0  0  0  0  0
  -26.7135  -32.5514   23.1148 H   0  0  0  0  0  0
  -25.0083  -33.9775   25.0488 H   0  0  0  0  0  0
  -22.6984  -31.3119   21.4145 H   0  0  0  0  0  0
  -23.3753  -35.9637   23.3308 H   0  0  0  0  0  0
  -24.3588  -36.8910   22.2047 H   0  0  0  0  0  0
  -23.7241  -37.6517   23.6643 H   0  0  0  0  0  0
  -26.0655  -31.5914   20.6052 H   0  0  0  0  0  0
  -26.8267  -30.8692   21.9938 H   0  0  0  0  0  0
  -28.1010  -29.0555   21.1898 H   0  0  0  0  0  0
  -26.0219  -25.9979   18.9519 H   0  0  0  0  0  0
  -23.9739  -27.3315   18.9951 H   0  0  0  0  0  0
  -23.7260  -30.6105   19.4065 H   0  0  0  0  0  0
  -22.7396  -29.2554   19.8649 H   0  0  0  0  0  0
  -25.1296  -36.1965   25.0828 H   0  0  0  0  0  0
  -20.9977  -28.3232   24.1421 H   0  0  0  0  0  0
  -20.5685  -26.2273   23.3607 H   0  0  0  0  0  0
  -21.6645  -26.7446   22.1201 H   0  0  0  0  0  0
  -19.6911  -25.6300   21.1234 H   0  0  0  0  0  0
  -19.6693  -27.3206   20.6754 H   0  0  0  0  0  0
  -17.4207  -26.6684   21.4015 H   0  0  0  0  0  0
  -18.0319  -26.0071   22.9013 H   0  0  0  0  0  0
  -19.7932  -30.7264   24.2281 H   0  0  0  0  0  0
  -17.5012  -31.6263   24.5163 H   0  0  0  0  0  0
  -15.5350  -30.2990   23.7652 H   0  0  0  0  0  0
  -15.8667  -28.0825   22.7059 H   0  0  0  0  0  0
  -24.5909  -30.7068   25.7812 H   0  0  0  0  0  0
  -24.8928  -32.2886   26.4904 H   0  0  0  0  0  0
  -25.8084  -30.8901   27.0238 H   0  0  0  0  0  0
  -26.2853  -29.6801   24.1173 H   0  0  0  0  0  0
  -27.4056  -29.7268   25.4588 H   0  0  0  0  0  0
  -27.8699  -30.4346   23.9295 H   0  0  0  0  0  0
  -27.2691  -33.3615   26.2075 H   0  0  0  0  0  0
  -28.3865  -32.6866   25.0311 H   0  0  0  0  0  0
  -28.0729  -31.8426   26.5394 H   0  0  0  0  0  0
  -28.2613  -38.0096   24.7512 H   0  0  0  0  0  0
  -28.1072  -36.2633   24.6296 H   0  0  0  0  0  0
  -27.2303  -37.1461   25.8866 H   0  0  0  0  0  0
  -20.9319  -29.8760   21.6931 H   0  0  0  0  0  0
  -26.0187  -38.2870   24.1405 H   0  0  0  0  0  0
  -32.4606  -16.2410   22.0666 H   0  0  0  0  0  0
  -32.0466  -20.4890   21.8133 H   0  0  0  0  0  0
  -28.7848  -17.9402   20.5491 H   0  0  0  0  0  0
  -30.1611  -24.6329   20.8189 H   0  0  0  0  0  0
  -27.9196  -22.5432   20.8455 H   0  0  0  0  0  0
  -27.7083  -25.4511   21.7755 H   0  0  0  0  0  0
  -27.1848  -24.7835   20.2523 H   0  0  0  0  0  0
  -30.3675  -21.8994   22.0462 H   0  0  0  0  0  0
  -30.8377  -22.0175   20.3512 H   0  0  0  0  0  0
  -29.0602  -15.4266   21.2247 H   0  0  0  0  0  0
  1 25  1  0  0  0
  1 30  2  0  0  0
  1 83  1  0  0  0
  2  3  1  0  0  0
  2 25  1  0  0  0
  2 85  1  0  0  0
  2 86  1  0  0  0
  3  4  1  0  0  0
  3 87  1  0  0  0
  3 88  1  0  0  0
  4  5  1  0  0  0
  4 89  1  0  0  0
  4 90  1  0  0  0
  5  6  1  0  0  0
  5 26  1  0  0  0
  5 91  1  0  0  0
  6 25  1  0  0  0
  6 92  1  0  0  0
  6 93  1  0  0  0
  7  8  2  0  0  0
  7 26  1  0  0  0
  7 29  1  0  0  0
  8  9  1  0  0  0
  8 22  1  0  0  0
  9 10  1  0  0  0
  9 27  2  0  0  0
 10 11  2  0  0  0
 10 15  1  0  0  0
 11 12  1  0  0  0
 11 94  1  0  0  0
 12 13  2  0  0  0
 12 95  1  0  0  0
 13 14  1  0  0  0
 13 31  1  0  0  0
 14 15  2  0  0  0
 14 96  1  0  0  0
 15 97  1  0  0  0
 16 17  2  0  0  0
 16 21  1  0  0  0
 16 31  1  0  0  0
 17 18  1  0  0  0
 17 98  1  0  0  0
 18 19  2  0  0  0
 18 99  1  0  0  0
 19 20  1  0  0  0
 19 24  1  0  0  0
 20 21  2  0  0  0
 20100  1  0  0  0
 21 23  1  0  0  0
 22 28  1  0  0  0
 22 32  2  0  0  0
 26 27  1  0  0  0
 28101  1  0  0  0
 28102  1  0  0  0
 29103  1  0  0  0
 29104  1  0  0  0
 33 34  1  0  0  0
 33 66  1  0  0  0
 33 70  2  0  0  0
 34 36  1  0  0  0
 34 59  1  0  0  0
 34105  1  0  0  0
 35 44  2  0  0  0
 35 45  1  0  0  0
 35 68  1  0  0  0
 36 56  1  0  0  0
 36106  1  0  0  0
 37 39  1  0  0  0
 37 47  1  0  0  0
 37 66  1  0  0  0
 37107  1  0  0  0
 38 43  2  0  0  0
 38 46  1  0  0  0
 38 47  1  0  0  0
 39 64  1  0  0  0
 39 67  2  0  0  0
 40 52  1  0  0  0
 40 53  2  0  0  0
 40 58  1  0  0  0
 41108  1  0  0  0
 41109  1  0  0  0
 41110  1  0  0  0
 41 48  1  0  0  0
 42 43  1  0  0  0
 42 66  1  0  0  0
 42111  1  0  0  0
 42112  1  0  0  0
 43 44  1  0  0  0
 44113  1  0  0  0
 45 46  2  0  0  0
 45114  1  0  0  0
 46115  1  0  0  0
 47116  1  0  0  0
 47117  1  0  0  0
 48 56  1  0  0  0
 48 65  1  0  0  0
 48118  1  0  0  0
 49 50  1  0  0  0
 49 53  1  0  0  0
 49 64  1  0  0  0
 49119  1  0  0  0
 50 51  1  0  0  0
 50120  1  0  0  0
 50121  1  0  0  0
 51 52  1  0  0  0
 51122  1  0  0  0
 51123  1  0  0  0
 52124  1  0  0  0
 52125  1  0  0  0
 53 54  1  0  0  0
 54 55  2  0  0  0
 54126  1  0  0  0
 55 57  1  0  0  0
 55127  1  0  0  0
 56 69  2  0  0  0
 57 58  2  0  0  0
 57128  1  0  0  0
 58129  1  0  0  0
 59 60  1  0  0  0
 59 61  1  0  0  0
 59 62  1  0  0  0
 60130  1  0  0  0
 60131  1  0  0  0
 60132  1  0  0  0
 61133  1  0  0  0
 61134  1  0  0  0
 61135  1  0  0  0
 62136  1  0  0  0
 62137  1  0  0  0
 62138  1  0  0  0
 63 65  1  0  0  0
 63139  1  0  0  0
 63140  1  0  0  0
 63141  1  0  0  0
 64142  1  0  0  0
 65143  1  0  0  0
 68 80  1  0  0  0
 71 75  1  0  0  0
 71 82  3  0  0  0
 72 75  2  0  0  0
 72 76  1  0  0  0
 72144  1  0  0  0
 73 75  1  0  0  0
 73 77  2  0  0  0
 73145  1  0  0  0
 74 76  2  0  0  0
 74 77  1  0  0  0
 74146  1  0  0  0
 76 83  1  0  0  0
 77 84  1  0  0  0
 78 79  2  0  0  0
 78 80  1  0  0  0
 78147  1  0  0  0
 79 81  1  0  0  0
 79148  1  0  0  0
 80149  1  0  0  0
 80150  1  0  0  0
 81 84  1  0  0  0
 81151  1  0  0  0
 81152  1  0  0  0
 83153  1  0  0  0
M  ISO  4   1 100  68 101  80 101  83 100
M  END
> <chiral flag>
0

> <version>
0

> <s_m_source_file>
/data/baiqing/PycharmProjects/Reinvent-master-3.2/result/LINK_invent/BTK/process_docking_weight1_custom_product_contain_oxygen_bond_distance_aromatic_linkinvent_7_9_3/rearranged_h_0130.sdf

> <i_m_source_file_index>
43

> <r_mmod_Potential_Energy-OPLS-2005>
-6.14982843399048

> <r_mmod_Stretch_Energy-OPLS-2005>
46.6917724609375

> <r_mmod_Bend_Energy-OPLS-2005>
98.9853363037109

> <r_mmod_Torsional_Energy-OPLS-2005>
235.831817626953

> <r_mmod_Improper_Torsional_Energy-OPLS-2005>
4.32073879241943

> <r_mmod_Van_der_Waal_Energy-OPLS-2005>
160.344329833984

> <r_mmod_Electrostatic_Energy-OPLS-2005>
-356.796875

> <r_mmod_Solvation_Energy-OPLS-2005>
-217.988220214844

> <b_mmod_Minimization_Converged-OPLS-2005>
0

> <r_mmod_RMS_Derivative-OPLS-2005>
0.801947355270386

$$$$
43
                    3D
 Structure written by MMmdl.
156164  0  0  1  0            999 V2000
  -30.7535  -14.3795   20.7220 C   0  0  0  0  0  0
  -30.4230  -12.3194   19.3840 C   0  0  0  0  0  0
  -29.4815  -12.5428   18.1860 C   0  0  0  0  0  0
  -28.0092  -12.3773   18.6075 C   0  0  0  0  0  0
  -27.6653  -13.1977   19.8759 C   0  0  2  0  0  0
  -28.7014  -12.9338   20.9882 C   0  0  0  0  0  0
  -25.2603  -13.8147   20.5670 C   0  0  0  0  0  0
  -24.1843  -13.0441   20.9168 C   0  0  0  0  0  0
  -24.6383  -11.6903   20.8715 C   0  0  0  0  0  0
  -23.9046  -10.4297   21.0388 C   0  0  0  0  0  0
  -24.3606   -9.4224   21.9173 C   0  0  0  0  0  0
  -23.6293   -8.2255   22.0751 C   0  0  0  0  0  0
  -22.4275   -8.0283   21.3543 C   0  0  0  0  0  0
  -21.9901   -9.0250   20.4648 C   0  0  0  0  0  0
  -22.7218  -10.2132   20.3047 C   0  0  0  0  0  0
  -21.6849   -6.0744   22.5288 C   0  0  0  0  0  0
  -21.4009   -6.5646   23.8220 C   0  0  0  0  0  0
  -21.3656   -5.6794   24.9178 C   0  0  0  0  0  0
  -21.6039   -4.3058   24.7222 C   0  0  0  0  0  0
  -21.8820   -3.8155   23.4344 C   0  0  0  0  0  0
  -21.9196   -4.6975   22.3403 C   0  0  0  0  0  0
  -22.7870  -13.5251   21.1842 C   0  0  0  0  0  0
  -22.1666   -4.2164   21.0975 F   0  0  0  0  0  0
  -21.5626   -3.4538   25.7730 F   0  0  0  0  0  0
  -30.0434  -13.2483   20.4585 N   0  0  0  0  0  0
  -26.3034  -12.9304   20.3354 N   0  0  0  0  0  0
  -25.9300  -11.6468   20.5725 N   0  0  0  0  0  0
  -22.0504  -12.8248   22.0401 N   0  0  0  0  0  0
  -25.4342  -15.1863   20.4073 N   0  0  0  0  0  0
  -31.7262  -14.7269   20.0441 O   0  0  0  0  0  0
  -21.6639   -6.8884   21.4252 O   0  0  0  0  0  0
  -22.3561  -14.5570   20.6703 O   0  0  0  0  0  0
  -24.6136  -31.8681   23.2101 C   0  0  0  0  0  0
  -25.9038  -32.4817   23.8392 C   0  0  1  0  0  0
  -27.2335  -27.4417   20.0991 C   0  0  0  0  0  0
  -25.5899  -33.8617   24.2332 N   0  0  0  0  0  0
  -23.4007  -30.4932   21.5502 C   0  0  2  0  0  0
  -24.8461  -28.9575   20.1171 C   0  0  0  0  0  0
  -22.7396  -29.4669   22.4986 C   0  0  0  0  0  0
  -18.0266  -28.1372   22.8501 C   0  0  0  0  0  0
  -24.1489  -36.7307   23.2638 C   0  0  0  0  0  0
  -25.9290  -30.8359   21.3613 C   0  0  0  0  0  0
  -26.0060  -29.4700   20.7113 C   0  0  0  0  0  0
  -27.2047  -28.7217   20.6961 C   0  0  0  0  0  0
  -26.0578  -26.9433   19.4954 C   0  0  0  0  0  0
  -24.8652  -27.6910   19.5072 C   0  0  0  0  0  0
  -23.6076  -29.8245   20.1650 C   0  0  0  0  0  0
  -25.4101  -36.3099   24.0343 C   0  0  1  0  0  0
  -20.5859  -28.3651   23.1314 C   0  0  2  0  0  0
  -20.6759  -26.9384   22.5411 C   0  0  0  0  0  0
  -19.5735  -26.6381   21.5211 C   0  0  0  0  0  0
  -18.1919  -26.7921   22.1631 C   0  0  0  0  0  0
  -19.1517  -28.8828   23.2908 C   0  0  0  0  0  0
  -18.9453  -30.1445   23.8905 C   0  0  0  0  0  0
  -17.6457  -30.6579   24.0569 C   0  0  0  0  0  0
  -25.9028  -34.9470   23.5127 C   0  0  0  0  0  0
  -16.5346  -29.9087   23.6332 C   0  0  0  0  0  0
  -16.7257  -28.6503   23.0348 C   0  0  0  0  0  0
  -26.4472  -31.6585   25.0712 C   0  0  0  0  0  0
  -25.3753  -31.3685   26.1470 C   0  0  0  0  0  0
  -27.0304  -30.3033   24.6072 C   0  0  0  0  0  0
  -27.6052  -32.4299   25.7478 C   0  0  0  0  0  0
  -27.5578  -37.1797   24.8460 C   0  0  0  0  0  0
  -21.4127  -29.3027   22.3725 N   0  0  0  0  0  0
  -26.4281  -37.3793   23.9422 N   0  0  0  0  0  0
  -24.6662  -31.0803   22.0991 N   0  0  0  0  0  0
  -23.4169  -28.8203   23.3015 O   0  0  0  0  0  0
  -28.4073  -26.7207   20.0721 O   0  0  0  0  0  0
  -26.5597  -34.8928   22.4692 O   0  0  0  0  0  0
  -23.5332  -32.1418   23.7513 O   0  0  0  0  0  0
  -29.7887  -18.6733   19.1240 C   0  0  0  0  0  0
  -29.8262  -17.4896   19.8884 C   0  0  0  0  0  0
  -30.0999  -19.9181   19.7101 C   0  0  0  0  0  0
  -30.4703  -18.8000   21.8269 C   0  0  0  0  0  0
  -30.1513  -17.5449   21.2603 C   0  0  0  0  0  0
  -30.4603  -20.0040   21.0747 C   0  0  0  0  0  0
  -30.1660  -16.3687   22.1594 C   0  0  0  0  0  0
  -30.3666  -15.0450   21.9586 C   0  0  0  0  0  0
  -30.6892  -22.6376   21.0885 C   0  0  0  0  0  0
  -29.5655  -23.1208   20.5231 C   0  0  0  0  0  0
  -30.8495  -21.3041   21.7152 C   0  0  0  0  0  0
  -29.4550  -24.5191   19.9222 C   0  0  0  0  0  0
  -28.3409  -25.3723   20.5577 C   0  0  0  0  0  0
  -31.4242  -21.3160   22.8429 N   0  0  0  0  0  0
  -31.4629  -12.4435   19.0758 H   0  0  0  0  0  0
  -30.3442  -11.2924   19.7426 H   0  0  0  0  0  0
  -29.7223  -11.8437   17.3842 H   0  0  0  0  0  0
  -29.6376  -13.5424   17.7783 H   0  0  0  0  0  0
  -27.8300  -11.3179   18.7938 H   0  0  0  0  0  0
  -27.3477  -12.6565   17.7866 H   0  0  0  0  0  0
  -27.7250  -14.2525   19.6056 H   0  0  0  0  0  0
  -28.6720  -11.8871   21.2919 H   0  0  0  0  0  0
  -28.4198  -13.4963   21.8772 H   0  0  0  0  0  0
  -25.2748   -9.5700   22.4748 H   0  0  0  0  0  0
  -24.0005   -7.4642   22.7460 H   0  0  0  0  0  0
  -21.0836   -8.8760   19.8949 H   0  0  0  0  0  0
  -22.3675  -10.9667   19.6155 H   0  0  0  0  0  0
  -21.1994   -7.6152   23.9730 H   0  0  0  0  0  0
  -21.1476   -6.0518   25.9081 H   0  0  0  0  0  0
  -22.0599   -2.7621   23.2833 H   0  0  0  0  0  0
  -22.4108  -11.9906   22.4789 H   0  0  0  0  0  0
  -21.1121  -13.1273   22.2596 H   0  0  0  0  0  0
  -24.6718  -15.8451   20.5212 H   0  0  0  0  0  0
  -26.2975  -15.6259   20.1134 H   0  0  0  0  0  0
  -26.7107  -32.5530   23.1155 H   0  0  0  0  0  0
  -25.0086  -33.9792   25.0501 H   0  0  0  0  0  0
  -22.6886  -31.3092   21.4104 H   0  0  0  0  0  0
  -23.3745  -35.9647   23.3309 H   0  0  0  0  0  0
  -24.3587  -36.8899   22.2048 H   0  0  0  0  0  0
  -23.7251  -37.6523   23.6635 H   0  0  0  0  0  0
  -26.0413  -31.6003   20.5917 H   0  0  0  0  0  0
  -26.8176  -30.8891   21.9785 H   0  0  0  0  0  0
  -28.1029  -29.1191   21.1486 H   0  0  0  0  0  0
  -26.0587  -25.9843   18.9983 H   0  0  0  0  0  0
  -23.9751  -27.2917   19.0406 H   0  0  0  0  0  0
  -23.7150  -30.5986   19.4040 H   0  0  0  0  0  0
  -22.7318  -29.2434   19.8709 H   0  0  0  0  0  0
  -25.1271  -36.1966   25.0835 H   0  0  0  0  0  0
  -20.9963  -28.3216   24.1430 H   0  0  0  0  0  0
  -20.5668  -26.2253   23.3595 H   0  0  0  0  0  0
  -21.6631  -26.7430   22.1198 H   0  0  0  0  0  0
  -19.6898  -25.6303   21.1217 H   0  0  0  0  0  0
  -19.6683  -27.3221   20.6765 H   0  0  0  0  0  0
  -17.4186  -26.6665   21.4034 H   0  0  0  0  0  0
  -18.0320  -26.0062   22.9027 H   0  0  0  0  0  0
  -19.7928  -30.7262   24.2267 H   0  0  0  0  0  0
  -17.5012  -31.6264   24.5163 H   0  0  0  0  0  0
  -15.5349  -30.2993   23.7652 H   0  0  0  0  0  0
  -15.8655  -28.0835   22.7043 H   0  0  0  0  0  0
  -24.5935  -30.7009   25.7824 H   0  0  0  0  0  0
  -24.8937  -32.2841   26.4918 H   0  0  0  0  0  0
  -25.8130  -30.8871   27.0227 H   0  0  0  0  0  0
  -26.2843  -29.6797   24.1132 H   0  0  0  0  0  0
  -27.4095  -29.7257   25.4513 H   0  0  0  0  0  0
  -27.8665  -30.4358   23.9202 H   0  0  0  0  0  0
  -27.2658  -33.3570   26.2114 H   0  0  0  0  0  0
  -28.3839  -32.6903   25.0295 H   0  0  0  0  0  0
  -28.0752  -31.8391   26.5352 H   0  0  0  0  0  0
  -28.2579  -38.0113   24.7540 H   0  0  0  0  0  0
  -28.1091  -36.2644   24.6238 H   0  0  0  0  0  0
  -27.2305  -37.1387   25.8867 H   0  0  0  0  0  0
  -20.9265  -29.8756   21.6971 H   0  0  0  0  0  0
  -26.0162  -38.2867   24.1453 H   0  0  0  0  0  0
  -29.5222  -18.6265   18.0773 H   0  0  0  0  0  0
  -29.5701  -16.5530   19.4155 H   0  0  0  0  0  0
  -30.0817  -20.8043   19.0920 H   0  0  0  0  0  0
  -30.7261  -18.8283   22.8759 H   0  0  0  0  0  0
  -29.9283  -16.6198   23.1838 H   0  0  0  0  0  0
  -30.2611  -14.4092   22.8264 H   0  0  0  0  0  0
  -31.5757  -23.2550   21.1302 H   0  0  0  0  0  0
  -28.6761  -22.5070   20.4854 H   0  0  0  0  0  0
  -29.2736  -24.4219   18.8511 H   0  0  0  0  0  0
  -30.4106  -25.0339   20.0305 H   0  0  0  0  0  0
  -28.4675  -25.3994   21.6413 H   0  0  0  0  0  0
  -27.3809  -24.8908   20.3723 H   0  0  0  0  0  0
  -31.5488  -20.3786   23.2080 H   0  0  0  0  0  0
  1 25  1  0  0  0
  1 30  2  0  0  0
  1 78  1  0  0  0
  2  3  1  0  0  0
  2 25  1  0  0  0
  2 85  1  0  0  0
  2 86  1  0  0  0
  3  4  1  0  0  0
  3 87  1  0  0  0
  3 88  1  0  0  0
  4  5  1  0  0  0
  4 89  1  0  0  0
  4 90  1  0  0  0
  5  6  1  0  0  0
  5 26  1  0  0  0
  5 91  1  0  0  0
  6 25  1  0  0  0
  6 92  1  0  0  0
  6 93  1  0  0  0
  7  8  2  0  0  0
  7 26  1  0  0  0
  7 29  1  0  0  0
  8  9  1  0  0  0
  8 22  1  0  0  0
  9 10  1  0  0  0
  9 27  2  0  0  0
 10 11  2  0  0  0
 10 15  1  0  0  0
 11 12  1  0  0  0
 11 94  1  0  0  0
 12 13  2  0  0  0
 12 95  1  0  0  0
 13 14  1  0  0  0
 13 31  1  0  0  0
 14 15  2  0  0  0
 14 96  1  0  0  0
 15 97  1  0  0  0
 16 17  2  0  0  0
 16 21  1  0  0  0
 16 31  1  0  0  0
 17 18  1  0  0  0
 17 98  1  0  0  0
 18 19  2  0  0  0
 18 99  1  0  0  0
 19 20  1  0  0  0
 19 24  1  0  0  0
 20 21  2  0  0  0
 20100  1  0  0  0
 21 23  1  0  0  0
 22 28  1  0  0  0
 22 32  2  0  0  0
 26 27  1  0  0  0
 28101  1  0  0  0
 28102  1  0  0  0
 29103  1  0  0  0
 29104  1  0  0  0
 33 34  1  0  0  0
 33 66  1  0  0  0
 33 70  2  0  0  0
 34 36  1  0  0  0
 34 59  1  0  0  0
 34105  1  0  0  0
 35 44  2  0  0  0
 35 45  1  0  0  0
 35 68  1  0  0  0
 36 56  1  0  0  0
 36106  1  0  0  0
 37 39  1  0  0  0
 37 47  1  0  0  0
 37 66  1  0  0  0
 37107  1  0  0  0
 38 43  2  0  0  0
 38 46  1  0  0  0
 38 47  1  0  0  0
 39 64  1  0  0  0
 39 67  2  0  0  0
 40 52  1  0  0  0
 40 53  2  0  0  0
 40 58  1  0  0  0
 41108  1  0  0  0
 41109  1  0  0  0
 41110  1  0  0  0
 41 48  1  0  0  0
 42 43  1  0  0  0
 42 66  1  0  0  0
 42111  1  0  0  0
 42112  1  0  0  0
 43 44  1  0  0  0
 44113  1  0  0  0
 45 46  2  0  0  0
 45114  1  0  0  0
 46115  1  0  0  0
 47116  1  0  0  0
 47117  1  0  0  0
 48 56  1  0  0  0
 48 65  1  0  0  0
 48118  1  0  0  0
 49 50  1  0  0  0
 49 53  1  0  0  0
 49 64  1  0  0  0
 49119  1  0  0  0
 50 51  1  0  0  0
 50120  1  0  0  0
 50121  1  0  0  0
 51 52  1  0  0  0
 51122  1  0  0  0
 51123  1  0  0  0
 52124  1  0  0  0
 52125  1  0  0  0
 53 54  1  0  0  0
 54 55  2  0  0  0
 54126  1  0  0  0
 55 57  1  0  0  0
 55127  1  0  0  0
 56 69  2  0  0  0
 57 58  2  0  0  0
 57128  1  0  0  0
 58129  1  0  0  0
 59 60  1  0  0  0
 59 61  1  0  0  0
 59 62  1  0  0  0
 60130  1  0  0  0
 60131  1  0  0  0
 60132  1  0  0  0
 61133  1  0  0  0
 61134  1  0  0  0
 61135  1  0  0  0
 62136  1  0  0  0
 62137  1  0  0  0
 62138  1  0  0  0
 63 65  1  0  0  0
 63139  1  0  0  0
 63140  1  0  0  0
 63141  1  0  0  0
 64142  1  0  0  0
 65143  1  0  0  0
 68 83  1  0  0  0
 71 72  2  0  0  0
 71 73  1  0  0  0
 71144  1  0  0  0
 72 75  1  0  0  0
 72145  1  0  0  0
 73 76  2  0  0  0
 73146  1  0  0  0
 74 75  2  0  0  0
 74 76  1  0  0  0
 74147  1  0  0  0
 75 77  1  0  0  0
 76 81  1  0  0  0
 77 78  2  0  0  0
 77148  1  0  0  0
 78149  1  0  0  0
 79 80  2  0  0  0
 79 81  1  0  0  0
 79150  1  0  0  0
 80 82  1  0  0  0
 80151  1  0  0  0
 81 84  2  0  0  0
 82 83  1  0  0  0
 82152  1  0  0  0
 82153  1  0  0  0
 83154  1  0  0  0
 83155  1  0  0  0
 84156  1  0  0  0
M  ISO  4   1 100  68 101  78 100  83 101
M  END
> <chiral flag>
0

> <version>
0

> <s_m_source_file>
/data/baiqing/PycharmProjects/Reinvent-master-3.2/result/LINK_invent/BTK/process_docking_weight1_custom_product_contain_oxygen_bond_distance_aromatic_linkinvent_7_9_3/rearranged_h_0130.sdf

> <i_m_source_file_index>
44

> <r_mmod_Potential_Energy-OPLS-2005>
0.553341090679169

> <r_mmod_Stretch_Energy-OPLS-2005>
36.237621307373

> <r_mmod_Bend_Energy-OPLS-2005>
111.811462402344

> <r_mmod_Torsional_Energy-OPLS-2005>
215.124160766602

> <r_mmod_Improper_Torsional_Energy-OPLS-2005>
3.77786183357239

> <r_mmod_Van_der_Waal_Energy-OPLS-2005>
156.04345703125

> <r_mmod_Electrostatic_Energy-OPLS-2005>
-327.930541992188

> <r_mmod_Solvation_Energy-OPLS-2005>
-203.39176940918

> <b_mmod_Minimization_Converged-OPLS-2005>
0

> <r_mmod_RMS_Derivative-OPLS-2005>
1.57875466346741

$$$$
44
                    3D
 Structure written by MMmdl.
154162  0  0  1  0            999 V2000
  -30.7092  -14.4496   20.5944 C   0  0  0  0  0  0
  -30.4174  -12.3037   19.4142 C   0  0  0  0  0  0
  -29.4905  -12.5286   18.2006 C   0  0  0  0  0  0
  -28.0087  -12.3925   18.6064 C   0  0  0  0  0  0
  -27.6619  -13.2075   19.8814 C   0  0  2  0  0  0
  -28.7022  -12.9457   20.9916 C   0  0  0  0  0  0
  -25.2567  -13.8165   20.5704 C   0  0  0  0  0  0
  -24.1815  -13.0437   20.9190 C   0  0  0  0  0  0
  -24.6374  -11.6907   20.8748 C   0  0  0  0  0  0
  -23.9043  -10.4291   21.0406 C   0  0  0  0  0  0
  -24.3609   -9.4208   21.9179 C   0  0  0  0  0  0
  -23.6303   -8.2234   22.0749 C   0  0  0  0  0  0
  -22.4275   -8.0270   21.3551 C   0  0  0  0  0  0
  -21.9901   -9.0237   20.4649 C   0  0  0  0  0  0
  -22.7217  -10.2127   20.3053 C   0  0  0  0  0  0
  -21.6851   -6.0737   22.5290 C   0  0  0  0  0  0
  -21.4005   -6.5644   23.8224 C   0  0  0  0  0  0
  -21.3659   -5.6800   24.9188 C   0  0  0  0  0  0
  -21.6047   -4.3062   24.7238 C   0  0  0  0  0  0
  -21.8815   -3.8151   23.4361 C   0  0  0  0  0  0
  -21.9188   -4.6964   22.3414 C   0  0  0  0  0  0
  -22.7836  -13.5232   21.1862 C   0  0  0  0  0  0
  -22.1659   -4.2149   21.0996 F   0  0  0  0  0  0
  -21.5633   -3.4544   25.7749 F   0  0  0  0  0  0
  -30.0348  -13.2718   20.4567 N   0  0  0  0  0  0
  -26.3016  -12.9341   20.3399 N   0  0  0  0  0  0
  -25.9298  -11.6497   20.5772 N   0  0  0  0  0  0
  -22.0471  -12.8240   22.0430 N   0  0  0  0  0  0
  -25.4275  -15.1882   20.4133 N   0  0  0  0  0  0
  -31.8134  -14.6264   20.0697 O   0  0  0  0  0  0
  -21.6644   -6.8868   21.4247 O   0  0  0  0  0  0
  -22.3528  -14.5548   20.6723 O   0  0  0  0  0  0
  -24.6140  -31.8683   23.2102 C   0  0  0  0  0  0
  -25.9031  -32.4829   23.8405 C   0  0  1  0  0  0
  -27.2385  -27.4513   20.1027 C   0  0  0  0  0  0
  -25.5894  -33.8629   24.2336 N   0  0  0  0  0  0
  -23.4023  -30.4906   21.5501 C   0  0  2  0  0  0
  -24.8520  -28.9589   20.1131 C   0  0  0  0  0  0
  -22.7412  -29.4656   22.4993 C   0  0  0  0  0  0
  -18.0268  -28.1379   22.8494 C   0  0  0  0  0  0
  -24.1480  -36.7319   23.2630 C   0  0  0  0  0  0
  -25.9290  -30.8414   21.3592 C   0  0  0  0  0  0
  -26.0104  -29.4767   20.7081 C   0  0  0  0  0  0
  -27.2104  -28.7313   20.6967 C   0  0  0  0  0  0
  -26.0684  -26.9423   19.5016 C   0  0  0  0  0  0
  -24.8760  -27.6911   19.5040 C   0  0  0  0  0  0
  -23.6107  -29.8209   20.1645 C   0  0  0  0  0  0
  -25.4095  -36.3115   24.0337 C   0  0  1  0  0  0
  -20.5861  -28.3665   23.1322 C   0  0  2  0  0  0
  -20.6757  -26.9399   22.5421 C   0  0  0  0  0  0
  -19.5735  -26.6384   21.5218 C   0  0  0  0  0  0
  -18.1915  -26.7926   22.1628 C   0  0  0  0  0  0
  -19.1520  -28.8837   23.2907 C   0  0  0  0  0  0
  -18.9447  -30.1447   23.8913 C   0  0  0  0  0  0
  -17.6447  -30.6581   24.0566 C   0  0  0  0  0  0
  -25.9031  -34.9480   23.5134 C   0  0  0  0  0  0
  -16.5339  -29.9084   23.6327 C   0  0  0  0  0  0
  -16.7257  -28.6505   23.0343 C   0  0  0  0  0  0
  -26.4464  -31.6600   25.0725 C   0  0  0  0  0  0
  -25.3743  -31.3693   26.1484 C   0  0  0  0  0  0
  -27.0284  -30.3043   24.6080 C   0  0  0  0  0  0
  -27.6052  -32.4312   25.7478 C   0  0  0  0  0  0
  -27.5598  -37.1782   24.8440 C   0  0  0  0  0  0
  -21.4138  -29.3033   22.3732 N   0  0  0  0  0  0
  -26.4270  -37.3816   23.9444 N   0  0  0  0  0  0
  -24.6669  -31.0804   22.0991 N   0  0  0  0  0  0
  -23.4191  -28.8202   23.3030 O   0  0  0  0  0  0
  -28.3841  -26.6939   20.1113 O   0  0  0  0  0  0
  -26.5597  -34.8931   22.4697 O   0  0  0  0  0  0
  -23.5332  -32.1425   23.7508 O   0  0  0  0  0  0
  -28.3976  -19.1810   23.3091 C   0  0  0  0  0  0
  -28.9140  -17.9942   22.7541 C   0  0  0  0  0  0
  -28.6063  -20.4185   22.6712 C   0  0  0  0  0  0
  -29.8452  -19.2817   20.9135 C   0  0  0  0  0  0
  -29.6536  -18.0314   21.5512 C   0  0  0  0  0  0
  -29.3322  -20.4816   21.4608 C   0  0  0  0  0  0
  -30.2257  -16.8134   20.9363 C   0  0  0  0  0  0
  -30.0174  -15.5268   21.3045 C   0  0  0  0  0  0
  -29.0439  -24.3454   20.4977 C   0  0  0  0  0  0
  -29.5881  -21.8066   20.7329 C   0  0  0  0  0  0
  -28.8260  -23.0398   21.2825 C   0  0  0  0  0  0
  -28.3045  -25.5870   21.0237 C   0  0  0  0  0  0
  -29.7776  -24.3946   19.5042 O   0  0  0  0  0  0
  -31.4620  -12.3952   19.1124 H   0  0  0  0  0  0
  -30.3139  -11.2851   19.7902 H   0  0  0  0  0  0
  -29.7285  -11.8201   17.4065 H   0  0  0  0  0  0
  -29.6650  -13.5221   17.7839 H   0  0  0  0  0  0
  -27.8059  -11.3353   18.7757 H   0  0  0  0  0  0
  -27.3622  -12.6973   17.7823 H   0  0  0  0  0  0
  -27.7171  -14.2632   19.6166 H   0  0  0  0  0  0
  -28.6818  -11.8920   21.2749 H   0  0  0  0  0  0
  -28.4467  -13.4781   21.9051 H   0  0  0  0  0  0
  -25.2749   -9.5702   22.4763 H   0  0  0  0  0  0
  -24.0025   -7.4620   22.7455 H   0  0  0  0  0  0
  -21.0832   -8.8738   19.8957 H   0  0  0  0  0  0
  -22.3652  -10.9665   19.6173 H   0  0  0  0  0  0
  -21.1994   -7.6150   23.9735 H   0  0  0  0  0  0
  -21.1488   -6.0529   25.9094 H   0  0  0  0  0  0
  -22.0595   -2.7613   23.2864 H   0  0  0  0  0  0
  -22.4088  -11.9927   22.4871 H   0  0  0  0  0  0
  -21.1075  -13.1255   22.2608 H   0  0  0  0  0  0
  -24.6652  -15.8462   20.5325 H   0  0  0  0  0  0
  -26.2968  -15.6317   20.1413 H   0  0  0  0  0  0
  -26.7112  -32.5550   23.1186 H   0  0  0  0  0  0
  -25.0049  -33.9794   25.0482 H   0  0  0  0  0  0
  -22.6911  -31.3074   21.4098 H   0  0  0  0  0  0
  -23.3763  -35.9627   23.3235 H   0  0  0  0  0  0
  -24.3605  -36.8994   22.2061 H   0  0  0  0  0  0
  -23.7190  -37.6485   23.6685 H   0  0  0  0  0  0
  -26.0358  -31.6084   20.5911 H   0  0  0  0  0  0
  -26.8184  -30.8986   21.9747 H   0  0  0  0  0  0
  -28.1062  -29.1283   21.1550 H   0  0  0  0  0  0
  -26.0806  -25.9670   19.0361 H   0  0  0  0  0  0
  -23.9876  -27.2880   19.0374 H   0  0  0  0  0  0
  -23.7143  -30.5945   19.4025 H   0  0  0  0  0  0
  -22.7370  -29.2359   19.8709 H   0  0  0  0  0  0
  -25.1256  -36.1971   25.0826 H   0  0  0  0  0  0
  -20.9955  -28.3224   24.1443 H   0  0  0  0  0  0
  -20.5660  -26.2273   23.3611 H   0  0  0  0  0  0
  -21.6627  -26.7444   22.1211 H   0  0  0  0  0  0
  -19.6892  -25.6298   21.1244 H   0  0  0  0  0  0
  -19.6673  -27.3204   20.6759 H   0  0  0  0  0  0
  -17.4186  -26.6684   21.4027 H   0  0  0  0  0  0
  -18.0305  -26.0062   22.9019 H   0  0  0  0  0  0
  -19.7916  -30.7264   24.2291 H   0  0  0  0  0  0
  -17.4994  -31.6267   24.5157 H   0  0  0  0  0  0
  -15.5339  -30.2992   23.7635 H   0  0  0  0  0  0
  -15.8657  -28.0834   22.7044 H   0  0  0  0  0  0
  -24.5902  -30.7059   25.7817 H   0  0  0  0  0  0
  -24.8951  -32.2844   26.4974 H   0  0  0  0  0  0
  -25.8105  -30.8827   27.0217 H   0  0  0  0  0  0
  -26.2815  -29.6816   24.1141 H   0  0  0  0  0  0
  -27.4066  -29.7267   25.4526 H   0  0  0  0  0  0
  -27.8648  -30.4368   23.9212 H   0  0  0  0  0  0
  -27.2680  -33.3601   26.2092 H   0  0  0  0  0  0
  -28.3835  -32.6894   25.0282 H   0  0  0  0  0  0
  -28.0750  -31.8413   26.5359 H   0  0  0  0  0  0
  -28.2519  -38.0175   24.7644 H   0  0  0  0  0  0
  -28.1191  -36.2724   24.6056 H   0  0  0  0  0  0
  -27.2356  -37.1160   25.8840 H   0  0  0  0  0  0
  -20.9301  -29.8768   21.6964 H   0  0  0  0  0  0
  -26.0155  -38.2872   24.1540 H   0  0  0  0  0  0
  -27.8418  -19.1409   24.2358 H   0  0  0  0  0  0
  -28.7449  -17.0636   23.2757 H   0  0  0  0  0  0
  -28.1990  -21.3086   23.1302 H   0  0  0  0  0  0
  -30.4046  -19.3251   19.9886 H   0  0  0  0  0  0
  -30.8924  -17.0016   20.1050 H   0  0  0  0  0  0
  -29.3593  -15.3118   22.1279 H   0  0  0  0  0  0
  -29.3335  -21.6648   19.6816 H   0  0  0  0  0  0
  -30.6612  -22.0008   20.7620 H   0  0  0  0  0  0
  -27.7557  -22.8352   21.2835 H   0  0  0  0  0  0
  -29.1138  -23.2243   22.3178 H   0  0  0  0  0  0
  -28.7501  -25.8806   21.9743 H   0  0  0  0  0  0
  -27.2708  -25.3081   21.2315 H   0  0  0  0  0  0
  1 25  1  0  0  0
  1 30  2  0  0  0
  1 78  1  0  0  0
  2  3  1  0  0  0
  2 25  1  0  0  0
  2 84  1  0  0  0
  2 85  1  0  0  0
  3  4  1  0  0  0
  3 86  1  0  0  0
  3 87  1  0  0  0
  4  5  1  0  0  0
  4 88  1  0  0  0
  4 89  1  0  0  0
  5  6  1  0  0  0
  5 26  1  0  0  0
  5 90  1  0  0  0
  6 25  1  0  0  0
  6 91  1  0  0  0
  6 92  1  0  0  0
  7  8  2  0  0  0
  7 26  1  0  0  0
  7 29  1  0  0  0
  8  9  1  0  0  0
  8 22  1  0  0  0
  9 10  1  0  0  0
  9 27  2  0  0  0
 10 11  2  0  0  0
 10 15  1  0  0  0
 11 12  1  0  0  0
 11 93  1  0  0  0
 12 13  2  0  0  0
 12 94  1  0  0  0
 13 14  1  0  0  0
 13 31  1  0  0  0
 14 15  2  0  0  0
 14 95  1  0  0  0
 15 96  1  0  0  0
 16 17  2  0  0  0
 16 21  1  0  0  0
 16 31  1  0  0  0
 17 18  1  0  0  0
 17 97  1  0  0  0
 18 19  2  0  0  0
 18 98  1  0  0  0
 19 20  1  0  0  0
 19 24  1  0  0  0
 20 21  2  0  0  0
 20 99  1  0  0  0
 21 23  1  0  0  0
 22 28  1  0  0  0
 22 32  2  0  0  0
 26 27  1  0  0  0
 28100  1  0  0  0
 28101  1  0  0  0
 29102  1  0  0  0
 29103  1  0  0  0
 33 34  1  0  0  0
 33 66  1  0  0  0
 33 70  2  0  0  0
 34 36  1  0  0  0
 34 59  1  0  0  0
 34104  1  0  0  0
 35 44  2  0  0  0
 35 45  1  0  0  0
 35 68  1  0  0  0
 36 56  1  0  0  0
 36105  1  0  0  0
 37 39  1  0  0  0
 37 47  1  0  0  0
 37 66  1  0  0  0
 37106  1  0  0  0
 38 43  2  0  0  0
 38 46  1  0  0  0
 38 47  1  0  0  0
 39 64  1  0  0  0
 39 67  2  0  0  0
 40 52  1  0  0  0
 40 53  2  0  0  0
 40 58  1  0  0  0
 41107  1  0  0  0
 41108  1  0  0  0
 41109  1  0  0  0
 41 48  1  0  0  0
 42 43  1  0  0  0
 42 66  1  0  0  0
 42110  1  0  0  0
 42111  1  0  0  0
 43 44  1  0  0  0
 44112  1  0  0  0
 45 46  2  0  0  0
 45113  1  0  0  0
 46114  1  0  0  0
 47115  1  0  0  0
 47116  1  0  0  0
 48 56  1  0  0  0
 48 65  1  0  0  0
 48117  1  0  0  0
 49 50  1  0  0  0
 49 53  1  0  0  0
 49 64  1  0  0  0
 49118  1  0  0  0
 50 51  1  0  0  0
 50119  1  0  0  0
 50120  1  0  0  0
 51 52  1  0  0  0
 51121  1  0  0  0
 51122  1  0  0  0
 52123  1  0  0  0
 52124  1  0  0  0
 53 54  1  0  0  0
 54 55  2  0  0  0
 54125  1  0  0  0
 55 57  1  0  0  0
 55126  1  0  0  0
 56 69  2  0  0  0
 57 58  2  0  0  0
 57127  1  0  0  0
 58128  1  0  0  0
 59 60  1  0  0  0
 59 61  1  0  0  0
 59 62  1  0  0  0
 60129  1  0  0  0
 60130  1  0  0  0
 60131  1  0  0  0
 61132  1  0  0  0
 61133  1  0  0  0
 61134  1  0  0  0
 62135  1  0  0  0
 62136  1  0  0  0
 62137  1  0  0  0
 63 65  1  0  0  0
 63138  1  0  0  0
 63139  1  0  0  0
 63140  1  0  0  0
 64141  1  0  0  0
 65142  1  0  0  0
 68 82  1  0  0  0
 71 72  2  0  0  0
 71 73  1  0  0  0
 71143  1  0  0  0
 72 75  1  0  0  0
 72144  1  0  0  0
 73 76  2  0  0  0
 73145  1  0  0  0
 74 75  2  0  0  0
 74 76  1  0  0  0
 74146  1  0  0  0
 75 77  1  0  0  0
 76 80  1  0  0  0
 77 78  2  0  0  0
 77147  1  0  0  0
 78148  1  0  0  0
 79 81  1  0  0  0
 79 82  1  0  0  0
 79 83  2  0  0  0
 80 81  1  0  0  0
 80149  1  0  0  0
 80150  1  0  0  0
 81151  1  0  0  0
 81152  1  0  0  0
 82153  1  0  0  0
 82154  1  0  0  0
M  ISO  4   1 100  68 101  78 100  82 101
M  END
> <chiral flag>
0

> <version>
0

> <s_m_source_file>
/data/baiqing/PycharmProjects/Reinvent-master-3.2/result/LINK_invent/BTK/process_docking_weight1_custom_product_contain_oxygen_bond_distance_aromatic_linkinvent_7_9_3/rearranged_h_0130.sdf

> <i_m_source_file_index>
45

> <r_mmod_Potential_Energy-OPLS-2005>
-42.3476715087891

> <r_mmod_Stretch_Energy-OPLS-2005>
36.3030433654785

> <r_mmod_Bend_Energy-OPLS-2005>
91.243049621582

> <r_mmod_Torsional_Energy-OPLS-2005>
199.183517456055

> <r_mmod_Improper_Torsional_Energy-OPLS-2005>
2.53581047058105

> <r_mmod_Van_der_Waal_Energy-OPLS-2005>
156.734222412109

> <r_mmod_Electrostatic_Energy-OPLS-2005>
-327.857116699219

> <r_mmod_Solvation_Energy-OPLS-2005>
-210.790023803711

> <b_mmod_Minimization_Converged-OPLS-2005>
0

> <r_mmod_RMS_Derivative-OPLS-2005>
1.45438706874847

$$$$
45
                    3D
 Structure written by MMmdl.
165173  0  0  1  0            999 V2000
  -30.6255  -14.6668   20.5110 C   0  0  0  0  0  0
  -30.4418  -12.4142   19.4549 C   0  0  0  0  0  0
  -29.5107  -12.5152   18.2259 C   0  0  0  0  0  0
  -28.0329  -12.3518   18.6359 C   0  0  0  0  0  0
  -27.6515  -13.2205   19.8635 C   0  0  2  0  0  0
  -28.6990  -13.0862   20.9928 C   0  0  0  0  0  0
  -25.2464  -13.8074   20.5564 C   0  0  0  0  0  0
  -24.1789  -13.0364   20.9209 C   0  0  0  0  0  0
  -24.6400  -11.6857   20.8769 C   0  0  0  0  0  0
  -23.9072  -10.4255   21.0416 C   0  0  0  0  0  0
  -24.3613   -9.4173   21.9193 C   0  0  0  0  0  0
  -23.6277   -8.2216   22.0753 C   0  0  0  0  0  0
  -22.4264   -8.0265   21.3540 C   0  0  0  0  0  0
  -21.9908   -9.0248   20.4649 C   0  0  0  0  0  0
  -22.7248  -10.2116   20.3060 C   0  0  0  0  0  0
  -21.6853   -6.0717   22.5274 C   0  0  0  0  0  0
  -21.4014   -6.5621   23.8207 C   0  0  0  0  0  0
  -21.3654   -5.6776   24.9169 C   0  0  0  0  0  0
  -21.6041   -4.3040   24.7225 C   0  0  0  0  0  0
  -21.8825   -3.8133   23.4346 C   0  0  0  0  0  0
  -21.9198   -4.6945   22.3397 C   0  0  0  0  0  0
  -22.7814  -13.5183   21.1864 C   0  0  0  0  0  0
  -22.1671   -4.2129   21.0976 F   0  0  0  0  0  0
  -21.5624   -3.4529   25.7736 F   0  0  0  0  0  0
  -30.0132  -13.4393   20.4302 N   0  0  0  0  0  0
  -26.2966  -12.9325   20.3308 N   0  0  0  0  0  0
  -25.9340  -11.6479   20.5791 N   0  0  0  0  0  0
  -22.0455  -12.8201   22.0438 N   0  0  0  0  0  0
  -25.3967  -15.1731   20.3655 N   0  0  0  0  0  0
  -31.7876  -14.8209   20.1252 O   0  0  0  0  0  0
  -21.6633   -6.8861   21.4236 O   0  0  0  0  0  0
  -22.3508  -14.5490   20.6700 O   0  0  0  0  0  0
  -24.6274  -31.8599   23.2035 C   0  0  0  0  0  0
  -25.9116  -32.4780   23.8366 C   0  0  1  0  0  0
  -27.2298  -27.3137   20.1228 C   0  0  0  0  0  0
  -25.5919  -33.8581   24.2289 N   0  0  0  0  0  0
  -23.4222  -30.4835   21.5465 C   0  0  2  0  0  0
  -24.8707  -28.9414   20.1118 C   0  0  0  0  0  0
  -22.7489  -29.4621   22.4944 C   0  0  0  0  0  0
  -18.0284  -28.1384   22.8487 C   0  0  0  0  0  0
  -24.1480  -36.7283   23.2637 C   0  0  0  0  0  0
  -25.9651  -30.7898   21.3765 C   0  0  0  0  0  0
  -26.0403  -29.4178   20.7170 C   0  0  0  0  0  0
  -27.2224  -28.6166   20.7114 C   0  0  0  0  0  0
  -26.0341  -26.8954   19.4903 C   0  0  0  0  0  0
  -24.8708  -27.6860   19.4879 C   0  0  0  0  0  0
  -23.6375  -29.8202   20.1614 C   0  0  0  0  0  0
  -25.4101  -36.3080   24.0335 C   0  0  1  0  0  0
  -20.5889  -28.3687   23.1287 C   0  0  2  0  0  0
  -20.6776  -26.9409   22.5417 C   0  0  0  0  0  0
  -19.5751  -26.6384   21.5214 C   0  0  0  0  0  0
  -18.1927  -26.7927   22.1624 C   0  0  0  0  0  0
  -19.1538  -28.8853   23.2880 C   0  0  0  0  0  0
  -18.9456  -30.1452   23.8905 C   0  0  0  0  0  0
  -17.6455  -30.6585   24.0562 C   0  0  0  0  0  0
  -25.9046  -34.9454   23.5115 C   0  0  0  0  0  0
  -16.5348  -29.9084   23.6327 C   0  0  0  0  0  0
  -16.7271  -28.6499   23.0355 C   0  0  0  0  0  0
  -26.4492  -31.6591   25.0740 C   0  0  0  0  0  0
  -25.3719  -31.3731   26.1462 C   0  0  0  0  0  0
  -27.0328  -30.3010   24.6207 C   0  0  0  0  0  0
  -27.6062  -32.4322   25.7496 C   0  0  0  0  0  0
  -27.5582  -37.1776   24.8450 C   0  0  0  0  0  0
  -21.4203  -29.3031   22.3677 N   0  0  0  0  0  0
  -26.4271  -37.3786   23.9429 N   0  0  0  0  0  0
  -24.6904  -31.0607   22.0989 N   0  0  0  0  0  0
  -23.4204  -28.8157   23.3023 O   0  0  0  0  0  0
  -28.3405  -26.4509   20.1831 O   0  0  0  0  0  0
  -26.5624  -34.8927   22.4686 O   0  0  0  0  0  0
  -23.5432  -32.1396   23.7359 O   0  0  0  0  0  0
  -31.1195  -17.9045   20.5310 C   0  0  0  0  0  0
  -28.8021  -19.4264   20.9174 C   0  0  0  0  0  0
  -31.1578  -19.3367   20.4741 C   0  0  0  0  0  0
  -28.7707  -18.0012   21.0265 C   0  0  0  0  0  0
  -29.9249  -17.1847   20.8015 C   0  0  0  0  0  0
  -29.9902  -20.1416   20.6324 C   0  0  0  0  0  0
  -29.2240  -23.9788   20.4069 C   0  0  0  0  0  0
  -27.4347  -17.3880   21.3961 C   0  0  0  0  0  0
  -34.3590  -21.5551   17.1847 C   0  0  0  0  0  0
  -32.5023  -20.0146   20.2666 C   0  0  0  0  0  0
  -28.0582  -24.9937   20.0789 C   0  0  0  0  0  0
  -28.9012  -22.4250   20.4839 C   0  0  0  0  0  0
  -34.1098  -21.1149   18.6305 C   0  0  0  0  0  0
  -32.7490  -20.4266   18.8099 C   0  0  0  0  0  0
  -29.8207  -15.7166   20.8889 N   0  0  0  0  0  0
  -30.3745  -24.3909   20.5985 O   0  0  0  0  0  0
  -30.0823  -21.5510   20.5348 O   0  0  0  0  0  0
  -31.4815  -12.5432   19.1487 H   0  0  0  0  0  0
  -30.3838  -11.4206   19.9007 H   0  0  0  0  0  0
  -29.7786  -11.7603   17.4855 H   0  0  0  0  0  0
  -29.6519  -13.4826   17.7399 H   0  0  0  0  0  0
  -27.8681  -11.2984   18.8665 H   0  0  0  0  0  0
  -27.3810  -12.5850   17.7926 H   0  0  0  0  0  0
  -27.6666  -14.2552   19.5204 H   0  0  0  0  0  0
  -28.7194  -12.0655   21.3768 H   0  0  0  0  0  0
  -28.4385  -13.7168   21.8440 H   0  0  0  0  0  0
  -25.2751   -9.5656   22.4771 H   0  0  0  0  0  0
  -23.9986   -7.4608   22.7475 H   0  0  0  0  0  0
  -21.0835   -8.8780   19.8951 H   0  0  0  0  0  0
  -22.3714  -10.9657   19.6169 H   0  0  0  0  0  0
  -21.2009   -7.6127   23.9704 H   0  0  0  0  0  0
  -21.1466   -6.0503   25.9071 H   0  0  0  0  0  0
  -22.0609   -2.7596   23.2857 H   0  0  0  0  0  0
  -22.4049  -11.9858   22.4836 H   0  0  0  0  0  0
  -21.1065  -13.1230   22.2618 H   0  0  0  0  0  0
  -24.6034  -15.8012   20.4274 H   0  0  0  0  0  0
  -26.1956  -15.5882   19.9056 H   0  0  0  0  0  0
  -26.7188  -32.5451   23.1119 H   0  0  0  0  0  0
  -25.0041  -33.9717   25.0419 H   0  0  0  0  0  0
  -22.7158  -31.3040   21.4047 H   0  0  0  0  0  0
  -23.3754  -35.9602   23.3286 H   0  0  0  0  0  0
  -24.3582  -36.8914   22.2054 H   0  0  0  0  0  0
  -23.7223  -37.6478   23.6668 H   0  0  0  0  0  0
  -26.0995  -31.5547   20.6104 H   0  0  0  0  0  0
  -26.8446  -30.8374   22.0073 H   0  0  0  0  0  0
  -28.1176  -28.9778   21.1983 H   0  0  0  0  0  0
  -25.9639  -25.9381   18.9973 H   0  0  0  0  0  0
  -23.9754  -27.3155   19.0079 H   0  0  0  0  0  0
  -23.7574  -30.5981   19.4064 H   0  0  0  0  0  0
  -22.7576  -29.2495   19.8577 H   0  0  0  0  0  0
  -25.1272  -36.1926   25.0824 H   0  0  0  0  0  0
  -20.9974  -28.3263   24.1411 H   0  0  0  0  0  0
  -20.5680  -26.2289   23.3612 H   0  0  0  0  0  0
  -21.6645  -26.7442   22.1209 H   0  0  0  0  0  0
  -19.6914  -25.6296   21.1239 H   0  0  0  0  0  0
  -19.6687  -27.3201   20.6747 H   0  0  0  0  0  0
  -17.4196  -26.6678   21.4022 H   0  0  0  0  0  0
  -18.0322  -26.0070   22.9024 H   0  0  0  0  0  0
  -19.7930  -30.7264   24.2286 H   0  0  0  0  0  0
  -17.5009  -31.6266   24.5165 H   0  0  0  0  0  0
  -15.5351  -30.2984   23.7654 H   0  0  0  0  0  0
  -15.8668  -28.0816   22.7085 H   0  0  0  0  0  0
  -24.5883  -30.7095   25.7785 H   0  0  0  0  0  0
  -24.8914  -32.2895   26.4901 H   0  0  0  0  0  0
  -25.8027  -30.8890   27.0236 H   0  0  0  0  0  0
  -26.2901  -29.6766   24.1227 H   0  0  0  0  0  0
  -27.4008  -29.7266   25.4721 H   0  0  0  0  0  0
  -27.8784  -30.4287   23.9444 H   0  0  0  0  0  0
  -27.2687  -33.3620   26.2093 H   0  0  0  0  0  0
  -28.3850  -32.6891   25.0302 H   0  0  0  0  0  0
  -28.0764  -31.8440   26.5390 H   0  0  0  0  0  0
  -28.2553  -38.0119   24.7575 H   0  0  0  0  0  0
  -28.1120  -36.2658   24.6162 H   0  0  0  0  0  0
  -27.2319  -37.1296   25.8853 H   0  0  0  0  0  0
  -20.9393  -29.8724   21.6856 H   0  0  0  0  0  0
  -26.0147  -38.2845   24.1492 H   0  0  0  0  0  0
  -32.0401  -17.3589   20.3833 H   0  0  0  0  0  0
  -27.8849  -19.9725   21.0837 H   0  0  0  0  0  0
  -26.9587  -17.9651   22.1890 H   0  0  0  0  0  0
  -27.5095  -16.3622   21.7532 H   0  0  0  0  0  0
  -26.7782  -17.4165   20.5282 H   0  0  0  0  0  0
  -35.3352  -22.0313   17.0853 H   0  0  0  0  0  0
  -33.6052  -22.2726   16.8580 H   0  0  0  0  0  0
  -34.3333  -20.7045   16.5028 H   0  0  0  0  0  0
  -33.2990  -19.3493   20.6026 H   0  0  0  0  0  0
  -32.5575  -20.8904   20.9150 H   0  0  0  0  0  0
  -27.2226  -24.7489   20.7361 H   0  0  0  0  0  0
  -27.7382  -24.7720   19.0611 H   0  0  0  0  0  0
  -28.2993  -22.1521   19.6171 H   0  0  0  0  0  0
  -28.2885  -22.2513   21.3687 H   0  0  0  0  0  0
  -34.1672  -21.9871   19.2838 H   0  0  0  0  0  0
  -34.9067  -20.4407   18.9480 H   0  0  0  0  0  0
  -31.9549  -21.0992   18.4816 H   0  0  0  0  0  0
  -32.6951  -19.5450   18.1697 H   0  0  0  0  0  0
  -28.9112  -15.3927   21.1737 H   0  0  0  0  0  0
  1 25  1  0  0  0
  1 30  2  0  0  0
  1 85  1  0  0  0
  2  3  1  0  0  0
  2 25  1  0  0  0
  2 88  1  0  0  0
  2 89  1  0  0  0
  3  4  1  0  0  0
  3 90  1  0  0  0
  3 91  1  0  0  0
  4  5  1  0  0  0
  4 92  1  0  0  0
  4 93  1  0  0  0
  5  6  1  0  0  0
  5 26  1  0  0  0
  5 94  1  0  0  0
  6 25  1  0  0  0
  6 95  1  0  0  0
  6 96  1  0  0  0
  7  8  2  0  0  0
  7 26  1  0  0  0
  7 29  1  0  0  0
  8  9  1  0  0  0
  8 22  1  0  0  0
  9 10  1  0  0  0
  9 27  2  0  0  0
 10 11  2  0  0  0
 10 15  1  0  0  0
 11 12  1  0  0  0
 11 97  1  0  0  0
 12 13  2  0  0  0
 12 98  1  0  0  0
 13 14  1  0  0  0
 13 31  1  0  0  0
 14 15  2  0  0  0
 14 99  1  0  0  0
 15100  1  0  0  0
 16 17  2  0  0  0
 16 21  1  0  0  0
 16 31  1  0  0  0
 17 18  1  0  0  0
 17101  1  0  0  0
 18 19  2  0  0  0
 18102  1  0  0  0
 19 20  1  0  0  0
 19 24  1  0  0  0
 20 21  2  0  0  0
 20103  1  0  0  0
 21 23  1  0  0  0
 22 28  1  0  0  0
 22 32  2  0  0  0
 26 27  1  0  0  0
 28104  1  0  0  0
 28105  1  0  0  0
 29106  1  0  0  0
 29107  1  0  0  0
 33 34  1  0  0  0
 33 66  1  0  0  0
 33 70  2  0  0  0
 34 36  1  0  0  0
 34 59  1  0  0  0
 34108  1  0  0  0
 35 44  2  0  0  0
 35 45  1  0  0  0
 35 68  1  0  0  0
 36 56  1  0  0  0
 36109  1  0  0  0
 37 39  1  0  0  0
 37 47  1  0  0  0
 37 66  1  0  0  0
 37110  1  0  0  0
 38 43  2  0  0  0
 38 46  1  0  0  0
 38 47  1  0  0  0
 39 64  1  0  0  0
 39 67  2  0  0  0
 40 52  1  0  0  0
 40 53  2  0  0  0
 40 58  1  0  0  0
 41111  1  0  0  0
 41112  1  0  0  0
 41113  1  0  0  0
 41 48  1  0  0  0
 42 43  1  0  0  0
 42 66  1  0  0  0
 42114  1  0  0  0
 42115  1  0  0  0
 43 44  1  0  0  0
 44116  1  0  0  0
 45 46  2  0  0  0
 45117  1  0  0  0
 46118  1  0  0  0
 47119  1  0  0  0
 47120  1  0  0  0
 48 56  1  0  0  0
 48 65  1  0  0  0
 48121  1  0  0  0
 49 50  1  0  0  0
 49 53  1  0  0  0
 49 64  1  0  0  0
 49122  1  0  0  0
 50 51  1  0  0  0
 50123  1  0  0  0
 50124  1  0  0  0
 51 52  1  0  0  0
 51125  1  0  0  0
 51126  1  0  0  0
 52127  1  0  0  0
 52128  1  0  0  0
 53 54  1  0  0  0
 54 55  2  0  0  0
 54129  1  0  0  0
 55 57  1  0  0  0
 55130  1  0  0  0
 56 69  2  0  0  0
 57 58  2  0  0  0
 57131  1  0  0  0
 58132  1  0  0  0
 59 60  1  0  0  0
 59 61  1  0  0  0
 59 62  1  0  0  0
 60133  1  0  0  0
 60134  1  0  0  0
 60135  1  0  0  0
 61136  1  0  0  0
 61137  1  0  0  0
 61138  1  0  0  0
 62139  1  0  0  0
 62140  1  0  0  0
 62141  1  0  0  0
 63 65  1  0  0  0
 63142  1  0  0  0
 63143  1  0  0  0
 63144  1  0  0  0
 64145  1  0  0  0
 65146  1  0  0  0
 68 81  1  0  0  0
 71 73  2  0  0  0
 71 75  1  0  0  0
 71147  1  0  0  0
 72 74  1  0  0  0
 72 76  2  0  0  0
 72148  1  0  0  0
 73 76  1  0  0  0
 73 80  1  0  0  0
 74 75  2  0  0  0
 74 78  1  0  0  0
 75 85  1  0  0  0
 76 87  1  0  0  0
 77 81  1  0  0  0
 77 82  1  0  0  0
 77 86  2  0  0  0
 78149  1  0  0  0
 78150  1  0  0  0
 78151  1  0  0  0
 79 83  1  0  0  0
 79152  1  0  0  0
 79153  1  0  0  0
 79154  1  0  0  0
 80 84  1  0  0  0
 80155  1  0  0  0
 80156  1  0  0  0
 81157  1  0  0  0
 81158  1  0  0  0
 82 87  1  0  0  0
 82159  1  0  0  0
 82160  1  0  0  0
 83 84  1  0  0  0
 83161  1  0  0  0
 83162  1  0  0  0
 84163  1  0  0  0
 84164  1  0  0  0
 85165  1  0  0  0
M  ISO  4   1 100  68 101  81 101  85 100
M  END
> <chiral flag>
0

> <version>
0

> <s_m_source_file>
/data/baiqing/PycharmProjects/Reinvent-master-3.2/result/LINK_invent/BTK/process_docking_weight1_custom_product_contain_oxygen_bond_distance_aromatic_linkinvent_7_9_3/rearranged_h_0130.sdf

> <i_m_source_file_index>
46

> <r_mmod_Potential_Energy-OPLS-2005>
63.6727714538574

> <r_mmod_Stretch_Energy-OPLS-2005>
87.3599853515625

> <r_mmod_Bend_Energy-OPLS-2005>
145.771789550781

> <r_mmod_Torsional_Energy-OPLS-2005>
210.052001953125

> <r_mmod_Improper_Torsional_Energy-OPLS-2005>
4.66198062896729

> <r_mmod_Van_der_Waal_Energy-OPLS-2005>
142.51774597168

> <r_mmod_Electrostatic_Energy-OPLS-2005>
-345.234161376953

> <r_mmod_Solvation_Energy-OPLS-2005>
-236.514678955078

> <b_mmod_Minimization_Converged-OPLS-2005>
0

> <r_mmod_RMS_Derivative-OPLS-2005>
1.4720356464386

$$$$
46
                    3D
 Structure written by MMmdl.
160169  0  0  1  0            999 V2000
  -30.6278  -14.6318   20.5975 C   0  0  0  0  0  0
  -30.4478  -12.4142   19.4508 C   0  0  0  0  0  0
  -29.5124  -12.5312   18.2261 C   0  0  0  0  0  0
  -28.0359  -12.3543   18.6337 C   0  0  0  0  0  0
  -27.6594  -13.2107   19.8710 C   0  0  2  0  0  0
  -28.6972  -13.0208   20.9962 C   0  0  0  0  0  0
  -25.2583  -13.8151   20.5673 C   0  0  0  0  0  0
  -24.1833  -13.0426   20.9159 C   0  0  0  0  0  0
  -24.6400  -11.6893   20.8721 C   0  0  0  0  0  0
  -23.9073  -10.4285   21.0403 C   0  0  0  0  0  0
  -24.3623   -9.4194   21.9177 C   0  0  0  0  0  0
  -23.6299   -8.2230   22.0749 C   0  0  0  0  0  0
  -22.4281   -8.0279   21.3541 C   0  0  0  0  0  0
  -21.9917   -9.0250   20.4643 C   0  0  0  0  0  0
  -22.7245  -10.2128   20.3050 C   0  0  0  0  0  0
  -21.6851   -6.0744   22.5281 C   0  0  0  0  0  0
  -21.4014   -6.5646   23.8214 C   0  0  0  0  0  0
  -21.3658   -5.6796   24.9170 C   0  0  0  0  0  0
  -21.6047   -4.3060   24.7223 C   0  0  0  0  0  0
  -21.8821   -3.8152   23.4344 C   0  0  0  0  0  0
  -21.9190   -4.6972   22.3400 C   0  0  0  0  0  0
  -22.7857  -13.5221   21.1856 C   0  0  0  0  0  0
  -22.1657   -4.2157   21.0981 F   0  0  0  0  0  0
  -21.5631   -3.4544   25.7734 F   0  0  0  0  0  0
  -30.0167  -13.4057   20.4597 N   0  0  0  0  0  0
  -26.3015  -12.9324   20.3321 N   0  0  0  0  0  0
  -25.9323  -11.6484   20.5726 N   0  0  0  0  0  0
  -22.0525  -12.8186   22.0426 N   0  0  0  0  0  0
  -25.4318  -15.1873   20.4132 N   0  0  0  0  0  0
  -31.7118  -14.8557   20.0500 O   0  0  0  0  0  0
  -21.6637   -6.8882   21.4241 O   0  0  0  0  0  0
  -22.3523  -14.5529   20.6721 O   0  0  0  0  0  0
  -24.6257  -31.8603   23.2022 C   0  0  0  0  0  0
  -25.9104  -32.4780   23.8355 C   0  0  1  0  0  0
  -27.2258  -27.3283   20.1183 C   0  0  0  0  0  0
  -25.5920  -33.8580   24.2283 N   0  0  0  0  0  0
  -23.4199  -30.4832   21.5443 C   0  0  2  0  0  0
  -24.8681  -28.9385   20.1112 C   0  0  0  0  0  0
  -22.7475  -29.4627   22.4931 C   0  0  0  0  0  0
  -18.0289  -28.1396   22.8480 C   0  0  0  0  0  0
  -24.1493  -36.7298   23.2640 C   0  0  0  0  0  0
  -25.9598  -30.7934   21.3731 C   0  0  0  0  0  0
  -26.0356  -29.4203   20.7176 C   0  0  0  0  0  0
  -27.2203  -28.6264   20.7118 C   0  0  0  0  0  0
  -26.0415  -26.9006   19.4795 C   0  0  0  0  0  0
  -24.8719  -27.6832   19.4830 C   0  0  0  0  0  0
  -23.6356  -29.8177   20.1595 C   0  0  0  0  0  0
  -25.4117  -36.3086   24.0331 C   0  0  1  0  0  0
  -20.5886  -28.3701   23.1283 C   0  0  2  0  0  0
  -20.6779  -26.9424   22.5412 C   0  0  0  0  0  0
  -19.5757  -26.6396   21.5211 C   0  0  0  0  0  0
  -18.1936  -26.7936   22.1624 C   0  0  0  0  0  0
  -19.1539  -28.8863   23.2880 C   0  0  0  0  0  0
  -18.9463  -30.1461   23.8903 C   0  0  0  0  0  0
  -17.6463  -30.6593   24.0571 C   0  0  0  0  0  0
  -25.9051  -34.9453   23.5108 C   0  0  0  0  0  0
  -16.5355  -29.9096   23.6327 C   0  0  0  0  0  0
  -16.7278  -28.6518   23.0341 C   0  0  0  0  0  0
  -26.4498  -31.6585   25.0717 C   0  0  0  0  0  0
  -25.3742  -31.3705   26.1451 C   0  0  0  0  0  0
  -27.0333  -30.3012   24.6154 C   0  0  0  0  0  0
  -27.6066  -32.4312   25.7482 C   0  0  0  0  0  0
  -27.5580  -37.1809   24.8471 C   0  0  0  0  0  0
  -21.4188  -29.3049   22.3675 N   0  0  0  0  0  0
  -26.4296  -37.3778   23.9408 N   0  0  0  0  0  0
  -24.6870  -31.0620   22.0969 N   0  0  0  0  0  0
  -23.4199  -28.8171   23.3014 O   0  0  0  0  0  0
  -28.3311  -26.4679   20.1396 O   0  0  0  0  0  0
  -26.5621  -34.8918   22.4675 O   0  0  0  0  0  0
  -23.5420  -32.1394   23.7351 O   0  0  0  0  0  0
  -30.0977  -19.3336   20.2144 C   0  0  0  0  0  0
  -29.7691  -20.7321   20.1158 C   0  0  0  0  0  0
  -28.3310  -19.0496   21.8075 C   0  0  0  0  0  0
  -29.3802  -18.4452   21.0734 C   0  0  0  0  0  0
  -27.9921  -20.4269   21.7164 C   0  0  0  0  0  0
  -28.7049  -21.3129   20.8665 C   0  0  0  0  0  0
  -29.5943  -16.9654   21.3975 C   0  0  0  0  0  0
  -29.9238  -15.6212   21.4685 C   0  0  0  0  0  0
  -25.8733  -21.5841   24.3441 C   0  0  0  0  0  0
  -26.2795  -20.2203   23.7768 C   0  0  0  0  0  0
  -26.9506  -22.1900   23.4404 C   0  0  0  0  0  0
  -26.8131  -20.9541   22.5318 C   0  0  0  0  0  0
  -28.0994  -25.1236   20.7182 C   0  0  0  0  0  0
  -28.8661  -23.8112   20.2264 C   0  0  0  0  0  0
  -28.2522  -22.6479   20.8573 O   0  0  0  0  0  0
  -31.4856  -12.5604   19.1477 H   0  0  0  0  0  0
  -30.4050  -11.4084   19.8721 H   0  0  0  0  0  0
  -29.7847  -11.7890   17.4749 H   0  0  0  0  0  0
  -29.6479  -13.5070   17.7567 H   0  0  0  0  0  0
  -27.8782  -11.2979   18.8562 H   0  0  0  0  0  0
  -27.3810  -12.5900   17.7941 H   0  0  0  0  0  0
  -27.6944  -14.2549   19.5590 H   0  0  0  0  0  0
  -28.7181  -11.9785   21.3183 H   0  0  0  0  0  0
  -28.3954  -13.5772   21.8809 H   0  0  0  0  0  0
  -25.2775   -9.5663   22.4741 H   0  0  0  0  0  0
  -24.0017   -7.4617   22.7455 H   0  0  0  0  0  0
  -21.0853   -8.8765   19.8944 H   0  0  0  0  0  0
  -22.3711  -10.9663   19.6154 H   0  0  0  0  0  0
  -21.2003   -7.6155   23.9717 H   0  0  0  0  0  0
  -21.1485   -6.0528   25.9074 H   0  0  0  0  0  0
  -22.0602   -2.7620   23.2840 H   0  0  0  0  0  0
  -22.4173  -11.9842   22.4779 H   0  0  0  0  0  0
  -21.1143  -13.1172   22.2674 H   0  0  0  0  0  0
  -24.6747  -15.8499   20.5396 H   0  0  0  0  0  0
  -26.3012  -15.6266   20.1372 H   0  0  0  0  0  0
  -26.7171  -32.5458   23.1105 H   0  0  0  0  0  0
  -25.0062  -33.9727   25.0423 H   0  0  0  0  0  0
  -22.7135  -31.3031   21.4001 H   0  0  0  0  0  0
  -23.3746  -35.9640   23.3316 H   0  0  0  0  0  0
  -24.3583  -36.8904   22.2052 H   0  0  0  0  0  0
  -23.7258  -37.6509   23.6653 H   0  0  0  0  0  0
  -26.0876  -31.5555   20.6031 H   0  0  0  0  0  0
  -26.8417  -30.8449   21.9999 H   0  0  0  0  0  0
  -28.1167  -28.9887   21.1951 H   0  0  0  0  0  0
  -26.0135  -25.9416   18.9816 H   0  0  0  0  0  0
  -23.9798  -27.3120   18.9975 H   0  0  0  0  0  0
  -23.7559  -30.5941   19.4030 H   0  0  0  0  0  0
  -22.7562  -29.2473   19.8555 H   0  0  0  0  0  0
  -25.1296  -36.1938   25.0825 H   0  0  0  0  0  0
  -20.9975  -28.3278   24.1405 H   0  0  0  0  0  0
  -20.5680  -26.2311   23.3613 H   0  0  0  0  0  0
  -21.6652  -26.7456   22.1209 H   0  0  0  0  0  0
  -19.6923  -25.6306   21.1246 H   0  0  0  0  0  0
  -19.6696  -27.3206   20.6739 H   0  0  0  0  0  0
  -17.4200  -26.6665   21.4033 H   0  0  0  0  0  0
  -18.0352  -26.0089   22.9037 H   0  0  0  0  0  0
  -19.7939  -30.7273   24.2279 H   0  0  0  0  0  0
  -17.5021  -31.6270   24.5185 H   0  0  0  0  0  0
  -15.5359  -30.3003   23.7653 H   0  0  0  0  0  0
  -15.8678  -28.0851   22.7041 H   0  0  0  0  0  0
  -24.5918  -30.7055   25.7775 H   0  0  0  0  0  0
  -24.8935  -32.2863   26.4901 H   0  0  0  0  0  0
  -25.8082  -30.8863   27.0208 H   0  0  0  0  0  0
  -26.2889  -29.6763   24.1203 H   0  0  0  0  0  0
  -27.4063  -29.7266   25.4643 H   0  0  0  0  0  0
  -27.8752  -30.4301   23.9345 H   0  0  0  0  0  0
  -27.2689  -33.3611   26.2068 H   0  0  0  0  0  0
  -28.3870  -32.6872   25.0302 H   0  0  0  0  0  0
  -28.0744  -31.8431   26.5388 H   0  0  0  0  0  0
  -28.2612  -38.0093   24.7494 H   0  0  0  0  0  0
  -28.1063  -36.2622   24.6325 H   0  0  0  0  0  0
  -27.2299  -37.1494   25.8876 H   0  0  0  0  0  0
  -20.9365  -29.8768   21.6883 H   0  0  0  0  0  0
  -26.0178  -38.2855   24.1398 H   0  0  0  0  0  0
  -30.9264  -18.9549   19.6321 H   0  0  0  0  0  0
  -30.3438  -21.3556   19.4456 H   0  0  0  0  0  0
  -27.7549  -18.4209   22.4714 H   0  0  0  0  0  0
  -30.0226  -16.9294   20.4073 H   0  0  0  0  0  0
  -29.6014  -15.1974   22.4061 H   0  0  0  0  0  0
  -26.0463  -21.7132   25.4128 H   0  0  0  0  0  0
  -24.8622  -21.8832   24.0589 H   0  0  0  0  0  0
  -25.4594  -19.5277   23.5854 H   0  0  0  0  0  0
  -27.0670  -19.7551   24.3737 H   0  0  0  0  0  0
  -27.9240  -22.2468   23.9313 H   0  0  0  0  0  0
  -26.6854  -23.1388   22.9719 H   0  0  0  0  0  0
  -25.9887  -21.1165   21.8335 H   0  0  0  0  0  0
  -28.3028  -25.2273   21.7846 H   0  0  0  0  0  0
  -27.0387  -24.8780   20.6805 H   0  0  0  0  0  0
  -29.9248  -23.8654   20.4804 H   0  0  0  0  0  0
  -28.7892  -23.7103   19.1435 H   0  0  0  0  0  0
  1 25  1  0  0  0
  1 30  2  0  0  0
  1 78  1  0  0  0
  2  3  1  0  0  0
  2 25  1  0  0  0
  2 86  1  0  0  0
  2 87  1  0  0  0
  3  4  1  0  0  0
  3 88  1  0  0  0
  3 89  1  0  0  0
  4  5  1  0  0  0
  4 90  1  0  0  0
  4 91  1  0  0  0
  5  6  1  0  0  0
  5 26  1  0  0  0
  5 92  1  0  0  0
  6 25  1  0  0  0
  6 93  1  0  0  0
  6 94  1  0  0  0
  7  8  2  0  0  0
  7 26  1  0  0  0
  7 29  1  0  0  0
  8  9  1  0  0  0
  8 22  1  0  0  0
  9 10  1  0  0  0
  9 27  2  0  0  0
 10 11  2  0  0  0
 10 15  1  0  0  0
 11 12  1  0  0  0
 11 95  1  0  0  0
 12 13  2  0  0  0
 12 96  1  0  0  0
 13 14  1  0  0  0
 13 31  1  0  0  0
 14 15  2  0  0  0
 14 97  1  0  0  0
 15 98  1  0  0  0
 16 17  2  0  0  0
 16 21  1  0  0  0
 16 31  1  0  0  0
 17 18  1  0  0  0
 17 99  1  0  0  0
 18 19  2  0  0  0
 18100  1  0  0  0
 19 20  1  0  0  0
 19 24  1  0  0  0
 20 21  2  0  0  0
 20101  1  0  0  0
 21 23  1  0  0  0
 22 28  1  0  0  0
 22 32  2  0  0  0
 26 27  1  0  0  0
 28102  1  0  0  0
 28103  1  0  0  0
 29104  1  0  0  0
 29105  1  0  0  0
 33 34  1  0  0  0
 33 66  1  0  0  0
 33 70  2  0  0  0
 34 36  1  0  0  0
 34 59  1  0  0  0
 34106  1  0  0  0
 35 44  2  0  0  0
 35 45  1  0  0  0
 35 68  1  0  0  0
 36 56  1  0  0  0
 36107  1  0  0  0
 37 39  1  0  0  0
 37 47  1  0  0  0
 37 66  1  0  0  0
 37108  1  0  0  0
 38 43  2  0  0  0
 38 46  1  0  0  0
 38 47  1  0  0  0
 39 64  1  0  0  0
 39 67  2  0  0  0
 40 52  1  0  0  0
 40 53  2  0  0  0
 40 58  1  0  0  0
 41109  1  0  0  0
 41110  1  0  0  0
 41111  1  0  0  0
 41 48  1  0  0  0
 42 43  1  0  0  0
 42 66  1  0  0  0
 42112  1  0  0  0
 42113  1  0  0  0
 43 44  1  0  0  0
 44114  1  0  0  0
 45 46  2  0  0  0
 45115  1  0  0  0
 46116  1  0  0  0
 47117  1  0  0  0
 47118  1  0  0  0
 48 56  1  0  0  0
 48 65  1  0  0  0
 48119  1  0  0  0
 49 50  1  0  0  0
 49 53  1  0  0  0
 49 64  1  0  0  0
 49120  1  0  0  0
 50 51  1  0  0  0
 50121  1  0  0  0
 50122  1  0  0  0
 51 52  1  0  0  0
 51123  1  0  0  0
 51124  1  0  0  0
 52125  1  0  0  0
 52126  1  0  0  0
 53 54  1  0  0  0
 54 55  2  0  0  0
 54127  1  0  0  0
 55 57  1  0  0  0
 55128  1  0  0  0
 56 69  2  0  0  0
 57 58  2  0  0  0
 57129  1  0  0  0
 58130  1  0  0  0
 59 60  1  0  0  0
 59 61  1  0  0  0
 59 62  1  0  0  0
 60131  1  0  0  0
 60132  1  0  0  0
 60133  1  0  0  0
 61134  1  0  0  0
 61135  1  0  0  0
 61136  1  0  0  0
 62137  1  0  0  0
 62138  1  0  0  0
 62139  1  0  0  0
 63 65  1  0  0  0
 63140  1  0  0  0
 63141  1  0  0  0
 63142  1  0  0  0
 64143  1  0  0  0
 65144  1  0  0  0
 68 83  1  0  0  0
 71 72  2  0  0  0
 71 74  1  0  0  0
 71145  1  0  0  0
 72 76  1  0  0  0
 72146  1  0  0  0
 73 74  2  0  0  0
 73 75  1  0  0  0
 73147  1  0  0  0
 74 77  1  0  0  0
 75 76  2  0  0  0
 75 82  1  0  0  0
 76 85  1  0  0  0
 77 78  2  0  0  0
 77148  1  0  0  0
 78149  1  0  0  0
 79 80  1  0  0  0
 79 81  1  0  0  0
 79150  1  0  0  0
 79151  1  0  0  0
 80 82  1  0  0  0
 80152  1  0  0  0
 80153  1  0  0  0
 81 82  1  0  0  0
 81154  1  0  0  0
 81155  1  0  0  0
 82156  1  0  0  0
 83 84  1  0  0  0
 83157  1  0  0  0
 83158  1  0  0  0
 84 85  1  0  0  0
 84159  1  0  0  0
 84160  1  0  0  0
M  ISO  4   1 100  68 101  78 100  83 101
M  END
> <chiral flag>
0

> <version>
0

> <s_m_source_file>
/data/baiqing/PycharmProjects/Reinvent-master-3.2/result/LINK_invent/BTK/process_docking_weight1_custom_product_contain_oxygen_bond_distance_aromatic_linkinvent_7_9_3/rearranged_h_0130.sdf

> <i_m_source_file_index>
47

> <r_mmod_Potential_Energy-OPLS-2005>
452.755493164062

> <r_mmod_Stretch_Energy-OPLS-2005>
81.6633224487305

> <r_mmod_Bend_Energy-OPLS-2005>
478.833648681641

> <r_mmod_Torsional_Energy-OPLS-2005>
223.919418334961

> <r_mmod_Improper_Torsional_Energy-OPLS-2005>
2.14063954353333

> <r_mmod_Van_der_Waal_Energy-OPLS-2005>
151.089859008789

> <r_mmod_Electrostatic_Energy-OPLS-2005>
-338.707153320312

> <r_mmod_Solvation_Energy-OPLS-2005>
-191.731430053711

> <b_mmod_Minimization_Converged-OPLS-2005>
0

> <r_mmod_RMS_Derivative-OPLS-2005>
1.06543076038361

$$$$
47
                    3D
 Structure written by MMmdl.
157165  0  0  1  0            999 V2000
  -30.6019  -14.7184   20.4820 C   0  0  0  0  0  0
  -30.4361  -12.4330   19.4750 C   0  0  0  0  0  0
  -29.5148  -12.5149   18.2367 C   0  0  0  0  0  0
  -28.0370  -12.3446   18.6424 C   0  0  0  0  0  0
  -27.6474  -13.2288   19.8570 C   0  0  2  0  0  0
  -28.6892  -13.1268   20.9903 C   0  0  0  0  0  0
  -25.2541  -13.8193   20.5705 C   0  0  0  0  0  0
  -24.1813  -13.0443   20.9187 C   0  0  0  0  0  0
  -24.6394  -11.6916   20.8729 C   0  0  0  0  0  0
  -23.9068  -10.4298   21.0402 C   0  0  0  0  0  0
  -24.3621   -9.4214   21.9183 C   0  0  0  0  0  0
  -23.6296   -8.2248   22.0753 C   0  0  0  0  0  0
  -22.4277   -8.0286   21.3545 C   0  0  0  0  0  0
  -21.9912   -9.0259   20.4646 C   0  0  0  0  0  0
  -22.7239  -10.2139   20.3053 C   0  0  0  0  0  0
  -21.6854   -6.0737   22.5281 C   0  0  0  0  0  0
  -21.4015   -6.5638   23.8214 C   0  0  0  0  0  0
  -21.3663   -5.6790   24.9175 C   0  0  0  0  0  0
  -21.6047   -4.3053   24.7226 C   0  0  0  0  0  0
  -21.8816   -3.8146   23.4345 C   0  0  0  0  0  0
  -21.9193   -4.6964   22.3403 C   0  0  0  0  0  0
  -22.7836  -13.5231   21.1860 C   0  0  0  0  0  0
  -22.1663   -4.2150   21.0980 F   0  0  0  0  0  0
  -21.5632   -3.4535   25.7738 F   0  0  0  0  0  0
  -29.9999  -13.4799   20.4274 N   0  0  0  0  0  0
  -26.2967  -12.9393   20.3301 N   0  0  0  0  0  0
  -25.9325  -11.6531   20.5734 N   0  0  0  0  0  0
  -22.0480  -12.8229   22.0418 N   0  0  0  0  0  0
  -25.4266  -15.1918   20.4171 N   0  0  0  0  0  0
  -31.7578  -14.8302   20.0671 O   0  0  0  0  0  0
  -21.6642   -6.8883   21.4244 O   0  0  0  0  0  0
  -22.3516  -14.5537   20.6709 O   0  0  0  0  0  0
  -24.6301  -31.8552   23.1968 C   0  0  0  0  0  0
  -25.9135  -32.4744   23.8316 C   0  0  1  0  0  0
  -27.2272  -27.2744   20.1140 C   0  0  0  0  0  0
  -25.5936  -33.8548   24.2246 N   0  0  0  0  0  0
  -23.4257  -30.4763   21.5400 C   0  0  2  0  0  0
  -24.8714  -28.9191   20.1098 C   0  0  0  0  0  0
  -22.7489  -29.4607   22.4917 C   0  0  0  0  0  0
  -18.0293  -28.1379   22.8489 C   0  0  0  0  0  0
  -24.1492  -36.7281   23.2642 C   0  0  0  0  0  0
  -25.9693  -30.7700   21.3740 C   0  0  0  0  0  0
  -26.0408  -29.3933   20.7151 C   0  0  0  0  0  0
  -27.2170  -28.5815   20.7065 C   0  0  0  0  0  0
  -26.0279  -26.8534   19.4979 C   0  0  0  0  0  0
  -24.8690  -27.6569   19.4941 C   0  0  0  0  0  0
  -23.6424  -29.8062   20.1570 C   0  0  0  0  0  0
  -25.4119  -36.3065   24.0326 C   0  0  1  0  0  0
  -20.5893  -28.3699   23.1283 C   0  0  2  0  0  0
  -20.6787  -26.9418   22.5414 C   0  0  0  0  0  0
  -19.5762  -26.6383   21.5219 C   0  0  0  0  0  0
  -18.1945  -26.7920   22.1634 C   0  0  0  0  0  0
  -19.1541  -28.8855   23.2882 C   0  0  0  0  0  0
  -18.9460  -30.1456   23.8893 C   0  0  0  0  0  0
  -17.6457  -30.6584   24.0561 C   0  0  0  0  0  0
  -25.9056  -34.9436   23.5089 C   0  0  0  0  0  0
  -16.5353  -29.9079   23.6329 C   0  0  0  0  0  0
  -16.7278  -28.6494   23.0349 C   0  0  0  0  0  0
  -26.4507  -31.6568   25.0708 C   0  0  0  0  0  0
  -25.3734  -31.3720   26.1432 C   0  0  0  0  0  0
  -27.0353  -30.2984   24.6192 C   0  0  0  0  0  0
  -27.6050  -32.4315   25.7485 C   0  0  0  0  0  0
  -27.5579  -37.1800   24.8468 C   0  0  0  0  0  0
  -21.4194  -29.3060   22.3677 N   0  0  0  0  0  0
  -26.4293  -37.3765   23.9406 N   0  0  0  0  0  0
  -24.6938  -31.0527   22.0933 N   0  0  0  0  0  0
  -23.4195  -28.8152   23.3017 O   0  0  0  0  0  0
  -28.3634  -26.4399   20.1778 O   0  0  0  0  0  0
  -26.5630  -34.8914   22.4661 O   0  0  0  0  0  0
  -23.5456  -32.1374   23.7275 O   0  0  0  0  0  0
  -28.3718  -18.2486   21.9551 C   0  0  0  0  0  0
  -27.6510  -19.3561   22.4293 C   0  0  0  0  0  0
  -29.3276  -19.6727   20.2546 C   0  0  0  0  0  0
  -29.2353  -18.3458   20.8510 C   0  0  0  0  0  0
  -27.7274  -20.6390   21.8297 C   0  0  0  0  0  0
  -28.5921  -20.8522   20.7099 C   0  0  0  0  0  0
  -29.9759  -17.0433   20.4259 C   0  0  0  0  0  0
  -25.9123  -21.3937   23.5613 C   0  0  0  0  0  0
  -26.8432  -21.7534   22.3914 C   0  0  0  0  0  0
  -28.6845  -22.2586   19.9250 C   0  0  0  0  0  0
  -28.3536  -23.7367   20.5383 C   0  0  0  0  0  0
  -28.4525  -25.0539   19.6129 C   0  0  0  0  0  0
  -29.7853  -15.8227   20.8908 N   0  0  0  0  0  0
  -31.4790  -12.5461   19.1759 H   0  0  0  0  0  0
  -30.3691  -11.4477   19.9392 H   0  0  0  0  0  0
  -29.7918  -11.7523   17.5075 H   0  0  0  0  0  0
  -29.6507  -13.4773   17.7406 H   0  0  0  0  0  0
  -27.8829  -11.2933   18.8877 H   0  0  0  0  0  0
  -27.3837  -12.5576   17.7953 H   0  0  0  0  0  0
  -27.6551  -14.2595   19.5015 H   0  0  0  0  0  0
  -28.7121  -12.1175   21.4037 H   0  0  0  0  0  0
  -28.4211  -13.7848   21.8185 H   0  0  0  0  0  0
  -25.2767   -9.5695   22.4757 H   0  0  0  0  0  0
  -24.0008   -7.4642   22.7471 H   0  0  0  0  0  0
  -21.0842   -8.8775   19.8956 H   0  0  0  0  0  0
  -22.3693  -10.9679   19.6162 H   0  0  0  0  0  0
  -21.2003   -7.6145   23.9718 H   0  0  0  0  0  0
  -21.1493   -6.0519   25.9080 H   0  0  0  0  0  0
  -22.0593   -2.7609   23.2843 H   0  0  0  0  0  0
  -22.4095  -11.9896   22.4820 H   0  0  0  0  0  0
  -21.1097  -13.1262   22.2618 H   0  0  0  0  0  0
  -24.6724  -15.8566   20.5498 H   0  0  0  0  0  0
  -26.3029  -15.6297   20.1608 H   0  0  0  0  0  0
  -26.7196  -32.5391   23.1051 H   0  0  0  0  0  0
  -25.0084  -33.9681   25.0393 H   0  0  0  0  0  0
  -22.7226  -31.2984   21.3927 H   0  0  0  0  0  0
  -23.3750  -35.9617   23.3305 H   0  0  0  0  0  0
  -24.3580  -36.8903   22.2055 H   0  0  0  0  0  0
  -23.7249  -37.6485   23.6663 H   0  0  0  0  0  0
  -26.1089  -31.5314   20.6054 H   0  0  0  0  0  0
  -26.8469  -30.8169   22.0073 H   0  0  0  0  0  0
  -28.1156  -28.9421   21.1871 H   0  0  0  0  0  0
  -25.9458  -25.8826   19.0355 H   0  0  0  0  0  0
  -23.9684  -27.2855   19.0244 H   0  0  0  0  0  0
  -23.7667  -30.5807   19.3992 H   0  0  0  0  0  0
  -22.7603  -29.2395   19.8533 H   0  0  0  0  0  0
  -25.1300  -36.1910   25.0818 H   0  0  0  0  0  0
  -20.9982  -28.3267   24.1406 H   0  0  0  0  0  0
  -20.5698  -26.2300   23.3614 H   0  0  0  0  0  0
  -21.6655  -26.7453   22.1202 H   0  0  0  0  0  0
  -19.6927  -25.6295   21.1247 H   0  0  0  0  0  0
  -19.6695  -27.3192   20.6749 H   0  0  0  0  0  0
  -17.4212  -26.6662   21.4041 H   0  0  0  0  0  0
  -18.0351  -26.0064   22.9033 H   0  0  0  0  0  0
  -19.7931  -30.7283   24.2254 H   0  0  0  0  0  0
  -17.5008  -31.6260   24.5170 H   0  0  0  0  0  0
  -15.5349  -30.2977   23.7652 H   0  0  0  0  0  0
  -15.8681  -28.0814   22.7061 H   0  0  0  0  0  0
  -24.5902  -30.7076   25.7767 H   0  0  0  0  0  0
  -24.8934  -32.2890   26.4857 H   0  0  0  0  0  0
  -25.8055  -30.8899   27.0208 H   0  0  0  0  0  0
  -26.2934  -29.6729   24.1210 H   0  0  0  0  0  0
  -27.4030  -29.7251   25.4709 H   0  0  0  0  0  0
  -27.8812  -30.4259   23.9434 H   0  0  0  0  0  0
  -27.2643  -33.3607   26.2064 H   0  0  0  0  0  0
  -28.3859  -32.6892   25.0318 H   0  0  0  0  0  0
  -28.0720  -31.8445   26.5402 H   0  0  0  0  0  0
  -28.2599  -38.0093   24.7498 H   0  0  0  0  0  0
  -28.1069  -36.2620   24.6308 H   0  0  0  0  0  0
  -27.2295  -37.1467   25.8873 H   0  0  0  0  0  0
  -20.9372  -29.8782   21.6886 H   0  0  0  0  0  0
  -26.0168  -38.2840   24.1396 H   0  0  0  0  0  0
  -28.2482  -17.3006   22.4603 H   0  0  0  0  0  0
  -27.0130  -19.1727   23.2804 H   0  0  0  0  0  0
  -29.9746  -19.7833   19.3950 H   0  0  0  0  0  0
  -30.7343  -17.2065   19.6538 H   0  0  0  0  0  0
  -25.2073  -20.6074   23.2891 H   0  0  0  0  0  0
  -25.3261  -22.2629   23.8596 H   0  0  0  0  0  0
  -26.4747  -21.0710   24.4378 H   0  0  0  0  0  0
  -26.2132  -22.1176   21.5801 H   0  0  0  0  0  0
  -27.4863  -22.5633   22.7328 H   0  0  0  0  0  0
  -29.6975  -22.3086   19.5245 H   0  0  0  0  0  0
  -28.0513  -22.1377   19.0453 H   0  0  0  0  0  0
  -28.9916  -23.8894   21.4088 H   0  0  0  0  0  0
  -27.3308  -23.7738   20.8950 H   0  0  0  0  0  0
  -27.7933  -24.9382   18.7544 H   0  0  0  0  0  0
  -29.4457  -25.0218   19.1640 H   0  0  0  0  0  0
  1 25  1  0  0  0
  1 30  2  0  0  0
  1 83  1  0  0  0
  2  3  1  0  0  0
  2 25  1  0  0  0
  2 84  1  0  0  0
  2 85  1  0  0  0
  3  4  1  0  0  0
  3 86  1  0  0  0
  3 87  1  0  0  0
  4  5  1  0  0  0
  4 88  1  0  0  0
  4 89  1  0  0  0
  5  6  1  0  0  0
  5 26  1  0  0  0
  5 90  1  0  0  0
  6 25  1  0  0  0
  6 91  1  0  0  0
  6 92  1  0  0  0
  7  8  2  0  0  0
  7 26  1  0  0  0
  7 29  1  0  0  0
  8  9  1  0  0  0
  8 22  1  0  0  0
  9 10  1  0  0  0
  9 27  2  0  0  0
 10 11  2  0  0  0
 10 15  1  0  0  0
 11 12  1  0  0  0
 11 93  1  0  0  0
 12 13  2  0  0  0
 12 94  1  0  0  0
 13 14  1  0  0  0
 13 31  1  0  0  0
 14 15  2  0  0  0
 14 95  1  0  0  0
 15 96  1  0  0  0
 16 17  2  0  0  0
 16 21  1  0  0  0
 16 31  1  0  0  0
 17 18  1  0  0  0
 17 97  1  0  0  0
 18 19  2  0  0  0
 18 98  1  0  0  0
 19 20  1  0  0  0
 19 24  1  0  0  0
 20 21  2  0  0  0
 20 99  1  0  0  0
 21 23  1  0  0  0
 22 28  1  0  0  0
 22 32  2  0  0  0
 26 27  1  0  0  0
 28100  1  0  0  0
 28101  1  0  0  0
 29102  1  0  0  0
 29103  1  0  0  0
 33 34  1  0  0  0
 33 66  1  0  0  0
 33 70  2  0  0  0
 34 36  1  0  0  0
 34 59  1  0  0  0
 34104  1  0  0  0
 35 44  2  0  0  0
 35 45  1  0  0  0
 35 68  1  0  0  0
 36 56  1  0  0  0
 36105  1  0  0  0
 37 39  1  0  0  0
 37 47  1  0  0  0
 37 66  1  0  0  0
 37106  1  0  0  0
 38 43  2  0  0  0
 38 46  1  0  0  0
 38 47  1  0  0  0
 39 64  1  0  0  0
 39 67  2  0  0  0
 40 52  1  0  0  0
 40 53  2  0  0  0
 40 58  1  0  0  0
 41107  1  0  0  0
 41108  1  0  0  0
 41109  1  0  0  0
 41 48  1  0  0  0
 42 43  1  0  0  0
 42 66  1  0  0  0
 42110  1  0  0  0
 42111  1  0  0  0
 43 44  1  0  0  0
 44112  1  0  0  0
 45 46  2  0  0  0
 45113  1  0  0  0
 46114  1  0  0  0
 47115  1  0  0  0
 47116  1  0  0  0
 48 56  1  0  0  0
 48 65  1  0  0  0
 48117  1  0  0  0
 49 50  1  0  0  0
 49 53  1  0  0  0
 49 64  1  0  0  0
 49118  1  0  0  0
 50 51  1  0  0  0
 50119  1  0  0  0
 50120  1  0  0  0
 51 52  1  0  0  0
 51121  1  0  0  0
 51122  1  0  0  0
 52123  1  0  0  0
 52124  1  0  0  0
 53 54  1  0  0  0
 54 55  2  0  0  0
 54125  1  0  0  0
 55 57  1  0  0  0
 55126  1  0  0  0
 56 69  2  0  0  0
 57 58  2  0  0  0
 57127  1  0  0  0
 58128  1  0  0  0
 59 60  1  0  0  0
 59 61  1  0  0  0
 59 62  1  0  0  0
 60129  1  0  0  0
 60130  1  0  0  0
 60131  1  0  0  0
 61132  1  0  0  0
 61133  1  0  0  0
 61134  1  0  0  0
 62135  1  0  0  0
 62136  1  0  0  0
 62137  1  0  0  0
 63 65  1  0  0  0
 63138  1  0  0  0
 63139  1  0  0  0
 63140  1  0  0  0
 64141  1  0  0  0
 65142  1  0  0  0
 68 82  1  0  0  0
 71 72  2  0  0  0
 71 74  1  0  0  0
 71143  1  0  0  0
 72 75  1  0  0  0
 72144  1  0  0  0
 73 74  2  0  0  0
 73 76  1  0  0  0
 73145  1  0  0  0
 74 77  1  0  0  0
 75 76  2  0  0  0
 75 79  1  0  0  0
 76 80  1  0  0  0
 77 83  2  0  0  0
 77146  1  0  0  0
 78 79  1  0  0  0
 78147  1  0  0  0
 78148  1  0  0  0
 78149  1  0  0  0
 79150  1  0  0  0
 79151  1  0  0  0
 80 81  1  0  0  0
 80152  1  0  0  0
 80153  1  0  0  0
 81 82  1  0  0  0
 81154  1  0  0  0
 81155  1  0  0  0
 82156  1  0  0  0
 82157  1  0  0  0
M  ISO  4   1 100  68 101  82 101  83 100
M  END
> <chiral flag>
0

> <version>
0

> <s_m_source_file>
/data/baiqing/PycharmProjects/Reinvent-master-3.2/result/LINK_invent/BTK/process_docking_weight1_custom_product_contain_oxygen_bond_distance_aromatic_linkinvent_7_9_3/rearranged_h_0130.sdf

> <i_m_source_file_index>
48

> <r_mmod_Potential_Energy-OPLS-2005>
165.662307739258

> <r_mmod_Stretch_Energy-OPLS-2005>
129.642227172852

> <r_mmod_Bend_Energy-OPLS-2005>
181.829147338867

> <r_mmod_Torsional_Energy-OPLS-2005>
156.421966552734

> <r_mmod_Improper_Torsional_Energy-OPLS-2005>
3.28607845306396

> <r_mmod_Van_der_Waal_Energy-OPLS-2005>
154.992065429688

> <r_mmod_Electrostatic_Energy-OPLS-2005>
-352.475769042969

> <r_mmod_Solvation_Energy-OPLS-2005>
-177.90852355957

> <b_mmod_Minimization_Converged-OPLS-2005>
0

> <r_mmod_RMS_Derivative-OPLS-2005>
0.929097294807434

$$$$
48
                    3D
 Structure written by MMmdl.
159167  0  0  1  0            999 V2000
  -30.7718  -14.3680   20.6424 C   0  0  0  0  0  0
  -30.4132  -12.2739   19.4040 C   0  0  0  0  0  0
  -29.4874  -12.5117   18.1969 C   0  0  0  0  0  0
  -28.0108  -12.3748   18.6127 C   0  0  0  0  0  0
  -27.6660  -13.2055   19.8779 C   0  0  2  0  0  0
  -28.7046  -12.9579   20.9964 C   0  0  0  0  0  0
  -25.2596  -13.8163   20.5675 C   0  0  0  0  0  0
  -24.1833  -13.0440   20.9157 C   0  0  0  0  0  0
  -24.6386  -11.6905   20.8710 C   0  0  0  0  0  0
  -23.9040  -10.4294   21.0380 C   0  0  0  0  0  0
  -24.3594   -9.4213   21.9162 C   0  0  0  0  0  0
  -23.6274   -8.2257   22.0747 C   0  0  0  0  0  0
  -22.4256   -8.0283   21.3543 C   0  0  0  0  0  0
  -21.9886   -9.0253   20.4651 C   0  0  0  0  0  0
  -22.7216  -10.2132   20.3040 C   0  0  0  0  0  0
  -21.6857   -6.0709   22.5268 C   0  0  0  0  0  0
  -21.4013   -6.5614   23.8198 C   0  0  0  0  0  0
  -21.3656   -5.6771   24.9165 C   0  0  0  0  0  0
  -21.6050   -4.3035   24.7223 C   0  0  0  0  0  0
  -21.8821   -3.8122   23.4351 C   0  0  0  0  0  0
  -21.9202   -4.6937   22.3398 C   0  0  0  0  0  0
  -22.7851  -13.5234   21.1813 C   0  0  0  0  0  0
  -22.1669   -4.2119   21.0977 F   0  0  0  0  0  0
  -21.5633   -3.4526   25.7745 F   0  0  0  0  0  0
  -30.0499  -13.2336   20.4566 N   0  0  0  0  0  0
  -26.3041  -12.9338   20.3368 N   0  0  0  0  0  0
  -25.9311  -11.6493   20.5729 N   0  0  0  0  0  0
  -22.0483  -12.8264   22.0390 N   0  0  0  0  0  0
  -25.4320  -15.1880   20.4096 N   0  0  0  0  0  0
  -31.8250  -14.5964   20.0402 O   0  0  0  0  0  0
  -21.6642   -6.8865   21.4235 O   0  0  0  0  0  0
  -22.3525  -14.5526   20.6632 O   0  0  0  0  0  0
  -24.6092  -31.8719   23.2131 C   0  0  0  0  0  0
  -25.9002  -32.4846   23.8414 C   0  0  1  0  0  0
  -27.2338  -27.4849   20.0672 C   0  0  0  0  0  0
  -25.5869  -33.8640   24.2349 N   0  0  0  0  0  0
  -23.3932  -30.4967   21.5533 C   0  0  2  0  0  0
  -24.8355  -28.9684   20.1219 C   0  0  0  0  0  0
  -22.7377  -29.4671   22.5010 C   0  0  0  0  0  0
  -18.0259  -28.1374   22.8486 C   0  0  0  0  0  0
  -24.1466  -36.7303   23.2635 C   0  0  0  0  0  0
  -25.9164  -30.8559   21.3535 C   0  0  0  0  0  0
  -25.9945  -29.4907   20.7066 C   0  0  0  0  0  0
  -27.1965  -28.7553   20.6763 C   0  0  0  0  0  0
  -26.0477  -26.9587   19.5018 C   0  0  0  0  0  0
  -24.8537  -27.6981   19.5242 C   0  0  0  0  0  0
  -23.5991  -29.8312   20.1676 C   0  0  0  0  0  0
  -25.4082  -36.3117   24.0348 C   0  0  1  0  0  0
  -20.5845  -28.3634   23.1338 C   0  0  2  0  0  0
  -20.6735  -26.9379   22.5422 C   0  0  0  0  0  0
  -19.5729  -26.6392   21.5193 C   0  0  0  0  0  0
  -18.1904  -26.7920   22.1616 C   0  0  0  0  0  0
  -19.1509  -28.8820   23.2917 C   0  0  0  0  0  0
  -18.9448  -30.1425   23.8931 C   0  0  0  0  0  0
  -17.6454  -30.6583   24.0574 C   0  0  0  0  0  0
  -25.9019  -34.9491   23.5147 C   0  0  0  0  0  0
  -16.5342  -29.9093   23.6323 C   0  0  0  0  0  0
  -16.7253  -28.6509   23.0341 C   0  0  0  0  0  0
  -26.4453  -31.6610   25.0721 C   0  0  0  0  0  0
  -25.3758  -31.3747   26.1517 C   0  0  0  0  0  0
  -27.0218  -30.3039   24.6041 C   0  0  0  0  0  0
  -27.6087  -32.4278   25.7444 C   0  0  0  0  0  0
  -27.5571  -37.1782   24.8460 C   0  0  0  0  0  0
  -21.4109  -29.3013   22.3762 N   0  0  0  0  0  0
  -26.4257  -37.3810   23.9447 N   0  0  0  0  0  0
  -24.6586  -31.0876   22.1002 N   0  0  0  0  0  0
  -23.4179  -28.8198   23.3018 O   0  0  0  0  0  0
  -28.4402  -26.8290   20.0258 O   0  0  0  0  0  0
  -26.5584  -34.8940   22.4711 O   0  0  0  0  0  0
  -23.5300  -32.1442   23.7562 O   0  0  0  0  0  0
  -32.3129  -18.3718   21.7391 C   0  0  0  0  0  0
  -29.9765  -18.9454   21.3676 C   0  0  0  0  0  0
  -31.9654  -17.0084   21.7797 C   0  0  0  0  0  0
  -29.6237  -17.5833   21.4116 C   0  0  0  0  0  0
  -31.3227  -19.3521   21.5153 C   0  0  0  0  0  0
  -30.6247  -16.6092   21.5791 C   0  0  0  0  0  0
  -31.6662  -20.7834   21.3726 C   0  0  0  0  0  0
  -32.5839  -21.3876   22.4292 C   0  0  0  0  0  0
  -29.9190  -23.4126   19.8304 C   0  0  0  0  0  0
  -29.8667  -24.9389   19.7864 C   0  0  0  0  0  0
  -31.2780  -22.8758   20.2861 C   0  0  0  0  0  0
  -28.4250  -25.4388   19.7559 C   0  0  0  0  0  0
  -31.1440  -21.4416   20.4135 N   0  0  0  0  0  0
  -30.2548  -15.2450   21.5148 N   0  0  0  0  0  0
  -31.4588  -12.3545   19.0997 H   0  0  0  0  0  0
  -30.2965  -11.2566   19.7789 H   0  0  0  0  0  0
  -29.7208  -11.8033   17.4015 H   0  0  0  0  0  0
  -29.6689  -13.5054   17.7841 H   0  0  0  0  0  0
  -27.8168  -11.3177   18.7999 H   0  0  0  0  0  0
  -27.3601  -12.6619   17.7864 H   0  0  0  0  0  0
  -27.7228  -14.2573   19.5962 H   0  0  0  0  0  0
  -28.6597  -11.9193   21.3274 H   0  0  0  0  0  0
  -28.4591  -13.5489   21.8794 H   0  0  0  0  0  0
  -25.2743   -9.5697   22.4726 H   0  0  0  0  0  0
  -23.9983   -7.4650   22.7463 H   0  0  0  0  0  0
  -21.0814   -8.8776   19.8964 H   0  0  0  0  0  0
  -22.3669  -10.9659   19.6138 H   0  0  0  0  0  0
  -21.1999   -7.6119   23.9682 H   0  0  0  0  0  0
  -21.1472   -6.0505   25.9060 H   0  0  0  0  0  0
  -22.0608   -2.7586   23.2859 H   0  0  0  0  0  0
  -22.4068  -11.9934   22.4828 H   0  0  0  0  0  0
  -21.1105  -13.1315   22.2567 H   0  0  0  0  0  0
  -24.6698  -15.8484   20.5181 H   0  0  0  0  0  0
  -26.2920  -15.6268   20.1030 H   0  0  0  0  0  0
  -26.7082  -32.5587   23.1202 H   0  0  0  0  0  0
  -25.0025  -33.9817   25.0495 H   0  0  0  0  0  0
  -22.6778  -31.3106   21.4158 H   0  0  0  0  0  0
  -23.3754  -35.9605   23.3267 H   0  0  0  0  0  0
  -24.3577  -36.8951   22.2060 H   0  0  0  0  0  0
  -23.7182  -37.6480   23.6674 H   0  0  0  0  0  0
  -26.0110  -31.6205   20.5810 H   0  0  0  0  0  0
  -26.8120  -30.9214   21.9594 H   0  0  0  0  0  0
  -28.0974  -29.1645   21.1125 H   0  0  0  0  0  0
  -26.0199  -25.9924   19.0217 H   0  0  0  0  0  0
  -23.9580  -27.2870   19.0792 H   0  0  0  0  0  0
  -23.7134  -30.6042   19.4064 H   0  0  0  0  0  0
  -22.7245  -29.2496   19.8691 H   0  0  0  0  0  0
  -25.1240  -36.1978   25.0834 H   0  0  0  0  0  0
  -20.9934  -28.3182   24.1461 H   0  0  0  0  0  0
  -20.5605  -26.2229   23.3589 H   0  0  0  0  0  0
  -21.6621  -26.7412   22.1244 H   0  0  0  0  0  0
  -19.6886  -25.6310   21.1200 H   0  0  0  0  0  0
  -19.6671  -27.3214   20.6729 H   0  0  0  0  0  0
  -17.4167  -26.6655   21.4028 H   0  0  0  0  0  0
  -18.0329  -26.0065   22.9020 H   0  0  0  0  0  0
  -19.7934  -30.7217   24.2320 H   0  0  0  0  0  0
  -17.5025  -31.6258   24.5195 H   0  0  0  0  0  0
  -15.5342  -30.3012   23.7639 H   0  0  0  0  0  0
  -15.8647  -28.0840   22.7048 H   0  0  0  0  0  0
  -24.5835  -30.7195   25.7881 H   0  0  0  0  0  0
  -24.9072  -32.2933   26.5063 H   0  0  0  0  0  0
  -25.8131  -30.8828   27.0214 H   0  0  0  0  0  0
  -26.2686  -29.6827   24.1177 H   0  0  0  0  0  0
  -27.4070  -29.7270   25.4460 H   0  0  0  0  0  0
  -27.8506  -30.4343   23.9081 H   0  0  0  0  0  0
  -27.2784  -33.3623   26.1998 H   0  0  0  0  0  0
  -28.3903  -32.6740   25.0244 H   0  0  0  0  0  0
  -28.0724  -31.8385   26.5370 H   0  0  0  0  0  0
  -28.2575  -38.0095   24.7566 H   0  0  0  0  0  0
  -28.1073  -36.2637   24.6181 H   0  0  0  0  0  0
  -27.2320  -37.1355   25.8869 H   0  0  0  0  0  0
  -20.9249  -29.8739   21.7003 H   0  0  0  0  0  0
  -26.0141  -38.2862   24.1532 H   0  0  0  0  0  0
  -33.3516  -18.6549   21.8372 H   0  0  0  0  0  0
  -29.2063  -19.6834   21.1921 H   0  0  0  0  0  0
  -32.7446  -16.2725   21.9235 H   0  0  0  0  0  0
  -28.5915  -17.2957   21.2632 H   0  0  0  0  0  0
  -33.0737  -20.6225   23.0297 H   0  0  0  0  0  0
  -32.0125  -22.0203   23.1093 H   0  0  0  0  0  0
  -33.3654  -21.9897   21.9649 H   0  0  0  0  0  0
  -29.6523  -23.0045   18.8530 H   0  0  0  0  0  0
  -29.1593  -23.0550   20.5275 H   0  0  0  0  0  0
  -30.4045  -25.3102   18.9132 H   0  0  0  0  0  0
  -30.3692  -25.3527   20.6621 H   0  0  0  0  0  0
  -31.5478  -23.3694   21.2222 H   0  0  0  0  0  0
  -32.0512  -23.1284   19.5582 H   0  0  0  0  0  0
  -27.8322  -24.9439   20.5279 H   0  0  0  0  0  0
  -27.9934  -25.2079   18.7822 H   0  0  0  0  0  0
  -29.3613  -14.9896   21.9052 H   0  0  0  0  0  0
  1 25  1  0  0  0
  1 30  2  0  0  0
  1 84  1  0  0  0
  2  3  1  0  0  0
  2 25  1  0  0  0
  2 85  1  0  0  0
  2 86  1  0  0  0
  3  4  1  0  0  0
  3 87  1  0  0  0
  3 88  1  0  0  0
  4  5  1  0  0  0
  4 89  1  0  0  0
  4 90  1  0  0  0
  5  6  1  0  0  0
  5 26  1  0  0  0
  5 91  1  0  0  0
  6 25  1  0  0  0
  6 92  1  0  0  0
  6 93  1  0  0  0
  7  8  2  0  0  0
  7 26  1  0  0  0
  7 29  1  0  0  0
  8  9  1  0  0  0
  8 22  1  0  0  0
  9 10  1  0  0  0
  9 27  2  0  0  0
 10 11  2  0  0  0
 10 15  1  0  0  0
 11 12  1  0  0  0
 11 94  1  0  0  0
 12 13  2  0  0  0
 12 95  1  0  0  0
 13 14  1  0  0  0
 13 31  1  0  0  0
 14 15  2  0  0  0
 14 96  1  0  0  0
 15 97  1  0  0  0
 16 17  2  0  0  0
 16 21  1  0  0  0
 16 31  1  0  0  0
 17 18  1  0  0  0
 17 98  1  0  0  0
 18 19  2  0  0  0
 18 99  1  0  0  0
 19 20  1  0  0  0
 19 24  1  0  0  0
 20 21  2  0  0  0
 20100  1  0  0  0
 21 23  1  0  0  0
 22 28  1  0  0  0
 22 32  2  0  0  0
 26 27  1  0  0  0
 28101  1  0  0  0
 28102  1  0  0  0
 29103  1  0  0  0
 29104  1  0  0  0
 33 34  1  0  0  0
 33 66  1  0  0  0
 33 70  2  0  0  0
 34 36  1  0  0  0
 34 59  1  0  0  0
 34105  1  0  0  0
 35 44  2  0  0  0
 35 45  1  0  0  0
 35 68  1  0  0  0
 36 56  1  0  0  0
 36106  1  0  0  0
 37 39  1  0  0  0
 37 47  1  0  0  0
 37 66  1  0  0  0
 37107  1  0  0  0
 38 43  2  0  0  0
 38 46  1  0  0  0
 38 47  1  0  0  0
 39 64  1  0  0  0
 39 67  2  0  0  0
 40 52  1  0  0  0
 40 53  2  0  0  0
 40 58  1  0  0  0
 41108  1  0  0  0
 41109  1  0  0  0
 41110  1  0  0  0
 41 48  1  0  0  0
 42 43  1  0  0  0
 42 66  1  0  0  0
 42111  1  0  0  0
 42112  1  0  0  0
 43 44  1  0  0  0
 44113  1  0  0  0
 45 46  2  0  0  0
 45114  1  0  0  0
 46115  1  0  0  0
 47116  1  0  0  0
 47117  1  0  0  0
 48 56  1  0  0  0
 48 65  1  0  0  0
 48118  1  0  0  0
 49 50  1  0  0  0
 49 53  1  0  0  0
 49 64  1  0  0  0
 49119  1  0  0  0
 50 51  1  0  0  0
 50120  1  0  0  0
 50121  1  0  0  0
 51 52  1  0  0  0
 51122  1  0  0  0
 51123  1  0  0  0
 52124  1  0  0  0
 52125  1  0  0  0
 53 54  1  0  0  0
 54 55  2  0  0  0
 54126  1  0  0  0
 55 57  1  0  0  0
 55127  1  0  0  0
 56 69  2  0  0  0
 57 58  2  0  0  0
 57128  1  0  0  0
 58129  1  0  0  0
 59 60  1  0  0  0
 59 61  1  0  0  0
 59 62  1  0  0  0
 60130  1  0  0  0
 60131  1  0  0  0
 60132  1  0  0  0
 61133  1  0  0  0
 61134  1  0  0  0
 61135  1  0  0  0
 62136  1  0  0  0
 62137  1  0  0  0
 62138  1  0  0  0
 63 65  1  0  0  0
 63139  1  0  0  0
 63140  1  0  0  0
 63141  1  0  0  0
 64142  1  0  0  0
 65143  1  0  0  0
 68 82  1  0  0  0
 71 73  2  0  0  0
 71 75  1  0  0  0
 71144  1  0  0  0
 72 74  1  0  0  0
 72 75  2  0  0  0
 72145  1  0  0  0
 73 76  1  0  0  0
 73146  1  0  0  0
 74 76  2  0  0  0
 74147  1  0  0  0
 75 77  1  0  0  0
 76 84  1  0  0  0
 77 78  1  0  0  0
 77 83  2  0  0  0
 78148  1  0  0  0
 78149  1  0  0  0
 78150  1  0  0  0
 79 80  1  0  0  0
 79 81  1  0  0  0
 79151  1  0  0  0
 79152  1  0  0  0
 80 82  1  0  0  0
 80153  1  0  0  0
 80154  1  0  0  0
 81 83  1  0  0  0
 81155  1  0  0  0
 81156  1  0  0  0
 82157  1  0  0  0
 82158  1  0  0  0
 84159  1  0  0  0
M  ISO  4   1 100  68 101  82 101  84 100
M  END
> <chiral flag>
0

> <version>
0

> <s_m_source_file>
/data/baiqing/PycharmProjects/Reinvent-master-3.2/result/LINK_invent/BTK/process_docking_weight1_custom_product_contain_oxygen_bond_distance_aromatic_linkinvent_7_9_3/rearranged_h_0130.sdf

> <i_m_source_file_index>
49

> <r_mmod_Potential_Energy-OPLS-2005>
-58.4988403320312

> <r_mmod_Stretch_Energy-OPLS-2005>
31.0905570983887

> <r_mmod_Bend_Energy-OPLS-2005>
99.969367980957

> <r_mmod_Torsional_Energy-OPLS-2005>
228.422637939453

> <r_mmod_Improper_Torsional_Energy-OPLS-2005>
3.27615451812744

> <r_mmod_Van_der_Waal_Energy-OPLS-2005>
173.258041381836

> <r_mmod_Electrostatic_Energy-OPLS-2005>
-389.065673828125

> <r_mmod_Solvation_Energy-OPLS-2005>
-214.062881469727

> <b_mmod_Minimization_Converged-OPLS-2005>
0

> <r_mmod_RMS_Derivative-OPLS-2005>
2.67092800140381

$$$$
49
                    3D
 Structure written by MMmdl.
158166  0  0  1  0            999 V2000
  -30.6909  -14.4720   20.4875 C   0  0  0  0  0  0
  -30.4178  -12.2829   19.4312 C   0  0  0  0  0  0
  -29.4959  -12.4828   18.2098 C   0  0  0  0  0  0
  -28.0138  -12.3567   18.6173 C   0  0  0  0  0  0
  -27.6588  -13.2048   19.8692 C   0  0  2  0  0  0
  -28.7030  -13.0073   20.9942 C   0  0  0  0  0  0
  -25.2594  -13.8159   20.5686 C   0  0  0  0  0  0
  -24.1837  -13.0446   20.9176 C   0  0  0  0  0  0
  -24.6383  -11.6912   20.8729 C   0  0  0  0  0  0
  -23.9042  -10.4300   21.0386 C   0  0  0  0  0  0
  -24.3605   -9.4220   21.9162 C   0  0  0  0  0  0
  -23.6301   -8.2244   22.0728 C   0  0  0  0  0  0
  -22.4283   -8.0277   21.3525 C   0  0  0  0  0  0
  -21.9910   -9.0240   20.4621 C   0  0  0  0  0  0
  -22.7216  -10.2136   20.3033 C   0  0  0  0  0  0
  -21.6854   -6.0746   22.5276 C   0  0  0  0  0  0
  -21.4011   -6.5643   23.8212 C   0  0  0  0  0  0
  -21.3663   -5.6790   24.9168 C   0  0  0  0  0  0
  -21.6041   -4.3055   24.7212 C   0  0  0  0  0  0
  -21.8821   -3.8151   23.4334 C   0  0  0  0  0  0
  -21.9197   -4.6973   22.3394 C   0  0  0  0  0  0
  -22.7860  -13.5236   21.1850 C   0  0  0  0  0  0
  -22.1662   -4.2159   21.0972 F   0  0  0  0  0  0
  -21.5638   -3.4541   25.7725 F   0  0  0  0  0  0
  -30.0354  -13.2846   20.4361 N   0  0  0  0  0  0
  -26.3008  -12.9319   20.3345 N   0  0  0  0  0  0
  -25.9304  -11.6482   20.5759 N   0  0  0  0  0  0
  -22.0503  -12.8222   22.0408 N   0  0  0  0  0  0
  -25.4357  -15.1878   20.4114 N   0  0  0  0  0  0
  -31.8584  -14.6198   20.1175 O   0  0  0  0  0  0
  -21.6641   -6.8884   21.4235 O   0  0  0  0  0  0
  -22.3545  -14.5537   20.6699 O   0  0  0  0  0  0
  -24.6130  -31.8680   23.2113 C   0  0  0  0  0  0
  -25.9025  -32.4832   23.8403 C   0  0  1  0  0  0
  -27.2394  -27.4539   20.0727 C   0  0  0  0  0  0
  -25.5887  -33.8634   24.2334 N   0  0  0  0  0  0
  -23.3991  -30.4911   21.5527 C   0  0  2  0  0  0
  -24.8428  -28.9588   20.1134 C   0  0  0  0  0  0
  -22.7390  -29.4658   22.5016 C   0  0  0  0  0  0
  -18.0268  -28.1358   22.8493 C   0  0  0  0  0  0
  -24.1471  -36.7314   23.2644 C   0  0  0  0  0  0
  -25.9253  -30.8381   21.3601 C   0  0  0  0  0  0
  -26.0005  -29.4726   20.7074 C   0  0  0  0  0  0
  -27.1979  -28.7251   20.6871 C   0  0  0  0  0  0
  -26.0617  -26.9542   19.4655 C   0  0  0  0  0  0
  -24.8665  -27.6988   19.4915 C   0  0  0  0  0  0
  -23.6030  -29.8217   20.1668 C   0  0  0  0  0  0
  -25.4098  -36.3127   24.0348 C   0  0  1  0  0  0
  -20.5854  -28.3649   23.1320 C   0  0  2  0  0  0
  -20.6756  -26.9392   22.5408 C   0  0  0  0  0  0
  -19.5743  -26.6383   21.5194 C   0  0  0  0  0  0
  -18.1922  -26.7914   22.1609 C   0  0  0  0  0  0
  -19.1518  -28.8825   23.2907 C   0  0  0  0  0  0
  -18.9450  -30.1428   23.8921 C   0  0  0  0  0  0
  -17.6455  -30.6579   24.0553 C   0  0  0  0  0  0
  -25.9021  -34.9487   23.5148 C   0  0  0  0  0  0
  -16.5343  -29.9080   23.6305 C   0  0  0  0  0  0
  -16.7260  -28.6482   23.0359 C   0  0  0  0  0  0
  -26.4468  -31.6617   25.0724 C   0  0  0  0  0  0
  -25.3729  -31.3688   26.1465 C   0  0  0  0  0  0
  -27.0296  -30.3080   24.6050 C   0  0  0  0  0  0
  -27.6073  -32.4314   25.7465 C   0  0  0  0  0  0
  -27.5573  -37.1810   24.8474 C   0  0  0  0  0  0
  -21.4127  -29.3016   22.3737 N   0  0  0  0  0  0
  -26.4290  -37.3801   23.9413 N   0  0  0  0  0  0
  -24.6646  -31.0792   22.1010 N   0  0  0  0  0  0
  -23.4175  -28.8206   23.3051 O   0  0  0  0  0  0
  -28.4391  -26.7726   20.0857 O   0  0  0  0  0  0
  -26.5577  -34.8937   22.4699 O   0  0  0  0  0  0
  -23.5329  -32.1423   23.7528 O   0  0  0  0  0  0
  -29.4721  -17.9685   20.4633 C   0  0  0  0  0  0
  -29.9059  -18.9859   18.3121 C   0  0  0  0  0  0
  -30.3963  -16.7430   18.5937 C   0  0  0  0  0  0
  -29.4575  -19.1199   19.6418 C   0  0  0  0  0  0
  -29.9509  -16.7467   19.9388 C   0  0  0  0  0  0
  -28.5122  -21.4287   19.1757 C   0  0  0  0  0  0
  -29.1956  -22.5659   18.9388 C   0  0  0  0  0  0
  -28.9622  -20.4265   20.1598 C   0  0  0  0  0  0
  -30.4074  -25.5452   18.1652 C   0  0  0  0  0  0
  -28.7443  -23.6195   17.9344 C   0  0  0  0  0  0
  -28.4693  -25.3691   19.8136 C   0  0  0  0  0  0
  -28.9509  -25.0897   18.3736 C   0  0  1  0  0  0
  -30.3709  -17.8285   17.7959 N   0  0  0  0  0  0
  -29.9190  -15.5491   20.7253 N   0  0  0  0  0  0
  -28.9006  -20.6578   21.3699 O   0  0  0  0  0  0
  -31.4646  -12.3665   19.1332 H   0  0  0  0  0  0
  -30.3048  -11.2786   19.8416 H   0  0  0  0  0  0
  -29.7333  -11.7501   17.4368 H   0  0  0  0  0  0
  -29.6732  -13.4639   17.7647 H   0  0  0  0  0  0
  -27.8162  -11.3032   18.8180 H   0  0  0  0  0  0
  -27.3671  -12.6291   17.7813 H   0  0  0  0  0  0
  -27.6958  -14.2480   19.5556 H   0  0  0  0  0  0
  -28.6720  -11.9813   21.3633 H   0  0  0  0  0  0
  -28.4801  -13.6437   21.8519 H   0  0  0  0  0  0
  -25.2749   -9.5720   22.4743 H   0  0  0  0  0  0
  -24.0031   -7.4630   22.7438 H   0  0  0  0  0  0
  -21.0846   -8.8728   19.8925 H   0  0  0  0  0  0
  -22.3641  -10.9668   19.6151 H   0  0  0  0  0  0
  -21.1997   -7.6152   23.9719 H   0  0  0  0  0  0
  -21.1485   -6.0517   25.9076 H   0  0  0  0  0  0
  -22.0605   -2.7619   23.2816 H   0  0  0  0  0  0
  -22.4124  -11.9899   22.4810 H   0  0  0  0  0  0
  -21.1104  -13.1214   22.2581 H   0  0  0  0  0  0
  -24.6746  -15.8491   20.5184 H   0  0  0  0  0  0
  -26.2916  -15.6209   20.0901 H   0  0  0  0  0  0
  -26.7101  -32.5533   23.1175 H   0  0  0  0  0  0
  -25.0063  -33.9795   25.0503 H   0  0  0  0  0  0
  -22.6885  -31.3093   21.4154 H   0  0  0  0  0  0
  -23.3737  -35.9645   23.3337 H   0  0  0  0  0  0
  -24.3563  -36.8881   22.2050 H   0  0  0  0  0  0
  -23.7211  -37.6530   23.6623 H   0  0  0  0  0  0
  -26.0265  -31.6058   20.5914 H   0  0  0  0  0  0
  -26.8193  -30.8973   21.9680 H   0  0  0  0  0  0
  -28.0938  -29.1219   21.1435 H   0  0  0  0  0  0
  -26.0497  -26.0047   18.9507 H   0  0  0  0  0  0
  -23.9778  -27.3049   19.0191 H   0  0  0  0  0  0
  -23.7051  -30.5953   19.4048 H   0  0  0  0  0  0
  -22.7274  -29.2382   19.8757 H   0  0  0  0  0  0
  -25.1271  -36.2010   25.0840 H   0  0  0  0  0  0
  -20.9951  -28.3206   24.1439 H   0  0  0  0  0  0
  -20.5625  -26.2261   23.3590 H   0  0  0  0  0  0
  -21.6634  -26.7416   22.1222 H   0  0  0  0  0  0
  -19.6903  -25.6299   21.1210 H   0  0  0  0  0  0
  -19.6691  -27.3202   20.6732 H   0  0  0  0  0  0
  -17.4188  -26.6666   21.4011 H   0  0  0  0  0  0
  -18.0336  -26.0045   22.8995 H   0  0  0  0  0  0
  -19.7934  -30.7224   24.2320 H   0  0  0  0  0  0
  -17.5012  -31.6260   24.5150 H   0  0  0  0  0  0
  -15.5347  -30.2994   23.7608 H   0  0  0  0  0  0
  -15.8656  -28.0790   22.7097 H   0  0  0  0  0  0
  -24.5938  -30.7001   25.7781 H   0  0  0  0  0  0
  -24.8873  -32.2820   26.4914 H   0  0  0  0  0  0
  -25.8087  -30.8858   27.0220 H   0  0  0  0  0  0
  -26.2812  -29.6839   24.1146 H   0  0  0  0  0  0
  -27.4153  -29.7317   25.4471 H   0  0  0  0  0  0
  -27.8613  -30.4453   23.9131 H   0  0  0  0  0  0
  -27.2750  -33.3634   26.2051 H   0  0  0  0  0  0
  -28.3873  -32.6825   25.0261 H   0  0  0  0  0  0
  -28.0744  -31.8406   26.5355 H   0  0  0  0  0  0
  -28.2626  -38.0074   24.7499 H   0  0  0  0  0  0
  -28.1033  -36.2610   24.6334 H   0  0  0  0  0  0
  -27.2283  -37.1494   25.8874 H   0  0  0  0  0  0
  -20.9295  -29.8744   21.6960 H   0  0  0  0  0  0
  -26.0194  -38.2885   24.1409 H   0  0  0  0  0  0
  -29.1118  -18.0175   21.4812 H   0  0  0  0  0  0
  -29.9098  -19.8243   17.6300 H   0  0  0  0  0  0
  -30.7507  -15.8422   18.1157 H   0  0  0  0  0  0
  -27.6051  -21.2119   18.6314 H   0  0  0  0  0  0
  -30.1196  -22.7580   19.4680 H   0  0  0  0  0  0
  -30.7217  -25.4077   17.1294 H   0  0  0  0  0  0
  -31.0993  -24.9900   18.7987 H   0  0  0  0  0  0
  -30.5273  -26.6052   18.3951 H   0  0  0  0  0  0
  -27.6860  -23.4596   17.7209 H   0  0  0  0  0  0
  -29.2622  -23.4395   16.9920 H   0  0  0  0  0  0
  -29.1701  -24.9230   20.5202 H   0  0  0  0  0  0
  -27.5190  -24.8778   20.0245 H   0  0  0  0  0  0
  -28.3397  -25.6953   17.7033 H   0  0  0  0  0  0
  -29.0719  -15.3837   21.2496 H   0  0  0  0  0  0
  1 25  1  0  0  0
  1 30  2  0  0  0
  1 84  1  0  0  0
  2  3  1  0  0  0
  2 25  1  0  0  0
  2 86  1  0  0  0
  2 87  1  0  0  0
  3  4  1  0  0  0
  3 88  1  0  0  0
  3 89  1  0  0  0
  4  5  1  0  0  0
  4 90  1  0  0  0
  4 91  1  0  0  0
  5  6  1  0  0  0
  5 26  1  0  0  0
  5 92  1  0  0  0
  6 25  1  0  0  0
  6 93  1  0  0  0
  6 94  1  0  0  0
  7  8  2  0  0  0
  7 26  1  0  0  0
  7 29  1  0  0  0
  8  9  1  0  0  0
  8 22  1  0  0  0
  9 10  1  0  0  0
  9 27  2  0  0  0
 10 11  2  0  0  0
 10 15  1  0  0  0
 11 12  1  0  0  0
 11 95  1  0  0  0
 12 13  2  0  0  0
 12 96  1  0  0  0
 13 14  1  0  0  0
 13 31  1  0  0  0
 14 15  2  0  0  0
 14 97  1  0  0  0
 15 98  1  0  0  0
 16 17  2  0  0  0
 16 21  1  0  0  0
 16 31  1  0  0  0
 17 18  1  0  0  0
 17 99  1  0  0  0
 18 19  2  0  0  0
 18100  1  0  0  0
 19 20  1  0  0  0
 19 24  1  0  0  0
 20 21  2  0  0  0
 20101  1  0  0  0
 21 23  1  0  0  0
 22 28  1  0  0  0
 22 32  2  0  0  0
 26 27  1  0  0  0
 28102  1  0  0  0
 28103  1  0  0  0
 29104  1  0  0  0
 29105  1  0  0  0
 33 34  1  0  0  0
 33 66  1  0  0  0
 33 70  2  0  0  0
 34 36  1  0  0  0
 34 59  1  0  0  0
 34106  1  0  0  0
 35 44  2  0  0  0
 35 45  1  0  0  0
 35 68  1  0  0  0
 36 56  1  0  0  0
 36107  1  0  0  0
 37 39  1  0  0  0
 37 47  1  0  0  0
 37 66  1  0  0  0
 37108  1  0  0  0
 38 43  2  0  0  0
 38 46  1  0  0  0
 38 47  1  0  0  0
 39 64  1  0  0  0
 39 67  2  0  0  0
 40 52  1  0  0  0
 40 53  2  0  0  0
 40 58  1  0  0  0
 41109  1  0  0  0
 41110  1  0  0  0
 41111  1  0  0  0
 41 48  1  0  0  0
 42 43  1  0  0  0
 42 66  1  0  0  0
 42112  1  0  0  0
 42113  1  0  0  0
 43 44  1  0  0  0
 44114  1  0  0  0
 45 46  2  0  0  0
 45115  1  0  0  0
 46116  1  0  0  0
 47117  1  0  0  0
 47118  1  0  0  0
 48 56  1  0  0  0
 48 65  1  0  0  0
 48119  1  0  0  0
 49 50  1  0  0  0
 49 53  1  0  0  0
 49 64  1  0  0  0
 49120  1  0  0  0
 50 51  1  0  0  0
 50121  1  0  0  0
 50122  1  0  0  0
 51 52  1  0  0  0
 51123  1  0  0  0
 51124  1  0  0  0
 52125  1  0  0  0
 52126  1  0  0  0
 53 54  1  0  0  0
 54 55  2  0  0  0
 54127  1  0  0  0
 55 57  1  0  0  0
 55128  1  0  0  0
 56 69  2  0  0  0
 57 58  2  0  0  0
 57129  1  0  0  0
 58130  1  0  0  0
 59 60  1  0  0  0
 59 61  1  0  0  0
 59 62  1  0  0  0
 60131  1  0  0  0
 60132  1  0  0  0
 60133  1  0  0  0
 61134  1  0  0  0
 61135  1  0  0  0
 61136  1  0  0  0
 62137  1  0  0  0
 62138  1  0  0  0
 62139  1  0  0  0
 63 65  1  0  0  0
 63140  1  0  0  0
 63141  1  0  0  0
 63142  1  0  0  0
 64143  1  0  0  0
 65144  1  0  0  0
 68 81  1  0  0  0
 71 74  2  0  0  0
 71 75  1  0  0  0
 71145  1  0  0  0
 72 74  1  0  0  0
 72 83  2  0  0  0
 72146  1  0  0  0
 73 75  2  0  0  0
 73 83  1  0  0  0
 73147  1  0  0  0
 74 78  1  0  0  0
 75 84  1  0  0  0
 76 77  2  0  0  0
 76 78  1  0  0  0
 76148  1  0  0  0
 77 80  1  0  0  0
 77149  1  0  0  0
 78 85  2  0  0  0
 79150  1  0  0  0
 79151  1  0  0  0
 79152  1  0  0  0
 79 82  1  0  0  0
 80 82  1  0  0  0
 80153  1  0  0  0
 80154  1  0  0  0
 81 82  1  0  0  0
 81155  1  0  0  0
 81156  1  0  0  0
 82157  1  0  0  0
 84158  1  0  0  0
M  ISO  4   1 100  68 101  81 101  84 100
M  END
> <chiral flag>
0

> <version>
0

> <s_m_source_file>
/data/baiqing/PycharmProjects/Reinvent-master-3.2/result/LINK_invent/BTK/process_docking_weight1_custom_product_contain_oxygen_bond_distance_aromatic_linkinvent_7_9_3/rearranged_h_0130.sdf

> <i_m_source_file_index>
50

> <r_mmod_Potential_Energy-OPLS-2005>
-200.619964599609

> <r_mmod_Stretch_Energy-OPLS-2005>
35.0011940002441

> <r_mmod_Bend_Energy-OPLS-2005>
98.7200546264648

> <r_mmod_Torsional_Energy-OPLS-2005>
256.805114746094

> <r_mmod_Improper_Torsional_Energy-OPLS-2005>
7.40771627426147

> <r_mmod_Van_der_Waal_Energy-OPLS-2005>
160.493606567383

> <r_mmod_Electrostatic_Energy-OPLS-2005>
-545.320129394531

> <r_mmod_Solvation_Energy-OPLS-2005>
-229.266296386719

> <b_mmod_Minimization_Converged-OPLS-2005>
0

> <r_mmod_RMS_Derivative-OPLS-2005>
1.98065161705017

$$$$
50
                    3D
 Structure written by MMmdl.
156165  0  0  1  0            999 V2000
  -30.7210  -14.5411   20.5154 C   0  0  0  0  0  0
  -30.4169  -12.3300   19.4612 C   0  0  0  0  0  0
  -29.5042  -12.4858   18.2274 C   0  0  0  0  0  0
  -28.0252  -12.3442   18.6346 C   0  0  0  0  0  0
  -27.6549  -13.2194   19.8629 C   0  0  2  0  0  0
  -28.6955  -13.0784   20.9959 C   0  0  0  0  0  0
  -25.2566  -13.8189   20.5680 C   0  0  0  0  0  0
  -24.1838  -13.0449   20.9184 C   0  0  0  0  0  0
  -24.6408  -11.6925   20.8740 C   0  0  0  0  0  0
  -23.9087  -10.4303   21.0404 C   0  0  0  0  0  0
  -24.3639   -9.4217   21.9174 C   0  0  0  0  0  0
  -23.6319   -8.2250   22.0749 C   0  0  0  0  0  0
  -22.4297   -8.0289   21.3554 C   0  0  0  0  0  0
  -21.9932   -9.0260   20.4651 C   0  0  0  0  0  0
  -22.7261  -10.2137   20.3056 C   0  0  0  0  0  0
  -21.6855   -6.0744   22.5281 C   0  0  0  0  0  0
  -21.4005   -6.5643   23.8219 C   0  0  0  0  0  0
  -21.3658   -5.6795   24.9182 C   0  0  0  0  0  0
  -21.6049   -4.3058   24.7225 C   0  0  0  0  0  0
  -21.8820   -3.8152   23.4346 C   0  0  0  0  0  0
  -21.9194   -4.6973   22.3405 C   0  0  0  0  0  0
  -22.7860  -13.5228   21.1838 C   0  0  0  0  0  0
  -22.1660   -4.2154   21.0989 F   0  0  0  0  0  0
  -21.5640   -3.4547   25.7736 F   0  0  0  0  0  0
  -30.0231  -13.3667   20.4358 N   0  0  0  0  0  0
  -26.3001  -12.9374   20.3322 N   0  0  0  0  0  0
  -25.9337  -11.6523   20.5768 N   0  0  0  0  0  0
  -22.0497  -12.8239   22.0403 N   0  0  0  0  0  0
  -25.4275  -15.1910   20.4083 N   0  0  0  0  0  0
  -31.8884  -14.5937   20.1213 O   0  0  0  0  0  0
  -21.6659   -6.8890   21.4245 O   0  0  0  0  0  0
  -22.3546  -14.5529   20.6680 O   0  0  0  0  0  0
  -24.6169  -31.8659   23.2080 C   0  0  0  0  0  0
  -25.9041  -32.4809   23.8406 C   0  0  1  0  0  0
  -27.2420  -27.4165   20.1161 C   0  0  0  0  0  0
  -25.5890  -33.8607   24.2325 N   0  0  0  0  0  0
  -23.4095  -30.4898   21.5443 C   0  0  2  0  0  0
  -24.8624  -28.9528   20.1132 C   0  0  0  0  0  0
  -22.7441  -29.4663   22.4936 C   0  0  0  0  0  0
  -18.0295  -28.1420   22.8486 C   0  0  0  0  0  0
  -24.1474  -36.7295   23.2644 C   0  0  0  0  0  0
  -25.9409  -30.8292   21.3657 C   0  0  0  0  0  0
  -26.0224  -29.4628   20.7123 C   0  0  0  0  0  0
  -27.2181  -28.7033   20.7107 C   0  0  0  0  0  0
  -26.0703  -26.9278   19.5064 C   0  0  0  0  0  0
  -24.8825  -27.6846   19.5045 C   0  0  0  0  0  0
  -23.6233  -29.8196   20.1602 C   0  0  0  0  0  0
  -25.4094  -36.3100   24.0350 C   0  0  1  0  0  0
  -20.5888  -28.3708   23.1298 C   0  0  2  0  0  0
  -20.6789  -26.9434   22.5433 C   0  0  0  0  0  0
  -19.5771  -26.6400   21.5233 C   0  0  0  0  0  0
  -18.1937  -26.7974   22.1610 C   0  0  0  0  0  0
  -19.1548  -28.8877   23.2896 C   0  0  0  0  0  0
  -18.9476  -30.1475   23.8920 C   0  0  0  0  0  0
  -17.6475  -30.6610   24.0584 C   0  0  0  0  0  0
  -25.9029  -34.9471   23.5136 C   0  0  0  0  0  0
  -16.5363  -29.9124   23.6334 C   0  0  0  0  0  0
  -16.7283  -28.6547   23.0336 C   0  0  0  0  0  0
  -26.4451  -31.6605   25.0758 C   0  0  0  0  0  0
  -25.3701  -31.3766   26.1508 C   0  0  0  0  0  0
  -27.0287  -30.3038   24.6174 C   0  0  0  0  0  0
  -27.6031  -32.4329   25.7502 C   0  0  0  0  0  0
  -27.5582  -37.1794   24.8453 C   0  0  0  0  0  0
  -21.4166  -29.3053   22.3676 N   0  0  0  0  0  0
  -26.4269  -37.3797   23.9440 N   0  0  0  0  0  0
  -24.6735  -31.0765   22.0973 N   0  0  0  0  0  0
  -23.4205  -28.8213   23.2993 O   0  0  0  0  0  0
  -28.3505  -26.5916   20.1312 O   0  0  0  0  0  0
  -26.5586  -34.8920   22.4695 O   0  0  0  0  0  0
  -23.5346  -32.1414   23.7448 O   0  0  0  0  0  0
  -28.8265  -18.7899   21.0159 C   0  0  0  0  0  0
  -31.1506  -19.3617   21.3409 C   0  0  0  0  0  0
  -28.4716  -20.1508   21.2303 C   0  0  0  0  0  0
  -30.7995  -20.7117   21.5624 C   0  0  0  0  0  0
  -30.1778  -18.3725   21.0636 C   0  0  0  0  0  0
  -29.4504  -21.1312   21.5259 C   0  0  0  0  0  0
  -28.9852  -24.8397   21.7295 C   0  0  0  0  0  0
  -30.6493  -16.9728   20.8411 C   0  0  0  0  0  0
  -28.7281  -26.1242   21.3700 C   0  0  0  0  0  0
  -29.9937  -15.7776   20.8827 C   0  0  0  0  0  0
  -29.3236  -24.4691   23.1546 C   0  0  0  0  0  0
  -28.9403  -23.5447   20.9146 C   0  0  0  0  0  0
  -29.6542  -22.9769   23.1227 C   0  0  0  0  0  0
  -29.0710  -22.4484   21.8908 N   0  0  0  0  0  0
  -31.4646  -12.3984   19.1632 H   0  0  0  0  0  0
  -30.3033  -11.3377   19.9018 H   0  0  0  0  0  0
  -29.7594  -11.7349   17.4786 H   0  0  0  0  0  0
  -29.6703  -13.4583   17.7591 H   0  0  0  0  0  0
  -27.8533  -11.2924   18.8673 H   0  0  0  0  0  0
  -27.3748  -12.5787   17.7924 H   0  0  0  0  0  0
  -27.6771  -14.2542   19.5192 H   0  0  0  0  0  0
  -28.6821  -12.0672   21.4050 H   0  0  0  0  0  0
  -28.4554  -13.7355   21.8328 H   0  0  0  0  0  0
  -25.2782   -9.5700   22.4746 H   0  0  0  0  0  0
  -24.0044   -7.4635   22.7461 H   0  0  0  0  0  0
  -21.0868   -8.8776   19.8951 H   0  0  0  0  0  0
  -22.3722  -10.9674   19.6171 H   0  0  0  0  0  0
  -21.1981   -7.6146   23.9730 H   0  0  0  0  0  0
  -21.1476   -6.0517   25.9087 H   0  0  0  0  0  0
  -22.0595   -2.7613   23.2843 H   0  0  0  0  0  0
  -22.4109  -11.9926   22.4839 H   0  0  0  0  0  0
  -21.1104  -13.1262   22.2562 H   0  0  0  0  0  0
  -24.6613  -15.8460   20.5185 H   0  0  0  0  0  0
  -26.2830  -15.6303   20.0908 H   0  0  0  0  0  0
  -26.7139  -32.5511   23.1199 H   0  0  0  0  0  0
  -25.0043  -33.9772   25.0472 H   0  0  0  0  0  0
  -22.7002  -31.3081   21.3993 H   0  0  0  0  0  0
  -23.3747  -35.9611   23.3278 H   0  0  0  0  0  0
  -24.3584  -36.8925   22.2064 H   0  0  0  0  0  0
  -23.7198  -37.6487   23.6662 H   0  0  0  0  0  0
  -26.0626  -31.5977   20.6010 H   0  0  0  0  0  0
  -26.8249  -30.8789   21.9908 H   0  0  0  0  0  0
  -28.1131  -29.0937   21.1756 H   0  0  0  0  0  0
  -26.0741  -25.9440   19.0579 H   0  0  0  0  0  0
  -23.9904  -27.2833   19.0443 H   0  0  0  0  0  0
  -23.7375  -30.5942   19.4005 H   0  0  0  0  0  0
  -22.7481  -29.2416   19.8585 H   0  0  0  0  0  0
  -25.1268  -36.1956   25.0839 H   0  0  0  0  0  0
  -21.0001  -28.3306   24.1409 H   0  0  0  0  0  0
  -20.5693  -26.2330   23.3638 H   0  0  0  0  0  0
  -21.6662  -26.7475   22.1223 H   0  0  0  0  0  0
  -19.6933  -25.6308   21.1274 H   0  0  0  0  0  0
  -19.6736  -27.3203   20.6760 H   0  0  0  0  0  0
  -17.4230  -26.6755   21.3981 H   0  0  0  0  0  0
  -18.0289  -26.0116   22.8994 H   0  0  0  0  0  0
  -19.7951  -30.7286   24.2294 H   0  0  0  0  0  0
  -17.5039  -31.6288   24.5196 H   0  0  0  0  0  0
  -15.5370  -30.3039   23.7658 H   0  0  0  0  0  0
  -15.8679  -28.0891   22.7017 H   0  0  0  0  0  0
  -24.5851  -30.7130   25.7869 H   0  0  0  0  0  0
  -24.8917  -32.2948   26.4934 H   0  0  0  0  0  0
  -25.8033  -30.8962   27.0294 H   0  0  0  0  0  0
  -26.2880  -29.6814   24.1147 H   0  0  0  0  0  0
  -27.3957  -29.7262   25.4671 H   0  0  0  0  0  0
  -27.8746  -30.4351   23.9421 H   0  0  0  0  0  0
  -27.2649  -33.3591   26.2162 H   0  0  0  0  0  0
  -28.3785  -32.6958   25.0293 H   0  0  0  0  0  0
  -28.0775  -31.8420   26.5352 H   0  0  0  0  0  0
  -28.2572  -38.0117   24.7533 H   0  0  0  0  0  0
  -28.1099  -36.2654   24.6204 H   0  0  0  0  0  0
  -27.2331  -37.1352   25.8861 H   0  0  0  0  0  0
  -20.9337  -29.8747   21.6863 H   0  0  0  0  0  0
  -26.0149  -38.2862   24.1485 H   0  0  0  0  0  0
  -28.0501  -18.0703   20.8021 H   0  0  0  0  0  0
  -32.1957  -19.0885   21.3999 H   0  0  0  0  0  0
  -27.4270  -20.4290   21.2042 H   0  0  0  0  0  0
  -31.5884  -21.4157   21.7850 H   0  0  0  0  0  0
  -31.6970  -16.9464   20.5692 H   0  0  0  0  0  0
  -28.7912  -26.9246   22.0946 H   0  0  0  0  0  0
  -28.9519  -15.7574   21.1589 H   0  0  0  0  0  0
  -28.4458  -24.6486   23.7773 H   0  0  0  0  0  0
  -30.1462  -25.0667   23.5517 H   0  0  0  0  0  0
  -29.7665  -23.5265   20.2013 H   0  0  0  0  0  0
  -28.0036  -23.4708   20.3591 H   0  0  0  0  0  0
  -29.2637  -22.4629   24.0027 H   0  0  0  0  0  0
  -30.7376  -22.8560   23.1324 H   0  0  0  0  0  0
  1 25  1  0  0  0
  1 30  2  0  0  0
  1 80  1  0  0  0
  2  3  1  0  0  0
  2 25  1  0  0  0
  2 85  1  0  0  0
  2 86  1  0  0  0
  3  4  1  0  0  0
  3 87  1  0  0  0
  3 88  1  0  0  0
  4  5  1  0  0  0
  4 89  1  0  0  0
  4 90  1  0  0  0
  5  6  1  0  0  0
  5 26  1  0  0  0
  5 91  1  0  0  0
  6 25  1  0  0  0
  6 92  1  0  0  0
  6 93  1  0  0  0
  7  8  2  0  0  0
  7 26  1  0  0  0
  7 29  1  0  0  0
  8  9  1  0  0  0
  8 22  1  0  0  0
  9 10  1  0  0  0
  9 27  2  0  0  0
 10 11  2  0  0  0
 10 15  1  0  0  0
 11 12  1  0  0  0
 11 94  1  0  0  0
 12 13  2  0  0  0
 12 95  1  0  0  0
 13 14  1  0  0  0
 13 31  1  0  0  0
 14 15  2  0  0  0
 14 96  1  0  0  0
 15 97  1  0  0  0
 16 17  2  0  0  0
 16 21  1  0  0  0
 16 31  1  0  0  0
 17 18  1  0  0  0
 17 98  1  0  0  0
 18 19  2  0  0  0
 18 99  1  0  0  0
 19 20  1  0  0  0
 19 24  1  0  0  0
 20 21  2  0  0  0
 20100  1  0  0  0
 21 23  1  0  0  0
 22 28  1  0  0  0
 22 32  2  0  0  0
 26 27  1  0  0  0
 28101  1  0  0  0
 28102  1  0  0  0
 29103  1  0  0  0
 29104  1  0  0  0
 33 34  1  0  0  0
 33 66  1  0  0  0
 33 70  2  0  0  0
 34 36  1  0  0  0
 34 59  1  0  0  0
 34105  1  0  0  0
 35 44  2  0  0  0
 35 45  1  0  0  0
 35 68  1  0  0  0
 36 56  1  0  0  0
 36106  1  0  0  0
 37 39  1  0  0  0
 37 47  1  0  0  0
 37 66  1  0  0  0
 37107  1  0  0  0
 38 43  2  0  0  0
 38 46  1  0  0  0
 38 47  1  0  0  0
 39 64  1  0  0  0
 39 67  2  0  0  0
 40 52  1  0  0  0
 40 53  2  0  0  0
 40 58  1  0  0  0
 41108  1  0  0  0
 41109  1  0  0  0
 41110  1  0  0  0
 41 48  1  0  0  0
 42 43  1  0  0  0
 42 66  1  0  0  0
 42111  1  0  0  0
 42112  1  0  0  0
 43 44  1  0  0  0
 44113  1  0  0  0
 45 46  2  0  0  0
 45114  1  0  0  0
 46115  1  0  0  0
 47116  1  0  0  0
 47117  1  0  0  0
 48 56  1  0  0  0
 48 65  1  0  0  0
 48118  1  0  0  0
 49 50  1  0  0  0
 49 53  1  0  0  0
 49 64  1  0  0  0
 49119  1  0  0  0
 50 51  1  0  0  0
 50120  1  0  0  0
 50121  1  0  0  0
 51 52  1  0  0  0
 51122  1  0  0  0
 51123  1  0  0  0
 52124  1  0  0  0
 52125  1  0  0  0
 53 54  1  0  0  0
 54 55  2  0  0  0
 54126  1  0  0  0
 55 57  1  0  0  0
 55127  1  0  0  0
 56 69  2  0  0  0
 57 58  2  0  0  0
 57128  1  0  0  0
 58129  1  0  0  0
 59 60  1  0  0  0
 59 61  1  0  0  0
 59 62  1  0  0  0
 60130  1  0  0  0
 60131  1  0  0  0
 60132  1  0  0  0
 61133  1  0  0  0
 61134  1  0  0  0
 61135  1  0  0  0
 62136  1  0  0  0
 62137  1  0  0  0
 62138  1  0  0  0
 63 65  1  0  0  0
 63139  1  0  0  0
 63140  1  0  0  0
 63141  1  0  0  0
 64142  1  0  0  0
 65143  1  0  0  0
 68 79  1  0  0  0
 71 73  2  0  0  0
 71 75  1  0  0  0
 71144  1  0  0  0
 72 74  1  0  0  0
 72 75  2  0  0  0
 72145  1  0  0  0
 73 76  1  0  0  0
 73146  1  0  0  0
 74 76  2  0  0  0
 74147  1  0  0  0
 75 78  1  0  0  0
 76 84  1  0  0  0
 77 79  2  0  0  0
 77 81  1  0  0  0
 77 82  1  0  0  0
 78 80  2  0  0  0
 78148  1  0  0  0
 79149  1  0  0  0
 80150  1  0  0  0
 81 83  1  0  0  0
 81151  1  0  0  0
 81152  1  0  0  0
 82 84  1  0  0  0
 82153  1  0  0  0
 82154  1  0  0  0
 83 84  1  0  0  0
 83155  1  0  0  0
 83156  1  0  0  0
M  ISO  4   1 100  68 101  79 101  80 100
M  END
> <chiral flag>
0

> <version>
0

> <s_m_source_file>
/data/baiqing/PycharmProjects/Reinvent-master-3.2/result/LINK_invent/BTK/process_docking_weight1_custom_product_contain_oxygen_bond_distance_aromatic_linkinvent_7_9_3/rearranged_h_0130.sdf

> <i_m_source_file_index>
51

> <r_mmod_Potential_Energy-OPLS-2005>
53.6427192687988

> <r_mmod_Stretch_Energy-OPLS-2005>
44.1117324829102

> <r_mmod_Bend_Energy-OPLS-2005>
146.02604675293

> <r_mmod_Torsional_Energy-OPLS-2005>
237.170196533203

> <r_mmod_Improper_Torsional_Energy-OPLS-2005>
8.34154415130615

> <r_mmod_Van_der_Waal_Energy-OPLS-2005>
147.232315063477

> <r_mmod_Electrostatic_Energy-OPLS-2005>
-346.446716308594

> <r_mmod_Solvation_Energy-OPLS-2005>
-208.467926025391

> <b_mmod_Minimization_Converged-OPLS-2005>
0

> <r_mmod_RMS_Derivative-OPLS-2005>
2.21981501579285

$$$$
51
                    3D
 Structure written by MMmdl.
158166  0  0  1  0            999 V2000
  -30.5819  -14.6279   20.5226 C   0  0  0  0  0  0
  -30.4302  -12.3864   19.4640 C   0  0  0  0  0  0
  -29.5076  -12.5213   18.2312 C   0  0  0  0  0  0
  -28.0283  -12.3414   18.6334 C   0  0  0  0  0  0
  -27.6450  -13.2043   19.8637 C   0  0  2  0  0  0
  -28.6785  -13.0395   20.9989 C   0  0  0  0  0  0
  -25.2535  -13.8132   20.5689 C   0  0  0  0  0  0
  -24.1782  -13.0406   20.9148 C   0  0  0  0  0  0
  -24.6339  -11.6874   20.8717 C   0  0  0  0  0  0
  -23.9011  -10.4276   21.0383 C   0  0  0  0  0  0
  -24.3591   -9.4199   21.9140 C   0  0  0  0  0  0
  -23.6289   -8.2228   22.0725 C   0  0  0  0  0  0
  -22.4267   -8.0259   21.3523 C   0  0  0  0  0  0
  -21.9876   -9.0217   20.4622 C   0  0  0  0  0  0
  -22.7194  -10.2104   20.3026 C   0  0  0  0  0  0
  -21.6850   -6.0737   22.5296 C   0  0  0  0  0  0
  -21.4012   -6.5656   23.8225 C   0  0  0  0  0  0
  -21.3645   -5.6810   24.9187 C   0  0  0  0  0  0
  -21.6045   -4.3074   24.7240 C   0  0  0  0  0  0
  -21.8802   -3.8156   23.4367 C   0  0  0  0  0  0
  -21.9184   -4.6963   22.3421 C   0  0  0  0  0  0
  -22.7819  -13.5203   21.1865 C   0  0  0  0  0  0
  -22.1653   -4.2144   21.0994 F   0  0  0  0  0  0
  -21.5618   -3.4557   25.7751 F   0  0  0  0  0  0
  -30.0023  -13.3912   20.4554 N   0  0  0  0  0  0
  -26.2914  -12.9288   20.3265 N   0  0  0  0  0  0
  -25.9242  -11.6457   20.5673 N   0  0  0  0  0  0
  -22.0499  -12.8165   22.0447 N   0  0  0  0  0  0
  -25.4346  -15.1864   20.4251 N   0  0  0  0  0  0
  -31.7264  -14.8316   20.0999 O   0  0  0  0  0  0
  -21.6631   -6.8862   21.4249 O   0  0  0  0  0  0
  -22.3480  -14.5513   20.6747 O   0  0  0  0  0  0
  -24.6261  -31.8612   23.2062 C   0  0  0  0  0  0
  -25.9115  -32.4786   23.8401 C   0  0  1  0  0  0
  -27.2110  -27.3375   20.1205 C   0  0  0  0  0  0
  -25.5895  -33.8584   24.2288 N   0  0  0  0  0  0
  -23.4178  -30.4885   21.5446 C   0  0  2  0  0  0
  -24.8624  -28.9383   20.1128 C   0  0  0  0  0  0
  -22.7456  -29.4692   22.4942 C   0  0  0  0  0  0
  -18.0309  -28.1303   22.8512 C   0  0  0  0  0  0
  -24.1477  -36.7284   23.2635 C   0  0  0  0  0  0
  -25.9617  -30.7983   21.3736 C   0  0  0  0  0  0
  -26.0325  -29.4294   20.7066 C   0  0  0  0  0  0
  -27.2191  -28.6452   20.6877 C   0  0  0  0  0  0
  -26.0205  -26.8807   19.5223 C   0  0  0  0  0  0
  -24.8528  -27.6661   19.5134 C   0  0  0  0  0  0
  -23.6324  -29.8186   20.1622 C   0  0  0  0  0  0
  -25.4105  -36.3063   24.0329 C   0  0  1  0  0  0
  -20.5901  -28.3745   23.1333 C   0  0  2  0  0  0
  -20.6840  -26.9395   22.5560 C   0  0  0  0  0  0
  -19.5891  -26.6328   21.5271 C   0  0  0  0  0  0
  -18.2045  -26.7831   22.1664 C   0  0  0  0  0  0
  -19.1523  -28.8853   23.2867 C   0  0  0  0  0  0
  -18.9387  -30.1489   23.8794 C   0  0  0  0  0  0
  -17.6378  -30.6586   24.0407 C   0  0  0  0  0  0
  -25.9048  -34.9445   23.5115 C   0  0  0  0  0  0
  -16.5310  -29.8988   23.6287 C   0  0  0  0  0  0
  -16.7282  -28.6365   23.0394 C   0  0  0  0  0  0
  -26.4490  -31.6611   25.0799 C   0  0  0  0  0  0
  -25.3723  -31.3798   26.1530 C   0  0  0  0  0  0
  -27.0330  -30.3014   24.6313 C   0  0  0  0  0  0
  -27.6045  -32.4375   25.7541 C   0  0  0  0  0  0
  -27.5572  -37.1787   24.8464 C   0  0  0  0  0  0
  -21.4179  -29.3095   22.3667 N   0  0  0  0  0  0
  -26.4275  -37.3769   23.9412 N   0  0  0  0  0  0
  -24.6863  -31.0669   22.0968 N   0  0  0  0  0  0
  -23.4173  -28.8202   23.3006 O   0  0  0  0  0  0
  -28.3187  -26.4945   20.1380 O   0  0  0  0  0  0
  -26.5623  -34.8926   22.4684 O   0  0  0  0  0  0
  -23.5428  -32.1376   23.7400 O   0  0  0  0  0  0
  -29.2529  -19.3517   21.5567 C   0  0  0  0  0  0
  -29.6049  -17.9836   21.7485 C   0  0  0  0  0  0
  -29.0968  -18.9529   19.1879 C   0  0  0  0  0  0
  -28.9531  -19.8610   20.2690 C   0  0  0  0  0  0
  -29.4272  -17.5701   19.3619 C   0  0  0  0  0  0
  -29.6807  -17.0540   20.6716 C   0  0  0  0  0  0
  -28.3734  -23.9337   19.8072 C   0  0  0  0  0  0
  -28.9625  -17.2079   16.8116 C   0  0  0  0  0  0
  -28.2888  -21.2638   20.0364 C   0  0  0  0  0  0
  -29.4163  -16.6188   18.1605 C   0  0  0  0  0  0
  -29.0409  -22.6190   20.3614 C   0  0  0  0  0  0
  -28.1200  -25.1651   20.7468 C   0  0  0  0  0  0
  -29.7713  -15.6286   20.9815 N   0  0  0  0  0  0
  -28.0216  -23.9791   18.6250 O   0  0  0  0  0  0
  -31.4753  -12.5163   19.1769 H   0  0  0  0  0  0
  -30.3529  -11.3847   19.8905 H   0  0  0  0  0  0
  -29.7825  -11.7929   17.4702 H   0  0  0  0  0  0
  -29.6460  -13.5034   17.7768 H   0  0  0  0  0  0
  -27.8718  -11.2875   18.8583 H   0  0  0  0  0  0
  -27.3734  -12.5682   17.7889 H   0  0  0  0  0  0
  -27.6596  -14.2399   19.5325 H   0  0  0  0  0  0
  -28.6823  -12.0098   21.3565 H   0  0  0  0  0  0
  -28.4050  -13.6441   21.8675 H   0  0  0  0  0  0
  -25.2734   -9.5701   22.4713 H   0  0  0  0  0  0
  -24.0004   -7.4614   22.7449 H   0  0  0  0  0  0
  -21.0794   -8.8716   19.8953 H   0  0  0  0  0  0
  -22.3611  -10.9631   19.6154 H   0  0  0  0  0  0
  -21.2018   -7.6161   23.9720 H   0  0  0  0  0  0
  -21.1484   -6.0552   25.9082 H   0  0  0  0  0  0
  -22.0594   -2.7618   23.2878 H   0  0  0  0  0  0
  -22.4145  -11.9819   22.4794 H   0  0  0  0  0  0
  -21.1111  -13.1163   22.2699 H   0  0  0  0  0  0
  -24.6872  -15.8574   20.5646 H   0  0  0  0  0  0
  -26.3093  -15.6242   20.1668 H   0  0  0  0  0  0
  -26.7211  -32.5428   23.1159 H   0  0  0  0  0  0
  -25.0034  -33.9742   25.0426 H   0  0  0  0  0  0
  -22.7118  -31.3077   21.4003 H   0  0  0  0  0  0
  -23.3737  -35.9608   23.3303 H   0  0  0  0  0  0
  -24.3572  -36.8904   22.2046 H   0  0  0  0  0  0
  -23.7240  -37.6502   23.6666 H   0  0  0  0  0  0
  -26.1145  -31.5696   20.6178 H   0  0  0  0  0  0
  -26.8329  -30.8271   22.0153 H   0  0  0  0  0  0
  -28.1259  -29.0242   21.1420 H   0  0  0  0  0  0
  -25.9846  -25.8984   19.0722 H   0  0  0  0  0  0
  -23.9490  -27.2760   19.0682 H   0  0  0  0  0  0
  -23.7539  -30.5925   19.4036 H   0  0  0  0  0  0
  -22.7511  -29.2479   19.8660 H   0  0  0  0  0  0
  -25.1289  -36.1912   25.0827 H   0  0  0  0  0  0
  -21.0019  -28.3391   24.1448 H   0  0  0  0  0  0
  -20.5648  -26.2348   23.3807 H   0  0  0  0  0  0
  -21.6767  -26.7382   22.1535 H   0  0  0  0  0  0
  -19.7115  -25.6241   21.1304 H   0  0  0  0  0  0
  -19.6783  -27.3182   20.6841 H   0  0  0  0  0  0
  -17.4330  -26.6519   21.4075 H   0  0  0  0  0  0
  -18.0518  -25.9956   22.9078 H   0  0  0  0  0  0
  -19.7817  -30.7419   24.2089 H   0  0  0  0  0  0
  -17.4890  -31.6318   24.4858 H   0  0  0  0  0  0
  -15.5274  -30.2835   23.7610 H   0  0  0  0  0  0
  -15.8723  -28.0564   22.7174 H   0  0  0  0  0  0
  -24.5864  -30.7175   25.7894 H   0  0  0  0  0  0
  -24.8959  -32.2998   26.4951 H   0  0  0  0  0  0
  -25.8034  -30.9003   27.0326 H   0  0  0  0  0  0
  -26.2955  -29.6762   24.1271 H   0  0  0  0  0  0
  -27.3911  -29.7298   25.4891 H   0  0  0  0  0  0
  -27.8873  -30.4284   23.9649 H   0  0  0  0  0  0
  -27.2652  -33.3662   26.2139 H   0  0  0  0  0  0
  -28.3821  -32.6956   25.0347 H   0  0  0  0  0  0
  -28.0755  -31.8521   26.5446 H   0  0  0  0  0  0
  -28.2603  -38.0070   24.7495 H   0  0  0  0  0  0
  -28.1059  -36.2611   24.6296 H   0  0  0  0  0  0
  -27.2311  -37.1452   25.8873 H   0  0  0  0  0  0
  -20.9349  -29.8712   21.6786 H   0  0  0  0  0  0
  -26.0149  -38.2846   24.1407 H   0  0  0  0  0  0
  -29.1476  -19.9963   22.4214 H   0  0  0  0  0  0
  -29.7634  -17.6396   22.7626 H   0  0  0  0  0  0
  -28.8565  -19.3277   18.2046 H   0  0  0  0  0  0
  -28.9890  -16.4393   16.0370 H   0  0  0  0  0  0
  -29.6214  -18.0087   16.4795 H   0  0  0  0  0  0
  -27.9441  -17.5931   16.8600 H   0  0  0  0  0  0
  -27.3699  -21.2572   20.6265 H   0  0  0  0  0  0
  -27.9474  -21.2997   19.0010 H   0  0  0  0  0  0
  -28.7521  -15.7903   18.3999 H   0  0  0  0  0  0
  -30.4136  -16.1939   18.0442 H   0  0  0  0  0  0
  -29.1979  -22.7184   21.4344 H   0  0  0  0  0  0
  -30.0331  -22.5867   19.9094 H   0  0  0  0  0  0
  -27.1036  -25.0729   21.1361 H   0  0  0  0  0  0
  -28.7720  -25.0754   21.6153 H   0  0  0  0  0  0
  -28.9659  -15.2665   21.4741 H   0  0  0  0  0  0
  1 25  1  0  0  0
  1 30  2  0  0  0
  1 83  1  0  0  0
  2  3  1  0  0  0
  2 25  1  0  0  0
  2 85  1  0  0  0
  2 86  1  0  0  0
  3  4  1  0  0  0
  3 87  1  0  0  0
  3 88  1  0  0  0
  4  5  1  0  0  0
  4 89  1  0  0  0
  4 90  1  0  0  0
  5  6  1  0  0  0
  5 26  1  0  0  0
  5 91  1  0  0  0
  6 25  1  0  0  0
  6 92  1  0  0  0
  6 93  1  0  0  0
  7  8  2  0  0  0
  7 26  1  0  0  0
  7 29  1  0  0  0
  8  9  1  0  0  0
  8 22  1  0  0  0
  9 10  1  0  0  0
  9 27  2  0  0  0
 10 11  2  0  0  0
 10 15  1  0  0  0
 11 12  1  0  0  0
 11 94  1  0  0  0
 12 13  2  0  0  0
 12 95  1  0  0  0
 13 14  1  0  0  0
 13 31  1  0  0  0
 14 15  2  0  0  0
 14 96  1  0  0  0
 15 97  1  0  0  0
 16 17  2  0  0  0
 16 21  1  0  0  0
 16 31  1  0  0  0
 17 18  1  0  0  0
 17 98  1  0  0  0
 18 19  2  0  0  0
 18 99  1  0  0  0
 19 20  1  0  0  0
 19 24  1  0  0  0
 20 21  2  0  0  0
 20100  1  0  0  0
 21 23  1  0  0  0
 22 28  1  0  0  0
 22 32  2  0  0  0
 26 27  1  0  0  0
 28101  1  0  0  0
 28102  1  0  0  0
 29103  1  0  0  0
 29104  1  0  0  0
 33 34  1  0  0  0
 33 66  1  0  0  0
 33 70  2  0  0  0
 34 36  1  0  0  0
 34 59  1  0  0  0
 34105  1  0  0  0
 35 44  2  0  0  0
 35 45  1  0  0  0
 35 68  1  0  0  0
 36 56  1  0  0  0
 36106  1  0  0  0
 37 39  1  0  0  0
 37 47  1  0  0  0
 37 66  1  0  0  0
 37107  1  0  0  0
 38 43  2  0  0  0
 38 46  1  0  0  0
 38 47  1  0  0  0
 39 64  1  0  0  0
 39 67  2  0  0  0
 40 52  1  0  0  0
 40 53  2  0  0  0
 40 58  1  0  0  0
 41108  1  0  0  0
 41109  1  0  0  0
 41110  1  0  0  0
 41 48  1  0  0  0
 42 43  1  0  0  0
 42 66  1  0  0  0
 42111  1  0  0  0
 42112  1  0  0  0
 43 44  1  0  0  0
 44113  1  0  0  0
 45 46  2  0  0  0
 45114  1  0  0  0
 46115  1  0  0  0
 47116  1  0  0  0
 47117  1  0  0  0
 48 56  1  0  0  0
 48 65  1  0  0  0
 48118  1  0  0  0
 49 50  1  0  0  0
 49 53  1  0  0  0
 49 64  1  0  0  0
 49119  1  0  0  0
 50 51  1  0  0  0
 50120  1  0  0  0
 50121  1  0  0  0
 51 52  1  0  0  0
 51122  1  0  0  0
 51123  1  0  0  0
 52124  1  0  0  0
 52125  1  0  0  0
 53 54  1  0  0  0
 54 55  2  0  0  0
 54126  1  0  0  0
 55 57  1  0  0  0
 55127  1  0  0  0
 56 69  2  0  0  0
 57 58  2  0  0  0
 57128  1  0  0  0
 58129  1  0  0  0
 59 60  1  0  0  0
 59 61  1  0  0  0
 59 62  1  0  0  0
 60130  1  0  0  0
 60131  1  0  0  0
 60132  1  0  0  0
 61133  1  0  0  0
 61134  1  0  0  0
 61135  1  0  0  0
 62136  1  0  0  0
 62137  1  0  0  0
 62138  1  0  0  0
 63 65  1  0  0  0
 63139  1  0  0  0
 63140  1  0  0  0
 63141  1  0  0  0
 64142  1  0  0  0
 65143  1  0  0  0
 68 82  1  0  0  0
 71 72  2  0  0  0
 71 74  1  0  0  0
 71144  1  0  0  0
 72 76  1  0  0  0
 72145  1  0  0  0
 73 74  2  0  0  0
 73 75  1  0  0  0
 73146  1  0  0  0
 74 79  1  0  0  0
 75 76  2  0  0  0
 75 80  1  0  0  0
 76 83  1  0  0  0
 77 81  1  0  0  0
 77 82  1  0  0  0
 77 84  2  0  0  0
 78 80  1  0  0  0
 78147  1  0  0  0
 78148  1  0  0  0
 78149  1  0  0  0
 79 81  1  0  0  0
 79150  1  0  0  0
 79151  1  0  0  0
 80152  1  0  0  0
 80153  1  0  0  0
 81154  1  0  0  0
 81155  1  0  0  0
 82156  1  0  0  0
 82157  1  0  0  0
 83158  1  0  0  0
M  ISO  4   1 100  68 101  82 101  83 100
M  END
> <chiral flag>
0

> <version>
0

> <s_m_source_file>
/data/baiqing/PycharmProjects/Reinvent-master-3.2/result/LINK_invent/BTK/process_docking_weight1_custom_product_contain_oxygen_bond_distance_aromatic_linkinvent_7_9_3/rearranged_h_0130.sdf

> <i_m_source_file_index>
52

> <r_mmod_Potential_Energy-OPLS-2005>
55.0148658752441

> <r_mmod_Stretch_Energy-OPLS-2005>
70.8955154418945

> <r_mmod_Bend_Energy-OPLS-2005>
127.348037719727

> <r_mmod_Torsional_Energy-OPLS-2005>
268.545562744141

> <r_mmod_Improper_Torsional_Energy-OPLS-2005>
6.03694772720337

> <r_mmod_Van_der_Waal_Energy-OPLS-2005>
136.284774780273

> <r_mmod_Electrostatic_Energy-OPLS-2005>
-379.238739013672

> <r_mmod_Solvation_Energy-OPLS-2005>
-220.70100402832

> <b_mmod_Minimization_Converged-OPLS-2005>
0

> <r_mmod_RMS_Derivative-OPLS-2005>
5.31526279449463

$$$$
52
                    3D
 Structure written by MMmdl.
154162  0  0  1  0            999 V2000
  -30.6667  -14.4808   20.5497 C   0  0  0  0  0  0
  -30.4297  -12.3014   19.4270 C   0  0  0  0  0  0
  -29.5011  -12.5134   18.2106 C   0  0  0  0  0  0
  -28.0199  -12.3729   18.6176 C   0  0  0  0  0  0
  -27.6673  -13.1994   19.8836 C   0  0  2  0  0  0
  -28.7087  -12.9579   21.0041 C   0  0  0  0  0  0
  -25.2606  -13.8132   20.5682 C   0  0  0  0  0  0
  -24.1845  -13.0420   20.9167 C   0  0  0  0  0  0
  -24.6382  -11.6888   20.8724 C   0  0  0  0  0  0
  -23.9039  -10.4284   21.0399 C   0  0  0  0  0  0
  -24.3599   -9.4208   21.9177 C   0  0  0  0  0  0
  -23.6284   -8.2238   22.0751 C   0  0  0  0  0  0
  -22.4266   -8.0268   21.3539 C   0  0  0  0  0  0
  -21.9892   -9.0241   20.4645 C   0  0  0  0  0  0
  -22.7211  -10.2125   20.3054 C   0  0  0  0  0  0
  -21.6856   -6.0731   22.5282 C   0  0  0  0  0  0
  -21.4015   -6.5639   23.8214 C   0  0  0  0  0  0
  -21.3660   -5.6791   24.9176 C   0  0  0  0  0  0
  -21.6046   -4.3053   24.7227 C   0  0  0  0  0  0
  -21.8819   -3.8144   23.4348 C   0  0  0  0  0  0
  -21.9195   -4.6960   22.3406 C   0  0  0  0  0  0
  -22.7873  -13.5233   21.1835 C   0  0  0  0  0  0
  -22.1663   -4.2148   21.0981 F   0  0  0  0  0  0
  -21.5627   -3.4537   25.7739 F   0  0  0  0  0  0
  -30.0443  -13.2720   20.4638 N   0  0  0  0  0  0
  -26.3048  -12.9290   20.3394 N   0  0  0  0  0  0
  -25.9313  -11.6458   20.5769 N   0  0  0  0  0  0
  -22.0509  -12.8235   22.0394 N   0  0  0  0  0  0
  -25.4308  -15.1851   20.4097 N   0  0  0  0  0  0
  -31.7692  -14.7119   20.0463 O   0  0  0  0  0  0
  -21.6633   -6.8865   21.4238 O   0  0  0  0  0  0
  -22.3569  -14.5547   20.6693 O   0  0  0  0  0  0
  -24.6154  -31.8675   23.2092 C   0  0  0  0  0  0
  -25.9041  -32.4820   23.8398 C   0  0  1  0  0  0
  -27.2368  -27.4236   20.0966 C   0  0  0  0  0  0
  -25.5900  -33.8618   24.2327 N   0  0  0  0  0  0
  -23.4040  -30.4931   21.5490 C   0  0  2  0  0  0
  -24.8511  -28.9619   20.1100 C   0  0  0  0  0  0
  -22.7420  -29.4668   22.4970 C   0  0  0  0  0  0
  -18.0281  -28.1385   22.8504 C   0  0  0  0  0  0
  -24.1483  -36.7305   23.2642 C   0  0  0  0  0  0
  -25.9336  -30.8327   21.3633 C   0  0  0  0  0  0
  -26.0120  -29.4665   20.7086 C   0  0  0  0  0  0
  -27.2053  -28.7066   20.6972 C   0  0  0  0  0  0
  -26.0565  -26.9457   19.4772 C   0  0  0  0  0  0
  -24.8698  -27.7022   19.4902 C   0  0  0  0  0  0
  -23.6126  -29.8282   20.1626 C   0  0  0  0  0  0
  -25.4106  -36.3112   24.0343 C   0  0  1  0  0  0
  -20.5874  -28.3671   23.1312 C   0  0  2  0  0  0
  -20.6765  -26.9405   22.5419 C   0  0  0  0  0  0
  -19.5739  -26.6391   21.5222 C   0  0  0  0  0  0
  -18.1922  -26.7934   22.1635 C   0  0  0  0  0  0
  -19.1531  -28.8845   23.2907 C   0  0  0  0  0  0
  -18.9458  -30.1455   23.8909 C   0  0  0  0  0  0
  -17.6457  -30.6586   24.0577 C   0  0  0  0  0  0
  -25.9036  -34.9477   23.5129 C   0  0  0  0  0  0
  -16.5349  -29.9089   23.6330 C   0  0  0  0  0  0
  -16.7270  -28.6510   23.0344 C   0  0  0  0  0  0
  -26.4470  -31.6593   25.0717 C   0  0  0  0  0  0
  -25.3727  -31.3698   26.1452 C   0  0  0  0  0  0
  -27.0299  -30.3034   24.6098 C   0  0  0  0  0  0
  -27.6055  -32.4302   25.7474 C   0  0  0  0  0  0
  -27.5580  -37.1812   24.8475 C   0  0  0  0  0  0
  -21.4145  -29.3035   22.3709 N   0  0  0  0  0  0
  -26.4293  -37.3798   23.9416 N   0  0  0  0  0  0
  -24.6695  -31.0783   22.0990 N   0  0  0  0  0  0
  -23.4187  -28.8209   23.3015 O   0  0  0  0  0  0
  -28.4073  -26.6816   20.1347 O   0  0  0  0  0  0
  -26.5595  -34.8931   22.4687 O   0  0  0  0  0  0
  -23.5342  -32.1425   23.7479 O   0  0  0  0  0  0
  -31.8193  -19.6551   20.8384 C   0  0  0  0  0  0
  -31.6814  -18.3322   20.3266 C   0  0  0  0  0  0
  -30.6231  -19.9889   21.4115 C   0  0  0  0  0  0
  -30.4114  -17.9279   20.6273 C   0  0  0  0  0  0
  -30.2305  -21.0716   22.2657 C   0  0  0  0  0  0
  -29.6664  -22.2815   22.0584 C   0  0  0  0  0  0
  -29.6035  -16.7071   20.2810 C   0  0  0  0  0  0
  -29.2236  -22.9390   20.7553 C   0  0  0  0  0  0
  -29.3945  -24.4886   20.7701 C   0  0  0  0  0  0
  -28.3103  -25.2524   19.9718 C   0  0  0  0  0  0
  -29.8880  -15.4689   21.0214 N   0  0  0  0  0  0
  -29.7676  -18.9235   21.3146 O   0  0  0  0  0  0
  -31.4761  -12.4037   19.1322 H   0  0  0  0  0  0
  -30.3271  -11.2851   19.8099 H   0  0  0  0  0  0
  -29.7417  -11.7989   17.4222 H   0  0  0  0  0  0
  -29.6712  -13.5039   17.7853 H   0  0  0  0  0  0
  -27.8265  -11.3151   18.8003 H   0  0  0  0  0  0
  -27.3716  -12.6605   17.7883 H   0  0  0  0  0  0
  -27.7145  -14.2501   19.5983 H   0  0  0  0  0  0
  -28.6834  -11.9140   21.3217 H   0  0  0  0  0  0
  -28.4705  -13.5344   21.8995 H   0  0  0  0  0  0
  -25.2746   -9.5701   22.4739 H   0  0  0  0  0  0
  -24.0009   -7.4635   22.7472 H   0  0  0  0  0  0
  -21.0823   -8.8751   19.8955 H   0  0  0  0  0  0
  -22.3662  -10.9659   19.6165 H   0  0  0  0  0  0
  -21.2003   -7.6146   23.9718 H   0  0  0  0  0  0
  -21.1483   -6.0519   25.9079 H   0  0  0  0  0  0
  -22.0597   -2.7606   23.2851 H   0  0  0  0  0  0
  -22.4121  -11.9907   22.4809 H   0  0  0  0  0  0
  -21.1128  -13.1280   22.2586 H   0  0  0  0  0  0
  -24.6581  -15.8339   20.5095 H   0  0  0  0  0  0
  -26.2770  -15.6292   20.0784 H   0  0  0  0  0  0
  -26.7110  -32.5532   23.1169 H   0  0  0  0  0  0
  -25.0083  -33.9780   25.0495 H   0  0  0  0  0  0
  -22.6939  -31.3108   21.4123 H   0  0  0  0  0  0
  -23.3746  -35.9636   23.3318 H   0  0  0  0  0  0
  -24.3592  -36.8896   22.2057 H   0  0  0  0  0  0
  -23.7237  -37.6517   23.6638 H   0  0  0  0  0  0
  -26.0470  -31.6010   20.5969 H   0  0  0  0  0  0
  -26.8198  -30.8860   21.9838 H   0  0  0  0  0  0
  -28.0989  -29.0965   21.1655 H   0  0  0  0  0  0
  -26.0329  -25.9902   18.9728 H   0  0  0  0  0  0
  -23.9791  -27.3141   19.0156 H   0  0  0  0  0  0
  -23.7162  -30.6039   19.4020 H   0  0  0  0  0  0
  -22.7363  -29.2466   19.8706 H   0  0  0  0  0  0
  -25.1286  -36.1987   25.0838 H   0  0  0  0  0  0
  -20.9985  -28.3235   24.1421 H   0  0  0  0  0  0
  -20.5682  -26.2278   23.3608 H   0  0  0  0  0  0
  -21.6633  -26.7448   22.1206 H   0  0  0  0  0  0
  -19.6899  -25.6308   21.1231 H   0  0  0  0  0  0
  -19.6671  -27.3215   20.6763 H   0  0  0  0  0  0
  -17.4196  -26.6704   21.4027 H   0  0  0  0  0  0
  -18.0309  -26.0071   22.9023 H   0  0  0  0  0  0
  -19.7931  -30.7283   24.2266 H   0  0  0  0  0  0
  -17.5007  -31.6266   24.5182 H   0  0  0  0  0  0
  -15.5346  -30.2992   23.7640 H   0  0  0  0  0  0
  -15.8680  -28.0838   22.7024 H   0  0  0  0  0  0
  -24.5916  -30.7035   25.7784 H   0  0  0  0  0  0
  -24.8888  -32.2843   26.4885 H   0  0  0  0  0  0
  -25.8060  -30.8881   27.0222 H   0  0  0  0  0  0
  -26.2848  -29.6815   24.1118 H   0  0  0  0  0  0
  -27.4044  -29.7262   25.4567 H   0  0  0  0  0  0
  -27.8696  -30.4363   23.9268 H   0  0  0  0  0  0
  -27.2695  -33.3607   26.2060 H   0  0  0  0  0  0
  -28.3849  -32.6845   25.0279 H   0  0  0  0  0  0
  -28.0734  -31.8410   26.5374 H   0  0  0  0  0  0
  -28.2616  -38.0092   24.7507 H   0  0  0  0  0  0
  -28.1058  -36.2628   24.6313 H   0  0  0  0  0  0
  -27.2295  -37.1469   25.8877 H   0  0  0  0  0  0
  -20.9300  -29.8760   21.6939 H   0  0  0  0  0  0
  -26.0185  -38.2880   24.1406 H   0  0  0  0  0  0
  -32.7013  -20.2794   20.8146 H   0  0  0  0  0  0
  -32.4182  -17.7477   19.7928 H   0  0  0  0  0  0
  -30.4379  -20.8569   23.3046 H   0  0  0  0  0  0
  -29.4758  -22.8720   22.9442 H   0  0  0  0  0  0
  -28.5449  -16.9281   20.4277 H   0  0  0  0  0  0
  -29.7020  -16.5134   19.2112 H   0  0  0  0  0  0
  -28.1681  -22.6925   20.6349 H   0  0  0  0  0  0
  -29.7398  -22.4946   19.9030 H   0  0  0  0  0  0
  -30.3880  -24.7545   20.4077 H   0  0  0  0  0  0
  -29.3518  -24.8507   21.7980 H   0  0  0  0  0  0
  -27.3504  -24.8909   20.3415 H   0  0  0  0  0  0
  -28.3698  -25.0037   18.9109 H   0  0  0  0  0  0
  -29.1041  -15.1389   21.5626 H   0  0  0  0  0  0
  1 25  1  0  0  0
  1 30  2  0  0  0
  1 81  1  0  0  0
  2  3  1  0  0  0
  2 25  1  0  0  0
  2 83  1  0  0  0
  2 84  1  0  0  0
  3  4  1  0  0  0
  3 85  1  0  0  0
  3 86  1  0  0  0
  4  5  1  0  0  0
  4 87  1  0  0  0
  4 88  1  0  0  0
  5  6  1  0  0  0
  5 26  1  0  0  0
  5 89  1  0  0  0
  6 25  1  0  0  0
  6 90  1  0  0  0
  6 91  1  0  0  0
  7  8  2  0  0  0
  7 26  1  0  0  0
  7 29  1  0  0  0
  8  9  1  0  0  0
  8 22  1  0  0  0
  9 10  1  0  0  0
  9 27  2  0  0  0
 10 11  2  0  0  0
 10 15  1  0  0  0
 11 12  1  0  0  0
 11 92  1  0  0  0
 12 13  2  0  0  0
 12 93  1  0  0  0
 13 14  1  0  0  0
 13 31  1  0  0  0
 14 15  2  0  0  0
 14 94  1  0  0  0
 15 95  1  0  0  0
 16 17  2  0  0  0
 16 21  1  0  0  0
 16 31  1  0  0  0
 17 18  1  0  0  0
 17 96  1  0  0  0
 18 19  2  0  0  0
 18 97  1  0  0  0
 19 20  1  0  0  0
 19 24  1  0  0  0
 20 21  2  0  0  0
 20 98  1  0  0  0
 21 23  1  0  0  0
 22 28  1  0  0  0
 22 32  2  0  0  0
 26 27  1  0  0  0
 28 99  1  0  0  0
 28100  1  0  0  0
 29101  1  0  0  0
 29102  1  0  0  0
 33 34  1  0  0  0
 33 66  1  0  0  0
 33 70  2  0  0  0
 34 36  1  0  0  0
 34 59  1  0  0  0
 34103  1  0  0  0
 35 44  2  0  0  0
 35 45  1  0  0  0
 35 68  1  0  0  0
 36 56  1  0  0  0
 36104  1  0  0  0
 37 39  1  0  0  0
 37 47  1  0  0  0
 37 66  1  0  0  0
 37105  1  0  0  0
 38 43  2  0  0  0
 38 46  1  0  0  0
 38 47  1  0  0  0
 39 64  1  0  0  0
 39 67  2  0  0  0
 40 52  1  0  0  0
 40 53  2  0  0  0
 40 58  1  0  0  0
 41106  1  0  0  0
 41107  1  0  0  0
 41108  1  0  0  0
 41 48  1  0  0  0
 42 43  1  0  0  0
 42 66  1  0  0  0
 42109  1  0  0  0
 42110  1  0  0  0
 43 44  1  0  0  0
 44111  1  0  0  0
 45 46  2  0  0  0
 45112  1  0  0  0
 46113  1  0  0  0
 47114  1  0  0  0
 47115  1  0  0  0
 48 56  1  0  0  0
 48 65  1  0  0  0
 48116  1  0  0  0
 49 50  1  0  0  0
 49 53  1  0  0  0
 49 64  1  0  0  0
 49117  1  0  0  0
 50 51  1  0  0  0
 50118  1  0  0  0
 50119  1  0  0  0
 51 52  1  0  0  0
 51120  1  0  0  0
 51121  1  0  0  0
 52122  1  0  0  0
 52123  1  0  0  0
 53 54  1  0  0  0
 54 55  2  0  0  0
 54124  1  0  0  0
 55 57  1  0  0  0
 55125  1  0  0  0
 56 69  2  0  0  0
 57 58  2  0  0  0
 57126  1  0  0  0
 58127  1  0  0  0
 59 60  1  0  0  0
 59 61  1  0  0  0
 59 62  1  0  0  0
 60128  1  0  0  0
 60129  1  0  0  0
 60130  1  0  0  0
 61131  1  0  0  0
 61132  1  0  0  0
 61133  1  0  0  0
 62134  1  0  0  0
 62135  1  0  0  0
 62136  1  0  0  0
 63 65  1  0  0  0
 63137  1  0  0  0
 63138  1  0  0  0
 63139  1  0  0  0
 64140  1  0  0  0
 65141  1  0  0  0
 68 80  1  0  0  0
 71 72  1  0  0  0
 71 73  2  0  0  0
 71142  1  0  0  0
 72 74  2  0  0  0
 72143  1  0  0  0
 73 75  1  0  0  0
 73 82  1  0  0  0
 74 77  1  0  0  0
 74 82  1  0  0  0
 75 76  2  0  0  0
 75144  1  0  0  0
 76 78  1  0  0  0
 76145  1  0  0  0
 77 81  1  0  0  0
 77146  1  0  0  0
 77147  1  0  0  0
 78 79  1  0  0  0
 78148  1  0  0  0
 78149  1  0  0  0
 79 80  1  0  0  0
 79150  1  0  0  0
 79151  1  0  0  0
 80152  1  0  0  0
 80153  1  0  0  0
 81154  1  0  0  0
M  ISO  4   1 100  68 101  80 101  81 100
M  END
> <chiral flag>
0

> <version>
0

> <s_m_source_file>
/data/baiqing/PycharmProjects/Reinvent-master-3.2/result/LINK_invent/BTK/process_docking_weight1_custom_product_contain_oxygen_bond_distance_aromatic_linkinvent_7_9_3/rearranged_h_0130.sdf

> <i_m_source_file_index>
53

> <r_mmod_Potential_Energy-OPLS-2005>
-75.6956405639648

> <r_mmod_Stretch_Energy-OPLS-2005>
35.915714263916

> <r_mmod_Bend_Energy-OPLS-2005>
102.020988464355

> <r_mmod_Torsional_Energy-OPLS-2005>
257.869049072266

> <r_mmod_Improper_Torsional_Energy-OPLS-2005>
9.99439907073975

> <r_mmod_Van_der_Waal_Energy-OPLS-2005>
127.886581420898

> <r_mmod_Electrostatic_Energy-OPLS-2005>
-409.679443359375

> <r_mmod_Solvation_Energy-OPLS-2005>
-214.047119140625

> <b_mmod_Minimization_Converged-OPLS-2005>
0

> <r_mmod_RMS_Derivative-OPLS-2005>
1.32421970367432

$$$$
53
                    3D
 Structure written by MMmdl.
165173  0  0  1  0            999 V2000
  -30.8467  -14.3942   20.6515 C   0  0  0  0  0  0
  -30.3966  -12.3122   19.4003 C   0  0  0  0  0  0
  -29.4713  -12.5660   18.1994 C   0  0  0  0  0  0
  -27.9971  -12.4305   18.6079 C   0  0  0  0  0  0
  -27.6711  -13.2274   19.8983 C   0  0  2  0  0  0
  -28.7230  -13.0019   21.0147 C   0  0  0  0  0  0
  -25.2611  -13.8236   20.5710 C   0  0  0  0  0  0
  -24.1863  -13.0509   20.9160 C   0  0  0  0  0  0
  -24.6452  -11.6967   20.8772 C   0  0  0  0  0  0
  -23.9116  -10.4329   21.0418 C   0  0  0  0  0  0
  -24.3637   -9.4218   21.9202 C   0  0  0  0  0  0
  -23.6294   -8.2255   22.0804 C   0  0  0  0  0  0
  -22.4269   -8.0308   21.3590 C   0  0  0  0  0  0
  -21.9936   -9.0287   20.4663 C   0  0  0  0  0  0
  -22.7282  -10.2160   20.3066 C   0  0  0  0  0  0
  -21.6863   -6.0744   22.5266 C   0  0  0  0  0  0
  -21.4028   -6.5654   23.8194 C   0  0  0  0  0  0
  -21.3657   -5.6818   24.9151 C   0  0  0  0  0  0
  -21.6024   -4.3085   24.7202 C   0  0  0  0  0  0
  -21.8827   -3.8161   23.4332 C   0  0  0  0  0  0
  -21.9220   -4.6967   22.3383 C   0  0  0  0  0  0
  -22.7857  -13.5262   21.1780 C   0  0  0  0  0  0
  -22.1667   -4.2152   21.0968 F   0  0  0  0  0  0
  -21.5625   -3.4562   25.7725 F   0  0  0  0  0  0
  -30.0593  -13.2893   20.4592 N   0  0  0  0  0  0
  -26.3090  -12.9452   20.3514 N   0  0  0  0  0  0
  -25.9404  -11.6580   20.5853 N   0  0  0  0  0  0
  -22.0513  -12.8234   22.0305 N   0  0  0  0  0  0
  -25.4373  -15.1962   20.4074 N   0  0  0  0  0  0
  -31.8752  -14.5500   19.9891 O   0  0  0  0  0  0
  -21.6658   -6.8886   21.4238 O   0  0  0  0  0  0
  -22.3539  -14.5586   20.6638 O   0  0  0  0  0  0
  -24.6179  -31.8732   23.2210 C   0  0  0  0  0  0
  -25.9072  -32.4844   23.8502 C   0  0  1  0  0  0
  -27.1947  -27.4174   20.0956 C   0  0  0  0  0  0
  -25.5941  -33.8649   24.2430 N   0  0  0  0  0  0
  -23.4009  -30.5087   21.5666 C   0  0  2  0  0  0
  -24.8336  -28.9850   20.1121 C   0  0  0  0  0  0
  -22.7400  -29.4721   22.5022 C   0  0  0  0  0  0
  -18.0287  -28.1392   22.8540 C   0  0  0  0  0  0
  -24.1482  -36.7320   23.2648 C   0  0  0  0  0  0
  -25.9336  -30.8333   21.3734 C   0  0  0  0  0  0
  -26.0016  -29.4724   20.7131 C   0  0  0  0  0  0
  -27.1876  -28.6963   20.7047 C   0  0  0  0  0  0
  -26.0102  -26.9663   19.4621 C   0  0  0  0  0  0
  -24.8319  -27.7305   19.4854 C   0  0  0  0  0  0
  -23.6032  -29.8640   20.1734 C   0  0  0  0  0  0
  -25.4099  -36.3148   24.0372 C   0  0  1  0  0  0
  -20.5871  -28.3701   23.1335 C   0  0  2  0  0  0
  -20.6773  -26.9438   22.5440 C   0  0  0  0  0  0
  -19.5729  -26.6417   21.5248 C   0  0  0  0  0  0
  -18.1900  -26.7937   22.1649 C   0  0  0  0  0  0
  -19.1530  -28.8853   23.2920 C   0  0  0  0  0  0
  -18.9457  -30.1478   23.8910 C   0  0  0  0  0  0
  -17.6449  -30.6602   24.0598 C   0  0  0  0  0  0
  -25.9037  -34.9502   23.5185 C   0  0  0  0  0  0
  -16.5335  -29.9119   23.6326 C   0  0  0  0  0  0
  -16.7279  -28.6528   23.0357 C   0  0  0  0  0  0
  -26.4514  -31.6583   25.0787 C   0  0  0  0  0  0
  -25.3777  -31.3557   26.1495 C   0  0  0  0  0  0
  -27.0448  -30.3085   24.6107 C   0  0  0  0  0  0
  -27.6128  -32.4255   25.7526 C   0  0  0  0  0  0
  -27.5599  -37.1798   24.8469 C   0  0  0  0  0  0
  -21.4122  -29.3060   22.3717 N   0  0  0  0  0  0
  -26.4289  -37.3835   23.9442 N   0  0  0  0  0  0
  -24.6708  -31.0816   22.1129 N   0  0  0  0  0  0
  -23.4175  -28.8244   23.3053 O   0  0  0  0  0  0
  -28.3242  -26.6191   20.1572 O   0  0  0  0  0  0
  -26.5563  -34.8937   22.4742 O   0  0  0  0  0  0
  -23.5379  -32.1527   23.7585 O   0  0  0  0  0  0
  -30.3006  -18.6271   22.2623 C   0  0  0  0  0  0
  -30.7239  -19.9727   24.2360 C   0  0  0  0  0  0
  -30.1214  -19.8320   22.9724 C   0  0  0  0  0  0
  -31.1139  -17.5898   22.7719 C   0  0  0  0  0  0
  -31.5708  -18.9690   24.7477 C   0  0  0  0  0  0
  -31.7929  -17.7765   24.0068 C   0  0  0  0  0  0
  -29.2256  -20.8774   22.4635 C   0  0  0  0  0  0
  -31.3396  -16.4049   21.9192 C   0  0  0  0  0  0
  -30.4493  -15.4212   21.6221 C   0  0  0  0  0  0
  -29.5863  -21.8741   21.6318 C   0  0  0  0  0  0
  -32.7609  -16.7204   24.5362 C   0  0  0  0  0  0
  -31.1620  -19.0303   27.2254 C   0  0  0  0  0  0
  -32.1964  -19.2258   26.1123 C   0  0  0  0  0  0
  -28.6023  -22.8925   21.0695 C   0  0  0  0  0  0
  -29.1297  -24.3324   20.8525 C   0  0  0  0  0  0
  -28.0545  -25.2014   20.1700 C   0  0  0  0  0  0
  -31.4338  -12.3725   19.0690 H   0  0  0  0  0  0
  -30.2741  -11.2949   19.7709 H   0  0  0  0  0  0
  -29.6870  -11.8800   17.3798 H   0  0  0  0  0  0
  -29.6569  -13.5738   17.8201 H   0  0  0  0  0  0
  -27.7680  -11.3706   18.7380 H   0  0  0  0  0  0
  -27.3559  -12.7757   17.7968 H   0  0  0  0  0  0
  -27.7186  -14.2811   19.6249 H   0  0  0  0  0  0
  -28.6946  -11.9652   21.3611 H   0  0  0  0  0  0
  -28.4835  -13.6051   21.8879 H   0  0  0  0  0  0
  -25.2775   -9.5680   22.4797 H   0  0  0  0  0  0
  -23.9984   -7.4665   22.7560 H   0  0  0  0  0  0
  -21.0880   -8.8811   19.8948 H   0  0  0  0  0  0
  -22.3753  -10.9706   19.6176 H   0  0  0  0  0  0
  -21.2027   -7.6177   23.9676 H   0  0  0  0  0  0
  -21.1469   -6.0561   25.9064 H   0  0  0  0  0  0
  -22.0619   -2.7623   23.2831 H   0  0  0  0  0  0
  -22.4165  -11.9872   22.4613 H   0  0  0  0  0  0
  -21.1130  -13.1209   22.2521 H   0  0  0  0  0  0
  -24.6839  -15.8652   20.5180 H   0  0  0  0  0  0
  -26.3112  -15.6273   20.1353 H   0  0  0  0  0  0
  -26.7112  -32.5575   23.1253 H   0  0  0  0  0  0
  -25.0052  -33.9808   25.0547 H   0  0  0  0  0  0
  -22.6870  -31.3288   21.4474 H   0  0  0  0  0  0
  -23.3829  -35.9568   23.3212 H   0  0  0  0  0  0
  -24.3565  -36.9070   22.2088 H   0  0  0  0  0  0
  -23.7102  -37.6440   23.6726 H   0  0  0  0  0  0
  -26.0271  -31.5958   20.5992 H   0  0  0  0  0  0
  -26.8297  -30.8925   21.9816 H   0  0  0  0  0  0
  -28.0814  -29.0558   21.1948 H   0  0  0  0  0  0
  -25.9678  -26.0146   18.9544 H   0  0  0  0  0  0
  -23.9323  -27.3538   19.0176 H   0  0  0  0  0  0
  -23.7186  -30.6610   19.4350 H   0  0  0  0  0  0
  -22.7144  -29.3087   19.8695 H   0  0  0  0  0  0
  -25.1235  -36.2060   25.0860 H   0  0  0  0  0  0
  -20.9960  -28.3326   24.1471 H   0  0  0  0  0  0
  -20.5778  -26.2313   23.3631 H   0  0  0  0  0  0
  -21.6623  -26.7509   22.1199 H   0  0  0  0  0  0
  -19.6881  -25.6364   21.1250 H   0  0  0  0  0  0
  -19.6653  -27.3254   20.6808 H   0  0  0  0  0  0
  -17.4205  -26.6794   21.4016 H   0  0  0  0  0  0
  -18.0202  -26.0065   22.9015 H   0  0  0  0  0  0
  -19.7935  -30.7296   24.2244 H   0  0  0  0  0  0
  -17.5024  -31.6276   24.5265 H   0  0  0  0  0  0
  -15.5329  -30.3037   23.7622 H   0  0  0  0  0  0
  -15.8690  -28.0862   22.7010 H   0  0  0  0  0  0
  -24.6032  -30.6823   25.7771 H   0  0  0  0  0  0
  -24.8817  -32.2623   26.4966 H   0  0  0  0  0  0
  -25.8127  -30.8716   27.0248 H   0  0  0  0  0  0
  -26.3024  -29.6685   24.1300 H   0  0  0  0  0  0
  -27.4498  -29.7411   25.4503 H   0  0  0  0  0  0
  -27.8708  -30.4530   23.9135 H   0  0  0  0  0  0
  -27.2912  -33.3708   26.1918 H   0  0  0  0  0  0
  -28.4034  -32.6512   25.0347 H   0  0  0  0  0  0
  -28.0675  -31.8439   26.5573 H   0  0  0  0  0  0
  -28.2545  -38.0172   24.7657 H   0  0  0  0  0  0
  -28.1190  -36.2696   24.6180 H   0  0  0  0  0  0
  -27.2295  -37.1308   25.8863 H   0  0  0  0  0  0
  -20.9268  -29.8866   21.7016 H   0  0  0  0  0  0
  -26.0227  -38.2921   24.1548 H   0  0  0  0  0  0
  -29.8296  -18.5054   21.2970 H   0  0  0  0  0  0
  -30.5432  -20.8644   24.8216 H   0  0  0  0  0  0
  -28.1943  -20.8017   22.7838 H   0  0  0  0  0  0
  -32.3292  -16.3859   21.4750 H   0  0  0  0  0  0
  -29.4763  -15.4296   22.0859 H   0  0  0  0  0  0
  -30.6170  -21.9545   21.3076 H   0  0  0  0  0  0
  -32.6750  -15.7627   24.0272 H   0  0  0  0  0  0
  -32.5802  -16.5182   25.5933 H   0  0  0  0  0  0
  -33.7901  -17.0676   24.4257 H   0  0  0  0  0  0
  -31.5765  -19.2214   28.2141 H   0  0  0  0  0  0
  -30.7759  -18.0125   27.2137 H   0  0  0  0  0  0
  -30.3199  -19.7087   27.0916 H   0  0  0  0  0  0
  -32.5756  -20.2479   26.1324 H   0  0  0  0  0  0
  -33.0656  -18.5961   26.2895 H   0  0  0  0  0  0
  -27.7251  -22.9211   21.7196 H   0  0  0  0  0  0
  -28.2633  -22.4957   20.1141 H   0  0  0  0  0  0
  -30.0203  -24.3242   20.2207 H   0  0  0  0  0  0
  -29.4144  -24.7804   21.8021 H   0  0  0  0  0  0
  -27.1162  -25.0048   20.7007 H   0  0  0  0  0  0
  -27.9207  -24.8518   19.1434 H   0  0  0  0  0  0
  1 25  1  0  0  0
  1 30  2  0  0  0
  1 79  1  0  0  0
  2  3  1  0  0  0
  2 25  1  0  0  0
  2 87  1  0  0  0
  2 88  1  0  0  0
  3  4  1  0  0  0
  3 89  1  0  0  0
  3 90  1  0  0  0
  4  5  1  0  0  0
  4 91  1  0  0  0
  4 92  1  0  0  0
  5  6  1  0  0  0
  5 26  1  0  0  0
  5 93  1  0  0  0
  6 25  1  0  0  0
  6 94  1  0  0  0
  6 95  1  0  0  0
  7  8  2  0  0  0
  7 26  1  0  0  0
  7 29  1  0  0  0
  8  9  1  0  0  0
  8 22  1  0  0  0
  9 10  1  0  0  0
  9 27  2  0  0  0
 10 11  2  0  0  0
 10 15  1  0  0  0
 11 12  1  0  0  0
 11 96  1  0  0  0
 12 13  2  0  0  0
 12 97  1  0  0  0
 13 14  1  0  0  0
 13 31  1  0  0  0
 14 15  2  0  0  0
 14 98  1  0  0  0
 15 99  1  0  0  0
 16 17  2  0  0  0
 16 21  1  0  0  0
 16 31  1  0  0  0
 17 18  1  0  0  0
 17100  1  0  0  0
 18 19  2  0  0  0
 18101  1  0  0  0
 19 20  1  0  0  0
 19 24  1  0  0  0
 20 21  2  0  0  0
 20102  1  0  0  0
 21 23  1  0  0  0
 22 28  1  0  0  0
 22 32  2  0  0  0
 26 27  1  0  0  0
 28103  1  0  0  0
 28104  1  0  0  0
 29105  1  0  0  0
 29106  1  0  0  0
 33 34  1  0  0  0
 33 66  1  0  0  0
 33 70  2  0  0  0
 34 36  1  0  0  0
 34 59  1  0  0  0
 34107  1  0  0  0
 35 44  2  0  0  0
 35 45  1  0  0  0
 35 68  1  0  0  0
 36 56  1  0  0  0
 36108  1  0  0  0
 37 39  1  0  0  0
 37 47  1  0  0  0
 37 66  1  0  0  0
 37109  1  0  0  0
 38 43  2  0  0  0
 38 46  1  0  0  0
 38 47  1  0  0  0
 39 64  1  0  0  0
 39 67  2  0  0  0
 40 52  1  0  0  0
 40 53  2  0  0  0
 40 58  1  0  0  0
 41110  1  0  0  0
 41111  1  0  0  0
 41112  1  0  0  0
 41 48  1  0  0  0
 42 43  1  0  0  0
 42 66  1  0  0  0
 42113  1  0  0  0
 42114  1  0  0  0
 43 44  1  0  0  0
 44115  1  0  0  0
 45 46  2  0  0  0
 45116  1  0  0  0
 46117  1  0  0  0
 47118  1  0  0  0
 47119  1  0  0  0
 48 56  1  0  0  0
 48 65  1  0  0  0
 48120  1  0  0  0
 49 50  1  0  0  0
 49 53  1  0  0  0
 49 64  1  0  0  0
 49121  1  0  0  0
 50 51  1  0  0  0
 50122  1  0  0  0
 50123  1  0  0  0
 51 52  1  0  0  0
 51124  1  0  0  0
 51125  1  0  0  0
 52126  1  0  0  0
 52127  1  0  0  0
 53 54  1  0  0  0
 54 55  2  0  0  0
 54128  1  0  0  0
 55 57  1  0  0  0
 55129  1  0  0  0
 56 69  2  0  0  0
 57 58  2  0  0  0
 57130  1  0  0  0
 58131  1  0  0  0
 59 60  1  0  0  0
 59 61  1  0  0  0
 59 62  1  0  0  0
 60132  1  0  0  0
 60133  1  0  0  0
 60134  1  0  0  0
 61135  1  0  0  0
 61136  1  0  0  0
 61137  1  0  0  0
 62138  1  0  0  0
 62139  1  0  0  0
 62140  1  0  0  0
 63 65  1  0  0  0
 63141  1  0  0  0
 63142  1  0  0  0
 63143  1  0  0  0
 64144  1  0  0  0
 65145  1  0  0  0
 68 86  1  0  0  0
 71 73  2  0  0  0
 71 74  1  0  0  0
 71146  1  0  0  0
 72 73  1  0  0  0
 72 75  2  0  0  0
 72147  1  0  0  0
 73 77  1  0  0  0
 74 76  2  0  0  0
 74 78  1  0  0  0
 75 76  1  0  0  0
 75 83  1  0  0  0
 76 81  1  0  0  0
 77 80  2  0  0  0
 77148  1  0  0  0
 78 79  2  0  0  0
 78149  1  0  0  0
 79150  1  0  0  0
 80 84  1  0  0  0
 80151  1  0  0  0
 81152  1  0  0  0
 81153  1  0  0  0
 81154  1  0  0  0
 82 83  1  0  0  0
 82155  1  0  0  0
 82156  1  0  0  0
 82157  1  0  0  0
 83158  1  0  0  0
 83159  1  0  0  0
 84 85  1  0  0  0
 84160  1  0  0  0
 84161  1  0  0  0
 85 86  1  0  0  0
 85162  1  0  0  0
 85163  1  0  0  0
 86164  1  0  0  0
 86165  1  0  0  0
M  ISO  4   1 100  68 101  79 100  86 101
M  END
> <chiral flag>
0

> <version>
0

> <s_m_source_file>
/data/baiqing/PycharmProjects/Reinvent-master-3.2/result/LINK_invent/BTK/process_docking_weight1_custom_product_contain_oxygen_bond_distance_aromatic_linkinvent_7_9_3/rearranged_h_0130.sdf

> <i_m_source_file_index>
54

> <r_mmod_Potential_Energy-OPLS-2005>
31.5972595214844

> <r_mmod_Stretch_Energy-OPLS-2005>
40.5641212463379

> <r_mmod_Bend_Energy-OPLS-2005>
106.36750793457

> <r_mmod_Torsional_Energy-OPLS-2005>
231.362518310547

> <r_mmod_Improper_Torsional_Energy-OPLS-2005>
2.9209930896759

> <r_mmod_Van_der_Waal_Energy-OPLS-2005>
168.77587890625

> <r_mmod_Electrostatic_Energy-OPLS-2005>
-353.285339355469

> <r_mmod_Solvation_Energy-OPLS-2005>
-184.001373291016

> <b_mmod_Minimization_Converged-OPLS-2005>
0

> <r_mmod_RMS_Derivative-OPLS-2005>
5.81351613998413

$$$$
54
                    3D
 Structure written by MMmdl.
159167  0  0  1  0            999 V2000
  -30.7407  -14.5131   20.6007 C   0  0  0  0  0  0
  -30.4218  -12.3446   19.4427 C   0  0  0  0  0  0
  -29.5048  -12.5302   18.2175 C   0  0  0  0  0  0
  -28.0249  -12.3822   18.6224 C   0  0  0  0  0  0
  -27.6649  -13.2204   19.8794 C   0  0  2  0  0  0
  -28.7060  -13.0161   21.0028 C   0  0  0  0  0  0
  -25.2606  -13.8187   20.5715 C   0  0  0  0  0  0
  -24.1857  -13.0457   20.9176 C   0  0  0  0  0  0
  -24.6422  -11.6921   20.8734 C   0  0  0  0  0  0
  -23.9080  -10.4306   21.0395 C   0  0  0  0  0  0
  -24.3632   -9.4218   21.9177 C   0  0  0  0  0  0
  -23.6315   -8.2245   22.0754 C   0  0  0  0  0  0
  -22.4298   -8.0291   21.3544 C   0  0  0  0  0  0
  -21.9928   -9.0248   20.4632 C   0  0  0  0  0  0
  -22.7254  -10.2139   20.3048 C   0  0  0  0  0  0
  -21.6845   -6.0738   22.5273 C   0  0  0  0  0  0
  -21.4015   -6.5642   23.8209 C   0  0  0  0  0  0
  -21.3666   -5.6798   24.9170 C   0  0  0  0  0  0
  -21.6061   -4.3061   24.7217 C   0  0  0  0  0  0
  -21.8825   -3.8150   23.4335 C   0  0  0  0  0  0
  -21.9194   -4.6971   22.3394 C   0  0  0  0  0  0
  -22.7872  -13.5250   21.1817 C   0  0  0  0  0  0
  -22.1677   -4.2162   21.0969 F   0  0  0  0  0  0
  -21.5618   -3.4541   25.7725 F   0  0  0  0  0  0
  -30.0362  -13.3447   20.4610 N   0  0  0  0  0  0
  -26.3066  -12.9382   20.3391 N   0  0  0  0  0  0
  -25.9361  -11.6519   20.5729 N   0  0  0  0  0  0
  -22.0497  -12.8260   22.0366 N   0  0  0  0  0  0
  -25.4344  -15.1907   20.4138 N   0  0  0  0  0  0
  -31.8345  -14.6492   20.0444 O   0  0  0  0  0  0
  -21.6665   -6.8884   21.4238 O   0  0  0  0  0  0
  -22.3552  -14.5537   20.6630 O   0  0  0  0  0  0
  -24.6177  -31.8655   23.2064 C   0  0  0  0  0  0
  -25.9055  -32.4806   23.8380 C   0  0  1  0  0  0
  -27.2272  -27.3880   20.1408 C   0  0  0  0  0  0
  -25.5893  -33.8608   24.2300 N   0  0  0  0  0  0
  -23.4081  -30.4878   21.5472 C   0  0  2  0  0  0
  -24.8608  -28.9545   20.1073 C   0  0  0  0  0  0
  -22.7439  -29.4636   22.4970 C   0  0  0  0  0  0
  -18.0279  -28.1372   22.8491 C   0  0  0  0  0  0
  -24.1489  -36.7314   23.2638 C   0  0  0  0  0  0
  -25.9417  -30.8226   21.3665 C   0  0  0  0  0  0
  -26.0219  -29.4558   20.7112 C   0  0  0  0  0  0
  -27.2115  -28.6838   20.7177 C   0  0  0  0  0  0
  -26.0555  -26.9236   19.5029 C   0  0  0  0  0  0
  -24.8763  -27.6922   19.4911 C   0  0  0  0  0  0
  -23.6196  -29.8187   20.1615 C   0  0  0  0  0  0
  -25.4111  -36.3098   24.0325 C   0  0  1  0  0  0
  -20.5872  -28.3656   23.1303 C   0  0  2  0  0  0
  -20.6759  -26.9386   22.5410 C   0  0  0  0  0  0
  -19.5732  -26.6370   21.5208 C   0  0  0  0  0  0
  -18.1916  -26.7920   22.1624 C   0  0  0  0  0  0
  -19.1532  -28.8832   23.2894 C   0  0  0  0  0  0
  -18.9456  -30.1446   23.8894 C   0  0  0  0  0  0
  -17.6455  -30.6580   24.0547 C   0  0  0  0  0  0
  -25.9044  -34.9466   23.5110 C   0  0  0  0  0  0
  -16.5345  -29.9070   23.6330 C   0  0  0  0  0  0
  -16.7268  -28.6486   23.0356 C   0  0  0  0  0  0
  -26.4460  -31.6594   25.0729 C   0  0  0  0  0  0
  -25.3707  -31.3724   26.1471 C   0  0  0  0  0  0
  -27.0287  -30.3023   24.6146 C   0  0  0  0  0  0
  -27.6021  -32.4322   25.7505 C   0  0  0  0  0  0
  -27.5578  -37.1811   24.8459 C   0  0  0  0  0  0
  -21.4163  -29.3019   22.3713 N   0  0  0  0  0  0
  -26.4297  -37.3779   23.9397 N   0  0  0  0  0  0
  -24.6740  -31.0732   22.0975 N   0  0  0  0  0  0
  -23.4199  -28.8186   23.3024 O   0  0  0  0  0  0
  -28.3314  -26.5538   20.2374 O   0  0  0  0  0  0
  -26.5617  -34.8907   22.4681 O   0  0  0  0  0  0
  -23.5359  -32.1416   23.7436 O   0  0  0  0  0  0
  -30.3047  -19.3952   21.4229 C   0  0  0  0  0  0
  -29.6611  -19.2673   24.1284 C   0  0  0  0  0  0
  -30.2954  -18.1171   22.0623 C   0  0  0  0  0  0
  -30.0191  -20.6123   22.1123 C   0  0  0  0  0  0
  -29.9985  -18.0785   23.4509 C   0  0  0  0  0  0
  -29.6632  -20.5228   23.4828 C   0  0  0  0  0  0
  -30.6544  -16.8888   21.2808 C   0  0  0  0  0  0
  -30.1519  -15.6222   21.3791 C   0  0  0  0  0  0
  -29.0784  -22.9816   21.2619 C   0  0  0  0  0  0
  -29.2042  -24.3337   21.1367 C   0  0  0  0  0  0
  -30.1137  -16.8015   24.2731 C   0  0  0  0  0  0
  -29.3050  -21.7436   24.3152 C   0  0  0  0  0  0
  -30.2414  -21.9832   21.4128 C   0  0  0  0  0  0
  -28.0396  -25.3205   20.9591 C   0  0  0  0  0  0
  -31.4673  -12.4281   19.1401 H   0  0  0  0  0  0
  -30.3201  -11.3376   19.8490 H   0  0  0  0  0  0
  -29.7587  -11.8069   17.4417 H   0  0  0  0  0  0
  -29.6694  -13.5170   17.7794 H   0  0  0  0  0  0
  -27.8387  -11.3267   18.8197 H   0  0  0  0  0  0
  -27.3771  -12.6565   17.7895 H   0  0  0  0  0  0
  -27.7065  -14.2691   19.5839 H   0  0  0  0  0  0
  -28.6968  -11.9766   21.3374 H   0  0  0  0  0  0
  -28.4403  -13.5934   21.8853 H   0  0  0  0  0  0
  -25.2769   -9.5697   22.4748 H   0  0  0  0  0  0
  -24.0026   -7.4651   22.7486 H   0  0  0  0  0  0
  -21.0858   -8.8755   19.8937 H   0  0  0  0  0  0
  -22.3710  -10.9667   19.6151 H   0  0  0  0  0  0
  -21.2023   -7.6153   23.9713 H   0  0  0  0  0  0
  -21.1479   -6.0525   25.9079 H   0  0  0  0  0  0
  -22.0605   -2.7615   23.2821 H   0  0  0  0  0  0
  -22.4101  -11.9979   22.4857 H   0  0  0  0  0  0
  -21.1064  -13.1231   22.2454 H   0  0  0  0  0  0
  -24.6770  -15.8534   20.5348 H   0  0  0  0  0  0
  -26.3006  -15.6261   20.1200 H   0  0  0  0  0  0
  -26.7139  -32.5505   23.1159 H   0  0  0  0  0  0
  -24.9995  -33.9769   25.0407 H   0  0  0  0  0  0
  -22.6955  -31.3038   21.4054 H   0  0  0  0  0  0
  -23.3735  -35.9665   23.3317 H   0  0  0  0  0  0
  -24.3575  -36.8926   22.2048 H   0  0  0  0  0  0
  -23.7265  -37.6526   23.6659 H   0  0  0  0  0  0
  -26.0634  -31.5908   20.6008 H   0  0  0  0  0  0
  -26.8244  -30.8717   21.9926 H   0  0  0  0  0  0
  -28.1005  -29.0582   21.2062 H   0  0  0  0  0  0
  -26.0387  -25.9505   19.0328 H   0  0  0  0  0  0
  -23.9869  -27.3015   19.0171 H   0  0  0  0  0  0
  -23.7175  -30.5914   19.3981 H   0  0  0  0  0  0
  -22.7450  -29.2326   19.8721 H   0  0  0  0  0  0
  -25.1296  -36.1954   25.0818 H   0  0  0  0  0  0
  -20.9968  -28.3217   24.1418 H   0  0  0  0  0  0
  -20.5656  -26.2258   23.3603 H   0  0  0  0  0  0
  -21.6629  -26.7417   22.1201 H   0  0  0  0  0  0
  -19.6885  -25.6276   21.1240 H   0  0  0  0  0  0
  -19.6676  -27.3176   20.6736 H   0  0  0  0  0  0
  -17.4189  -26.6684   21.4023 H   0  0  0  0  0  0
  -18.0307  -26.0062   22.9017 H   0  0  0  0  0  0
  -19.7932  -30.7269   24.2258 H   0  0  0  0  0  0
  -17.5005  -31.6268   24.5137 H   0  0  0  0  0  0
  -15.5342  -30.2967   23.7650 H   0  0  0  0  0  0
  -15.8672  -28.0799   22.7072 H   0  0  0  0  0  0
  -24.5842  -30.7130   25.7778 H   0  0  0  0  0  0
  -24.8947  -32.2900   26.4951 H   0  0  0  0  0  0
  -25.8034  -30.8835   27.0214 H   0  0  0  0  0  0
  -26.2855  -29.6820   24.1136 H   0  0  0  0  0  0
  -27.3945  -29.7237   25.4633 H   0  0  0  0  0  0
  -27.8733  -30.4304   23.9381 H   0  0  0  0  0  0
  -27.2622  -33.3592   26.2137 H   0  0  0  0  0  0
  -28.3813  -32.6950   25.0340 H   0  0  0  0  0  0
  -28.0726  -31.8433   26.5390 H   0  0  0  0  0  0
  -28.2597  -38.0103   24.7497 H   0  0  0  0  0  0
  -28.1078  -36.2639   24.6309 H   0  0  0  0  0  0
  -27.2300  -37.1481   25.8861 H   0  0  0  0  0  0
  -20.9333  -29.8749   21.6942 H   0  0  0  0  0  0
  -26.0187  -38.2857   24.1386 H   0  0  0  0  0  0
  -30.5787  -19.4457   20.3776 H   0  0  0  0  0  0
  -29.4362  -19.2216   25.1851 H   0  0  0  0  0  0
  -31.4637  -17.0529   20.5813 H   0  0  0  0  0  0
  -29.3328  -15.4492   22.0533 H   0  0  0  0  0  0
  -28.0914  -22.5390   21.2313 H   0  0  0  0  0  0
  -30.1873  -24.7821   21.1826 H   0  0  0  0  0  0
  -30.2937  -17.0220   25.3266 H   0  0  0  0  0  0
  -30.9527  -16.1880   23.9426 H   0  0  0  0  0  0
  -29.2009  -16.2100   24.2082 H   0  0  0  0  0  0
  -29.5862  -21.5992   25.3595 H   0  0  0  0  0  0
  -28.2275  -21.9072   24.2850 H   0  0  0  0  0  0
  -29.7990  -22.6514   23.9724 H   0  0  0  0  0  0
  -30.6024  -21.7843   20.4034 H   0  0  0  0  0  0
  -31.0625  -22.4955   21.9193 H   0  0  0  0  0  0
  -27.6887  -25.5869   21.9579 H   0  0  0  0  0  0
  -27.2317  -24.7656   20.4820 H   0  0  0  0  0  0
  1 25  1  0  0  0
  1 30  2  0  0  0
  1 78  1  0  0  0
  2  3  1  0  0  0
  2 25  1  0  0  0
  2 85  1  0  0  0
  2 86  1  0  0  0
  3  4  1  0  0  0
  3 87  1  0  0  0
  3 88  1  0  0  0
  4  5  1  0  0  0
  4 89  1  0  0  0
  4 90  1  0  0  0
  5  6  1  0  0  0
  5 26  1  0  0  0
  5 91  1  0  0  0
  6 25  1  0  0  0
  6 92  1  0  0  0
  6 93  1  0  0  0
  7  8  2  0  0  0
  7 26  1  0  0  0
  7 29  1  0  0  0
  8  9  1  0  0  0
  8 22  1  0  0  0
  9 10  1  0  0  0
  9 27  2  0  0  0
 10 11  2  0  0  0
 10 15  1  0  0  0
 11 12  1  0  0  0
 11 94  1  0  0  0
 12 13  2  0  0  0
 12 95  1  0  0  0
 13 14  1  0  0  0
 13 31  1  0  0  0
 14 15  2  0  0  0
 14 96  1  0  0  0
 15 97  1  0  0  0
 16 17  2  0  0  0
 16 21  1  0  0  0
 16 31  1  0  0  0
 17 18  1  0  0  0
 17 98  1  0  0  0
 18 19  2  0  0  0
 18 99  1  0  0  0
 19 20  1  0  0  0
 19 24  1  0  0  0
 20 21  2  0  0  0
 20100  1  0  0  0
 21 23  1  0  0  0
 22 28  1  0  0  0
 22 32  2  0  0  0
 26 27  1  0  0  0
 28101  1  0  0  0
 28102  1  0  0  0
 29103  1  0  0  0
 29104  1  0  0  0
 33 34  1  0  0  0
 33 66  1  0  0  0
 33 70  2  0  0  0
 34 36  1  0  0  0
 34 59  1  0  0  0
 34105  1  0  0  0
 35 44  2  0  0  0
 35 45  1  0  0  0
 35 68  1  0  0  0
 36 56  1  0  0  0
 36106  1  0  0  0
 37 39  1  0  0  0
 37 47  1  0  0  0
 37 66  1  0  0  0
 37107  1  0  0  0
 38 43  2  0  0  0
 38 46  1  0  0  0
 38 47  1  0  0  0
 39 64  1  0  0  0
 39 67  2  0  0  0
 40 52  1  0  0  0
 40 53  2  0  0  0
 40 58  1  0  0  0
 41108  1  0  0  0
 41109  1  0  0  0
 41110  1  0  0  0
 41 48  1  0  0  0
 42 43  1  0  0  0
 42 66  1  0  0  0
 42111  1  0  0  0
 42112  1  0  0  0
 43 44  1  0  0  0
 44113  1  0  0  0
 45 46  2  0  0  0
 45114  1  0  0  0
 46115  1  0  0  0
 47116  1  0  0  0
 47117  1  0  0  0
 48 56  1  0  0  0
 48 65  1  0  0  0
 48118  1  0  0  0
 49 50  1  0  0  0
 49 53  1  0  0  0
 49 64  1  0  0  0
 49119  1  0  0  0
 50 51  1  0  0  0
 50120  1  0  0  0
 50121  1  0  0  0
 51 52  1  0  0  0
 51122  1  0  0  0
 51123  1  0  0  0
 52124  1  0  0  0
 52125  1  0  0  0
 53 54  1  0  0  0
 54 55  2  0  0  0
 54126  1  0  0  0
 55 57  1  0  0  0
 55127  1  0  0  0
 56 69  2  0  0  0
 57 58  2  0  0  0
 57128  1  0  0  0
 58129  1  0  0  0
 59 60  1  0  0  0
 59 61  1  0  0  0
 59 62  1  0  0  0
 60130  1  0  0  0
 60131  1  0  0  0
 60132  1  0  0  0
 61133  1  0  0  0
 61134  1  0  0  0
 61135  1  0  0  0
 62136  1  0  0  0
 62137  1  0  0  0
 62138  1  0  0  0
 63 65  1  0  0  0
 63139  1  0  0  0
 63140  1  0  0  0
 63141  1  0  0  0
 64142  1  0  0  0
 65143  1  0  0  0
 68 84  1  0  0  0
 71 73  2  0  0  0
 71 74  1  0  0  0
 71144  1  0  0  0
 72 75  2  0  0  0
 72 76  1  0  0  0
 72145  1  0  0  0
 73 75  1  0  0  0
 73 77  1  0  0  0
 74 76  2  0  0  0
 74 83  1  0  0  0
 75 81  1  0  0  0
 76 82  1  0  0  0
 77 78  2  0  0  0
 77146  1  0  0  0
 78147  1  0  0  0
 79 80  2  0  0  0
 79 83  1  0  0  0
 79148  1  0  0  0
 80 84  1  0  0  0
 80149  1  0  0  0
 81150  1  0  0  0
 81151  1  0  0  0
 81152  1  0  0  0
 82153  1  0  0  0
 82154  1  0  0  0
 82155  1  0  0  0
 83156  1  0  0  0
 83157  1  0  0  0
 84158  1  0  0  0
 84159  1  0  0  0
M  ISO  4   1 100  68 101  78 100  84 101
M  END
> <chiral flag>
0

> <version>
0

> <s_m_source_file>
/data/baiqing/PycharmProjects/Reinvent-master-3.2/result/LINK_invent/BTK/process_docking_weight1_custom_product_contain_oxygen_bond_distance_aromatic_linkinvent_7_9_3/rearranged_h_0130.sdf

> <i_m_source_file_index>
55

> <r_mmod_Potential_Energy-OPLS-2005>
19.6661243438721

> <r_mmod_Stretch_Energy-OPLS-2005>
53.8137969970703

> <r_mmod_Bend_Energy-OPLS-2005>
109.440185546875

> <r_mmod_Torsional_Energy-OPLS-2005>
210.959930419922

> <r_mmod_Improper_Torsional_Energy-OPLS-2005>
3.17034578323364

> <r_mmod_Van_der_Waal_Energy-OPLS-2005>
157.462142944336

> <r_mmod_Electrostatic_Energy-OPLS-2005>
-353.299194335938

> <r_mmod_Solvation_Energy-OPLS-2005>
-186.55696105957

> <b_mmod_Minimization_Converged-OPLS-2005>
0

> <r_mmod_RMS_Derivative-OPLS-2005>
2.82418704032898

$$$$
55
                    3D
 Structure written by MMmdl.
163171  0  0  1  0            999 V2000
  -30.5877  -14.8371   20.3972 C   0  0  0  0  0  0
  -30.4307  -12.4977   19.5067 C   0  0  0  0  0  0
  -29.5205  -12.4957   18.2585 C   0  0  0  0  0  0
  -28.0471  -12.3087   18.6668 C   0  0  0  0  0  0
  -27.6346  -13.2396   19.8383 C   0  0  2  0  0  0
  -28.6731  -13.2265   20.9789 C   0  0  0  0  0  0
  -25.2515  -13.8227   20.5727 C   0  0  0  0  0  0
  -24.1803  -13.0467   20.9228 C   0  0  0  0  0  0
  -24.6395  -11.6939   20.8747 C   0  0  0  0  0  0
  -23.9074  -10.4306   21.0411 C   0  0  0  0  0  0
  -24.3611   -9.4220   21.9197 C   0  0  0  0  0  0
  -23.6301   -8.2243   22.0752 C   0  0  0  0  0  0
  -22.4286   -8.0277   21.3549 C   0  0  0  0  0  0
  -21.9909   -9.0250   20.4647 C   0  0  0  0  0  0
  -22.7229  -10.2142   20.3066 C   0  0  0  0  0  0
  -21.6842   -6.0737   22.5287 C   0  0  0  0  0  0
  -21.4000   -6.5644   23.8219 C   0  0  0  0  0  0
  -21.3665   -5.6802   24.9181 C   0  0  0  0  0  0
  -21.6049   -4.3065   24.7238 C   0  0  0  0  0  0
  -21.8818   -3.8152   23.4360 C   0  0  0  0  0  0
  -21.9191   -4.6965   22.3408 C   0  0  0  0  0  0
  -22.7825  -13.5243   21.1899 C   0  0  0  0  0  0
  -22.1661   -4.2151   21.0990 F   0  0  0  0  0  0
  -21.5630   -3.4547   25.7750 F   0  0  0  0  0  0
  -29.9718  -13.5936   20.4011 N   0  0  0  0  0  0
  -26.2902  -12.9433   20.3229 N   0  0  0  0  0  0
  -25.9324  -11.6570   20.5739 N   0  0  0  0  0  0
  -22.0461  -12.8224   22.0434 N   0  0  0  0  0  0
  -25.4288  -15.1946   20.4169 N   0  0  0  0  0  0
  -31.7778  -14.8740   20.0690 O   0  0  0  0  0  0
  -21.6644   -6.8879   21.4249 O   0  0  0  0  0  0
  -22.3512  -14.5543   20.6748 O   0  0  0  0  0  0
  -24.6396  -31.8496   23.1944 C   0  0  0  0  0  0
  -25.9195  -32.4748   23.8305 C   0  0  1  0  0  0
  -27.2060  -27.1801   20.1296 C   0  0  0  0  0  0
  -25.5938  -33.8554   24.2231 N   0  0  0  0  0  0
  -23.4419  -30.4774   21.5360 C   0  0  2  0  0  0
  -24.8868  -28.9118   20.1064 C   0  0  0  0  0  0
  -22.7561  -29.4610   22.4833 C   0  0  0  0  0  0
  -18.0321  -28.1408   22.8464 C   0  0  0  0  0  0
  -24.1496  -36.7264   23.2642 C   0  0  0  0  0  0
  -25.9946  -30.7374   21.3835 C   0  0  0  0  0  0
  -26.0648  -29.3533   20.7209 C   0  0  0  0  0  0
  -27.2283  -28.5027   20.7191 C   0  0  0  0  0  0
  -26.0084  -26.8365   19.4672 C   0  0  0  0  0  0
  -24.8681  -27.6640   19.4674 C   0  0  0  0  0  0
  -23.6670  -29.8169   20.1505 C   0  0  0  0  0  0
  -25.4138  -36.3074   24.0327 C   0  0  1  0  0  0
  -20.5941  -28.3738   23.1213 C   0  0  2  0  0  0
  -20.6823  -26.9471   22.5307 C   0  0  0  0  0  0
  -19.5755  -26.6403   21.5169 C   0  0  0  0  0  0
  -18.1942  -26.7968   22.1576 C   0  0  0  0  0  0
  -19.1579  -28.8878   23.2870 C   0  0  0  0  0  0
  -18.9485  -30.1447   23.8947 C   0  0  0  0  0  0
  -17.6481  -30.6573   24.0606 C   0  0  0  0  0  0
  -25.9090  -34.9436   23.5090 C   0  0  0  0  0  0
  -16.5391  -29.9122   23.6284 C   0  0  0  0  0  0
  -16.7305  -28.6546   23.0283 C   0  0  0  0  0  0
  -26.4542  -31.6564   25.0697 C   0  0  0  0  0  0
  -25.3748  -31.3691   26.1403 C   0  0  0  0  0  0
  -27.0367  -30.2960   24.6185 C   0  0  0  0  0  0
  -27.6093  -32.4296   25.7486 C   0  0  0  0  0  0
  -27.5597  -37.1818   24.8486 C   0  0  0  0  0  0
  -21.4239  -29.3140   22.3625 N   0  0  0  0  0  0
  -26.4305  -37.3795   23.9431 N   0  0  0  0  0  0
  -24.7116  -31.0406   22.0946 N   0  0  0  0  0  0
  -23.4250  -28.8097   23.2904 O   0  0  0  0  0  0
  -28.2513  -26.1993   20.2208 O   0  0  0  0  0  0
  -26.5690  -34.8903   22.4672 O   0  0  0  0  0  0
  -23.5528  -32.1359   23.7191 O   0  0  0  0  0  0
  -29.5126  -19.7077   19.0419 C   0  0  0  0  0  0
  -29.2586  -21.1312   19.0470 C   0  0  0  0  0  0
  -29.0969  -21.0699   21.4039 C   0  0  0  0  0  0
  -29.6134  -18.8808   20.2090 C   0  0  0  0  0  0
  -29.0742  -21.9032   20.2357 C   0  0  0  0  0  0
  -29.3552  -19.6371   21.4044 C   0  0  0  0  0  0
  -30.1070  -17.3788   20.0905 C   0  0  0  0  0  0
  -29.7985  -16.1285   20.6498 C   0  0  0  0  0  0
  -26.9278  -24.3129   21.2663 C   0  0  0  0  0  0
  -26.9570  -25.0975   22.5715 C   0  0  0  0  0  0
  -27.9497  -19.6587   24.6848 C   0  0  0  0  0  0
  -29.1602  -23.5407   20.2737 C   0  0  0  0  0  0
  -29.4776  -18.9482   22.7559 C   0  0  0  0  0  0
  -28.1237  -18.7520   23.4595 C   0  0  0  0  0  0
  -27.9546  -24.6728   20.1729 C   0  0  2  0  0  0
  -26.0827  -23.4312   21.0909 O   0  0  0  0  0  0
  -31.4736  -12.6111   19.2059 H   0  0  0  0  0  0
  -30.3809  -11.5385   20.0257 H   0  0  0  0  0  0
  -29.8215  -11.6996   17.5749 H   0  0  0  0  0  0
  -29.6366  -13.4324   17.7123 H   0  0  0  0  0  0
  -27.9298  -11.2680   18.9735 H   0  0  0  0  0  0
  -27.3878  -12.4496   17.8100 H   0  0  0  0  0  0
  -27.6154  -14.2486   19.4256 H   0  0  0  0  0  0
  -28.7238  -12.2418   21.4461 H   0  0  0  0  0  0
  -28.3862  -13.9198   21.7684 H   0  0  0  0  0  0
  -25.2746   -9.5707   22.4791 H   0  0  0  0  0  0
  -24.0001   -7.4641   22.7478 H   0  0  0  0  0  0
  -21.0830   -8.8792   19.8958 H   0  0  0  0  0  0
  -22.3686  -10.9696   19.6187 H   0  0  0  0  0  0
  -21.1975   -7.6152   23.9719 H   0  0  0  0  0  0
  -21.1489   -6.0539   25.9093 H   0  0  0  0  0  0
  -22.0585   -2.7614   23.2870 H   0  0  0  0  0  0
  -22.4040  -11.9868   22.4822 H   0  0  0  0  0  0
  -21.1093  -13.1282   22.2632 H   0  0  0  0  0  0
  -24.6803  -15.8661   20.5457 H   0  0  0  0  0  0
  -26.2981  -15.6225   20.1241 H   0  0  0  0  0  0
  -26.7246  -32.5362   23.1012 H   0  0  0  0  0  0
  -24.9990  -33.9687   25.0315 H   0  0  0  0  0  0
  -22.7449  -31.3042   21.3889 H   0  0  0  0  0  0
  -23.3784  -35.9579   23.3321 H   0  0  0  0  0  0
  -24.3557  -36.8876   22.2049 H   0  0  0  0  0  0
  -23.7202  -37.6454   23.6648 H   0  0  0  0  0  0
  -26.1457  -31.4962   20.6149 H   0  0  0  0  0  0
  -26.8681  -30.7863   22.0207 H   0  0  0  0  0  0
  -28.1222  -28.8354   21.2273 H   0  0  0  0  0  0
  -25.9118  -25.8832   18.9703 H   0  0  0  0  0  0
  -23.9670  -27.3227   18.9771 H   0  0  0  0  0  0
  -23.8212  -30.6017   19.4094 H   0  0  0  0  0  0
  -22.7779  -29.2799   19.8194 H   0  0  0  0  0  0
  -25.1319  -36.1929   25.0827 H   0  0  0  0  0  0
  -21.0060  -28.3305   24.1326 H   0  0  0  0  0  0
  -20.5822  -26.2343   23.3507 H   0  0  0  0  0  0
  -21.6654  -26.7555   22.1000 H   0  0  0  0  0  0
  -19.6911  -25.6318   21.1178 H   0  0  0  0  0  0
  -19.6612  -27.3213   20.6694 H   0  0  0  0  0  0
  -17.4220  -26.6808   21.3950 H   0  0  0  0  0  0
  -18.0294  -26.0064   22.8926 H   0  0  0  0  0  0
  -19.7968  -30.7231   24.2353 H   0  0  0  0  0  0
  -17.5015  -31.6204   24.5305 H   0  0  0  0  0  0
  -15.5384  -30.3025   23.7564 H   0  0  0  0  0  0
  -15.8721  -28.0916   22.6914 H   0  0  0  0  0  0
  -24.5966  -30.6993   25.7716 H   0  0  0  0  0  0
  -24.8888  -32.2848   26.4795 H   0  0  0  0  0  0
  -25.8092  -30.8895   27.0186 H   0  0  0  0  0  0
  -26.2919  -29.6712   24.1225 H   0  0  0  0  0  0
  -27.4055  -29.7226   25.4701 H   0  0  0  0  0  0
  -27.8818  -30.4224   23.9401 H   0  0  0  0  0  0
  -27.2701  -33.3603   26.2044 H   0  0  0  0  0  0
  -28.3931  -32.6842   25.0338 H   0  0  0  0  0  0
  -28.0723  -31.8410   26.5416 H   0  0  0  0  0  0
  -28.2648  -38.0086   24.7539 H   0  0  0  0  0  0
  -28.1053  -36.2628   24.6327 H   0  0  0  0  0  0
  -27.2300  -37.1487   25.8880 H   0  0  0  0  0  0
  -20.9377  -29.8960   21.6942 H   0  0  0  0  0  0
  -26.0179  -38.2867   24.1467 H   0  0  0  0  0  0
  -29.6984  -19.2446   18.0820 H   0  0  0  0  0  0
  -29.2861  -21.6454   18.0956 H   0  0  0  0  0  0
  -28.9986  -21.5582   22.3642 H   0  0  0  0  0  0
  -30.9498  -17.3211   19.4159 H   0  0  0  0  0  0
  -28.9599  -16.0833   21.3257 H   0  0  0  0  0  0
  -26.7281  -24.4384   23.4082 H   0  0  0  0  0  0
  -26.2214  -25.8999   22.5466 H   0  0  0  0  0  0
  -27.9409  -25.5347   22.7297 H   0  0  0  0  0  0
  -26.9592  -19.5350   25.1211 H   0  0  0  0  0  0
  -28.0714  -20.7103   24.4284 H   0  0  0  0  0  0
  -28.6816  -19.4164   25.4561 H   0  0  0  0  0  0
  -29.8667  -23.7923   19.4837 H   0  0  0  0  0  0
  -29.7024  -23.7664   21.1922 H   0  0  0  0  0  0
  -30.1557  -19.5338   23.3773 H   0  0  0  0  0  0
  -29.9681  -17.9820   22.6507 H   0  0  0  0  0  0
  -27.3031  -18.8989   22.7562 H   0  0  0  0  0  0
  -28.0452  -17.7167   23.7907 H   0  0  0  0  0  0
  -27.4675  -24.4902   19.2156 H   0  0  0  0  0  0
  1 25  1  0  0  0
  1 30  2  0  0  0
  1 78  1  0  0  0
  2  3  1  0  0  0
  2 25  1  0  0  0
  2 87  1  0  0  0
  2 88  1  0  0  0
  3  4  1  0  0  0
  3 89  1  0  0  0
  3 90  1  0  0  0
  4  5  1  0  0  0
  4 91  1  0  0  0
  4 92  1  0  0  0
  5  6  1  0  0  0
  5 26  1  0  0  0
  5 93  1  0  0  0
  6 25  1  0  0  0
  6 94  1  0  0  0
  6 95  1  0  0  0
  7  8  2  0  0  0
  7 26  1  0  0  0
  7 29  1  0  0  0
  8  9  1  0  0  0
  8 22  1  0  0  0
  9 10  1  0  0  0
  9 27  2  0  0  0
 10 11  2  0  0  0
 10 15  1  0  0  0
 11 12  1  0  0  0
 11 96  1  0  0  0
 12 13  2  0  0  0
 12 97  1  0  0  0
 13 14  1  0  0  0
 13 31  1  0  0  0
 14 15  2  0  0  0
 14 98  1  0  0  0
 15 99  1  0  0  0
 16 17  2  0  0  0
 16 21  1  0  0  0
 16 31  1  0  0  0
 17 18  1  0  0  0
 17100  1  0  0  0
 18 19  2  0  0  0
 18101  1  0  0  0
 19 20  1  0  0  0
 19 24  1  0  0  0
 20 21  2  0  0  0
 20102  1  0  0  0
 21 23  1  0  0  0
 22 28  1  0  0  0
 22 32  2  0  0  0
 26 27  1  0  0  0
 28103  1  0  0  0
 28104  1  0  0  0
 29105  1  0  0  0
 29106  1  0  0  0
 33 34  1  0  0  0
 33 66  1  0  0  0
 33 70  2  0  0  0
 34 36  1  0  0  0
 34 59  1  0  0  0
 34107  1  0  0  0
 35 44  2  0  0  0
 35 45  1  0  0  0
 35 68  1  0  0  0
 36 56  1  0  0  0
 36108  1  0  0  0
 37 39  1  0  0  0
 37 47  1  0  0  0
 37 66  1  0  0  0
 37109  1  0  0  0
 38 43  2  0  0  0
 38 46  1  0  0  0
 38 47  1  0  0  0
 39 64  1  0  0  0
 39 67  2  0  0  0
 40 52  1  0  0  0
 40 53  2  0  0  0
 40 58  1  0  0  0
 41110  1  0  0  0
 41111  1  0  0  0
 41112  1  0  0  0
 41 48  1  0  0  0
 42 43  1  0  0  0
 42 66  1  0  0  0
 42113  1  0  0  0
 42114  1  0  0  0
 43 44  1  0  0  0
 44115  1  0  0  0
 45 46  2  0  0  0
 45116  1  0  0  0
 46117  1  0  0  0
 47118  1  0  0  0
 47119  1  0  0  0
 48 56  1  0  0  0
 48 65  1  0  0  0
 48120  1  0  0  0
 49 50  1  0  0  0
 49 53  1  0  0  0
 49 64  1  0  0  0
 49121  1  0  0  0
 50 51  1  0  0  0
 50122  1  0  0  0
 50123  1  0  0  0
 51 52  1  0  0  0
 51124  1  0  0  0
 51125  1  0  0  0
 52126  1  0  0  0
 52127  1  0  0  0
 53 54  1  0  0  0
 54 55  2  0  0  0
 54128  1  0  0  0
 55 57  1  0  0  0
 55129  1  0  0  0
 56 69  2  0  0  0
 57 58  2  0  0  0
 57130  1  0  0  0
 58131  1  0  0  0
 59 60  1  0  0  0
 59 61  1  0  0  0
 59 62  1  0  0  0
 60132  1  0  0  0
 60133  1  0  0  0
 60134  1  0  0  0
 61135  1  0  0  0
 61136  1  0  0  0
 61137  1  0  0  0
 62138  1  0  0  0
 62139  1  0  0  0
 62140  1  0  0  0
 63 65  1  0  0  0
 63141  1  0  0  0
 63142  1  0  0  0
 63143  1  0  0  0
 64144  1  0  0  0
 65145  1  0  0  0
 68 85  1  0  0  0
 71 72  2  0  0  0
 71 74  1  0  0  0
 71146  1  0  0  0
 72 75  1  0  0  0
 72147  1  0  0  0
 73 75  2  0  0  0
 73 76  1  0  0  0
 73148  1  0  0  0
 74 76  2  0  0  0
 74 77  1  0  0  0
 75 82  1  0  0  0
 76 83  1  0  0  0
 77 78  2  0  0  0
 77149  1  0  0  0
 78150  1  0  0  0
 79 80  1  0  0  0
 79 85  1  0  0  0
 79 86  2  0  0  0
 80151  1  0  0  0
 80152  1  0  0  0
 80153  1  0  0  0
 81 84  1  0  0  0
 81154  1  0  0  0
 81155  1  0  0  0
 81156  1  0  0  0
 82157  1  0  0  0
 82158  1  0  0  0
 82 85  1  0  0  0
 83 84  1  0  0  0
 83159  1  0  0  0
 83160  1  0  0  0
 84161  1  0  0  0
 84162  1  0  0  0
 85163  1  0  0  0
M  ISO  4   1 100  68 101  78 100  85 101
M  END
> <chiral flag>
0

> <version>
0

> <s_m_source_file>
/data/baiqing/PycharmProjects/Reinvent-master-3.2/result/LINK_invent/BTK/process_docking_weight1_custom_product_contain_oxygen_bond_distance_aromatic_linkinvent_7_9_3/rearranged_h_0130.sdf

> <i_m_source_file_index>
56

> <r_mmod_Potential_Energy-OPLS-2005>
401.166107177734

> <r_mmod_Stretch_Energy-OPLS-2005>
189.703048706055

> <r_mmod_Bend_Energy-OPLS-2005>
218.346649169922

> <r_mmod_Torsional_Energy-OPLS-2005>
238.011672973633

> <r_mmod_Improper_Torsional_Energy-OPLS-2005>
6.19156551361084

> <r_mmod_Van_der_Waal_Energy-OPLS-2005>
133.054016113281

> <r_mmod_Electrostatic_Energy-OPLS-2005>
-326.803802490234

> <r_mmod_Solvation_Energy-OPLS-2005>
-198.174514770508

> <b_mmod_Minimization_Converged-OPLS-2005>
0

> <r_mmod_RMS_Derivative-OPLS-2005>
3.6345534324646

$$$$
56
                    3D
 Structure written by MMmdl.
156164  0  0  1  0            999 V2000
  -30.5075  -14.9711   20.4294 C   0  0  0  0  0  0
  -30.4433  -12.5904   19.5284 C   0  0  0  0  0  0
  -29.5390  -12.5479   18.2710 C   0  0  0  0  0  0
  -28.0657  -12.3322   18.6681 C   0  0  0  0  0  0
  -27.6305  -13.2535   19.8406 C   0  0  2  0  0  0
  -28.6620  -13.2545   20.9903 C   0  0  0  0  0  0
  -25.2467  -13.8223   20.5715 C   0  0  0  0  0  0
  -24.1776  -13.0456   20.9239 C   0  0  0  0  0  0
  -24.6381  -11.6934   20.8734 C   0  0  0  0  0  0
  -23.9050  -10.4300   21.0375 C   0  0  0  0  0  0
  -24.3596   -9.4214   21.9141 C   0  0  0  0  0  0
  -23.6302   -8.2244   22.0707 C   0  0  0  0  0  0
  -22.4291   -8.0263   21.3505 C   0  0  0  0  0  0
  -21.9925   -9.0243   20.4618 C   0  0  0  0  0  0
  -22.7225  -10.2139   20.3017 C   0  0  0  0  0  0
  -21.6877   -6.0724   22.5280 C   0  0  0  0  0  0
  -21.4019   -6.5623   23.8214 C   0  0  0  0  0  0
  -21.3677   -5.6770   24.9192 C   0  0  0  0  0  0
  -21.6033   -4.3017   24.7232 C   0  0  0  0  0  0
  -21.8816   -3.8129   23.4350 C   0  0  0  0  0  0
  -21.9189   -4.6953   22.3414 C   0  0  0  0  0  0
  -22.7795  -13.5265   21.1893 C   0  0  0  0  0  0
  -22.1634   -4.2155   21.0992 F   0  0  0  0  0  0
  -21.5665   -3.4474   25.7711 F   0  0  0  0  0  0
  -29.9452  -13.6882   20.4206 N   0  0  0  0  0  0
  -26.2872  -12.9445   20.3212 N   0  0  0  0  0  0
  -25.9294  -11.6571   20.5662 N   0  0  0  0  0  0
  -22.0354  -12.8323   22.0441 N   0  0  0  0  0  0
  -25.4253  -15.1944   20.4224 N   0  0  0  0  0  0
  -31.6810  -15.0360   20.0420 O   0  0  0  0  0  0
  -21.6653   -6.8854   21.4223 O   0  0  0  0  0  0
  -22.3491  -14.5532   20.6641 O   0  0  0  0  0  0
  -24.6469  -31.8391   23.1830 C   0  0  0  0  0  0
  -25.9228  -32.4669   23.8236 C   0  0  1  0  0  0
  -27.2110  -27.0926   20.2115 C   0  0  0  0  0  0
  -25.5943  -33.8468   24.2177 N   0  0  0  0  0  0
  -23.4523  -30.4537   21.5267 C   0  0  2  0  0  0
  -24.9062  -28.8685   20.1176 C   0  0  0  0  0  0
  -22.7584  -29.4526   22.4832 C   0  0  0  0  0  0
  -18.0300  -28.1412   22.8484 C   0  0  0  0  0  0
  -24.1495  -36.7236   23.2646 C   0  0  0  0  0  0
  -26.0051  -30.7080   21.3832 C   0  0  0  0  0  0
  -26.0788  -29.3080   20.7443 C   0  0  0  0  0  0
  -27.2365  -28.4381   20.7692 C   0  0  0  0  0  0
  -26.0129  -26.7516   19.5543 C   0  0  0  0  0  0
  -24.8876  -27.6046   19.5013 C   0  0  0  0  0  0
  -23.6836  -29.7732   20.1479 C   0  0  0  0  0  0
  -25.4111  -36.3017   24.0338 C   0  0  1  0  0  0
  -20.5918  -28.3729   23.1230 C   0  0  2  0  0  0
  -20.6807  -26.9437   22.5405 C   0  0  0  0  0  0
  -19.5792  -26.6402   21.5206 C   0  0  0  0  0  0
  -18.1959  -26.7949   22.1610 C   0  0  0  0  0  0
  -19.1551  -28.8878   23.2853 C   0  0  0  0  0  0
  -18.9467  -30.1476   23.8879 C   0  0  0  0  0  0
  -17.6466  -30.6607   24.0544 C   0  0  0  0  0  0
  -25.9062  -34.9392   23.5056 C   0  0  0  0  0  0
  -16.5354  -29.9095   23.6341 C   0  0  0  0  0  0
  -16.7289  -28.6510   23.0368 C   0  0  0  0  0  0
  -26.4560  -31.6527   25.0678 C   0  0  0  0  0  0
  -25.3747  -31.3666   26.1369 C   0  0  0  0  0  0
  -27.0444  -30.2947   24.6229 C   0  0  0  0  0  0
  -27.6120  -32.4270   25.7444 C   0  0  0  0  0  0
  -27.5578  -37.1765   24.8461 C   0  0  0  0  0  0
  -21.4272  -29.3045   22.3602 N   0  0  0  0  0  0
  -26.4278  -37.3732   23.9429 N   0  0  0  0  0  0
  -24.7233  -31.0216   22.0877 N   0  0  0  0  0  0
  -23.4223  -28.8123   23.3040 O   0  0  0  0  0  0
  -28.2706  -26.1107   20.2342 O   0  0  0  0  0  0
  -26.5642  -34.8893   22.4649 O   0  0  0  0  0  0
  -23.5586  -32.1276   23.7010 O   0  0  0  0  0  0
  -28.8560  -19.1016   22.2121 C   0  0  0  0  0  0
  -29.1383  -20.3577   20.1701 C   0  0  0  0  0  0
  -28.3437  -21.5383   22.1338 C   0  0  0  0  0  0
  -29.2685  -19.0354   20.8632 C   0  0  0  0  0  0
  -28.4334  -20.3037   22.8329 C   0  0  0  0  0  0
  -28.6771  -21.6555   20.7636 C   0  0  0  0  0  0
  -27.8055  -22.8210   17.6064 C   0  0  0  0  0  0
  -29.8524  -17.6036   20.3820 C   0  0  0  0  0  0
  -29.7224  -16.2580   20.8444 C   0  0  0  0  0  0
  -27.5001  -23.0209   18.8984 C   0  0  0  0  0  0
  -28.0900  -20.2722   24.3129 C   0  0  0  0  0  0
  -28.1351  -24.6396   20.7774 C   0  0  0  0  0  0
  -28.5048  -23.1501   20.0262 C   0  0  1  0  0  0
  -31.4834  -12.7368   19.2284 H   0  0  0  0  0  0
  -30.4243  -11.6266   20.0414 H   0  0  0  0  0  0
  -29.8739  -11.7581   17.5971 H   0  0  0  0  0  0
  -29.6390  -13.4824   17.7152 H   0  0  0  0  0  0
  -27.9562  -11.2884   18.9670 H   0  0  0  0  0  0
  -27.4156  -12.4720   17.8011 H   0  0  0  0  0  0
  -27.6048  -14.2641   19.4302 H   0  0  0  0  0  0
  -28.7419  -12.2552   21.4233 H   0  0  0  0  0  0
  -28.3513  -13.9121   21.8047 H   0  0  0  0  0  0
  -25.2698   -9.5745   22.4748 H   0  0  0  0  0  0
  -23.9996   -7.4669   22.7450 H   0  0  0  0  0  0
  -21.0828   -8.8786   19.8971 H   0  0  0  0  0  0
  -22.3628  -10.9688   19.6166 H   0  0  0  0  0  0
  -21.1984   -7.6120   23.9738 H   0  0  0  0  0  0
  -21.1515   -6.0483   25.9108 H   0  0  0  0  0  0
  -22.0582   -2.7589   23.2845 H   0  0  0  0  0  0
  -22.3895  -12.0041   22.4995 H   0  0  0  0  0  0
  -21.0942  -13.1405   22.2443 H   0  0  0  0  0  0
  -24.6750  -15.8595   20.5557 H   0  0  0  0  0  0
  -26.3014  -15.6264   20.1490 H   0  0  0  0  0  0
  -26.7303  -32.5296   23.0962 H   0  0  0  0  0  0
  -25.0047  -33.9561   25.0299 H   0  0  0  0  0  0
  -22.7589  -31.2787   21.3609 H   0  0  0  0  0  0
  -23.3776  -35.9544   23.3252 H   0  0  0  0  0  0
  -24.3591  -36.8927   22.2073 H   0  0  0  0  0  0
  -23.7221  -37.6419   23.6691 H   0  0  0  0  0  0
  -26.1417  -31.4509   20.5936 H   0  0  0  0  0  0
  -26.8855  -30.7746   22.0125 H   0  0  0  0  0  0
  -28.1315  -28.7672   21.2829 H   0  0  0  0  0  0
  -25.9378  -25.7745   19.0953 H   0  0  0  0  0  0
  -23.9984  -27.2642   18.9920 H   0  0  0  0  0  0
  -23.8125  -30.5370   19.3787 H   0  0  0  0  0  0
  -22.8022  -29.2040   19.8516 H   0  0  0  0  0  0
  -25.1305  -36.1833   25.0833 H   0  0  0  0  0  0
  -20.9998  -28.3314   24.1353 H   0  0  0  0  0  0
  -20.5697  -26.2343   23.3624 H   0  0  0  0  0  0
  -21.6677  -26.7478   22.1193 H   0  0  0  0  0  0
  -19.6964  -25.6305   21.1250 H   0  0  0  0  0  0
  -19.6734  -27.3197   20.6720 H   0  0  0  0  0  0
  -17.4254  -26.6696   21.3997 H   0  0  0  0  0  0
  -18.0346  -26.0076   22.8988 H   0  0  0  0  0  0
  -19.7934  -30.7281   24.2278 H   0  0  0  0  0  0
  -17.5009  -31.6288   24.5157 H   0  0  0  0  0  0
  -15.5348  -30.2980   23.7669 H   0  0  0  0  0  0
  -15.8694  -28.0803   22.7118 H   0  0  0  0  0  0
  -24.5935  -30.7023   25.7653 H   0  0  0  0  0  0
  -24.8890  -32.2806   26.4787 H   0  0  0  0  0  0
  -25.8023  -30.8827   27.0154 H   0  0  0  0  0  0
  -26.3053  -29.6627   24.1291 H   0  0  0  0  0  0
  -27.4166  -29.7279   25.4767 H   0  0  0  0  0  0
  -27.8895  -30.4219   23.9459 H   0  0  0  0  0  0
  -27.2781  -33.3586   26.1994 H   0  0  0  0  0  0
  -28.3931  -32.6801   25.0273 H   0  0  0  0  0  0
  -28.0777  -31.8394   26.5360 H   0  0  0  0  0  0
  -28.2584  -38.0087   24.7563 H   0  0  0  0  0  0
  -28.1098  -36.2617   24.6212 H   0  0  0  0  0  0
  -27.2305  -37.1350   25.8873 H   0  0  0  0  0  0
  -20.9493  -29.8680   21.6700 H   0  0  0  0  0  0
  -26.0146  -38.2806   24.1442 H   0  0  0  0  0  0
  -28.9219  -18.2017   22.8085 H   0  0  0  0  0  0
  -29.4201  -20.3907   19.1281 H   0  0  0  0  0  0
  -28.0130  -22.4130   22.6744 H   0  0  0  0  0  0
  -27.0269  -22.7584   16.8574 H   0  0  0  0  0  0
  -28.8319  -22.7203   17.2785 H   0  0  0  0  0  0
  -30.5586  -17.7117   19.5677 H   0  0  0  0  0  0
  -29.0072  -16.1122   21.6424 H   0  0  0  0  0  0
  -26.4600  -23.1189   19.1832 H   0  0  0  0  0  0
  -27.8455  -19.2598   24.6374 H   0  0  0  0  0  0
  -27.2301  -20.9033   24.5323 H   0  0  0  0  0  0
  -28.9356  -20.6247   24.9027 H   0  0  0  0  0  0
  -28.7846  -24.6620   21.6539 H   0  0  0  0  0  0
  -27.1355  -24.5552   21.2086 H   0  0  0  0  0  0
  -29.4802  -23.2977   19.5675 H   0  0  0  0  0  0
  1 25  1  0  0  0
  1 30  2  0  0  0
  1 79  1  0  0  0
  2  3  1  0  0  0
  2 25  1  0  0  0
  2 84  1  0  0  0
  2 85  1  0  0  0
  3  4  1  0  0  0
  3 86  1  0  0  0
  3 87  1  0  0  0
  4  5  1  0  0  0
  4 88  1  0  0  0
  4 89  1  0  0  0
  5  6  1  0  0  0
  5 26  1  0  0  0
  5 90  1  0  0  0
  6 25  1  0  0  0
  6 91  1  0  0  0
  6 92  1  0  0  0
  7  8  2  0  0  0
  7 26  1  0  0  0
  7 29  1  0  0  0
  8  9  1  0  0  0
  8 22  1  0  0  0
  9 10  1  0  0  0
  9 27  2  0  0  0
 10 11  2  0  0  0
 10 15  1  0  0  0
 11 12  1  0  0  0
 11 93  1  0  0  0
 12 13  2  0  0  0
 12 94  1  0  0  0
 13 14  1  0  0  0
 13 31  1  0  0  0
 14 15  2  0  0  0
 14 95  1  0  0  0
 15 96  1  0  0  0
 16 17  2  0  0  0
 16 21  1  0  0  0
 16 31  1  0  0  0
 17 18  1  0  0  0
 17 97  1  0  0  0
 18 19  2  0  0  0
 18 98  1  0  0  0
 19 20  1  0  0  0
 19 24  1  0  0  0
 20 21  2  0  0  0
 20 99  1  0  0  0
 21 23  1  0  0  0
 22 28  1  0  0  0
 22 32  2  0  0  0
 26 27  1  0  0  0
 28100  1  0  0  0
 28101  1  0  0  0
 29102  1  0  0  0
 29103  1  0  0  0
 33 34  1  0  0  0
 33 66  1  0  0  0
 33 70  2  0  0  0
 34 36  1  0  0  0
 34 59  1  0  0  0
 34104  1  0  0  0
 35 44  2  0  0  0
 35 45  1  0  0  0
 35 68  1  0  0  0
 36 56  1  0  0  0
 36105  1  0  0  0
 37 39  1  0  0  0
 37 47  1  0  0  0
 37 66  1  0  0  0
 37106  1  0  0  0
 38 43  2  0  0  0
 38 46  1  0  0  0
 38 47  1  0  0  0
 39 64  1  0  0  0
 39 67  2  0  0  0
 40 52  1  0  0  0
 40 53  2  0  0  0
 40 58  1  0  0  0
 41107  1  0  0  0
 41108  1  0  0  0
 41109  1  0  0  0
 41 48  1  0  0  0
 42 43  1  0  0  0
 42 66  1  0  0  0
 42110  1  0  0  0
 42111  1  0  0  0
 43 44  1  0  0  0
 44112  1  0  0  0
 45 46  2  0  0  0
 45113  1  0  0  0
 46114  1  0  0  0
 47115  1  0  0  0
 47116  1  0  0  0
 48 56  1  0  0  0
 48 65  1  0  0  0
 48117  1  0  0  0
 49 50  1  0  0  0
 49 53  1  0  0  0
 49 64  1  0  0  0
 49118  1  0  0  0
 50 51  1  0  0  0
 50119  1  0  0  0
 50120  1  0  0  0
 51 52  1  0  0  0
 51121  1  0  0  0
 51122  1  0  0  0
 52123  1  0  0  0
 52124  1  0  0  0
 53 54  1  0  0  0
 54 55  2  0  0  0
 54125  1  0  0  0
 55 57  1  0  0  0
 55126  1  0  0  0
 56 69  2  0  0  0
 57 58  2  0  0  0
 57127  1  0  0  0
 58128  1  0  0  0
 59 60  1  0  0  0
 59 61  1  0  0  0
 59 62  1  0  0  0
 60129  1  0  0  0
 60130  1  0  0  0
 60131  1  0  0  0
 61132  1  0  0  0
 61133  1  0  0  0
 61134  1  0  0  0
 62135  1  0  0  0
 62136  1  0  0  0
 62137  1  0  0  0
 63 65  1  0  0  0
 63138  1  0  0  0
 63139  1  0  0  0
 63140  1  0  0  0
 64141  1  0  0  0
 65142  1  0  0  0
 68 82  1  0  0  0
 71 74  2  0  0  0
 71 75  1  0  0  0
 71143  1  0  0  0
 72 74  1  0  0  0
 72 76  2  0  0  0
 72144  1  0  0  0
 73 75  2  0  0  0
 73 76  1  0  0  0
 73145  1  0  0  0
 74 78  1  0  0  0
 75 81  1  0  0  0
 76 83  1  0  0  0
 77 80  2  0  0  0
 77146  1  0  0  0
 77147  1  0  0  0
 78 79  2  0  0  0
 78148  1  0  0  0
 79149  1  0  0  0
 80 83  1  0  0  0
 80150  1  0  0  0
 81151  1  0  0  0
 81152  1  0  0  0
 81153  1  0  0  0
 82154  1  0  0  0
 82155  1  0  0  0
 82 83  1  0  0  0
 83156  1  0  0  0
M  ISO  4   1 100  68 101  79 100  82 101
M  END
> <chiral flag>
0

> <version>
0

> <s_m_source_file>
/data/baiqing/PycharmProjects/Reinvent-master-3.2/result/LINK_invent/BTK/process_docking_weight1_custom_product_contain_oxygen_bond_distance_aromatic_linkinvent_7_9_3/rearranged_h_0130.sdf

> <i_m_source_file_index>
57

> <r_mmod_Potential_Energy-OPLS-2005>
608.544677734375

> <r_mmod_Stretch_Energy-OPLS-2005>
293.425354003906

> <r_mmod_Bend_Energy-OPLS-2005>
264.437713623047

> <r_mmod_Torsional_Energy-OPLS-2005>
215.330322265625

> <r_mmod_Improper_Torsional_Energy-OPLS-2005>
3.10194683074951

> <r_mmod_Van_der_Waal_Energy-OPLS-2005>
120.389106750488

> <r_mmod_Electrostatic_Energy-OPLS-2005>
-311.818695068359

> <r_mmod_Solvation_Energy-OPLS-2005>
-190.624755859375

> <b_mmod_Minimization_Converged-OPLS-2005>
0

> <r_mmod_RMS_Derivative-OPLS-2005>
5.83139181137085

$$$$
57
                    3D
 Structure written by MMmdl.
160168  0  0  1  0            999 V2000
  -29.4070  -16.0375   20.2594 C   0  0  0  0  0  0
  -30.2412  -13.4588   19.5898 C   0  0  0  0  0  0
  -29.5264  -12.7778   18.3722 C   0  0  0  0  0  0
  -28.1312  -12.2729   18.7749 C   0  0  0  0  0  0
  -27.4826  -13.2736   19.7531 C   0  0  2  0  0  0
  -28.3595  -13.6952   20.9205 C   0  0  0  0  0  0
  -25.1853  -13.8085   20.5681 C   0  0  0  0  0  0
  -24.1343  -13.0252   20.9281 C   0  0  0  0  0  0
  -24.6098  -11.6788   20.8703 C   0  0  0  0  0  0
  -23.8931  -10.4189   21.0463 C   0  0  0  0  0  0
  -24.3585   -9.4136   21.9208 C   0  0  0  0  0  0
  -23.6280   -8.2158   22.0749 C   0  0  0  0  0  0
  -22.4244   -8.0213   21.3549 C   0  0  0  0  0  0
  -21.9879   -9.0169   20.4652 C   0  0  0  0  0  0
  -22.7168  -10.2041   20.3071 C   0  0  0  0  0  0
  -21.6846   -6.0730   22.5284 C   0  0  0  0  0  0
  -21.4009   -6.5647   23.8218 C   0  0  0  0  0  0
  -21.3632   -5.6798   24.9183 C   0  0  0  0  0  0
  -21.6041   -4.3060   24.7233 C   0  0  0  0  0  0
  -21.8807   -3.8149   23.4350 C   0  0  0  0  0  0
  -21.9192   -4.6967   22.3413 C   0  0  0  0  0  0
  -22.7425  -13.5007   21.1961 C   0  0  0  0  0  0
  -22.1653   -4.2173   21.0988 F   0  0  0  0  0  0
  -21.5616   -3.4526   25.7739 F   0  0  0  0  0  0
  -29.3451  -14.5422   20.2704 N   0  0  0  0  0  0
  -26.2000  -12.9246   20.2653 N   0  0  0  0  0  0
  -25.8918  -11.6404   20.5386 N   0  0  0  0  0  0
  -22.0181  -12.8069   22.0625 N   0  0  0  0  0  0
  -25.3462  -15.1867   20.4294 N   0  0  0  0  0  0
  -30.6638  -16.1326   20.1350 O   0  0  0  0  0  0
  -21.6569   -6.8846   21.4241 O   0  0  0  0  0  0
  -22.3199  -14.5349   20.6832 O   0  0  0  0  0  0
  -24.7647  -31.8038   22.7159 C   0  0  0  0  0  0
  -25.9998  -32.4082   23.6095 C   0  0  1  0  0  0
  -26.2766  -28.2675   21.6274 C   0  0  0  0  0  0
  -25.6306  -33.7799   24.0586 N   0  0  0  0  0  0
  -24.1245  -29.4860   20.7721 C   0  0  2  0  0  0
  -25.4707  -29.0592   19.3444 C   0  0  0  0  0  0
  -23.6616  -27.5743   22.2149 C   0  0  0  0  0  0
  -18.1446  -28.1817   22.8175 C   0  0  0  0  0  0
  -24.1545  -36.6893   23.2745 C   0  0  0  0  0  0
  -26.0525  -31.1530   20.7224 C   0  0  0  0  0  0
  -26.4415  -29.8055   20.1282 C   0  0  0  0  0  0
  -27.2268  -29.0637   21.0083 C   0  0  0  0  0  0
  -26.0005  -27.2331   20.6036 C   0  0  0  0  0  0
  -25.4499  -27.6713   19.3871 C   0  0  0  0  0  0
  -24.1281  -29.5724   19.2925 C   0  0  0  0  0  0
  -25.4342  -36.2568   24.0134 C   0  0  1  0  0  0
  -20.7751  -27.6889   23.2719 C   0  0  2  0  0  0
  -20.3778  -26.3040   22.8512 C   0  0  0  0  0  0
  -19.3030  -26.1787   21.8145 C   0  0  0  0  0  0
  -17.9853  -26.8447   22.1224 C   0  0  0  0  0  0
  -19.4473  -28.7136   23.2033 C   0  0  0  0  0  0
  -19.2812  -29.9817   23.8841 C   0  0  0  0  0  0
  -18.0039  -30.6194   24.0803 C   0  0  0  0  0  0
  -25.9479  -34.9233   23.4324 C   0  0  0  0  0  0
  -16.7924  -30.0484   23.6412 C   0  0  0  0  0  0
  -16.8790  -28.7975   23.0240 C   0  0  0  0  0  0
  -26.4393  -31.6659   24.9906 C   0  0  0  0  0  0
  -25.3237  -31.4490   26.0521 C   0  0  0  0  0  0
  -27.1018  -30.2988   24.7238 C   0  0  0  0  0  0
  -27.5365  -32.4775   25.7585 C   0  0  0  0  0  0
  -27.5531  -37.1651   24.8470 C   0  0  0  0  0  0
  -22.3676  -27.4559   23.0332 N   0  0  0  0  0  0
  -26.4197  -37.3537   23.9522 N   0  0  0  0  0  0
  -24.7774  -31.0393   21.4228 N   0  0  0  0  0  0
  -24.2292  -27.2482   23.2388 O   0  0  0  0  0  0
  -25.2687  -29.1356   22.5923 O   0  0  0  0  0  0
  -26.6019  -34.9268   22.3883 O   0  0  0  0  0  0
  -23.7167  -32.1510   23.2954 O   0  0  0  0  0  0
  -25.7068  -22.0362   20.2406 C   0  0  0  0  0  0
  -23.5164  -20.7993   20.8711 C   0  0  0  0  0  0
  -26.0427  -20.3649   20.3874 C   0  0  0  0  0  0
  -24.3975  -23.1210   20.3702 C   0  0  0  0  0  0
  -24.7148  -19.9760   20.8254 C   0  0  0  0  0  0
  -23.3307  -22.1877   20.5285 C   0  0  0  0  0  0
  -27.4178  -18.8990   20.2945 C   0  0  0  0  0  0
  -28.1169  -17.4022   20.2557 C   0  0  0  0  0  0
  -21.8015  -28.6084   20.8810 C   0  0  0  0  0  0
  -24.4116  -18.5365   21.1885 C   0  0  0  0  0  0
  -21.9441  -22.5959   20.0215 C   0  0  0  0  0  0
  -23.8025  -25.0552   20.4436 C   0  0  0  0  0  0
  -22.4350  -26.7229   20.1615 C   0  0  0  0  0  0
  -22.9022  -29.7431   22.6014 C   0  0  0  0  0  0
  -20.8649  -29.1191   20.2812 O   0  0  0  0  0  0
  -31.1534  -13.9257   19.2080 H   0  0  0  0  0  0
  -30.5964  -12.7114   20.3105 H   0  0  0  0  0  0
  -30.1339  -11.9767   17.9579 H   0  0  0  0  0  0
  -29.4264  -13.5302   17.5890 H   0  0  0  0  0  0
  -28.2427  -11.3027   19.2640 H   0  0  0  0  0  0
  -27.5128  -12.1143   17.8880 H   0  0  0  0  0  0
  -27.2959  -14.1481   19.1255 H   0  0  0  0  0  0
  -28.7635  -12.8622   21.5029 H   0  0  0  0  0  0
  -27.8057  -14.3132   21.6250 H   0  0  0  0  0  0
  -25.2757   -9.5586   22.4767 H   0  0  0  0  0  0
  -23.9994   -7.4519   22.7476 H   0  0  0  0  0  0
  -21.0794   -8.8703   19.8963 H   0  0  0  0  0  0
  -22.3675  -10.9591   19.6166 H   0  0  0  0  0  0
  -21.2012   -7.6156   23.9743 H   0  0  0  0  0  0
  -21.1459   -6.0523   25.9097 H   0  0  0  0  0  0
  -22.0626   -2.7619   23.2831 H   0  0  0  0  0  0
  -22.3869  -11.9745   22.4955 H   0  0  0  0  0  0
  -21.0802  -13.1062   22.2820 H   0  0  0  0  0  0
  -24.5655  -15.8100   20.6127 H   0  0  0  0  0  0
  -26.1905  -15.6721   20.1503 H   0  0  0  0  0  0
  -26.9266  -32.5005   23.0433 H   0  0  0  0  0  0
  -25.0661  -33.8446   24.8907 H   0  0  0  0  0  0
  -23.3685  -30.2622   20.5558 H   0  0  0  0  0  0
  -23.3932  -35.9054   23.3142 H   0  0  0  0  0  0
  -24.3588  -36.8874   22.2202 H   0  0  0  0  0  0
  -23.7192  -37.5917   23.7079 H   0  0  0  0  0  0
  -25.9897  -31.8779   19.9192 H   0  0  0  0  0  0
  -26.8941  -31.4962   21.3239 H   0  0  0  0  0  0
  -27.7784  -29.6382   21.7246 H   0  0  0  0  0  0
  -25.8751  -26.2154   20.9167 H   0  0  0  0  0  0
  -24.8299  -27.0872   18.7182 H   0  0  0  0  0  0
  -24.1859  -30.5579   18.7969 H   0  0  0  0  0  0
  -23.3124  -29.0446   18.7807 H   0  0  0  0  0  0
  -25.1656  -36.0897   25.0561 H   0  0  0  0  0  0
  -20.8356  -27.7511   24.3622 H   0  0  0  0  0  0
  -20.1478  -25.7486   23.7637 H   0  0  0  0  0  0
  -21.1763  -25.6996   22.3970 H   0  0  0  0  0  0
  -19.0950  -25.1019   21.7974 H   0  0  0  0  0  0
  -19.6528  -26.4887   20.8483 H   0  0  0  0  0  0
  -17.4598  -27.0095   21.1718 H   0  0  0  0  0  0
  -17.3302  -26.2117   22.7172 H   0  0  0  0  0  0
  -20.1597  -30.4617   24.3139 H   0  0  0  0  0  0
  -17.9774  -31.5660   24.6200 H   0  0  0  0  0  0
  -15.8518  -30.5808   23.7586 H   0  0  0  0  0  0
  -15.9582  -28.2969   22.7379 H   0  0  0  0  0  0
  -25.3541  -30.4453   26.4724 H   0  0  0  0  0  0
  -24.3308  -31.6488   25.6602 H   0  0  0  0  0  0
  -25.4326  -32.1379   26.9047 H   0  0  0  0  0  0
  -26.3791  -29.4939   24.6135 H   0  0  0  0  0  0
  -27.6935  -29.9973   25.5879 H   0  0  0  0  0  0
  -27.7799  -30.3158   23.8763 H   0  0  0  0  0  0
  -27.1940  -33.4424   26.1282 H   0  0  0  0  0  0
  -28.4297  -32.6717   25.1672 H   0  0  0  0  0  0
  -27.8568  -31.9451   26.6519 H   0  0  0  0  0  0
  -28.2365  -38.0084   24.7570 H   0  0  0  0  0  0
  -28.1166  -36.2598   24.6167 H   0  0  0  0  0  0
  -27.2270  -37.1121   25.8858 H   0  0  0  0  0  0
  -22.6498  -26.9112   23.8374 H   0  0  0  0  0  0
  -25.9824  -38.2394   24.1875 H   0  0  0  0  0  0
  -26.6026  -22.5647   19.9753 H   0  0  0  0  0  0
  -22.6070  -20.2819   21.1829 H   0  0  0  0  0  0
  -26.5954  -18.3614   19.8400 H   0  0  0  0  0  0
  -28.9793  -18.0031   20.4518 H   0  0  0  0  0  0
  -23.7528  -18.4670   22.0644 H   0  0  0  0  0  0
  -25.2888  -17.9427   21.4161 H   0  0  0  0  0  0
  -23.9026  -18.0860   20.3245 H   0  0  0  0  0  0
  -21.5214  -21.7361   19.5020 H   0  0  0  0  0  0
  -22.0543  -23.3734   19.2668 H   0  0  0  0  0  0
  -21.1866  -22.9338   20.7242 H   0  0  0  0  0  0
  -23.0341  -24.6777   21.0971 H   0  0  0  0  0  0
  -23.8212  -24.9171   19.3789 H   0  0  0  0  0  0
  -22.7708  -27.0311   19.1703 H   0  0  0  0  0  0
  -21.4804  -26.2244   19.9698 H   0  0  0  0  0  0
  -22.5733  -29.5760   23.6315 H   0  0  0  0  0  0
  -22.4004  -30.7281   22.4672 H   0  0  0  0  0  0
  1 25  1  0  0  0
  1 30  2  0  0  0
  1 78  1  0  0  0
  2  3  1  0  0  0
  2 25  1  0  0  0
  2 86  1  0  0  0
  2 87  1  0  0  0
  3  4  1  0  0  0
  3 88  1  0  0  0
  3 89  1  0  0  0
  4  5  1  0  0  0
  4 90  1  0  0  0
  4 91  1  0  0  0
  5  6  1  0  0  0
  5 26  1  0  0  0
  5 92  1  0  0  0
  6 25  1  0  0  0
  6 93  1  0  0  0
  6 94  1  0  0  0
  7  8  2  0  0  0
  7 26  1  0  0  0
  7 29  1  0  0  0
  8  9  1  0  0  0
  8 22  1  0  0  0
  9 10  1  0  0  0
  9 27  2  0  0  0
 10 11  2  0  0  0
 10 15  1  0  0  0
 11 12  1  0  0  0
 11 95  1  0  0  0
 12 13  2  0  0  0
 12 96  1  0  0  0
 13 14  1  0  0  0
 13 31  1  0  0  0
 14 15  2  0  0  0
 14 97  1  0  0  0
 15 98  1  0  0  0
 16 17  2  0  0  0
 16 21  1  0  0  0
 16 31  1  0  0  0
 17 18  1  0  0  0
 17 99  1  0  0  0
 18 19  2  0  0  0
 18100  1  0  0  0
 19 20  1  0  0  0
 19 24  1  0  0  0
 20 21  2  0  0  0
 20101  1  0  0  0
 21 23  1  0  0  0
 22 28  1  0  0  0
 22 32  2  0  0  0
 26 27  1  0  0  0
 28102  1  0  0  0
 28103  1  0  0  0
 29104  1  0  0  0
 29105  1  0  0  0
 33 34  1  0  0  0
 33 66  1  0  0  0
 33 70  2  0  0  0
 34 36  1  0  0  0
 34 59  1  0  0  0
 34106  1  0  0  0
 35 44  2  0  0  0
 35 45  1  0  0  0
 35 68  1  0  0  0
 36 56  1  0  0  0
 36107  1  0  0  0
 37 39  1  0  0  0
 37 47  1  0  0  0
 37 66  1  0  0  0
 37108  1  0  0  0
 38 43  2  0  0  0
 38 46  1  0  0  0
 38 47  1  0  0  0
 39 64  1  0  0  0
 39 67  2  0  0  0
 40 52  1  0  0  0
 40 53  2  0  0  0
 40 58  1  0  0  0
 41109  1  0  0  0
 41110  1  0  0  0
 41111  1  0  0  0
 41 48  1  0  0  0
 42 43  1  0  0  0
 42 66  1  0  0  0
 42112  1  0  0  0
 42113  1  0  0  0
 43 44  1  0  0  0
 44114  1  0  0  0
 45 46  2  0  0  0
 45115  1  0  0  0
 46116  1  0  0  0
 47117  1  0  0  0
 47118  1  0  0  0
 48 56  1  0  0  0
 48 65  1  0  0  0
 48119  1  0  0  0
 49 50  1  0  0  0
 49 53  1  0  0  0
 49 64  1  0  0  0
 49120  1  0  0  0
 50 51  1  0  0  0
 50121  1  0  0  0
 50122  1  0  0  0
 51 52  1  0  0  0
 51123  1  0  0  0
 51124  1  0  0  0
 52125  1  0  0  0
 52126  1  0  0  0
 53 54  1  0  0  0
 54 55  2  0  0  0
 54127  1  0  0  0
 55 57  1  0  0  0
 55128  1  0  0  0
 56 69  2  0  0  0
 57 58  2  0  0  0
 57129  1  0  0  0
 58130  1  0  0  0
 59 60  1  0  0  0
 59 61  1  0  0  0
 59 62  1  0  0  0
 60131  1  0  0  0
 60132  1  0  0  0
 60133  1  0  0  0
 61134  1  0  0  0
 61135  1  0  0  0
 61136  1  0  0  0
 62137  1  0  0  0
 62138  1  0  0  0
 62139  1  0  0  0
 63 65  1  0  0  0
 63140  1  0  0  0
 63141  1  0  0  0
 63142  1  0  0  0
 64143  1  0  0  0
 65144  1  0  0  0
 68 84  1  0  0  0
 71 73  2  0  0  0
 71 74  1  0  0  0
 71145  1  0  0  0
 72 75  2  0  0  0
 72 76  1  0  0  0
 72146  1  0  0  0
 73 75  1  0  0  0
 73 77  1  0  0  0
 74 76  2  0  0  0
 74 82  1  0  0  0
 75 80  1  0  0  0
 76 81  1  0  0  0
 77 78  2  0  0  0
 77147  1  0  0  0
 78148  1  0  0  0
 79 83  1  0  0  0
 79 84  1  0  0  0
 79 85  2  0  0  0
 80149  1  0  0  0
 80150  1  0  0  0
 80151  1  0  0  0
 81152  1  0  0  0
 81153  1  0  0  0
 81154  1  0  0  0
 82 83  1  0  0  0
 82155  1  0  0  0
 82156  1  0  0  0
 83157  1  0  0  0
 83158  1  0  0  0
 84159  1  0  0  0
 84160  1  0  0  0
M  ISO  4   1 100  68 101  78 100  84 101
M  END
> <chiral flag>
0

> <version>
0

> <s_m_source_file>
/data/baiqing/PycharmProjects/Reinvent-master-3.2/result/LINK_invent/BTK/process_docking_weight1_custom_product_contain_oxygen_bond_distance_aromatic_linkinvent_7_9_3/rearranged_h_0130.sdf

> <i_m_source_file_index>
58

> <r_mmod_Potential_Energy-OPLS-2005>
17791.783203125

> <r_mmod_Stretch_Energy-OPLS-2005>
6775.51513671875

> <r_mmod_Bend_Energy-OPLS-2005>
2460.71411132812

> <r_mmod_Torsional_Energy-OPLS-2005>
685.002136230469

> <r_mmod_Improper_Torsional_Energy-OPLS-2005>
115.330505371094

> <r_mmod_Van_der_Waal_Energy-OPLS-2005>
2105.8701171875

> <r_mmod_Electrostatic_Energy-OPLS-2005>
-354.327209472656

> <r_mmod_Solvation_Energy-OPLS-2005>
-195.685852050781

> <b_mmod_Minimization_Converged-OPLS-2005>
0

> <r_mmod_RMS_Derivative-OPLS-2005>
36.6329460144043

$$$$
58
                    3D
 Structure written by MMmdl.
157165  0  0  1  0            999 V2000
  -30.7720  -14.4012   20.5734 C   0  0  0  0  0  0
  -30.3918  -12.2565   19.4533 C   0  0  0  0  0  0
  -29.4957  -12.5087   18.2246 C   0  0  0  0  0  0
  -28.0138  -12.3782   18.6209 C   0  0  0  0  0  0
  -27.6610  -13.2165   19.8777 C   0  0  2  0  0  0
  -28.6916  -13.0191   21.0097 C   0  0  0  0  0  0
  -25.2579  -13.8178   20.5655 C   0  0  0  0  0  0
  -24.1842  -13.0446   20.9108 C   0  0  0  0  0  0
  -24.6420  -11.6910   20.8723 C   0  0  0  0  0  0
  -23.9096  -10.4287   21.0397 C   0  0  0  0  0  0
  -24.3635   -9.4201   21.9179 C   0  0  0  0  0  0
  -23.6286   -8.2265   22.0793 C   0  0  0  0  0  0
  -22.4294   -8.0286   21.3555 C   0  0  0  0  0  0
  -21.9930   -9.0249   20.4648 C   0  0  0  0  0  0
  -22.7265  -10.2123   20.3047 C   0  0  0  0  0  0
  -21.6860   -6.0721   22.5264 C   0  0  0  0  0  0
  -21.4022   -6.5633   23.8190 C   0  0  0  0  0  0
  -21.3664   -5.6793   24.9157 C   0  0  0  0  0  0
  -21.6053   -4.3056   24.7220 C   0  0  0  0  0  0
  -21.8828   -3.8139   23.4348 C   0  0  0  0  0  0
  -21.9188   -4.6943   22.3392 C   0  0  0  0  0  0
  -22.7857  -13.5217   21.1730 C   0  0  0  0  0  0
  -22.1662   -4.2118   21.0977 F   0  0  0  0  0  0
  -21.5632   -3.4555   25.7740 F   0  0  0  0  0  0
  -30.0363  -13.2625   20.4671 N   0  0  0  0  0  0
  -26.3035  -12.9369   20.3361 N   0  0  0  0  0  0
  -25.9355  -11.6522   20.5770 N   0  0  0  0  0  0
  -22.0518  -12.8250   22.0315 N   0  0  0  0  0  0
  -25.4364  -15.1897   20.4111 N   0  0  0  0  0  0
  -31.9046  -14.4865   20.0897 O   0  0  0  0  0  0
  -21.6668   -6.8880   21.4237 O   0  0  0  0  0  0
  -22.3530  -14.5505   20.6540 O   0  0  0  0  0  0
  -24.6118  -31.8723   23.2143 C   0  0  0  0  0  0
  -25.9026  -32.4831   23.8443 C   0  0  1  0  0  0
  -27.2557  -27.4848   20.0857 C   0  0  0  0  0  0
  -25.5907  -33.8631   24.2377 N   0  0  0  0  0  0
  -23.3975  -30.4947   21.5539 C   0  0  2  0  0  0
  -24.8477  -28.9653   20.1156 C   0  0  0  0  0  0
  -22.7387  -29.4685   22.5030 C   0  0  0  0  0  0
  -18.0268  -28.1401   22.8520 C   0  0  0  0  0  0
  -24.1472  -36.7303   23.2646 C   0  0  0  0  0  0
  -25.9188  -30.8522   21.3587 C   0  0  0  0  0  0
  -25.9976  -29.4856   20.7169 C   0  0  0  0  0  0
  -27.1978  -28.7473   20.7088 C   0  0  0  0  0  0
  -26.0851  -26.9665   19.4782 C   0  0  0  0  0  0
  -24.8844  -27.7024   19.4977 C   0  0  0  0  0  0
  -23.6030  -29.8226   20.1681 C   0  0  0  0  0  0
  -25.4102  -36.3118   24.0338 C   0  0  1  0  0  0
  -20.5861  -28.3700   23.1343 C   0  0  2  0  0  0
  -20.6775  -26.9441   22.5442 C   0  0  0  0  0  0
  -19.5736  -26.6424   21.5253 C   0  0  0  0  0  0
  -18.1906  -26.7963   22.1635 C   0  0  0  0  0  0
  -19.1515  -28.8859   23.2933 C   0  0  0  0  0  0
  -18.9438  -30.1468   23.8949 C   0  0  0  0  0  0
  -17.6428  -30.6610   24.0571 C   0  0  0  0  0  0
  -25.9035  -34.9471   23.5153 C   0  0  0  0  0  0
  -16.5330  -29.9102   23.6314 C   0  0  0  0  0  0
  -16.7255  -28.6516   23.0358 C   0  0  0  0  0  0
  -26.4458  -31.6566   25.0737 C   0  0  0  0  0  0
  -25.3726  -31.3645   26.1486 C   0  0  0  0  0  0
  -27.0278  -30.3023   24.6048 C   0  0  0  0  0  0
  -27.6085  -32.4214   25.7489 C   0  0  0  0  0  0
  -27.5566  -37.1786   24.8465 C   0  0  0  0  0  0
  -21.4130  -29.3066   22.3754 N   0  0  0  0  0  0
  -26.4290  -37.3794   23.9412 N   0  0  0  0  0  0
  -24.6606  -31.0867   22.1019 N   0  0  0  0  0  0
  -23.4185  -28.8214   23.3037 O   0  0  0  0  0  0
  -28.4794  -26.8582   20.0932 O   0  0  0  0  0  0
  -26.5573  -34.8916   22.4702 O   0  0  0  0  0  0
  -23.5321  -32.1458   23.7562 O   0  0  0  0  0  0
  -29.6681  -18.5438   22.0568 C   0  0  0  0  0  0
  -29.4603  -19.9135   22.3322 C   0  0  0  0  0  0
  -29.8235  -20.4321   19.9867 C   0  0  0  0  0  0
  -30.0068  -18.1216   20.7531 C   0  0  0  0  0  0
  -29.5696  -20.8735   21.3039 C   0  0  0  0  0  0
  -30.0325  -19.0732   19.7040 C   0  0  0  0  0  0
  -30.3761  -16.7327   20.4520 C   0  0  0  0  0  0
  -30.1249  -15.5860   21.1193 C   0  0  0  0  0  0
  -29.4982  -24.7522   20.6493 C   0  0  0  0  0  0
  -30.2956  -18.6734   18.2570 C   0  0  0  0  0  0
  -29.4278  -22.3603   21.6242 C   0  0  0  0  0  0
  -29.6471  -23.2637   20.3921 C   0  0  0  0  0  0
  -28.6038  -25.5094   19.6671 C   0  0  0  0  0  0
  -30.0922  -25.3097   21.5799 O   0  0  0  0  0  0
  -31.4468  -12.2809   19.1762 H   0  0  0  0  0  0
  -30.2199  -11.2574   19.8565 H   0  0  0  0  0  0
  -29.7363  -11.8139   17.4191 H   0  0  0  0  0  0
  -29.6821  -13.5083   17.8304 H   0  0  0  0  0  0
  -27.8133  -11.3224   18.8058 H   0  0  0  0  0  0
  -27.3745  -12.6679   17.7883 H   0  0  0  0  0  0
  -27.7059  -14.2646   19.5765 H   0  0  0  0  0  0
  -28.6393  -12.0024   21.4018 H   0  0  0  0  0  0
  -28.4573  -13.6673   21.8516 H   0  0  0  0  0  0
  -25.2792   -9.5655   22.4737 H   0  0  0  0  0  0
  -23.9948   -7.4696   22.7587 H   0  0  0  0  0  0
  -21.0863   -8.8783   19.8957 H   0  0  0  0  0  0
  -22.3742  -10.9661   19.6165 H   0  0  0  0  0  0
  -21.2039   -7.6144   23.9658 H   0  0  0  0  0  0
  -21.1479   -6.0553   25.9047 H   0  0  0  0  0  0
  -22.0602   -2.7595   23.2874 H   0  0  0  0  0  0
  -22.4166  -11.9927   22.4683 H   0  0  0  0  0  0
  -21.1143  -13.1271   22.2518 H   0  0  0  0  0  0
  -24.6872  -15.8618   20.5305 H   0  0  0  0  0  0
  -26.3086  -15.6167   20.1256 H   0  0  0  0  0  0
  -26.7123  -32.5581   23.1249 H   0  0  0  0  0  0
  -25.0053  -33.9798   25.0522 H   0  0  0  0  0  0
  -22.6846  -31.3101   21.4151 H   0  0  0  0  0  0
  -23.3755  -35.9612   23.3268 H   0  0  0  0  0  0
  -24.3553  -36.8959   22.2066 H   0  0  0  0  0  0
  -23.7174  -37.6472   23.6692 H   0  0  0  0  0  0
  -26.0120  -31.6115   20.5814 H   0  0  0  0  0  0
  -26.8140  -30.9226   21.9628 H   0  0  0  0  0  0
  -28.0863  -29.1520   21.1751 H   0  0  0  0  0  0
  -26.0753  -26.0182   18.9631 H   0  0  0  0  0  0
  -24.0018  -27.3013   19.0193 H   0  0  0  0  0  0
  -23.6973  -30.5944   19.4038 H   0  0  0  0  0  0
  -22.7316  -29.2312   19.8835 H   0  0  0  0  0  0
  -25.1267  -36.1994   25.0822 H   0  0  0  0  0  0
  -20.9969  -28.3292   24.1452 H   0  0  0  0  0  0
  -20.5748  -26.2309   23.3641 H   0  0  0  0  0  0
  -21.6636  -26.7526   22.1184 H   0  0  0  0  0  0
  -19.6899  -25.6349   21.1246 H   0  0  0  0  0  0
  -19.6661  -27.3273   20.6814 H   0  0  0  0  0  0
  -17.4205  -26.6782   21.3994 H   0  0  0  0  0  0
  -18.0229  -26.0089   22.8998 H   0  0  0  0  0  0
  -19.7901  -30.7281   24.2369 H   0  0  0  0  0  0
  -17.4971  -31.6298   24.5163 H   0  0  0  0  0  0
  -15.5332  -30.3009   23.7621 H   0  0  0  0  0  0
  -15.8665  -28.0846   22.7052 H   0  0  0  0  0  0
  -24.5884  -30.7024   25.7787 H   0  0  0  0  0  0
  -24.8950  -32.2801   26.4988 H   0  0  0  0  0  0
  -25.8070  -30.8748   27.0213 H   0  0  0  0  0  0
  -26.2807  -29.6755   24.1174 H   0  0  0  0  0  0
  -27.4154  -29.7256   25.4453 H   0  0  0  0  0  0
  -27.8583  -30.4347   23.9111 H   0  0  0  0  0  0
  -27.2803  -33.3541   26.2078 H   0  0  0  0  0  0
  -28.3919  -32.6679   25.0311 H   0  0  0  0  0  0
  -28.0722  -31.8287   26.5386 H   0  0  0  0  0  0
  -28.2604  -38.0070   24.7538 H   0  0  0  0  0  0
  -28.1034  -36.2593   24.6280 H   0  0  0  0  0  0
  -27.2255  -37.1430   25.8861 H   0  0  0  0  0  0
  -20.9316  -29.8769   21.6942 H   0  0  0  0  0  0
  -26.0173  -38.2870   24.1428 H   0  0  0  0  0  0
  -29.6164  -17.8294   22.8637 H   0  0  0  0  0  0
  -29.2484  -20.2247   23.3454 H   0  0  0  0  0  0
  -29.8868  -21.1241   19.1622 H   0  0  0  0  0  0
  -30.9918  -16.6459   19.5672 H   0  0  0  0  0  0
  -29.5159  -15.5599   22.0095 H   0  0  0  0  0  0
  -30.0801  -19.4903   17.5665 H   0  0  0  0  0  0
  -29.6564  -17.8369   17.9713 H   0  0  0  0  0  0
  -31.3364  -18.3809   18.1101 H   0  0  0  0  0  0
  -30.1507  -22.6137   22.4030 H   0  0  0  0  0  0
  -28.4410  -22.5340   22.0566 H   0  0  0  0  0  0
  -30.6434  -23.0987   19.9773 H   0  0  0  0  0  0
  -28.9255  -23.0014   19.6179 H   0  0  0  0  0  0
  -27.6610  -24.9728   19.6123 H   0  0  0  0  0  0
  -29.0618  -25.4882   18.6784 H   0  0  0  0  0  0
  1 25  1  0  0  0
  1 30  2  0  0  0
  1 78  1  0  0  0
  2  3  1  0  0  0
  2 25  1  0  0  0
  2 85  1  0  0  0
  2 86  1  0  0  0
  3  4  1  0  0  0
  3 87  1  0  0  0
  3 88  1  0  0  0
  4  5  1  0  0  0
  4 89  1  0  0  0
  4 90  1  0  0  0
  5  6  1  0  0  0
  5 26  1  0  0  0
  5 91  1  0  0  0
  6 25  1  0  0  0
  6 92  1  0  0  0
  6 93  1  0  0  0
  7  8  2  0  0  0
  7 26  1  0  0  0
  7 29  1  0  0  0
  8  9  1  0  0  0
  8 22  1  0  0  0
  9 10  1  0  0  0
  9 27  2  0  0  0
 10 11  2  0  0  0
 10 15  1  0  0  0
 11 12  1  0  0  0
 11 94  1  0  0  0
 12 13  2  0  0  0
 12 95  1  0  0  0
 13 14  1  0  0  0
 13 31  1  0  0  0
 14 15  2  0  0  0
 14 96  1  0  0  0
 15 97  1  0  0  0
 16 17  2  0  0  0
 16 21  1  0  0  0
 16 31  1  0  0  0
 17 18  1  0  0  0
 17 98  1  0  0  0
 18 19  2  0  0  0
 18 99  1  0  0  0
 19 20  1  0  0  0
 19 24  1  0  0  0
 20 21  2  0  0  0
 20100  1  0  0  0
 21 23  1  0  0  0
 22 28  1  0  0  0
 22 32  2  0  0  0
 26 27  1  0  0  0
 28101  1  0  0  0
 28102  1  0  0  0
 29103  1  0  0  0
 29104  1  0  0  0
 33 34  1  0  0  0
 33 66  1  0  0  0
 33 70  2  0  0  0
 34 36  1  0  0  0
 34 59  1  0  0  0
 34105  1  0  0  0
 35 44  2  0  0  0
 35 45  1  0  0  0
 35 68  1  0  0  0
 36 56  1  0  0  0
 36106  1  0  0  0
 37 39  1  0  0  0
 37 47  1  0  0  0
 37 66  1  0  0  0
 37107  1  0  0  0
 38 43  2  0  0  0
 38 46  1  0  0  0
 38 47  1  0  0  0
 39 64  1  0  0  0
 39 67  2  0  0  0
 40 52  1  0  0  0
 40 53  2  0  0  0
 40 58  1  0  0  0
 41108  1  0  0  0
 41109  1  0  0  0
 41110  1  0  0  0
 41 48  1  0  0  0
 42 43  1  0  0  0
 42 66  1  0  0  0
 42111  1  0  0  0
 42112  1  0  0  0
 43 44  1  0  0  0
 44113  1  0  0  0
 45 46  2  0  0  0
 45114  1  0  0  0
 46115  1  0  0  0
 47116  1  0  0  0
 47117  1  0  0  0
 48 56  1  0  0  0
 48 65  1  0  0  0
 48118  1  0  0  0
 49 50  1  0  0  0
 49 53  1  0  0  0
 49 64  1  0  0  0
 49119  1  0  0  0
 50 51  1  0  0  0
 50120  1  0  0  0
 50121  1  0  0  0
 51 52  1  0  0  0
 51122  1  0  0  0
 51123  1  0  0  0
 52124  1  0  0  0
 52125  1  0  0  0
 53 54  1  0  0  0
 54 55  2  0  0  0
 54126  1  0  0  0
 55 57  1  0  0  0
 55127  1  0  0  0
 56 69  2  0  0  0
 57 58  2  0  0  0
 57128  1  0  0  0
 58129  1  0  0  0
 59 60  1  0  0  0
 59 61  1  0  0  0
 59 62  1  0  0  0
 60130  1  0  0  0
 60131  1  0  0  0
 60132  1  0  0  0
 61133  1  0  0  0
 61134  1  0  0  0
 61135  1  0  0  0
 62136  1  0  0  0
 62137  1  0  0  0
 62138  1  0  0  0
 63 65  1  0  0  0
 63139  1  0  0  0
 63140  1  0  0  0
 63141  1  0  0  0
 64142  1  0  0  0
 65143  1  0  0  0
 68 83  1  0  0  0
 71 72  2  0  0  0
 71 74  1  0  0  0
 71144  1  0  0  0
 72 75  1  0  0  0
 72145  1  0  0  0
 73 75  2  0  0  0
 73 76  1  0  0  0
 73146  1  0  0  0
 74 76  2  0  0  0
 74 77  1  0  0  0
 75 81  1  0  0  0
 76 80  1  0  0  0
 77 78  2  0  0  0
 77147  1  0  0  0
 78148  1  0  0  0
 79 82  1  0  0  0
 79 83  1  0  0  0
 79 84  2  0  0  0
 80149  1  0  0  0
 80150  1  0  0  0
 80151  1  0  0  0
 81 82  1  0  0  0
 81152  1  0  0  0
 81153  1  0  0  0
 82154  1  0  0  0
 82155  1  0  0  0
 83156  1  0  0  0
 83157  1  0  0  0
M  ISO  4   1 100  68 101  78 100  83 101
M  END
> <chiral flag>
0

> <version>
0

> <s_m_source_file>
/data/baiqing/PycharmProjects/Reinvent-master-3.2/result/LINK_invent/BTK/process_docking_weight1_custom_product_contain_oxygen_bond_distance_aromatic_linkinvent_7_9_3/rearranged_h_0130.sdf

> <i_m_source_file_index>
59

> <r_mmod_Potential_Energy-OPLS-2005>
-24.7311096191406

> <r_mmod_Stretch_Energy-OPLS-2005>
31.8371906280518

> <r_mmod_Bend_Energy-OPLS-2005>
110.622520446777

> <r_mmod_Torsional_Energy-OPLS-2005>
188.838317871094

> <r_mmod_Improper_Torsional_Energy-OPLS-2005>
4.14779996871948

> <r_mmod_Van_der_Waal_Energy-OPLS-2005>
175.549667358398

> <r_mmod_Electrostatic_Energy-OPLS-2005>
-338.098480224609

> <r_mmod_Solvation_Energy-OPLS-2005>
-213.494293212891

> <b_mmod_Minimization_Converged-OPLS-2005>
0

> <r_mmod_RMS_Derivative-OPLS-2005>
3.57203674316406

$$$$
59
                    3D
 Structure written by MMmdl.
164172  0  0  1  0            999 V2000
  -30.7405  -14.4197   20.6261 C   0  0  0  0  0  0
  -30.4159  -12.2957   19.4112 C   0  0  0  0  0  0
  -29.4883  -12.5171   18.2004 C   0  0  0  0  0  0
  -28.0110  -12.3744   18.6149 C   0  0  0  0  0  0
  -27.6631  -13.2064   19.8780 C   0  0  2  0  0  0
  -28.7035  -12.9733   20.9965 C   0  0  0  0  0  0
  -25.2601  -13.8161   20.5674 C   0  0  0  0  0  0
  -24.1856  -13.0439   20.9168 C   0  0  0  0  0  0
  -24.6400  -11.6903   20.8725 C   0  0  0  0  0  0
  -23.9065  -10.4292   21.0405 C   0  0  0  0  0  0
  -24.3622   -9.4209   21.9183 C   0  0  0  0  0  0
  -23.6300   -8.2246   22.0756 C   0  0  0  0  0  0
  -22.4285   -8.0286   21.3547 C   0  0  0  0  0  0
  -21.9917   -9.0255   20.4651 C   0  0  0  0  0  0
  -22.7241  -10.2136   20.3056 C   0  0  0  0  0  0
  -21.6852   -6.0748   22.5281 C   0  0  0  0  0  0
  -21.4019   -6.5646   23.8219 C   0  0  0  0  0  0
  -21.3658   -5.6798   24.9176 C   0  0  0  0  0  0
  -21.6037   -4.3060   24.7227 C   0  0  0  0  0  0
  -21.8820   -3.8156   23.4345 C   0  0  0  0  0  0
  -21.9198   -4.6974   22.3405 C   0  0  0  0  0  0
  -22.7878  -13.5241   21.1830 C   0  0  0  0  0  0
  -22.1663   -4.2161   21.0982 F   0  0  0  0  0  0
  -21.5625   -3.4539   25.7736 F   0  0  0  0  0  0
  -30.0392  -13.2687   20.4486 N   0  0  0  0  0  0
  -26.3035  -12.9329   20.3383 N   0  0  0  0  0  0
  -25.9327  -11.6482   20.5777 N   0  0  0  0  0  0
  -22.0526  -12.8232   22.0389 N   0  0  0  0  0  0
  -25.4328  -15.1879   20.4065 N   0  0  0  0  0  0
  -31.8199  -14.6367   20.0696 O   0  0  0  0  0  0
  -21.6644   -6.8891   21.4247 O   0  0  0  0  0  0
  -22.3547  -14.5542   20.6680 O   0  0  0  0  0  0
  -24.6143  -31.8667   23.2102 C   0  0  0  0  0  0
  -25.9041  -32.4806   23.8384 C   0  0  1  0  0  0
  -27.2333  -27.4320   20.0813 C   0  0  0  0  0  0
  -25.5899  -33.8603   24.2314 N   0  0  0  0  0  0
  -23.4010  -30.4896   21.5528 C   0  0  2  0  0  0
  -24.8441  -28.9525   20.1162 C   0  0  0  0  0  0
  -22.7390  -29.4653   22.5023 C   0  0  0  0  0  0
  -18.0266  -28.1374   22.8509 C   0  0  0  0  0  0
  -24.1478  -36.7305   23.2634 C   0  0  0  0  0  0
  -25.9295  -30.8293   21.3631 C   0  0  0  0  0  0
  -26.0038  -29.4638   20.7091 C   0  0  0  0  0  0
  -27.1975  -28.7090   20.6898 C   0  0  0  0  0  0
  -26.0507  -26.9314   19.4894 C   0  0  0  0  0  0
  -24.8609  -27.6843   19.5084 C   0  0  0  0  0  0
  -23.6056  -29.8186   20.1691 C   0  0  0  0  0  0
  -25.4100  -36.3096   24.0328 C   0  0  1  0  0  0
  -20.5851  -28.3662   23.1334 C   0  0  2  0  0  0
  -20.6757  -26.9401   22.5433 C   0  0  0  0  0  0
  -19.5738  -26.6387   21.5226 C   0  0  0  0  0  0
  -18.1913  -26.7920   22.1638 C   0  0  0  0  0  0
  -19.1512  -28.8832   23.2921 C   0  0  0  0  0  0
  -18.9445  -30.1441   23.8926 C   0  0  0  0  0  0
  -17.6453  -30.6586   24.0562 C   0  0  0  0  0  0
  -25.9031  -34.9463   23.5121 C   0  0  0  0  0  0
  -16.5339  -29.9088   23.6318 C   0  0  0  0  0  0
  -16.7254  -28.6507   23.0344 C   0  0  0  0  0  0
  -26.4468  -31.6585   25.0709 C   0  0  0  0  0  0
  -25.3736  -31.3719   26.1464 C   0  0  0  0  0  0
  -27.0297  -30.3009   24.6119 C   0  0  0  0  0  0
  -27.6036  -32.4308   25.7485 C   0  0  0  0  0  0
  -27.5571  -37.1797   24.8464 C   0  0  0  0  0  0
  -21.4121  -29.3023   22.3729 N   0  0  0  0  0  0
  -26.4281  -37.3781   23.9415 N   0  0  0  0  0  0
  -24.6670  -31.0752   22.1011 N   0  0  0  0  0  0
  -23.4162  -28.8203   23.3068 O   0  0  0  0  0  0
  -28.4287  -26.7381   20.0981 O   0  0  0  0  0  0
  -26.5593  -34.8932   22.4681 O   0  0  0  0  0  0
  -23.5335  -32.1428   23.7493 O   0  0  0  0  0  0
  -27.6977  -25.3098   23.1830 C   0  0  0  0  0  0
  -27.8184  -24.8185   22.0711 C   0  0  0  0  0  0
  -29.9902  -20.2157   20.9068 C   0  0  0  0  0  0
  -30.6195  -18.9560   21.0063 C   0  0  0  0  0  0
  -28.0657  -19.3223   22.0819 C   0  0  0  0  0  0
  -28.7069  -20.4186   21.4628 C   0  0  0  0  0  0
  -29.9963  -17.8707   21.6651 C   0  0  0  0  0  0
  -28.6922  -18.0583   22.1926 C   0  0  0  0  0  0
  -27.5192  -25.9564   24.4881 C   0  0  0  0  0  0
  -27.9478  -16.9407   22.9086 C   0  0  0  0  0  0
  -28.0014  -21.7838   21.4724 C   0  0  0  0  0  0
  -30.8027  -16.5820   21.8743 C   0  0  0  0  0  0
  -28.6156  -22.9202   20.6025 C   0  0  0  0  0  0
  -28.5056  -25.3536   19.7052 C   0  0  0  0  0  0
  -27.8961  -24.3056   20.6893 C   0  0  2  0  0  0
  -30.1743  -15.3332   21.4289 N   0  0  0  0  0  0
  -31.4609  -12.3866   19.1086 H   0  0  0  0  0  0
  -30.3097  -11.2791   19.7940 H   0  0  0  0  0  0
  -29.7244  -11.8072   17.4063 H   0  0  0  0  0  0
  -29.6601  -13.5114   17.7842 H   0  0  0  0  0  0
  -27.8176  -11.3176   18.8012 H   0  0  0  0  0  0
  -27.3601  -12.6599   17.7879 H   0  0  0  0  0  0
  -27.7145  -14.2573   19.5913 H   0  0  0  0  0  0
  -28.6735  -11.9347   21.3307 H   0  0  0  0  0  0
  -28.4570  -13.5663   21.8779 H   0  0  0  0  0  0
  -25.2777   -9.5683   22.4743 H   0  0  0  0  0  0
  -24.0015   -7.4638   22.7470 H   0  0  0  0  0  0
  -21.0849   -8.8775   19.8953 H   0  0  0  0  0  0
  -22.3707  -10.9675   19.6158 H   0  0  0  0  0  0
  -21.2014   -7.6152   23.9726 H   0  0  0  0  0  0
  -21.1474   -6.0524   25.9081 H   0  0  0  0  0  0
  -22.0602   -2.7616   23.2840 H   0  0  0  0  0  0
  -22.4152  -11.9886   22.4757 H   0  0  0  0  0  0
  -21.1147  -13.1262   22.2613 H   0  0  0  0  0  0
  -24.6671  -15.8452   20.5107 H   0  0  0  0  0  0
  -26.2878  -15.6261   20.0865 H   0  0  0  0  0  0
  -26.7112  -32.5545   23.1154 H   0  0  0  0  0  0
  -25.0051  -33.9763   25.0459 H   0  0  0  0  0  0
  -22.6906  -31.3068   21.4127 H   0  0  0  0  0  0
  -23.3741  -35.9640   23.3313 H   0  0  0  0  0  0
  -24.3555  -36.8906   22.2043 H   0  0  0  0  0  0
  -23.7240  -37.6515   23.6646 H   0  0  0  0  0  0
  -26.0336  -31.5962   20.5943 H   0  0  0  0  0  0
  -26.8194  -30.8840   21.9800 H   0  0  0  0  0  0
  -28.0958  -29.0993   21.1464 H   0  0  0  0  0  0
  -26.0288  -25.9657   19.0089 H   0  0  0  0  0  0
  -23.9655  -27.2823   19.0549 H   0  0  0  0  0  0
  -23.7108  -30.5914   19.4057 H   0  0  0  0  0  0
  -22.7288  -29.2366   19.8807 H   0  0  0  0  0  0
  -25.1280  -36.1945   25.0816 H   0  0  0  0  0  0
  -20.9948  -28.3223   24.1450 H   0  0  0  0  0  0
  -20.5661  -26.2262   23.3602 H   0  0  0  0  0  0
  -21.6631  -26.7447   22.1227 H   0  0  0  0  0  0
  -19.6909  -25.6312   21.1228 H   0  0  0  0  0  0
  -19.6677  -27.3224   20.6776 H   0  0  0  0  0  0
  -17.4182  -26.6659   21.4038 H   0  0  0  0  0  0
  -18.0325  -26.0056   22.9032 H   0  0  0  0  0  0
  -19.7927  -30.7246   24.2309 H   0  0  0  0  0  0
  -17.5010  -31.6275   24.5157 H   0  0  0  0  0  0
  -15.5343  -30.3001   23.7638 H   0  0  0  0  0  0
  -15.8647  -28.0831   22.7044 H   0  0  0  0  0  0
  -24.5884  -30.7101   25.7806 H   0  0  0  0  0  0
  -24.8958  -32.2891   26.4910 H   0  0  0  0  0  0
  -25.8064  -30.8875   27.0219 H   0  0  0  0  0  0
  -26.2865  -29.6789   24.1121 H   0  0  0  0  0  0
  -27.3992  -29.7216   25.4590 H   0  0  0  0  0  0
  -27.8730  -30.4300   23.9328 H   0  0  0  0  0  0
  -27.2637  -33.3584   26.2098 H   0  0  0  0  0  0
  -28.3835  -32.6902   25.0319 H   0  0  0  0  0  0
  -28.0733  -31.8426   26.5365 H   0  0  0  0  0  0
  -28.2591  -38.0088   24.7487 H   0  0  0  0  0  0
  -28.1056  -36.2610   24.6316 H   0  0  0  0  0  0
  -27.2279  -37.1484   25.8864 H   0  0  0  0  0  0
  -20.9283  -29.8711   21.6921 H   0  0  0  0  0  0
  -26.0174  -38.2865   24.1414 H   0  0  0  0  0  0
  -30.5220  -21.0228   20.4244 H   0  0  0  0  0  0
  -31.6134  -18.8369   20.5967 H   0  0  0  0  0  0
  -27.0844  -19.4656   22.5127 H   0  0  0  0  0  0
  -26.6546  -25.5317   24.9973 H   0  0  0  0  0  0
  -27.3601  -27.0261   24.3419 H   0  0  0  0  0  0
  -28.4072  -25.8070   25.1012 H   0  0  0  0  0  0
  -27.0947  -17.3275   23.4660 H   0  0  0  0  0  0
  -28.5861  -16.4164   23.6202 H   0  0  0  0  0  0
  -27.5677  -16.2215   22.1841 H   0  0  0  0  0  0
  -27.9676  -22.0968   22.5162 H   0  0  0  0  0  0
  -26.9621  -21.6306   21.1777 H   0  0  0  0  0  0
  -31.0018  -16.4892   22.9422 H   0  0  0  0  0  0
  -31.7870  -16.7054   21.4189 H   0  0  0  0  0  0
  -28.6307  -22.5955   19.5614 H   0  0  0  0  0  0
  -29.6572  -23.0640   20.8892 H   0  0  0  0  0  0
  -28.1183  -25.2105   18.6954 H   0  0  0  0  0  0
  -29.5740  -25.1542   19.6154 H   0  0  0  0  0  0
  -26.8548  -24.1580   20.4008 H   0  0  0  0  0  0
  -29.2806  -15.0969   21.8286 H   0  0  0  0  0  0
  1 25  1  0  0  0
  1 30  2  0  0  0
  1 86  1  0  0  0
  2  3  1  0  0  0
  2 25  1  0  0  0
  2 87  1  0  0  0
  2 88  1  0  0  0
  3  4  1  0  0  0
  3 89  1  0  0  0
  3 90  1  0  0  0
  4  5  1  0  0  0
  4 91  1  0  0  0
  4 92  1  0  0  0
  5  6  1  0  0  0
  5 26  1  0  0  0
  5 93  1  0  0  0
  6 25  1  0  0  0
  6 94  1  0  0  0
  6 95  1  0  0  0
  7  8  2  0  0  0
  7 26  1  0  0  0
  7 29  1  0  0  0
  8  9  1  0  0  0
  8 22  1  0  0  0
  9 10  1  0  0  0
  9 27  2  0  0  0
 10 11  2  0  0  0
 10 15  1  0  0  0
 11 12  1  0  0  0
 11 96  1  0  0  0
 12 13  2  0  0  0
 12 97  1  0  0  0
 13 14  1  0  0  0
 13 31  1  0  0  0
 14 15  2  0  0  0
 14 98  1  0  0  0
 15 99  1  0  0  0
 16 17  2  0  0  0
 16 21  1  0  0  0
 16 31  1  0  0  0
 17 18  1  0  0  0
 17100  1  0  0  0
 18 19  2  0  0  0
 18101  1  0  0  0
 19 20  1  0  0  0
 19 24  1  0  0  0
 20 21  2  0  0  0
 20102  1  0  0  0
 21 23  1  0  0  0
 22 28  1  0  0  0
 22 32  2  0  0  0
 26 27  1  0  0  0
 28103  1  0  0  0
 28104  1  0  0  0
 29105  1  0  0  0
 29106  1  0  0  0
 33 34  1  0  0  0
 33 66  1  0  0  0
 33 70  2  0  0  0
 34 36  1  0  0  0
 34 59  1  0  0  0
 34107  1  0  0  0
 35 44  2  0  0  0
 35 45  1  0  0  0
 35 68  1  0  0  0
 36 56  1  0  0  0
 36108  1  0  0  0
 37 39  1  0  0  0
 37 47  1  0  0  0
 37 66  1  0  0  0
 37109  1  0  0  0
 38 43  2  0  0  0
 38 46  1  0  0  0
 38 47  1  0  0  0
 39 64  1  0  0  0
 39 67  2  0  0  0
 40 52  1  0  0  0
 40 53  2  0  0  0
 40 58  1  0  0  0
 41110  1  0  0  0
 41111  1  0  0  0
 41112  1  0  0  0
 41 48  1  0  0  0
 42 43  1  0  0  0
 42 66  1  0  0  0
 42113  1  0  0  0
 42114  1  0  0  0
 43 44  1  0  0  0
 44115  1  0  0  0
 45 46  2  0  0  0
 45116  1  0  0  0
 46117  1  0  0  0
 47118  1  0  0  0
 47119  1  0  0  0
 48 56  1  0  0  0
 48 65  1  0  0  0
 48120  1  0  0  0
 49 50  1  0  0  0
 49 53  1  0  0  0
 49 64  1  0  0  0
 49121  1  0  0  0
 50 51  1  0  0  0
 50122  1  0  0  0
 50123  1  0  0  0
 51 52  1  0  0  0
 51124  1  0  0  0
 51125  1  0  0  0
 52126  1  0  0  0
 52127  1  0  0  0
 53 54  1  0  0  0
 54 55  2  0  0  0
 54128  1  0  0  0
 55 57  1  0  0  0
 55129  1  0  0  0
 56 69  2  0  0  0
 57 58  2  0  0  0
 57130  1  0  0  0
 58131  1  0  0  0
 59 60  1  0  0  0
 59 61  1  0  0  0
 59 62  1  0  0  0
 60132  1  0  0  0
 60133  1  0  0  0
 60134  1  0  0  0
 61135  1  0  0  0
 61136  1  0  0  0
 61137  1  0  0  0
 62138  1  0  0  0
 62139  1  0  0  0
 62140  1  0  0  0
 63 65  1  0  0  0
 63141  1  0  0  0
 63142  1  0  0  0
 63143  1  0  0  0
 64144  1  0  0  0
 65145  1  0  0  0
 68 84  1  0  0  0
 71 72  3  0  0  0
 71 79  1  0  0  0
 72 85  1  0  0  0
 73 74  2  0  0  0
 73 76  1  0  0  0
 73146  1  0  0  0
 74 77  1  0  0  0
 74147  1  0  0  0
 75 76  2  0  0  0
 75 78  1  0  0  0
 75148  1  0  0  0
 76 81  1  0  0  0
 77 78  2  0  0  0
 77 82  1  0  0  0
 78 80  1  0  0  0
 79149  1  0  0  0
 79150  1  0  0  0
 79151  1  0  0  0
 80152  1  0  0  0
 80153  1  0  0  0
 80154  1  0  0  0
 81 83  1  0  0  0
 81155  1  0  0  0
 81156  1  0  0  0
 82 86  1  0  0  0
 82157  1  0  0  0
 82158  1  0  0  0
 83 85  1  0  0  0
 83159  1  0  0  0
 83160  1  0  0  0
 84 85  1  0  0  0
 84161  1  0  0  0
 84162  1  0  0  0
 85163  1  0  0  0
 86164  1  0  0  0
M  ISO  4   1 100  68 101  84 101  86 100
M  END
> <chiral flag>
0

> <version>
0

> <s_m_source_file>
/data/baiqing/PycharmProjects/Reinvent-master-3.2/result/LINK_invent/BTK/process_docking_weight1_custom_product_contain_oxygen_bond_distance_aromatic_linkinvent_7_9_3/rearranged_h_0130.sdf

> <i_m_source_file_index>
60

> <r_mmod_Potential_Energy-OPLS-2005>
-109.254135131836

> <r_mmod_Stretch_Energy-OPLS-2005>
39.272388458252

> <r_mmod_Bend_Energy-OPLS-2005>
111.314819335938

> <r_mmod_Torsional_Energy-OPLS-2005>
190.066024780273

> <r_mmod_Improper_Torsional_Energy-OPLS-2005>
2.23610162734985

> <r_mmod_Van_der_Waal_Energy-OPLS-2005>
146.788528442383

> <r_mmod_Electrostatic_Energy-OPLS-2005>
-412.137176513672

> <r_mmod_Solvation_Energy-OPLS-2005>
-196.65446472168

> <b_mmod_Minimization_Converged-OPLS-2005>
0

> <r_mmod_RMS_Derivative-OPLS-2005>
2.08565640449524

$$$$
60
                    3D
 Structure written by MMmdl.
163171  0  0  1  0            999 V2000
  -30.7038  -14.4167   20.6449 C   0  0  0  0  0  0
  -30.4297  -12.2981   19.3943 C   0  0  0  0  0  0
  -29.4863  -12.5130   18.1931 C   0  0  0  0  0  0
  -28.0095  -12.3664   18.6129 C   0  0  0  0  0  0
  -27.6670  -13.1934   19.8807 C   0  0  2  0  0  0
  -28.7100  -12.9253   20.9895 C   0  0  0  0  0  0
  -25.2632  -13.8130   20.5683 C   0  0  0  0  0  0
  -24.1858  -13.0430   20.9160 C   0  0  0  0  0  0
  -24.6391  -11.6887   20.8732 C   0  0  0  0  0  0
  -23.9051  -10.4283   21.0410 C   0  0  0  0  0  0
  -24.3605   -9.4202   21.9192 C   0  0  0  0  0  0
  -23.6288   -8.2236   22.0761 C   0  0  0  0  0  0
  -22.4274   -8.0276   21.3546 C   0  0  0  0  0  0
  -21.9900   -9.0244   20.4649 C   0  0  0  0  0  0
  -22.7221  -10.2128   20.3060 C   0  0  0  0  0  0
  -21.6846   -6.0741   22.5283 C   0  0  0  0  0  0
  -21.4010   -6.5647   23.8215 C   0  0  0  0  0  0
  -21.3655   -5.6801   24.9176 C   0  0  0  0  0  0
  -21.6040   -4.3063   24.7226 C   0  0  0  0  0  0
  -21.8820   -3.8155   23.4347 C   0  0  0  0  0  0
  -21.9193   -4.6971   22.3404 C   0  0  0  0  0  0
  -22.7884  -13.5245   21.1822 C   0  0  0  0  0  0
  -22.1665   -4.2161   21.0981 F   0  0  0  0  0  0
  -21.5622   -3.4543   25.7738 F   0  0  0  0  0  0
  -30.0408  -13.2457   20.4482 N   0  0  0  0  0  0
  -26.3056  -12.9270   20.3395 N   0  0  0  0  0  0
  -25.9312  -11.6441   20.5769 N   0  0  0  0  0  0
  -22.0519  -12.8247   22.0381 N   0  0  0  0  0  0
  -25.4385  -15.1845   20.4099 N   0  0  0  0  0  0
  -31.7860  -14.6626   20.1008 O   0  0  0  0  0  0
  -21.6632   -6.8880   21.4245 O   0  0  0  0  0  0
  -22.3571  -14.5554   20.6673 O   0  0  0  0  0  0
  -24.6099  -31.8715   23.2124 C   0  0  0  0  0  0
  -25.9014  -32.4842   23.8408 C   0  0  1  0  0  0
  -27.2384  -27.4729   20.0924 C   0  0  0  0  0  0
  -25.5897  -33.8639   24.2346 N   0  0  0  0  0  0
  -23.3966  -30.4935   21.5514 C   0  0  2  0  0  0
  -24.8458  -28.9604   20.1213 C   0  0  0  0  0  0
  -22.7393  -29.4661   22.5003 C   0  0  0  0  0  0
  -18.0261  -28.1352   22.8478 C   0  0  0  0  0  0
  -24.1492  -36.7312   23.2643 C   0  0  0  0  0  0
  -25.9213  -30.8451   21.3638 C   0  0  0  0  0  0
  -26.0014  -29.4775   20.7231 C   0  0  0  0  0  0
  -27.2004  -28.7358   20.7199 C   0  0  0  0  0  0
  -26.0758  -26.9634   19.4830 C   0  0  0  0  0  0
  -24.8743  -27.6958   19.5060 C   0  0  0  0  0  0
  -23.6067  -29.8251   20.1669 C   0  0  0  0  0  0
  -25.4110  -36.3120   24.0350 C   0  0  1  0  0  0
  -20.5852  -28.3633   23.1325 C   0  0  2  0  0  0
  -20.6759  -26.9379   22.5413 C   0  0  0  0  0  0
  -19.5738  -26.6367   21.5206 C   0  0  0  0  0  0
  -18.1907  -26.7894   22.1612 C   0  0  0  0  0  0
  -19.1514  -28.8809   23.2891 C   0  0  0  0  0  0
  -18.9454  -30.1415   23.8903 C   0  0  0  0  0  0
  -17.6462  -30.6567   24.0563 C   0  0  0  0  0  0
  -25.9042  -34.9491   23.5140 C   0  0  0  0  0  0
  -16.5343  -29.9081   23.6317 C   0  0  0  0  0  0
  -16.7254  -28.6491   23.0340 C   0  0  0  0  0  0
  -26.4455  -31.6612   25.0716 C   0  0  0  0  0  0
  -25.3733  -31.3710   26.1478 C   0  0  0  0  0  0
  -27.0284  -30.3070   24.6041 C   0  0  0  0  0  0
  -27.6034  -32.4330   25.7478 C   0  0  0  0  0  0
  -27.5584  -37.1807   24.8470 C   0  0  0  0  0  0
  -21.4127  -29.3016   22.3747 N   0  0  0  0  0  0
  -26.4301  -37.3798   23.9413 N   0  0  0  0  0  0
  -24.6602  -31.0854   22.1008 N   0  0  0  0  0  0
  -23.4187  -28.8211   23.3034 O   0  0  0  0  0  0
  -28.3899  -26.7383   20.0010 O   0  0  0  0  0  0
  -26.5594  -34.8944   22.4696 O   0  0  0  0  0  0
  -23.5304  -32.1444   23.7545 O   0  0  0  0  0  0
  -30.8842  -20.1772   23.1209 C   0  0  0  0  0  0
  -31.1307  -21.5564   22.9841 C   0  0  0  0  0  0
  -31.1834  -19.8861   20.7306 C   0  0  0  0  0  0
  -30.9116  -19.3240   21.9986 C   0  0  0  0  0  0
  -31.4019  -22.1189   21.7184 C   0  0  0  0  0  0
  -31.4274  -21.2703   20.5763 C   0  0  0  0  0  0
  -30.6028  -17.8934   22.1930 C   0  0  0  0  0  0
  -30.4406  -16.9599   21.2349 C   0  0  0  0  0  0
  -31.7122  -23.5741   21.6523 C   0  0  0  0  0  0
  -33.1290  -21.7012   18.7237 C   0  0  0  0  0  0
  -31.6631  -21.7985   19.1630 C   0  0  0  0  0  0
  -30.0487  -15.5147   21.5076 C   0  0  0  0  0  0
  -30.6070  -24.5385   22.0884 C   0  0  0  0  0  0
  -30.0237  -25.2839   20.8771 C   0  0  0  0  0  0
  -28.9534  -26.3195   21.2346 C   0  0  0  0  0  0
  -32.7782  -24.0248   21.2263 O   0  0  0  0  0  0
  -31.4681  -12.4212   19.0827 H   0  0  0  0  0  0
  -30.3521  -11.2746   19.7642 H   0  0  0  0  0  0
  -29.7206  -11.8029   17.3985 H   0  0  0  0  0  0
  -29.6485  -13.5069   17.7733 H   0  0  0  0  0  0
  -27.8216  -11.3081   18.8013 H   0  0  0  0  0  0
  -27.3530  -12.6473   17.7882 H   0  0  0  0  0  0
  -27.7271  -14.2458   19.6040 H   0  0  0  0  0  0
  -28.6818  -11.8729   21.2771 H   0  0  0  0  0  0
  -28.4718  -13.4698   21.9026 H   0  0  0  0  0  0
  -25.2748   -9.5683   22.4765 H   0  0  0  0  0  0
  -24.0001   -7.4628   22.7476 H   0  0  0  0  0  0
  -21.0831   -8.8750   19.8953 H   0  0  0  0  0  0
  -22.3673  -10.9665   19.6168 H   0  0  0  0  0  0
  -21.2004   -7.6154   23.9722 H   0  0  0  0  0  0
  -21.1475   -6.0529   25.9079 H   0  0  0  0  0  0
  -22.0605   -2.7619   23.2840 H   0  0  0  0  0  0
  -22.4127  -11.9899   22.4758 H   0  0  0  0  0  0
  -21.1146  -13.1287   22.2595 H   0  0  0  0  0  0
  -24.6782  -15.8462   20.5233 H   0  0  0  0  0  0
  -26.3029  -15.6212   20.1148 H   0  0  0  0  0  0
  -26.7099  -32.5589   23.1199 H   0  0  0  0  0  0
  -25.0077  -33.9817   25.0513 H   0  0  0  0  0  0
  -22.6810  -31.3071   21.4131 H   0  0  0  0  0  0
  -23.3755  -35.9644   23.3320 H   0  0  0  0  0  0
  -24.3598  -36.8901   22.2053 H   0  0  0  0  0  0
  -23.7238  -37.6528   23.6639 H   0  0  0  0  0  0
  -26.0264  -31.6057   20.5884 H   0  0  0  0  0  0
  -26.8128  -30.9067   21.9763 H   0  0  0  0  0  0
  -28.0947  -29.1405   21.1718 H   0  0  0  0  0  0
  -26.1050  -26.0004   18.9918 H   0  0  0  0  0  0
  -23.9883  -27.2889   19.0384 H   0  0  0  0  0  0
  -23.7148  -30.5993   19.4054 H   0  0  0  0  0  0
  -22.7310  -29.2436   19.8728 H   0  0  0  0  0  0
  -25.1275  -36.2001   25.0843 H   0  0  0  0  0  0
  -20.9927  -28.3193   24.1452 H   0  0  0  0  0  0
  -20.5649  -26.2246   23.3593 H   0  0  0  0  0  0
  -21.6631  -26.7417   22.1212 H   0  0  0  0  0  0
  -19.6911  -25.6287   21.1219 H   0  0  0  0  0  0
  -19.6690  -27.3185   20.6749 H   0  0  0  0  0  0
  -17.4179  -26.6639   21.4011 H   0  0  0  0  0  0
  -18.0308  -26.0020   22.8999 H   0  0  0  0  0  0
  -19.7941  -30.7203   24.2287 H   0  0  0  0  0  0
  -17.5034  -31.6262   24.5139 H   0  0  0  0  0  0
  -15.5344  -30.2993   23.7646 H   0  0  0  0  0  0
  -15.8644  -28.0831   22.7044 H   0  0  0  0  0  0
  -24.5892  -30.7071   25.7814 H   0  0  0  0  0  0
  -24.8941  -32.2872   26.4941 H   0  0  0  0  0  0
  -25.8084  -30.8862   27.0221 H   0  0  0  0  0  0
  -26.2799  -29.6845   24.1118 H   0  0  0  0  0  0
  -27.4119  -29.7286   25.4451 H   0  0  0  0  0  0
  -27.8608  -30.4422   23.9126 H   0  0  0  0  0  0
  -27.2645  -33.3616   26.2087 H   0  0  0  0  0  0
  -28.3824  -32.6923   25.0289 H   0  0  0  0  0  0
  -28.0732  -31.8438   26.5366 H   0  0  0  0  0  0
  -28.2596  -38.0105   24.7516 H   0  0  0  0  0  0
  -28.1074  -36.2636   24.6286 H   0  0  0  0  0  0
  -27.2307  -37.1452   25.8874 H   0  0  0  0  0  0
  -20.9268  -29.8762   21.7004 H   0  0  0  0  0  0
  -26.0191  -38.2878   24.1412 H   0  0  0  0  0  0
  -30.6692  -19.7778   24.1028 H   0  0  0  0  0  0
  -31.1171  -22.1830   23.8662 H   0  0  0  0  0  0
  -31.2025  -19.2576   19.8517 H   0  0  0  0  0  0
  -30.4821  -17.5836   23.2220 H   0  0  0  0  0  0
  -30.5532  -17.2142   20.1909 H   0  0  0  0  0  0
  -33.2479  -22.0647   17.7018 H   0  0  0  0  0  0
  -33.4848  -20.6709   18.7530 H   0  0  0  0  0  0
  -33.7793  -22.2982   19.3623 H   0  0  0  0  0  0
  -31.3082  -22.8247   19.0678 H   0  0  0  0  0  0
  -31.0472  -21.2258   18.4680 H   0  0  0  0  0  0
  -28.9727  -15.5054   21.3446 H   0  0  0  0  0  0
  -30.2088  -15.2763   22.5593 H   0  0  0  0  0  0
  -31.0215  -25.2436   22.8088 H   0  0  0  0  0  0
  -29.8199  -23.9848   22.5993 H   0  0  0  0  0  0
  -29.5888  -24.5502   20.1961 H   0  0  0  0  0  0
  -30.8222  -25.7803   20.3228 H   0  0  0  0  0  0
  -29.3880  -27.1603   21.7774 H   0  0  0  0  0  0
  -28.1859  -25.8700   21.8680 H   0  0  0  0  0  0
  1 25  1  0  0  0
  1 30  2  0  0  0
  1 82  1  0  0  0
  2  3  1  0  0  0
  2 25  1  0  0  0
  2 87  1  0  0  0
  2 88  1  0  0  0
  3  4  1  0  0  0
  3 89  1  0  0  0
  3 90  1  0  0  0
  4  5  1  0  0  0
  4 91  1  0  0  0
  4 92  1  0  0  0
  5  6  1  0  0  0
  5 26  1  0  0  0
  5 93  1  0  0  0
  6 25  1  0  0  0
  6 94  1  0  0  0
  6 95  1  0  0  0
  7  8  2  0  0  0
  7 26  1  0  0  0
  7 29  1  0  0  0
  8  9  1  0  0  0
  8 22  1  0  0  0
  9 10  1  0  0  0
  9 27  2  0  0  0
 10 11  2  0  0  0
 10 15  1  0  0  0
 11 12  1  0  0  0
 11 96  1  0  0  0
 12 13  2  0  0  0
 12 97  1  0  0  0
 13 14  1  0  0  0
 13 31  1  0  0  0
 14 15  2  0  0  0
 14 98  1  0  0  0
 15 99  1  0  0  0
 16 17  2  0  0  0
 16 21  1  0  0  0
 16 31  1  0  0  0
 17 18  1  0  0  0
 17100  1  0  0  0
 18 19  2  0  0  0
 18101  1  0  0  0
 19 20  1  0  0  0
 19 24  1  0  0  0
 20 21  2  0  0  0
 20102  1  0  0  0
 21 23  1  0  0  0
 22 28  1  0  0  0
 22 32  2  0  0  0
 26 27  1  0  0  0
 28103  1  0  0  0
 28104  1  0  0  0
 29105  1  0  0  0
 29106  1  0  0  0
 33 34  1  0  0  0
 33 66  1  0  0  0
 33 70  2  0  0  0
 34 36  1  0  0  0
 34 59  1  0  0  0
 34107  1  0  0  0
 35 44  2  0  0  0
 35 45  1  0  0  0
 35 68  1  0  0  0
 36 56  1  0  0  0
 36108  1  0  0  0
 37 39  1  0  0  0
 37 47  1  0  0  0
 37 66  1  0  0  0
 37109  1  0  0  0
 38 43  2  0  0  0
 38 46  1  0  0  0
 38 47  1  0  0  0
 39 64  1  0  0  0
 39 67  2  0  0  0
 40 52  1  0  0  0
 40 53  2  0  0  0
 40 58  1  0  0  0
 41110  1  0  0  0
 41111  1  0  0  0
 41112  1  0  0  0
 41 48  1  0  0  0
 42 43  1  0  0  0
 42 66  1  0  0  0
 42113  1  0  0  0
 42114  1  0  0  0
 43 44  1  0  0  0
 44115  1  0  0  0
 45 46  2  0  0  0
 45116  1  0  0  0
 46117  1  0  0  0
 47118  1  0  0  0
 47119  1  0  0  0
 48 56  1  0  0  0
 48 65  1  0  0  0
 48120  1  0  0  0
 49 50  1  0  0  0
 49 53  1  0  0  0
 49 64  1  0  0  0
 49121  1  0  0  0
 50 51  1  0  0  0
 50122  1  0  0  0
 50123  1  0  0  0
 51 52  1  0  0  0
 51124  1  0  0  0
 51125  1  0  0  0
 52126  1  0  0  0
 52127  1  0  0  0
 53 54  1  0  0  0
 54 55  2  0  0  0
 54128  1  0  0  0
 55 57  1  0  0  0
 55129  1  0  0  0
 56 69  2  0  0  0
 57 58  2  0  0  0
 57130  1  0  0  0
 58131  1  0  0  0
 59 60  1  0  0  0
 59 61  1  0  0  0
 59 62  1  0  0  0
 60132  1  0  0  0
 60133  1  0  0  0
 60134  1  0  0  0
 61135  1  0  0  0
 61136  1  0  0  0
 61137  1  0  0  0
 62138  1  0  0  0
 62139  1  0  0  0
 62140  1  0  0  0
 63 65  1  0  0  0
 63141  1  0  0  0
 63142  1  0  0  0
 63143  1  0  0  0
 64144  1  0  0  0
 65145  1  0  0  0
 68 85  1  0  0  0
 71 72  2  0  0  0
 71 74  1  0  0  0
 71146  1  0  0  0
 72 75  1  0  0  0
 72147  1  0  0  0
 73 74  2  0  0  0
 73 76  1  0  0  0
 73148  1  0  0  0
 74 77  1  0  0  0
 75 76  2  0  0  0
 75 79  1  0  0  0
 76 81  1  0  0  0
 77 78  2  0  0  0
 77149  1  0  0  0
 78 82  1  0  0  0
 78150  1  0  0  0
 79 83  1  0  0  0
 79 86  2  0  0  0
 80 81  1  0  0  0
 80151  1  0  0  0
 80152  1  0  0  0
 80153  1  0  0  0
 81154  1  0  0  0
 81155  1  0  0  0
 82156  1  0  0  0
 82157  1  0  0  0
 83 84  1  0  0  0
 83158  1  0  0  0
 83159  1  0  0  0
 84 85  1  0  0  0
 84160  1  0  0  0
 84161  1  0  0  0
 85162  1  0  0  0
 85163  1  0  0  0
M  ISO  4   1 100  68 101  82 100  85 101
M  END
> <chiral flag>
0

> <version>
0

> <s_m_source_file>
/data/baiqing/PycharmProjects/Reinvent-master-3.2/result/LINK_invent/BTK/process_docking_weight1_custom_product_contain_oxygen_bond_distance_aromatic_linkinvent_7_9_3/rearranged_h_0130.sdf

> <i_m_source_file_index>
61

> <r_mmod_Potential_Energy-OPLS-2005>
-6.13255643844604

> <r_mmod_Stretch_Energy-OPLS-2005>
32.9016036987305

> <r_mmod_Bend_Energy-OPLS-2005>
88.6125030517578

> <r_mmod_Torsional_Energy-OPLS-2005>
232.570068359375

> <r_mmod_Improper_Torsional_Energy-OPLS-2005>
2.70302987098694

> <r_mmod_Van_der_Waal_Energy-OPLS-2005>
149.217178344727

> <r_mmod_Electrostatic_Energy-OPLS-2005>
-316.371459960938

> <r_mmod_Solvation_Energy-OPLS-2005>
-203.084579467773

> <b_mmod_Minimization_Converged-OPLS-2005>
0

> <r_mmod_RMS_Derivative-OPLS-2005>
1.60708749294281

$$$$
61
                    3D
 Structure written by MMmdl.
155163  0  0  1  0            999 V2000
  -30.6396  -15.0247   20.3533 C   0  0  0  0  0  0
  -30.4449  -12.6532   19.4432 C   0  0  0  0  0  0
  -29.5176  -12.5370   18.2183 C   0  0  0  0  0  0
  -28.0600  -12.3080   18.6649 C   0  0  0  0  0  0
  -27.6291  -13.2590   19.8130 C   0  0  2  0  0  0
  -28.7043  -13.3876   20.9135 C   0  0  0  0  0  0
  -25.2542  -13.8138   20.5779 C   0  0  0  0  0  0
  -24.1829  -13.0408   20.9214 C   0  0  0  0  0  0
  -24.6442  -11.6875   20.8727 C   0  0  0  0  0  0
  -23.9096  -10.4271   21.0391 C   0  0  0  0  0  0
  -24.3618   -9.4183   21.9184 C   0  0  0  0  0  0
  -23.6283   -8.2223   22.0749 C   0  0  0  0  0  0
  -22.4265   -8.0256   21.3523 C   0  0  0  0  0  0
  -21.9921   -9.0250   20.4638 C   0  0  0  0  0  0
  -22.7257  -10.2121   20.3054 C   0  0  0  0  0  0
  -21.6858   -6.0703   22.5273 C   0  0  0  0  0  0
  -21.4031   -6.5619   23.8215 C   0  0  0  0  0  0
  -21.3676   -5.6779   24.9182 C   0  0  0  0  0  0
  -21.6049   -4.3046   24.7248 C   0  0  0  0  0  0
  -21.8810   -3.8117   23.4371 C   0  0  0  0  0  0
  -21.9183   -4.6930   22.3421 C   0  0  0  0  0  0
  -22.7868  -13.5218   21.1876 C   0  0  0  0  0  0
  -22.1635   -4.2109   21.0995 F   0  0  0  0  0  0
  -21.5633   -3.4530   25.7759 F   0  0  0  0  0  0
  -29.9467  -13.8091   20.2406 N   0  0  0  0  0  0
  -26.2987  -12.9424   20.3288 N   0  0  0  0  0  0
  -25.9405  -11.6539   20.5734 N   0  0  0  0  0  0
  -22.0457  -12.8239   22.0400 N   0  0  0  0  0  0
  -25.4256  -15.1865   20.4309 N   0  0  0  0  0  0
  -31.8630  -14.8992   20.4640 O   0  0  0  0  0  0
  -21.6623   -6.8853   21.4238 O   0  0  0  0  0  0
  -22.3643  -14.5623   20.6810 O   0  0  0  0  0  0
  -24.6524  -31.8420   23.1805 C   0  0  0  0  0  0
  -25.9286  -32.4660   23.8172 C   0  0  1  0  0  0
  -27.2274  -27.1049   20.1102 C   0  0  0  0  0  0
  -25.6039  -33.8451   24.2138 N   0  0  0  0  0  0
  -23.4532  -30.4636   21.5284 C   0  0  2  0  0  0
  -24.9010  -28.8906   20.1019 C   0  0  0  0  0  0
  -22.7567  -29.4584   22.4827 C   0  0  0  0  0  0
  -18.0312  -28.1438   22.8488 C   0  0  0  0  0  0
  -24.1502  -36.7196   23.2625 C   0  0  0  0  0  0
  -26.0167  -30.7047   21.3835 C   0  0  0  0  0  0
  -26.0861  -29.3138   20.7174 C   0  0  0  0  0  0
  -27.2463  -28.4411   20.7024 C   0  0  0  0  0  0
  -25.9932  -26.7879   19.4914 C   0  0  0  0  0  0
  -24.8687  -27.6385   19.4789 C   0  0  0  0  0  0
  -23.6749  -29.7892   20.1492 C   0  0  0  0  0  0
  -25.4134  -36.2995   24.0309 C   0  0  1  0  0  0
  -20.5937  -28.3786   23.1210 C   0  0  2  0  0  0
  -20.6821  -26.9480   22.5412 C   0  0  0  0  0  0
  -19.5789  -26.6435   21.5225 C   0  0  0  0  0  0
  -18.1963  -26.7978   22.1635 C   0  0  0  0  0  0
  -19.1584  -28.8910   23.2861 C   0  0  0  0  0  0
  -18.9502  -30.1507   23.8888 C   0  0  0  0  0  0
  -17.6512  -30.6634   24.0558 C   0  0  0  0  0  0
  -25.9102  -34.9385   23.5011 C   0  0  0  0  0  0
  -16.5383  -29.9129   23.6375 C   0  0  0  0  0  0
  -16.7304  -28.6544   23.0388 C   0  0  0  0  0  0
  -26.4594  -31.6517   25.0592 C   0  0  0  0  0  0
  -25.3757  -31.3744   26.1273 C   0  0  0  0  0  0
  -27.0456  -30.2884   24.6244 C   0  0  0  0  0  0
  -27.6107  -32.4277   25.7445 C   0  0  0  0  0  0
  -27.5585  -37.1731   24.8447 C   0  0  0  0  0  0
  -21.4276  -29.3088   22.3540 N   0  0  0  0  0  0
  -26.4253  -37.3736   23.9438 N   0  0  0  0  0  0
  -24.7274  -31.0254   22.0834 N   0  0  0  0  0  0
  -23.4189  -28.8171   23.3025 O   0  0  0  0  0  0
  -28.2539  -26.0656   20.1787 O   0  0  0  0  0  0
  -26.5673  -34.8910   22.4583 O   0  0  0  0  0  0
  -23.5656  -32.1310   23.7020 O   0  0  0  0  0  0
  -27.2076  -18.7903   19.2869 C   0  0  0  0  0  0
  -28.0691  -17.6911   19.4668 C   0  0  0  0  0  0
  -27.6122  -20.1166   19.5276 C   0  0  0  0  0  0
  -29.8243  -19.2706   20.0213 C   0  0  0  0  0  0
  -29.4248  -17.8209   19.8294 C   0  0  0  0  0  0
  -28.9244  -20.4805   19.8913 C   0  0  0  0  0  0
  -28.1708  -24.8406   19.3678 C   0  0  0  0  0  0
  -30.2280  -16.4257   19.5023 C   0  0  0  0  0  0
  -28.4553  -23.4182   19.2876 C   0  0  0  0  0  0
  -26.4659  -23.0493   17.7140 C   0  0  0  0  0  0
  -29.1661  -22.1454   20.1201 C   0  0  0  0  0  0
  -27.9879  -22.8834   17.9339 C   0  0  0  0  0  0
  -30.6141  -16.3852   18.2912 N   0  0  0  0  0  0
  -31.4785  -12.7898   19.1195 H   0  0  0  0  0  0
  -30.4291  -11.7324   20.0280 H   0  0  0  0  0  0
  -29.8424  -11.7252   17.5689 H   0  0  0  0  0  0
  -29.5846  -13.4526   17.6279 H   0  0  0  0  0  0
  -27.9769  -11.2706   18.9908 H   0  0  0  0  0  0
  -27.3866  -12.4149   17.8131 H   0  0  0  0  0  0
  -27.5494  -14.2397   19.3463 H   0  0  0  0  0  0
  -28.8385  -12.4452   21.4481 H   0  0  0  0  0  0
  -28.4185  -14.1328   21.6577 H   0  0  0  0  0  0
  -25.2747   -9.5684   22.4778 H   0  0  0  0  0  0
  -23.9973   -7.4630   22.7500 H   0  0  0  0  0  0
  -21.0830   -8.8807   19.8958 H   0  0  0  0  0  0
  -22.3702  -10.9674   19.6182 H   0  0  0  0  0  0
  -21.2031   -7.6124   23.9709 H   0  0  0  0  0  0
  -21.1516   -6.0515   25.9093 H   0  0  0  0  0  0
  -22.0572   -2.7574   23.2892 H   0  0  0  0  0  0
  -22.4062  -11.9937   22.4882 H   0  0  0  0  0  0
  -21.1076  -13.1311   22.2550 H   0  0  0  0  0  0
  -24.6707  -15.8435   20.5891 H   0  0  0  0  0  0
  -26.3121  -15.6332   20.2471 H   0  0  0  0  0  0
  -26.7329  -32.5255   23.0883 H   0  0  0  0  0  0
  -25.0217  -33.9554   25.0308 H   0  0  0  0  0  0
  -22.7605  -31.2913   21.3691 H   0  0  0  0  0  0
  -23.3776  -35.9501   23.3282 H   0  0  0  0  0  0
  -24.3607  -36.8829   22.2038 H   0  0  0  0  0  0
  -23.7228  -37.6387   23.6640 H   0  0  0  0  0  0
  -26.1819  -31.4666   20.6190 H   0  0  0  0  0  0
  -26.8810  -30.7445   22.0328 H   0  0  0  0  0  0
  -28.1500  -28.7703   21.2005 H   0  0  0  0  0  0
  -25.8316  -25.8231   19.0391 H   0  0  0  0  0  0
  -23.9619  -27.2910   19.0026 H   0  0  0  0  0  0
  -23.7922  -30.5556   19.3840 H   0  0  0  0  0  0
  -22.7892  -29.2226   19.8543 H   0  0  0  0  0  0
  -25.1327  -36.1780   25.0785 H   0  0  0  0  0  0
  -21.0057  -28.3396   24.1320 H   0  0  0  0  0  0
  -20.5747  -26.2389   23.3642 H   0  0  0  0  0  0
  -21.6683  -26.7517   22.1175 H   0  0  0  0  0  0
  -19.6953  -25.6350   21.1253 H   0  0  0  0  0  0
  -19.6706  -27.3242   20.6735 H   0  0  0  0  0  0
  -17.4238  -26.6729   21.4025 H   0  0  0  0  0  0
  -18.0347  -26.0139   22.9042 H   0  0  0  0  0  0
  -19.7981  -30.7334   24.2224 H   0  0  0  0  0  0
  -17.5065  -31.6304   24.5189 H   0  0  0  0  0  0
  -15.5388  -30.3020   23.7718 H   0  0  0  0  0  0
  -15.8703  -28.0851   22.7120 H   0  0  0  0  0  0
  -24.5990  -30.7036   25.7612 H   0  0  0  0  0  0
  -24.8884  -32.2923   26.4519 H   0  0  0  0  0  0
  -25.8028  -30.9060   27.0132 H   0  0  0  0  0  0
  -26.3097  -29.6619   24.1187 H   0  0  0  0  0  0
  -27.3961  -29.7191   25.4863 H   0  0  0  0  0  0
  -27.9058  -30.4092   23.9653 H   0  0  0  0  0  0
  -27.2651  -33.3538   26.2053 H   0  0  0  0  0  0
  -28.3938  -32.6893   25.0309 H   0  0  0  0  0  0
  -28.0745  -31.8353   26.5360 H   0  0  0  0  0  0
  -28.2522  -38.0117   24.7664 H   0  0  0  0  0  0
  -28.1175  -36.2657   24.6073 H   0  0  0  0  0  0
  -27.2339  -37.1149   25.8854 H   0  0  0  0  0  0
  -20.9466  -29.8682   21.6635 H   0  0  0  0  0  0
  -26.0117  -38.2770   24.1539 H   0  0  0  0  0  0
  -26.2071  -18.6150   18.9188 H   0  0  0  0  0  0
  -27.6874  -16.7161   19.2100 H   0  0  0  0  0  0
  -26.8773  -20.8894   19.3807 H   0  0  0  0  0  0
  -30.8698  -19.4628   20.2384 H   0  0  0  0  0  0
  -27.7392  -25.2039   18.4486 H   0  0  0  0  0  0
  -26.1237  -22.4432   16.8759 H   0  0  0  0  0  0
  -26.2018  -24.0823   17.4839 H   0  0  0  0  0  0
  -25.8927  -22.7552   18.5929 H   0  0  0  0  0  0
  -30.2345  -22.2881   19.9514 H   0  0  0  0  0  0
  -29.0151  -22.3479   21.1780 H   0  0  0  0  0  0
  -28.2690  -21.8451   17.7964 H   0  0  0  0  0  0
  -28.5380  -23.3841   17.1343 H   0  0  0  0  0  0
  -30.3163  -17.2109   17.7860 H   0  0  0  0  0  0
  1 25  1  0  0  0
  1 30  2  0  0  0
  1 78  1  0  0  0
  2  3  1  0  0  0
  2 25  1  0  0  0
  2 84  1  0  0  0
  2 85  1  0  0  0
  3  4  1  0  0  0
  3 86  1  0  0  0
  3 87  1  0  0  0
  4  5  1  0  0  0
  4 88  1  0  0  0
  4 89  1  0  0  0
  5  6  1  0  0  0
  5 26  1  0  0  0
  5 90  1  0  0  0
  6 25  1  0  0  0
  6 91  1  0  0  0
  6 92  1  0  0  0
  7  8  2  0  0  0
  7 26  1  0  0  0
  7 29  1  0  0  0
  8  9  1  0  0  0
  8 22  1  0  0  0
  9 10  1  0  0  0
  9 27  2  0  0  0
 10 11  2  0  0  0
 10 15  1  0  0  0
 11 12  1  0  0  0
 11 93  1  0  0  0
 12 13  2  0  0  0
 12 94  1  0  0  0
 13 14  1  0  0  0
 13 31  1  0  0  0
 14 15  2  0  0  0
 14 95  1  0  0  0
 15 96  1  0  0  0
 16 17  2  0  0  0
 16 21  1  0  0  0
 16 31  1  0  0  0
 17 18  1  0  0  0
 17 97  1  0  0  0
 18 19  2  0  0  0
 18 98  1  0  0  0
 19 20  1  0  0  0
 19 24  1  0  0  0
 20 21  2  0  0  0
 20 99  1  0  0  0
 21 23  1  0  0  0
 22 28  1  0  0  0
 22 32  2  0  0  0
 26 27  1  0  0  0
 28100  1  0  0  0
 28101  1  0  0  0
 29102  1  0  0  0
 29103  1  0  0  0
 33 34  1  0  0  0
 33 66  1  0  0  0
 33 70  2  0  0  0
 34 36  1  0  0  0
 34 59  1  0  0  0
 34104  1  0  0  0
 35 44  2  0  0  0
 35 45  1  0  0  0
 35 68  1  0  0  0
 36 56  1  0  0  0
 36105  1  0  0  0
 37 39  1  0  0  0
 37 47  1  0  0  0
 37 66  1  0  0  0
 37106  1  0  0  0
 38 43  2  0  0  0
 38 46  1  0  0  0
 38 47  1  0  0  0
 39 64  1  0  0  0
 39 67  2  0  0  0
 40 52  1  0  0  0
 40 53  2  0  0  0
 40 58  1  0  0  0
 41107  1  0  0  0
 41108  1  0  0  0
 41109  1  0  0  0
 41 48  1  0  0  0
 42 43  1  0  0  0
 42 66  1  0  0  0
 42110  1  0  0  0
 42111  1  0  0  0
 43 44  1  0  0  0
 44112  1  0  0  0
 45 46  2  0  0  0
 45113  1  0  0  0
 46114  1  0  0  0
 47115  1  0  0  0
 47116  1  0  0  0
 48 56  1  0  0  0
 48 65  1  0  0  0
 48117  1  0  0  0
 49 50  1  0  0  0
 49 53  1  0  0  0
 49 64  1  0  0  0
 49118  1  0  0  0
 50 51  1  0  0  0
 50119  1  0  0  0
 50120  1  0  0  0
 51 52  1  0  0  0
 51121  1  0  0  0
 51122  1  0  0  0
 52123  1  0  0  0
 52124  1  0  0  0
 53 54  1  0  0  0
 54 55  2  0  0  0
 54125  1  0  0  0
 55 57  1  0  0  0
 55126  1  0  0  0
 56 69  2  0  0  0
 57 58  2  0  0  0
 57127  1  0  0  0
 58128  1  0  0  0
 59 60  1  0  0  0
 59 61  1  0  0  0
 59 62  1  0  0  0
 60129  1  0  0  0
 60130  1  0  0  0
 60131  1  0  0  0
 61132  1  0  0  0
 61133  1  0  0  0
 61134  1  0  0  0
 62135  1  0  0  0
 62136  1  0  0  0
 62137  1  0  0  0
 63 65  1  0  0  0
 63138  1  0  0  0
 63139  1  0  0  0
 63140  1  0  0  0
 64141  1  0  0  0
 65142  1  0  0  0
 68 77  1  0  0  0
 71 72  2  0  0  0
 71 73  1  0  0  0
 71143  1  0  0  0
 72 75  1  0  0  0
 72144  1  0  0  0
 73 76  2  0  0  0
 73145  1  0  0  0
 74 75  2  0  0  0
 74 76  1  0  0  0
 74146  1  0  0  0
 75 78  1  0  0  0
 76 81  1  0  0  0
 77 79  2  0  0  0
 77147  1  0  0  0
 78 83  2  0  0  0
 79 81  1  0  0  0
 79 82  1  0  0  0
 80 82  1  0  0  0
 80148  1  0  0  0
 80149  1  0  0  0
 80150  1  0  0  0
 81151  1  0  0  0
 81152  1  0  0  0
 82153  1  0  0  0
 82154  1  0  0  0
 83155  1  0  0  0
M  ISO  4   1 100  68 101  77 101  78 100
M  END
> <chiral flag>
0

> <version>
0

> <s_m_source_file>
/data/baiqing/PycharmProjects/Reinvent-master-3.2/result/LINK_invent/BTK/process_docking_weight1_custom_product_contain_oxygen_bond_distance_aromatic_linkinvent_7_9_3/rearranged_h_0130.sdf

> <i_m_source_file_index>
62

> <r_mmod_Potential_Energy-OPLS-2005>
1141.07885742188

> <r_mmod_Stretch_Energy-OPLS-2005>
352.127258300781

> <r_mmod_Bend_Energy-OPLS-2005>
438.786346435547

> <r_mmod_Torsional_Energy-OPLS-2005>
297.990081787109

> <r_mmod_Improper_Torsional_Energy-OPLS-2005>
38.9024047851562

> <r_mmod_Van_der_Waal_Energy-OPLS-2005>
144.494155883789

> <r_mmod_Electrostatic_Energy-OPLS-2005>
-195.151580810547

> <r_mmod_Solvation_Energy-OPLS-2005>
-196.268402099609

> <b_mmod_Minimization_Converged-OPLS-2005>
0

> <r_mmod_RMS_Derivative-OPLS-2005>
6.82999515533447

$$$$
62
                    3D
 Structure written by MMmdl.
159167  0  0  1  0            999 V2000
  -30.7067  -14.4865   20.5794 C   0  0  0  0  0  0
  -30.4228  -12.3170   19.4291 C   0  0  0  0  0  0
  -29.4962  -12.5090   18.2110 C   0  0  0  0  0  0
  -28.0179  -12.3663   18.6223 C   0  0  0  0  0  0
  -27.6603  -13.2082   19.8763 C   0  0  2  0  0  0
  -28.7031  -13.0005   20.9989 C   0  0  0  0  0  0
  -25.2521  -13.8048   20.5605 C   0  0  0  0  0  0
  -24.1805  -13.0355   20.9180 C   0  0  0  0  0  0
  -24.6395  -11.6846   20.8758 C   0  0  0  0  0  0
  -23.9062  -10.4249   21.0415 C   0  0  0  0  0  0
  -24.3612   -9.4169   21.9192 C   0  0  0  0  0  0
  -23.6279   -8.2214   22.0758 C   0  0  0  0  0  0
  -22.4261   -8.0264   21.3546 C   0  0  0  0  0  0
  -21.9897   -9.0239   20.4650 C   0  0  0  0  0  0
  -22.7237  -10.2110   20.3060 C   0  0  0  0  0  0
  -21.6844   -6.0725   22.5279 C   0  0  0  0  0  0
  -21.4008   -6.5631   23.8212 C   0  0  0  0  0  0
  -21.3653   -5.6786   24.9176 C   0  0  0  0  0  0
  -21.6042   -4.3049   24.7227 C   0  0  0  0  0  0
  -21.8822   -3.8140   23.4350 C   0  0  0  0  0  0
  -21.9190   -4.6955   22.3404 C   0  0  0  0  0  0
  -22.7835  -13.5183   21.1837 C   0  0  0  0  0  0
  -22.1662   -4.2143   21.0980 F   0  0  0  0  0  0
  -21.5627   -3.4533   25.7741 F   0  0  0  0  0  0
  -30.0345  -13.3077   20.4474 N   0  0  0  0  0  0
  -26.3015  -12.9283   20.3371 N   0  0  0  0  0  0
  -25.9334  -11.6444   20.5807 N   0  0  0  0  0  0
  -22.0470  -12.8207   22.0412 N   0  0  0  0  0  0
  -25.4091  -15.1705   20.3825 N   0  0  0  0  0  0
  -31.8270  -14.6543   20.0900 O   0  0  0  0  0  0
  -21.6624   -6.8865   21.4241 O   0  0  0  0  0  0
  -22.3536  -14.5498   20.6684 O   0  0  0  0  0  0
  -24.6136  -31.8679   23.2091 C   0  0  0  0  0  0
  -25.9028  -32.4824   23.8391 C   0  0  1  0  0  0
  -27.2428  -27.4432   20.1024 C   0  0  0  0  0  0
  -25.5884  -33.8622   24.2325 N   0  0  0  0  0  0
  -23.4026  -30.4886   21.5495 C   0  0  2  0  0  0
  -24.8528  -28.9509   20.1189 C   0  0  0  0  0  0
  -22.7408  -29.4651   22.4997 C   0  0  0  0  0  0
  -18.0270  -28.1376   22.8491 C   0  0  0  0  0  0
  -24.1484  -36.7319   23.2631 C   0  0  0  0  0  0
  -25.9295  -30.8369   21.3599 C   0  0  0  0  0  0
  -26.0115  -29.4697   20.7118 C   0  0  0  0  0  0
  -27.2123  -28.7240   20.6980 C   0  0  0  0  0  0
  -26.0702  -26.9323   19.5088 C   0  0  0  0  0  0
  -24.8761  -27.6802   19.5151 C   0  0  0  0  0  0
  -23.6125  -29.8157   20.1661 C   0  0  0  0  0  0
  -25.4099  -36.3113   24.0338 C   0  0  1  0  0  0
  -20.5859  -28.3660   23.1325 C   0  0  2  0  0  0
  -20.6761  -26.9397   22.5421 C   0  0  0  0  0  0
  -19.5742  -26.6386   21.5212 C   0  0  0  0  0  0
  -18.1919  -26.7923   22.1623 C   0  0  0  0  0  0
  -19.1518  -28.8834   23.2905 C   0  0  0  0  0  0
  -18.9448  -30.1441   23.8914 C   0  0  0  0  0  0
  -17.6452  -30.6582   24.0565 C   0  0  0  0  0  0
  -25.9031  -34.9478   23.5132 C   0  0  0  0  0  0
  -16.5343  -29.9087   23.6321 C   0  0  0  0  0  0
  -16.7259  -28.6503   23.0344 C   0  0  0  0  0  0
  -26.4461  -31.6600   25.0715 C   0  0  0  0  0  0
  -25.3734  -31.3708   26.1470 C   0  0  0  0  0  0
  -27.0287  -30.3045   24.6075 C   0  0  0  0  0  0
  -27.6043  -32.4315   25.7471 C   0  0  0  0  0  0
  -27.5594  -37.1788   24.8444 C   0  0  0  0  0  0
  -21.4135  -29.3028   22.3735 N   0  0  0  0  0  0
  -26.4279  -37.3805   23.9431 N   0  0  0  0  0  0
  -24.6668  -31.0785   22.0985 N   0  0  0  0  0  0
  -23.4179  -28.8197   23.3042 O   0  0  0  0  0  0
  -28.4027  -26.7044   20.0733 O   0  0  0  0  0  0
  -26.5601  -34.8932   22.4698 O   0  0  0  0  0  0
  -23.5330  -32.1423   23.7490 O   0  0  0  0  0  0
  -31.8450  -18.8170   21.2388 C   0  0  0  0  0  0
  -31.6010  -17.4288   21.1460 C   0  0  0  0  0  0
  -29.4813  -19.2101   21.5551 C   0  0  0  0  0  0
  -30.7845  -19.7235   21.4438 C   0  0  0  0  0  0
  -29.2199  -17.8231   21.4481 C   0  0  0  0  0  0
  -30.2866  -16.9000   21.2383 C   0  0  0  0  0  0
  -29.7789  -23.3798   21.1612 C   0  0  0  0  0  0
  -30.2375  -22.1755   20.7480 C   0  0  0  0  0  0
  -29.0571  -24.3287   20.2796 C   0  0  0  0  0  0
  -26.8915  -18.0132   20.4614 C   0  0  0  0  0  0
  -31.0471  -21.2202   21.6240 C   0  0  0  0  0  0
  -27.7629  -17.3988   21.5704 C   0  0  0  0  0  0
  -28.3914  -25.5558   20.9373 C   0  0  0  0  0  0
  -30.0123  -15.4866   21.1706 N   0  0  0  0  0  0
  -28.9668  -24.1691   19.0570 O   0  0  0  0  0  0
  -31.4675  -12.4112   19.1275 H   0  0  0  0  0  0
  -30.3226  -11.3082   19.8324 H   0  0  0  0  0  0
  -29.7392  -11.7824   17.4346 H   0  0  0  0  0  0
  -29.6630  -13.4938   17.7717 H   0  0  0  0  0  0
  -27.8310  -11.3103   18.8211 H   0  0  0  0  0  0
  -27.3675  -12.6373   17.7899 H   0  0  0  0  0  0
  -27.6995  -14.2556   19.5755 H   0  0  0  0  0  0
  -28.6841  -11.9666   21.3471 H   0  0  0  0  0  0
  -28.4593  -13.6032   21.8745 H   0  0  0  0  0  0
  -25.2757   -9.5639   22.4768 H   0  0  0  0  0  0
  -23.9979   -7.4600   22.7474 H   0  0  0  0  0  0
  -21.0826   -8.8768   19.8957 H   0  0  0  0  0  0
  -22.3704  -10.9655   19.6170 H   0  0  0  0  0  0
  -21.2002   -7.6140   23.9715 H   0  0  0  0  0  0
  -21.1469   -6.0516   25.9078 H   0  0  0  0  0  0
  -22.0608   -2.7602   23.2853 H   0  0  0  0  0  0
  -22.4068  -11.9866   22.4811 H   0  0  0  0  0  0
  -21.1097  -13.1259   22.2618 H   0  0  0  0  0  0
  -24.6265  -15.8088   20.4679 H   0  0  0  0  0  0
  -26.2429  -15.6116   20.0196 H   0  0  0  0  0  0
  -26.7105  -32.5546   23.1164 H   0  0  0  0  0  0
  -25.0031  -33.9784   25.0467 H   0  0  0  0  0  0
  -22.6905  -31.3042   21.4075 H   0  0  0  0  0  0
  -23.3753  -35.9643   23.3265 H   0  0  0  0  0  0
  -24.3596  -36.8961   22.2053 H   0  0  0  0  0  0
  -23.7221  -37.6510   23.6662 H   0  0  0  0  0  0
  -26.0364  -31.6011   20.5886 H   0  0  0  0  0  0
  -26.8189  -30.8960   21.9755 H   0  0  0  0  0  0
  -28.1100  -29.1239   21.1491 H   0  0  0  0  0  0
  -26.0841  -25.9585   19.0390 H   0  0  0  0  0  0
  -23.9855  -27.2740   19.0555 H   0  0  0  0  0  0
  -23.7190  -30.5876   19.4031 H   0  0  0  0  0  0
  -22.7379  -29.2321   19.8727 H   0  0  0  0  0  0
  -25.1265  -36.1970   25.0828 H   0  0  0  0  0  0
  -20.9948  -28.3224   24.1446 H   0  0  0  0  0  0
  -20.5661  -26.2265   23.3605 H   0  0  0  0  0  0
  -21.6634  -26.7442   22.1216 H   0  0  0  0  0  0
  -19.6905  -25.6302   21.1227 H   0  0  0  0  0  0
  -19.6682  -27.3207   20.6751 H   0  0  0  0  0  0
  -17.4190  -26.6669   21.4024 H   0  0  0  0  0  0
  -18.0322  -26.0062   22.9016 H   0  0  0  0  0  0
  -19.7925  -30.7250   24.2294 H   0  0  0  0  0  0
  -17.5008  -31.6263   24.5165 H   0  0  0  0  0  0
  -15.5345  -30.2996   23.7635 H   0  0  0  0  0  0
  -15.8658  -28.0829   22.7051 H   0  0  0  0  0  0
  -24.5902  -30.7056   25.7817 H   0  0  0  0  0  0
  -24.8929  -32.2865   26.4928 H   0  0  0  0  0  0
  -25.8092  -30.8874   27.0222 H   0  0  0  0  0  0
  -26.2826  -29.6816   24.1124 H   0  0  0  0  0  0
  -27.4062  -29.7268   25.4523 H   0  0  0  0  0  0
  -27.8658  -30.4372   23.9216 H   0  0  0  0  0  0
  -27.2662  -33.3591   26.2103 H   0  0  0  0  0  0
  -28.3821  -32.6914   25.0278 H   0  0  0  0  0  0
  -28.0751  -31.8409   26.5341 H   0  0  0  0  0  0
  -28.2546  -38.0151   24.7602 H   0  0  0  0  0  0
  -28.1156  -36.2694   24.6116 H   0  0  0  0  0  0
  -27.2338  -37.1252   25.8848 H   0  0  0  0  0  0
  -20.9299  -29.8751   21.6956 H   0  0  0  0  0  0
  -26.0165  -38.2867   24.1502 H   0  0  0  0  0  0
  -32.8624  -19.1777   21.1737 H   0  0  0  0  0  0
  -32.4567  -16.7829   21.0189 H   0  0  0  0  0  0
  -28.6658  -19.8962   21.7376 H   0  0  0  0  0  0
  -29.9467  -23.6943   22.1810 H   0  0  0  0  0  0
  -30.0696  -21.8560   19.7286 H   0  0  0  0  0  0
  -25.8397  -17.7748   20.6113 H   0  0  0  0  0  0
  -27.1875  -17.6456   19.4783 H   0  0  0  0  0  0
  -26.9576  -19.1006   20.4408 H   0  0  0  0  0  0
  -32.1005  -21.4135   21.4173 H   0  0  0  0  0  0
  -30.8966  -21.4744   22.6743 H   0  0  0  0  0  0
  -27.3963  -17.7308   22.5427 H   0  0  0  0  0  0
  -27.6529  -16.3162   21.5722 H   0  0  0  0  0  0
  -28.9197  -25.8068   21.8571 H   0  0  0  0  0  0
  -27.3750  -25.2804   21.2214 H   0  0  0  0  0  0
  -29.0964  -15.2079   21.4836 H   0  0  0  0  0  0
  1 25  1  0  0  0
  1 30  2  0  0  0
  1 84  1  0  0  0
  2  3  1  0  0  0
  2 25  1  0  0  0
  2 86  1  0  0  0
  2 87  1  0  0  0
  3  4  1  0  0  0
  3 88  1  0  0  0
  3 89  1  0  0  0
  4  5  1  0  0  0
  4 90  1  0  0  0
  4 91  1  0  0  0
  5  6  1  0  0  0
  5 26  1  0  0  0
  5 92  1  0  0  0
  6 25  1  0  0  0
  6 93  1  0  0  0
  6 94  1  0  0  0
  7  8  2  0  0  0
  7 26  1  0  0  0
  7 29  1  0  0  0
  8  9  1  0  0  0
  8 22  1  0  0  0
  9 10  1  0  0  0
  9 27  2  0  0  0
 10 11  2  0  0  0
 10 15  1  0  0  0
 11 12  1  0  0  0
 11 95  1  0  0  0
 12 13  2  0  0  0
 12 96  1  0  0  0
 13 14  1  0  0  0
 13 31  1  0  0  0
 14 15  2  0  0  0
 14 97  1  0  0  0
 15 98  1  0  0  0
 16 17  2  0  0  0
 16 21  1  0  0  0
 16 31  1  0  0  0
 17 18  1  0  0  0
 17 99  1  0  0  0
 18 19  2  0  0  0
 18100  1  0  0  0
 19 20  1  0  0  0
 19 24  1  0  0  0
 20 21  2  0  0  0
 20101  1  0  0  0
 21 23  1  0  0  0
 22 28  1  0  0  0
 22 32  2  0  0  0
 26 27  1  0  0  0
 28102  1  0  0  0
 28103  1  0  0  0
 29104  1  0  0  0
 29105  1  0  0  0
 33 34  1  0  0  0
 33 66  1  0  0  0
 33 70  2  0  0  0
 34 36  1  0  0  0
 34 59  1  0  0  0
 34106  1  0  0  0
 35 44  2  0  0  0
 35 45  1  0  0  0
 35 68  1  0  0  0
 36 56  1  0  0  0
 36107  1  0  0  0
 37 39  1  0  0  0
 37 47  1  0  0  0
 37 66  1  0  0  0
 37108  1  0  0  0
 38 43  2  0  0  0
 38 46  1  0  0  0
 38 47  1  0  0  0
 39 64  1  0  0  0
 39 67  2  0  0  0
 40 52  1  0  0  0
 40 53  2  0  0  0
 40 58  1  0  0  0
 41109  1  0  0  0
 41110  1  0  0  0
 41111  1  0  0  0
 41 48  1  0  0  0
 42 43  1  0  0  0
 42 66  1  0  0  0
 42112  1  0  0  0
 42113  1  0  0  0
 43 44  1  0  0  0
 44114  1  0  0  0
 45 46  2  0  0  0
 45115  1  0  0  0
 46116  1  0  0  0
 47117  1  0  0  0
 47118  1  0  0  0
 48 56  1  0  0  0
 48 65  1  0  0  0
 48119  1  0  0  0
 49 50  1  0  0  0
 49 53  1  0  0  0
 49 64  1  0  0  0
 49120  1  0  0  0
 50 51  1  0  0  0
 50121  1  0  0  0
 50122  1  0  0  0
 51 52  1  0  0  0
 51123  1  0  0  0
 51124  1  0  0  0
 52125  1  0  0  0
 52126  1  0  0  0
 53 54  1  0  0  0
 54 55  2  0  0  0
 54127  1  0  0  0
 55 57  1  0  0  0
 55128  1  0  0  0
 56 69  2  0  0  0
 57 58  2  0  0  0
 57129  1  0  0  0
 58130  1  0  0  0
 59 60  1  0  0  0
 59 61  1  0  0  0
 59 62  1  0  0  0
 60131  1  0  0  0
 60132  1  0  0  0
 60133  1  0  0  0
 61134  1  0  0  0
 61135  1  0  0  0
 61136  1  0  0  0
 62137  1  0  0  0
 62138  1  0  0  0
 62139  1  0  0  0
 63 65  1  0  0  0
 63140  1  0  0  0
 63141  1  0  0  0
 63142  1  0  0  0
 64143  1  0  0  0
 65144  1  0  0  0
 68 83  1  0  0  0
 71 72  2  0  0  0
 71 74  1  0  0  0
 71145  1  0  0  0
 72 76  1  0  0  0
 72146  1  0  0  0
 73 74  2  0  0  0
 73 75  1  0  0  0
 73147  1  0  0  0
 74 81  1  0  0  0
 75 76  2  0  0  0
 75 82  1  0  0  0
 76 84  1  0  0  0
 77 78  2  0  0  0
 77 79  1  0  0  0
 77148  1  0  0  0
 78 81  1  0  0  0
 78149  1  0  0  0
 79 83  1  0  0  0
 79 85  2  0  0  0
 80 82  1  0  0  0
 80150  1  0  0  0
 80151  1  0  0  0
 80152  1  0  0  0
 81153  1  0  0  0
 81154  1  0  0  0
 82155  1  0  0  0
 82156  1  0  0  0
 83157  1  0  0  0
 83158  1  0  0  0
 84159  1  0  0  0
M  ISO  4   1 100  68 101  83 101  84 100
M  END
> <chiral flag>
0

> <version>
0

> <s_m_source_file>
/data/baiqing/PycharmProjects/Reinvent-master-3.2/result/LINK_invent/BTK/process_docking_weight1_custom_product_contain_oxygen_bond_distance_aromatic_linkinvent_7_9_3/rearranged_h_0130.sdf

> <i_m_source_file_index>
63

> <r_mmod_Potential_Energy-OPLS-2005>
-40.963062286377

> <r_mmod_Stretch_Energy-OPLS-2005>
39.5288391113281

> <r_mmod_Bend_Energy-OPLS-2005>
96.5469818115234

> <r_mmod_Torsional_Energy-OPLS-2005>
238.819686889648

> <r_mmod_Improper_Torsional_Energy-OPLS-2005>
3.72120666503906

> <r_mmod_Van_der_Waal_Energy-OPLS-2005>
151.339111328125

> <r_mmod_Electrostatic_Energy-OPLS-2005>
-366.612640380859

> <r_mmod_Solvation_Energy-OPLS-2005>
-216.620147705078

> <b_mmod_Minimization_Converged-OPLS-2005>
0

> <r_mmod_RMS_Derivative-OPLS-2005>
0.433580696582794

$$$$
63
                    3D
 Structure written by MMmdl.
169177  0  0  1  0            999 V2000
  -30.6374  -14.5915   20.5423 C   0  0  0  0  0  0
  -30.4376  -12.3710   19.4347 C   0  0  0  0  0  0
  -29.5030  -12.5112   18.2131 C   0  0  0  0  0  0
  -28.0255  -12.3473   18.6283 C   0  0  0  0  0  0
  -27.6552  -13.2086   19.8648 C   0  0  2  0  0  0
  -28.7016  -13.0366   20.9889 C   0  0  0  0  0  0
  -25.2577  -13.8148   20.5690 C   0  0  0  0  0  0
  -24.1840  -13.0422   20.9201 C   0  0  0  0  0  0
  -24.6395  -11.6890   20.8741 C   0  0  0  0  0  0
  -23.9055  -10.4280   21.0401 C   0  0  0  0  0  0
  -24.3607   -9.4197   21.9183 C   0  0  0  0  0  0
  -23.6288   -8.2232   22.0752 C   0  0  0  0  0  0
  -22.4272   -8.0272   21.3539 C   0  0  0  0  0  0
  -21.9903   -9.0244   20.4639 C   0  0  0  0  0  0
  -22.7229  -10.2121   20.3051 C   0  0  0  0  0  0
  -21.6850   -6.0735   22.5280 C   0  0  0  0  0  0
  -21.4013   -6.5637   23.8215 C   0  0  0  0  0  0
  -21.3660   -5.6789   24.9177 C   0  0  0  0  0  0
  -21.6040   -4.3054   24.7227 C   0  0  0  0  0  0
  -21.8819   -3.8145   23.4350 C   0  0  0  0  0  0
  -21.9192   -4.6962   22.3405 C   0  0  0  0  0  0
  -22.7858  -13.5219   21.1864 C   0  0  0  0  0  0
  -22.1660   -4.2146   21.0985 F   0  0  0  0  0  0
  -21.5625   -3.4538   25.7741 F   0  0  0  0  0  0
  -30.0171  -13.3783   20.4243 N   0  0  0  0  0  0
  -26.2997  -12.9313   20.3322 N   0  0  0  0  0  0
  -25.9319  -11.6469   20.5757 N   0  0  0  0  0  0
  -22.0495  -12.8209   22.0412 N   0  0  0  0  0  0
  -25.4279  -15.1873   20.4097 N   0  0  0  0  0  0
  -31.8036  -14.7698   20.1789 O   0  0  0  0  0  0
  -21.6630   -6.8874   21.4242 O   0  0  0  0  0  0
  -22.3544  -14.5526   20.6711 O   0  0  0  0  0  0
  -24.6211  -31.8618   23.2038 C   0  0  0  0  0  0
  -25.9074  -32.4801   23.8347 C   0  0  1  0  0  0
  -27.2371  -27.3571   20.1210 C   0  0  0  0  0  0
  -25.5913  -33.8600   24.2294 N   0  0  0  0  0  0
  -23.4141  -30.4831   21.5412 C   0  0  2  0  0  0
  -24.8636  -28.9378   20.1121 C   0  0  0  0  0  0
  -22.7435  -29.4639   22.4917 C   0  0  0  0  0  0
  -18.0289  -28.1410   22.8499 C   0  0  0  0  0  0
  -24.1476  -36.7253   23.2644 C   0  0  0  0  0  0
  -25.9495  -30.8041   21.3705 C   0  0  0  0  0  0
  -26.0253  -29.4320   20.7165 C   0  0  0  0  0  0
  -27.2136  -28.6529   20.7109 C   0  0  0  0  0  0
  -26.0554  -26.9034   19.4924 C   0  0  0  0  0  0
  -24.8774  -27.6768   19.4917 C   0  0  0  0  0  0
  -23.6283  -29.8125   20.1568 C   0  0  0  0  0  0
  -25.4100  -36.3084   24.0354 C   0  0  1  0  0  0
  -20.5881  -28.3705   23.1294 C   0  0  2  0  0  0
  -20.6767  -26.9426   22.5425 C   0  0  0  0  0  0
  -19.5752  -26.6408   21.5221 C   0  0  0  0  0  0
  -18.1931  -26.7956   22.1626 C   0  0  0  0  0  0
  -19.1537  -28.8861   23.2897 C   0  0  0  0  0  0
  -18.9471  -30.1470   23.8926 C   0  0  0  0  0  0
  -17.6478  -30.6612   24.0578 C   0  0  0  0  0  0
  -25.9050  -34.9466   23.5111 C   0  0  0  0  0  0
  -16.5361  -29.9128   23.6352 C   0  0  0  0  0  0
  -16.7278  -28.6530   23.0382 C   0  0  0  0  0  0
  -26.4486  -31.6606   25.0694 C   0  0  0  0  0  0
  -25.3748  -31.3722   26.1428 C   0  0  0  0  0  0
  -27.0318  -30.3041   24.6110 C   0  0  0  0  0  0
  -27.6044  -32.4327   25.7464 C   0  0  0  0  0  0
  -27.5568  -37.1775   24.8476 C   0  0  0  0  0  0
  -21.4153  -29.3052   22.3656 N   0  0  0  0  0  0
  -26.4264  -37.3784   23.9444 N   0  0  0  0  0  0
  -24.6792  -31.0670   22.0958 N   0  0  0  0  0  0
  -23.4169  -28.8208   23.3004 O   0  0  0  0  0  0
  -28.4012  -26.5880   20.1335 O   0  0  0  0  0  0
  -26.5614  -34.8941   22.4685 O   0  0  0  0  0  0
  -23.5395  -32.1412   23.7403 O   0  0  0  0  0  0
  -30.1354  -18.3322   23.4106 C   0  0  0  0  0  0
  -30.1584  -18.1292   20.6269 C   0  0  0  0  0  0
  -30.2593  -19.5094   22.6435 C   0  0  0  0  0  0
  -30.0369  -17.0590   22.8173 C   0  0  0  0  0  0
  -30.2577  -19.4332   21.2247 C   0  0  0  0  0  0
  -30.0642  -16.9292   21.4076 C   0  0  0  0  0  0
  -29.5050  -24.4356   19.5446 C   0  0  0  0  0  0
  -29.9648  -23.1460   19.4472 C   0  0  0  0  0  0
  -29.8849  -15.8444   23.7190 C   0  0  0  0  0  0
  -31.8606  -20.9808   23.9625 C   0  0  0  0  0  0
  -30.7353  -22.2084   17.2052 C   0  0  0  0  0  0
  -30.4382  -20.8164   23.4106 C   0  0  0  0  0  0
  -30.5390  -20.7076   20.3695 C   0  0  0  0  0  0
  -28.3451  -25.1266   20.2870 C   0  0  0  0  0  0
  -31.1432  -22.9285   18.4957 C   0  0  0  0  0  0
  -29.4414  -21.8389   20.1380 C   0  0  0  0  0  0
  -29.8014  -15.6255   20.8402 N   0  0  0  0  0  0
  -31.4796  -12.4969   19.1337 H   0  0  0  0  0  0
  -30.3636  -11.3685   19.8595 H   0  0  0  0  0  0
  -29.7602  -11.7743   17.4505 H   0  0  0  0  0  0
  -29.6483  -13.4892   17.7520 H   0  0  0  0  0  0
  -27.8597  -11.2937   18.8542 H   0  0  0  0  0  0
  -27.3682  -12.5838   17.7905 H   0  0  0  0  0  0
  -27.6795  -14.2469   19.5346 H   0  0  0  0  0  0
  -28.7084  -12.0074   21.3508 H   0  0  0  0  0  0
  -28.4537  -13.6506   21.8559 H   0  0  0  0  0  0
  -25.2752   -9.5673   22.4756 H   0  0  0  0  0  0
  -23.9996   -7.4623   22.7471 H   0  0  0  0  0  0
  -21.0833   -8.8759   19.8949 H   0  0  0  0  0  0
  -22.3688  -10.9656   19.6156 H   0  0  0  0  0  0
  -21.2006   -7.6145   23.9717 H   0  0  0  0  0  0
  -21.1478   -6.0521   25.9080 H   0  0  0  0  0  0
  -22.0596   -2.7608   23.2849 H   0  0  0  0  0  0
  -22.4103  -11.9860   22.4788 H   0  0  0  0  0  0
  -21.1112  -13.1227   22.2613 H   0  0  0  0  0  0
  -24.6588  -15.8385   20.5262 H   0  0  0  0  0  0
  -26.2684  -15.6286   20.0587 H   0  0  0  0  0  0
  -26.7133  -32.5463   23.1100 H   0  0  0  0  0  0
  -25.0101  -33.9764   25.0462 H   0  0  0  0  0  0
  -22.7085  -31.3035   21.3975 H   0  0  0  0  0  0
  -23.3765  -35.9557   23.3330 H   0  0  0  0  0  0
  -24.3557  -36.8833   22.2048 H   0  0  0  0  0  0
  -23.7208  -37.6456   23.6633 H   0  0  0  0  0  0
  -26.0795  -31.5684   20.6029 H   0  0  0  0  0  0
  -26.8336  -30.8511   21.9946 H   0  0  0  0  0  0
  -28.1073  -29.0325   21.1866 H   0  0  0  0  0  0
  -26.0280  -25.9546   18.9792 H   0  0  0  0  0  0
  -23.9905  -27.2961   19.0051 H   0  0  0  0  0  0
  -23.7424  -30.5866   19.3969 H   0  0  0  0  0  0
  -22.7511  -29.2352   19.8595 H   0  0  0  0  0  0
  -25.1294  -36.1927   25.0846 H   0  0  0  0  0  0
  -21.0019  -28.3285   24.1396 H   0  0  0  0  0  0
  -20.5669  -26.2316   23.3627 H   0  0  0  0  0  0
  -21.6634  -26.7476   22.1196 H   0  0  0  0  0  0
  -19.6916  -25.6329   21.1231 H   0  0  0  0  0  0
  -19.6683  -27.3225   20.6754 H   0  0  0  0  0  0
  -17.4195  -26.6735   21.4020 H   0  0  0  0  0  0
  -18.0315  -26.0106   22.9029 H   0  0  0  0  0  0
  -19.7945  -30.7270   24.2310 H   0  0  0  0  0  0
  -17.5045  -31.6303   24.5179 H   0  0  0  0  0  0
  -15.5368  -30.3054   23.7669 H   0  0  0  0  0  0
  -15.8664  -28.0866   22.7131 H   0  0  0  0  0  0
  -24.5940  -30.7059   25.7759 H   0  0  0  0  0  0
  -24.8916  -32.2870   26.4842 H   0  0  0  0  0  0
  -25.8095  -30.8913   27.0196 H   0  0  0  0  0  0
  -26.2862  -29.6800   24.1168 H   0  0  0  0  0  0
  -27.4084  -29.7285   25.4570 H   0  0  0  0  0  0
  -27.8715  -30.4354   23.9286 H   0  0  0  0  0  0
  -27.2678  -33.3638   26.2036 H   0  0  0  0  0  0
  -28.3855  -32.6871   25.0291 H   0  0  0  0  0  0
  -28.0703  -31.8452   26.5381 H   0  0  0  0  0  0
  -28.2601  -38.0055   24.7543 H   0  0  0  0  0  0
  -28.1057  -36.2602   24.6292 H   0  0  0  0  0  0
  -27.2296  -37.1412   25.8877 H   0  0  0  0  0  0
  -20.9318  -29.8745   21.6848 H   0  0  0  0  0  0
  -26.0152  -38.2854   24.1467 H   0  0  0  0  0  0
  -30.1280  -18.4141   24.4886 H   0  0  0  0  0  0
  -30.1664  -18.0474   19.5484 H   0  0  0  0  0  0
  -30.0446  -25.1674   18.9618 H   0  0  0  0  0  0
  -29.9612  -16.1140   24.7726 H   0  0  0  0  0  0
  -30.6636  -15.1098   23.5131 H   0  0  0  0  0  0
  -28.9127  -15.3750   23.5693 H   0  0  0  0  0  0
  -31.9541  -21.9156   24.5151 H   0  0  0  0  0  0
  -32.6011  -20.9964   23.1626 H   0  0  0  0  0  0
  -32.1195  -20.1688   24.6428 H   0  0  0  0  0  0
  -30.4061  -21.1860   17.3840 H   0  0  0  0  0  0
  -31.5762  -22.1619   16.5131 H   0  0  0  0  0  0
  -29.9236  -22.7361   16.7045 H   0  0  0  0  0  0
  -29.7284  -20.8312   24.2388 H   0  0  0  0  0  0
  -30.1853  -21.6829   22.8067 H   0  0  0  0  0  0
  -30.8897  -20.3508   19.4027 H   0  0  0  0  0  0
  -31.4155  -21.1753   20.8186 H   0  0  0  0  0  0
  -28.4108  -24.8848   21.3487 H   0  0  0  0  0  0
  -27.4184  -24.6854   19.9287 H   0  0  0  0  0  0
  -31.9609  -22.4064   18.9904 H   0  0  0  0  0  0
  -31.5849  -23.8855   18.2115 H   0  0  0  0  0  0
  -28.6605  -21.4182   19.5047 H   0  0  0  0  0  0
  -28.9444  -22.1128   21.0659 H   0  0  0  0  0  0
  -28.8522  -15.3111   20.9682 H   0  0  0  0  0  0
  1 25  1  0  0  0
  1 30  2  0  0  0
  1 87  1  0  0  0
  2  3  1  0  0  0
  2 25  1  0  0  0
  2 88  1  0  0  0
  2 89  1  0  0  0
  3  4  1  0  0  0
  3 90  1  0  0  0
  3 91  1  0  0  0
  4  5  1  0  0  0
  4 92  1  0  0  0
  4 93  1  0  0  0
  5  6  1  0  0  0
  5 26  1  0  0  0
  5 94  1  0  0  0
  6 25  1  0  0  0
  6 95  1  0  0  0
  6 96  1  0  0  0
  7  8  2  0  0  0
  7 26  1  0  0  0
  7 29  1  0  0  0
  8  9  1  0  0  0
  8 22  1  0  0  0
  9 10  1  0  0  0
  9 27  2  0  0  0
 10 11  2  0  0  0
 10 15  1  0  0  0
 11 12  1  0  0  0
 11 97  1  0  0  0
 12 13  2  0  0  0
 12 98  1  0  0  0
 13 14  1  0  0  0
 13 31  1  0  0  0
 14 15  2  0  0  0
 14 99  1  0  0  0
 15100  1  0  0  0
 16 17  2  0  0  0
 16 21  1  0  0  0
 16 31  1  0  0  0
 17 18  1  0  0  0
 17101  1  0  0  0
 18 19  2  0  0  0
 18102  1  0  0  0
 19 20  1  0  0  0
 19 24  1  0  0  0
 20 21  2  0  0  0
 20103  1  0  0  0
 21 23  1  0  0  0
 22 28  1  0  0  0
 22 32  2  0  0  0
 26 27  1  0  0  0
 28104  1  0  0  0
 28105  1  0  0  0
 29106  1  0  0  0
 29107  1  0  0  0
 33 34  1  0  0  0
 33 66  1  0  0  0
 33 70  2  0  0  0
 34 36  1  0  0  0
 34 59  1  0  0  0
 34108  1  0  0  0
 35 44  2  0  0  0
 35 45  1  0  0  0
 35 68  1  0  0  0
 36 56  1  0  0  0
 36109  1  0  0  0
 37 39  1  0  0  0
 37 47  1  0  0  0
 37 66  1  0  0  0
 37110  1  0  0  0
 38 43  2  0  0  0
 38 46  1  0  0  0
 38 47  1  0  0  0
 39 64  1  0  0  0
 39 67  2  0  0  0
 40 52  1  0  0  0
 40 53  2  0  0  0
 40 58  1  0  0  0
 41111  1  0  0  0
 41112  1  0  0  0
 41113  1  0  0  0
 41 48  1  0  0  0
 42 43  1  0  0  0
 42 66  1  0  0  0
 42114  1  0  0  0
 42115  1  0  0  0
 43 44  1  0  0  0
 44116  1  0  0  0
 45 46  2  0  0  0
 45117  1  0  0  0
 46118  1  0  0  0
 47119  1  0  0  0
 47120  1  0  0  0
 48 56  1  0  0  0
 48 65  1  0  0  0
 48121  1  0  0  0
 49 50  1  0  0  0
 49 53  1  0  0  0
 49 64  1  0  0  0
 49122  1  0  0  0
 50 51  1  0  0  0
 50123  1  0  0  0
 50124  1  0  0  0
 51 52  1  0  0  0
 51125  1  0  0  0
 51126  1  0  0  0
 52127  1  0  0  0
 52128  1  0  0  0
 53 54  1  0  0  0
 54 55  2  0  0  0
 54129  1  0  0  0
 55 57  1  0  0  0
 55130  1  0  0  0
 56 69  2  0  0  0
 57 58  2  0  0  0
 57131  1  0  0  0
 58132  1  0  0  0
 59 60  1  0  0  0
 59 61  1  0  0  0
 59 62  1  0  0  0
 60133  1  0  0  0
 60134  1  0  0  0
 60135  1  0  0  0
 61136  1  0  0  0
 61137  1  0  0  0
 61138  1  0  0  0
 62139  1  0  0  0
 62140  1  0  0  0
 62141  1  0  0  0
 63 65  1  0  0  0
 63142  1  0  0  0
 63143  1  0  0  0
 63144  1  0  0  0
 64145  1  0  0  0
 65146  1  0  0  0
 68 84  1  0  0  0
 71 73  2  0  0  0
 71 74  1  0  0  0
 71147  1  0  0  0
 72 75  2  0  0  0
 72 76  1  0  0  0
 72148  1  0  0  0
 73 75  1  0  0  0
 73 82  1  0  0  0
 74 76  2  0  0  0
 74 79  1  0  0  0
 75 83  1  0  0  0
 76 87  1  0  0  0
 77 78  2  0  0  0
 77 84  1  0  0  0
 77149  1  0  0  0
 78 85  1  0  0  0
 78 86  1  0  0  0
 79150  1  0  0  0
 79151  1  0  0  0
 79152  1  0  0  0
 80 82  1  0  0  0
 80153  1  0  0  0
 80154  1  0  0  0
 80155  1  0  0  0
 81 85  1  0  0  0
 81156  1  0  0  0
 81157  1  0  0  0
 81158  1  0  0  0
 82159  1  0  0  0
 82160  1  0  0  0
 83 86  1  0  0  0
 83161  1  0  0  0
 83162  1  0  0  0
 84163  1  0  0  0
 84164  1  0  0  0
 85165  1  0  0  0
 85166  1  0  0  0
 86167  1  0  0  0
 86168  1  0  0  0
 87169  1  0  0  0
M  ISO  4   1 100  68 101  84 101  87 100
M  END
> <chiral flag>
0

> <version>
0

> <s_m_source_file>
/data/baiqing/PycharmProjects/Reinvent-master-3.2/result/LINK_invent/BTK/process_docking_weight1_custom_product_contain_oxygen_bond_distance_aromatic_linkinvent_7_9_3/rearranged_h_0130.sdf

> <i_m_source_file_index>
64

> <r_mmod_Potential_Energy-OPLS-2005>
63.6645698547363

> <r_mmod_Stretch_Energy-OPLS-2005>
67.2866516113281

> <r_mmod_Bend_Energy-OPLS-2005>
145.21549987793

> <r_mmod_Torsional_Energy-OPLS-2005>
258.951843261719

> <r_mmod_Improper_Torsional_Energy-OPLS-2005>
8.80764102935791

> <r_mmod_Van_der_Waal_Energy-OPLS-2005>
147.181228637695

> <r_mmod_Electrostatic_Energy-OPLS-2005>
-403.382049560547

> <r_mmod_Solvation_Energy-OPLS-2005>
-192.765014648438

> <b_mmod_Minimization_Converged-OPLS-2005>
0

> <r_mmod_RMS_Derivative-OPLS-2005>
2.6402382850647

$$$$
64
                    3D
 Structure written by MMmdl.
156164  0  0  1  0            999 V2000
  -30.7298  -14.4550   20.5821 C   0  0  0  0  0  0
  -30.4151  -12.2998   19.4240 C   0  0  0  0  0  0
  -29.4926  -12.5069   18.2070 C   0  0  0  0  0  0
  -28.0138  -12.3704   18.6183 C   0  0  0  0  0  0
  -27.6619  -13.2104   19.8756 C   0  0  2  0  0  0
  -28.7035  -12.9997   20.9981 C   0  0  0  0  0  0
  -25.2585  -13.8166   20.5677 C   0  0  0  0  0  0
  -24.1836  -13.0443   20.9173 C   0  0  0  0  0  0
  -24.6390  -11.6908   20.8730 C   0  0  0  0  0  0
  -23.9051  -10.4296   21.0396 C   0  0  0  0  0  0
  -24.3607   -9.4214   21.9178 C   0  0  0  0  0  0
  -23.6288   -8.2247   22.0747 C   0  0  0  0  0  0
  -22.4270   -8.0278   21.3538 C   0  0  0  0  0  0
  -21.9903   -9.0249   20.4641 C   0  0  0  0  0  0
  -22.7222  -10.2134   20.3050 C   0  0  0  0  0  0
  -21.6853   -6.0735   22.5278 C   0  0  0  0  0  0
  -21.4011   -6.5636   23.8213 C   0  0  0  0  0  0
  -21.3662   -5.6791   24.9175 C   0  0  0  0  0  0
  -21.6044   -4.3053   24.7223 C   0  0  0  0  0  0
  -21.8820   -3.8147   23.4345 C   0  0  0  0  0  0
  -21.9189   -4.6964   22.3400 C   0  0  0  0  0  0
  -22.7860  -13.5245   21.1839 C   0  0  0  0  0  0
  -22.1662   -4.2151   21.0977 F   0  0  0  0  0  0
  -21.5628   -3.4535   25.7737 F   0  0  0  0  0  0
  -30.0356  -13.2922   20.4430 N   0  0  0  0  0  0
  -26.3023  -12.9343   20.3370 N   0  0  0  0  0  0
  -25.9318  -11.6498   20.5760 N   0  0  0  0  0  0
  -22.0492  -12.8239   22.0397 N   0  0  0  0  0  0
  -25.4318  -15.1882   20.4077 N   0  0  0  0  0  0
  -31.8520  -14.6113   20.0923 O   0  0  0  0  0  0
  -21.6636   -6.8876   21.4240 O   0  0  0  0  0  0
  -22.3548  -14.5554   20.6686 O   0  0  0  0  0  0
  -24.6165  -31.8680   23.2122 C   0  0  0  0  0  0
  -25.9059  -32.4819   23.8408 C   0  0  1  0  0  0
  -27.2239  -27.4123   20.0846 C   0  0  0  0  0  0
  -25.5913  -33.8618   24.2334 N   0  0  0  0  0  0
  -23.4040  -30.4959   21.5535 C   0  0  2  0  0  0
  -24.8473  -28.9696   20.1112 C   0  0  0  0  0  0
  -22.7421  -29.4662   22.4981 C   0  0  0  0  0  0
  -18.0275  -28.1378   22.8488 C   0  0  0  0  0  0
  -24.1489  -36.7315   23.2636 C   0  0  0  0  0  0
  -25.9384  -30.8232   21.3743 C   0  0  0  0  0  0
  -26.0109  -29.4592   20.7161 C   0  0  0  0  0  0
  -27.1990  -28.6865   20.7059 C   0  0  0  0  0  0
  -26.0382  -26.9627   19.4493 C   0  0  0  0  0  0
  -24.8576  -27.7207   19.4758 C   0  0  0  0  0  0
  -23.6117  -29.8377   20.1654 C   0  0  0  0  0  0
  -25.4107  -36.3106   24.0334 C   0  0  1  0  0  0
  -20.5868  -28.3663   23.1310 C   0  0  2  0  0  0
  -20.6767  -26.9398   22.5411 C   0  0  0  0  0  0
  -19.5745  -26.6385   21.5209 C   0  0  0  0  0  0
  -18.1924  -26.7923   22.1624 C   0  0  0  0  0  0
  -19.1525  -28.8836   23.2896 C   0  0  0  0  0  0
  -18.9450  -30.1444   23.8905 C   0  0  0  0  0  0
  -17.6451  -30.6582   24.0562 C   0  0  0  0  0  0
  -25.9035  -34.9472   23.5127 C   0  0  0  0  0  0
  -16.5343  -29.9080   23.6329 C   0  0  0  0  0  0
  -16.7262  -28.6499   23.0346 C   0  0  0  0  0  0
  -26.4478  -31.6598   25.0740 C   0  0  0  0  0  0
  -25.3742  -31.3717   26.1488 C   0  0  0  0  0  0
  -27.0307  -30.3029   24.6144 C   0  0  0  0  0  0
  -27.6055  -32.4318   25.7501 C   0  0  0  0  0  0
  -27.5581  -37.1811   24.8462 C   0  0  0  0  0  0
  -21.4147  -29.3033   22.3721 N   0  0  0  0  0  0
  -26.4293  -37.3788   23.9405 N   0  0  0  0  0  0
  -24.6713  -31.0767   22.1042 N   0  0  0  0  0  0
  -23.4189  -28.8189   23.3015 O   0  0  0  0  0  0
  -28.3804  -26.6439   20.1226 O   0  0  0  0  0  0
  -26.5592  -34.8920   22.4685 O   0  0  0  0  0  0
  -23.5355  -32.1448   23.7506 O   0  0  0  0  0  0
  -31.3777  -19.5379   21.3550 C   0  0  0  0  0  0
  -31.8350  -17.1546   21.6370 C   0  0  0  0  0  0
  -29.6190  -17.8968   20.9550 C   0  0  0  0  0  0
  -32.2673  -18.4948   21.6838 C   0  0  0  0  0  0
  -30.0430  -19.2510   20.9942 C   0  0  0  0  0  0
  -30.5132  -16.8367   21.2470 C   0  0  0  0  0  0
  -28.9290  -22.8477   20.1343 C   0  0  0  0  0  0
  -29.4297  -21.8229   20.8602 C   0  0  0  0  0  0
  -29.2144  -24.2836   20.3787 C   0  0  0  0  0  0
  -33.6938  -18.8153   22.0833 C   0  0  0  0  0  0
  -29.0527  -20.3579   20.6108 C   0  0  0  0  0  0
  -28.2624  -25.2721   19.6786 C   0  0  0  0  0  0
  -30.0680  -15.4783   21.1623 N   0  0  0  0  0  0
  -30.1326  -24.6890   21.1000 O   0  0  0  0  0  0
  -31.4613  -12.3809   19.1238 H   0  0  0  0  0  0
  -30.2995  -11.2906   19.8226 H   0  0  0  0  0  0
  -29.7319  -11.7841   17.4257 H   0  0  0  0  0  0
  -29.6668  -13.4939   17.7753 H   0  0  0  0  0  0
  -27.8204  -11.3148   18.8114 H   0  0  0  0  0  0
  -27.3655  -12.6502   17.7870 H   0  0  0  0  0  0
  -27.7062  -14.2576   19.5749 H   0  0  0  0  0  0
  -28.6762  -11.9679   21.3515 H   0  0  0  0  0  0
  -28.4681  -13.6121   21.8691 H   0  0  0  0  0  0
  -25.2750   -9.5701   22.4752 H   0  0  0  0  0  0
  -24.0000   -7.4641   22.7463 H   0  0  0  0  0  0
  -21.0834   -8.8758   19.8953 H   0  0  0  0  0  0
  -22.3666  -10.9667   19.6157 H   0  0  0  0  0  0
  -21.2010   -7.6144   23.9716 H   0  0  0  0  0  0
  -21.1480   -6.0520   25.9080 H   0  0  0  0  0  0
  -22.0599   -2.7607   23.2838 H   0  0  0  0  0  0
  -22.4091  -11.9900   22.4800 H   0  0  0  0  0  0
  -21.1111  -13.1275   22.2594 H   0  0  0  0  0  0
  -24.6664  -15.8455   20.5111 H   0  0  0  0  0  0
  -26.2838  -15.6228   20.0773 H   0  0  0  0  0  0
  -26.7125  -32.5517   23.1164 H   0  0  0  0  0  0
  -25.0076  -33.9783   25.0487 H   0  0  0  0  0  0
  -22.6929  -31.3136   21.4193 H   0  0  0  0  0  0
  -23.3741  -35.9659   23.3313 H   0  0  0  0  0  0
  -24.3586  -36.8915   22.2049 H   0  0  0  0  0  0
  -23.7257  -37.6530   23.6641 H   0  0  0  0  0  0
  -26.0619  -31.5915   20.6097 H   0  0  0  0  0  0
  -26.8230  -30.8683   21.9977 H   0  0  0  0  0  0
  -28.0923  -29.0578   21.1886 H   0  0  0  0  0  0
  -25.9821  -26.0289   18.9112 H   0  0  0  0  0  0
  -23.9674  -27.3446   18.9905 H   0  0  0  0  0  0
  -23.7203  -30.6166   19.4099 H   0  0  0  0  0  0
  -22.7349  -29.2599   19.8679 H   0  0  0  0  0  0
  -25.1285  -36.1971   25.0827 H   0  0  0  0  0  0
  -20.9959  -28.3226   24.1431 H   0  0  0  0  0  0
  -20.5678  -26.2264   23.3594 H   0  0  0  0  0  0
  -21.6635  -26.7448   22.1197 H   0  0  0  0  0  0
  -19.6906  -25.6299   21.1228 H   0  0  0  0  0  0
  -19.6688  -27.3201   20.6744 H   0  0  0  0  0  0
  -17.4194  -26.6666   21.4027 H   0  0  0  0  0  0
  -18.0330  -26.0065   22.9022 H   0  0  0  0  0  0
  -19.7928  -30.7259   24.2276 H   0  0  0  0  0  0
  -17.5007  -31.6267   24.5159 H   0  0  0  0  0  0
  -15.5341  -30.2981   23.7655 H   0  0  0  0  0  0
  -15.8663  -28.0822   22.7052 H   0  0  0  0  0  0
  -24.5892  -30.7093   25.7823 H   0  0  0  0  0  0
  -24.8964  -32.2883   26.4958 H   0  0  0  0  0  0
  -25.8089  -30.8860   27.0234 H   0  0  0  0  0  0
  -26.2860  -29.6796   24.1179 H   0  0  0  0  0  0
  -27.4036  -29.7263   25.4621 H   0  0  0  0  0  0
  -27.8719  -30.4327   23.9331 H   0  0  0  0  0  0
  -27.2669  -33.3602   26.2112 H   0  0  0  0  0  0
  -28.3845  -32.6905   25.0316 H   0  0  0  0  0  0
  -28.0745  -31.8423   26.5391 H   0  0  0  0  0  0
  -28.2598  -38.0108   24.7502 H   0  0  0  0  0  0
  -28.1076  -36.2639   24.6291 H   0  0  0  0  0  0
  -27.2300  -37.1466   25.8865 H   0  0  0  0  0  0
  -20.9302  -29.8761   21.6952 H   0  0  0  0  0  0
  -26.0184  -38.2867   24.1399 H   0  0  0  0  0  0
  -31.7359  -20.5569   21.3782 H   0  0  0  0  0  0
  -32.5318  -16.3675   21.8911 H   0  0  0  0  0  0
  -28.6007  -17.6728   20.6661 H   0  0  0  0  0  0
  -28.2535  -22.6288   19.3198 H   0  0  0  0  0  0
  -30.0926  -22.0309   21.6882 H   0  0  0  0  0  0
  -34.0783  -19.6616   21.5133 H   0  0  0  0  0  0
  -34.3532  -17.9656   21.9033 H   0  0  0  0  0  0
  -33.7431  -19.0653   23.1432 H   0  0  0  0  0  0
  -28.1361  -20.1708   21.1718 H   0  0  0  0  0  0
  -28.7888  -20.2335   19.5594 H   0  0  0  0  0  0
  -27.2763  -24.8698   19.9029 H   0  0  0  0  0  0
  -28.4090  -25.2190   18.5996 H   0  0  0  0  0  0
  -29.1078  -15.2918   21.4091 H   0  0  0  0  0  0
  1 25  1  0  0  0
  1 30  2  0  0  0
  1 83  1  0  0  0
  2  3  1  0  0  0
  2 25  1  0  0  0
  2 85  1  0  0  0
  2 86  1  0  0  0
  3  4  1  0  0  0
  3 87  1  0  0  0
  3 88  1  0  0  0
  4  5  1  0  0  0
  4 89  1  0  0  0
  4 90  1  0  0  0
  5  6  1  0  0  0
  5 26  1  0  0  0
  5 91  1  0  0  0
  6 25  1  0  0  0
  6 92  1  0  0  0
  6 93  1  0  0  0
  7  8  2  0  0  0
  7 26  1  0  0  0
  7 29  1  0  0  0
  8  9  1  0  0  0
  8 22  1  0  0  0
  9 10  1  0  0  0
  9 27  2  0  0  0
 10 11  2  0  0  0
 10 15  1  0  0  0
 11 12  1  0  0  0
 11 94  1  0  0  0
 12 13  2  0  0  0
 12 95  1  0  0  0
 13 14  1  0  0  0
 13 31  1  0  0  0
 14 15  2  0  0  0
 14 96  1  0  0  0
 15 97  1  0  0  0
 16 17  2  0  0  0
 16 21  1  0  0  0
 16 31  1  0  0  0
 17 18  1  0  0  0
 17 98  1  0  0  0
 18 19  2  0  0  0
 18 99  1  0  0  0
 19 20  1  0  0  0
 19 24  1  0  0  0
 20 21  2  0  0  0
 20100  1  0  0  0
 21 23  1  0  0  0
 22 28  1  0  0  0
 22 32  2  0  0  0
 26 27  1  0  0  0
 28101  1  0  0  0
 28102  1  0  0  0
 29103  1  0  0  0
 29104  1  0  0  0
 33 34  1  0  0  0
 33 66  1  0  0  0
 33 70  2  0  0  0
 34 36  1  0  0  0
 34 59  1  0  0  0
 34105  1  0  0  0
 35 44  2  0  0  0
 35 45  1  0  0  0
 35 68  1  0  0  0
 36 56  1  0  0  0
 36106  1  0  0  0
 37 39  1  0  0  0
 37 47  1  0  0  0
 37 66  1  0  0  0
 37107  1  0  0  0
 38 43  2  0  0  0
 38 46  1  0  0  0
 38 47  1  0  0  0
 39 64  1  0  0  0
 39 67  2  0  0  0
 40 52  1  0  0  0
 40 53  2  0  0  0
 40 58  1  0  0  0
 41108  1  0  0  0
 41109  1  0  0  0
 41110  1  0  0  0
 41 48  1  0  0  0
 42 43  1  0  0  0
 42 66  1  0  0  0
 42111  1  0  0  0
 42112  1  0  0  0
 43 44  1  0  0  0
 44113  1  0  0  0
 45 46  2  0  0  0
 45114  1  0  0  0
 46115  1  0  0  0
 47116  1  0  0  0
 47117  1  0  0  0
 48 56  1  0  0  0
 48 65  1  0  0  0
 48118  1  0  0  0
 49 50  1  0  0  0
 49 53  1  0  0  0
 49 64  1  0  0  0
 49119  1  0  0  0
 50 51  1  0  0  0
 50120  1  0  0  0
 50121  1  0  0  0
 51 52  1  0  0  0
 51122  1  0  0  0
 51123  1  0  0  0
 52124  1  0  0  0
 52125  1  0  0  0
 53 54  1  0  0  0
 54 55  2  0  0  0
 54126  1  0  0  0
 55 57  1  0  0  0
 55127  1  0  0  0
 56 69  2  0  0  0
 57 58  2  0  0  0
 57128  1  0  0  0
 58129  1  0  0  0
 59 60  1  0  0  0
 59 61  1  0  0  0
 59 62  1  0  0  0
 60130  1  0  0  0
 60131  1  0  0  0
 60132  1  0  0  0
 61133  1  0  0  0
 61134  1  0  0  0
 61135  1  0  0  0
 62136  1  0  0  0
 62137  1  0  0  0
 62138  1  0  0  0
 63 65  1  0  0  0
 63139  1  0  0  0
 63140  1  0  0  0
 63141  1  0  0  0
 64142  1  0  0  0
 65143  1  0  0  0
 68 82  1  0  0  0
 71 74  2  0  0  0
 71 75  1  0  0  0
 71144  1  0  0  0
 72 74  1  0  0  0
 72 76  2  0  0  0
 72145  1  0  0  0
 73 75  2  0  0  0
 73 76  1  0  0  0
 73146  1  0  0  0
 74 80  1  0  0  0
 75 81  1  0  0  0
 76 83  1  0  0  0
 77 78  2  0  0  0
 77 79  1  0  0  0
 77147  1  0  0  0
 78 81  1  0  0  0
 78148  1  0  0  0
 79 82  1  0  0  0
 79 84  2  0  0  0
 80149  1  0  0  0
 80150  1  0  0  0
 80151  1  0  0  0
 81152  1  0  0  0
 81153  1  0  0  0
 82154  1  0  0  0
 82155  1  0  0  0
 83156  1  0  0  0
M  ISO  4   1 100  68 101  82 101  83 100
M  END
> <chiral flag>
0

> <version>
0

> <s_m_source_file>
/data/baiqing/PycharmProjects/Reinvent-master-3.2/result/LINK_invent/BTK/process_docking_weight1_custom_product_contain_oxygen_bond_distance_aromatic_linkinvent_7_9_3/rearranged_h_0130.sdf

> <i_m_source_file_index>
65

> <r_mmod_Potential_Energy-OPLS-2005>
-32.0146980285645

> <r_mmod_Stretch_Energy-OPLS-2005>
39.8663864135742

> <r_mmod_Bend_Energy-OPLS-2005>
100.64501953125

> <r_mmod_Torsional_Energy-OPLS-2005>
214.660354614258

> <r_mmod_Improper_Torsional_Energy-OPLS-2005>
3.75094676017761

> <r_mmod_Van_der_Waal_Energy-OPLS-2005>
162.888763427734

> <r_mmod_Electrostatic_Energy-OPLS-2005>
-338.03369140625

> <r_mmod_Solvation_Energy-OPLS-2005>
-231.103607177734

> <b_mmod_Minimization_Converged-OPLS-2005>
0

> <r_mmod_RMS_Derivative-OPLS-2005>
0.88748300075531

$$$$
65
                    3D
 Structure written by MMmdl.
161170  0  0  1  0            999 V2000
  -30.7099  -14.5232   20.5669 C   0  0  0  0  0  0
  -30.4035  -12.3450   19.4369 C   0  0  0  0  0  0
  -29.4818  -12.5154   18.2117 C   0  0  0  0  0  0
  -28.0041  -12.3709   18.6145 C   0  0  0  0  0  0
  -27.6434  -13.2199   19.8625 C   0  0  2  0  0  0
  -28.6868  -13.0526   20.9897 C   0  0  0  0  0  0
  -25.2469  -13.8171   20.5649 C   0  0  0  0  0  0
  -24.1739  -13.0432   20.9167 C   0  0  0  0  0  0
  -24.6333  -11.6906   20.8727 C   0  0  0  0  0  0
  -23.8996  -10.4305   21.0401 C   0  0  0  0  0  0
  -24.3551   -9.4237   21.9202 C   0  0  0  0  0  0
  -23.6235   -8.2266   22.0780 C   0  0  0  0  0  0
  -22.4234   -8.0274   21.3549 C   0  0  0  0  0  0
  -21.9852   -9.0246   20.4665 C   0  0  0  0  0  0
  -22.7159  -10.2141   20.3065 C   0  0  0  0  0  0
  -21.6856   -6.0691   22.5242 C   0  0  0  0  0  0
  -21.4026   -6.5612   23.8186 C   0  0  0  0  0  0
  -21.3673   -5.6775   24.9158 C   0  0  0  0  0  0
  -21.6053   -4.3036   24.7236 C   0  0  0  0  0  0
  -21.8812   -3.8103   23.4355 C   0  0  0  0  0  0
  -21.9186   -4.6912   22.3409 C   0  0  0  0  0  0
  -22.7774  -13.5235   21.1810 C   0  0  0  0  0  0
  -22.1638   -4.2076   21.0984 F   0  0  0  0  0  0
  -21.5666   -3.4545   25.7772 F   0  0  0  0  0  0
  -30.0086  -13.3610   20.4253 N   0  0  0  0  0  0
  -26.2900  -12.9374   20.3293 N   0  0  0  0  0  0
  -25.9257  -11.6519   20.5706 N   0  0  0  0  0  0
  -22.0395  -12.8278   22.0389 N   0  0  0  0  0  0
  -25.4144  -15.1898   20.4133 N   0  0  0  0  0  0
  -31.8548  -14.6439   20.1230 O   0  0  0  0  0  0
  -21.6648   -6.8835   21.4214 O   0  0  0  0  0  0
  -22.3495  -14.5551   20.6623 O   0  0  0  0  0  0
  -24.6197  -31.8672   23.2133 C   0  0  0  0  0  0
  -25.9089  -32.4822   23.8398 C   0  0  1  0  0  0
  -27.2356  -27.4066   20.0846 C   0  0  0  0  0  0
  -25.5960  -33.8623   24.2337 N   0  0  0  0  0  0
  -23.4076  -30.4907   21.5596 C   0  0  2  0  0  0
  -24.8535  -28.9451   20.1321 C   0  0  0  0  0  0
  -22.7439  -29.4663   22.5077 C   0  0  0  0  0  0
  -18.0309  -28.1336   22.8504 C   0  0  0  0  0  0
  -24.1492  -36.7298   23.2632 C   0  0  0  0  0  0
  -25.9421  -30.8144   21.3758 C   0  0  0  0  0  0
  -26.0194  -29.4442   20.7284 C   0  0  0  0  0  0
  -27.2182  -28.6806   20.7091 C   0  0  0  0  0  0
  -26.0485  -26.9271   19.5018 C   0  0  0  0  0  0
  -24.8598  -27.6789   19.5287 C   0  0  0  0  0  0
  -23.6195  -29.8209   20.1779 C   0  0  0  0  0  0
  -25.4115  -36.3110   24.0336 C   0  0  1  0  0  0
  -20.5895  -28.3690   23.1387 C   0  0  2  0  0  0
  -20.6868  -26.9474   22.5420 C   0  0  0  0  0  0
  -19.5882  -26.6513   21.5141 C   0  0  0  0  0  0
  -18.2044  -26.7926   22.1545 C   0  0  0  0  0  0
  -19.1536  -28.8821   23.2944 C   0  0  0  0  0  0
  -18.9435  -30.1411   23.8958 C   0  0  0  0  0  0
  -17.6424  -30.6553   24.0562 C   0  0  0  0  0  0
  -25.9051  -34.9479   23.5132 C   0  0  0  0  0  0
  -16.5343  -29.9052   23.6303 C   0  0  0  0  0  0
  -16.7285  -28.6455   23.0348 C   0  0  0  0  0  0
  -26.4500  -31.6613   25.0737 C   0  0  0  0  0  0
  -25.3756  -31.3737   26.1484 C   0  0  0  0  0  0
  -27.0328  -30.3050   24.6119 C   0  0  0  0  0  0
  -27.6082  -32.4315   25.7515 C   0  0  0  0  0  0
  -27.5582  -37.1806   24.8465 C   0  0  0  0  0  0
  -21.4160  -29.3088   22.3833 N   0  0  0  0  0  0
  -26.4300  -37.3799   23.9400 N   0  0  0  0  0  0
  -24.6751  -31.0743   22.1066 N   0  0  0  0  0  0
  -23.4193  -28.8155   23.3088 O   0  0  0  0  0  0
  -28.3737  -26.6527   19.8623 O   0  0  0  0  0  0
  -26.5595  -34.8928   22.4684 O   0  0  0  0  0  0
  -23.5393  -32.1446   23.7521 O   0  0  0  0  0  0
  -28.3898  -19.8023   20.8315 C   0  0  0  0  0  0
  -30.3995  -20.6404   21.8891 C   0  0  0  0  0  0
  -28.8909  -18.4757   20.8941 C   0  0  0  0  0  0
  -30.9002  -19.3171   21.9431 C   0  0  0  0  0  0
  -29.1253  -20.9031   21.3396 C   0  0  0  0  0  0
  -30.1567  -18.2091   21.4644 C   0  0  0  0  0  0
  -28.8289  -24.6688   21.2994 C   0  0  0  0  0  0
  -29.1065  -23.5105   20.6549 C   0  0  0  0  0  0
  -28.1137  -24.4039   22.5993 C   0  0  0  0  0  0
  -28.2433  -22.8777   22.7930 C   0  0  0  0  0  0
  -28.4869  -22.3126   21.3790 C   0  0  2  0  0  0
  -29.7816  -23.3216   19.3058 C   0  0  0  0  0  0
  -30.7808  -16.8001   21.6070 C   0  0  0  0  0  0
  -29.1449  -26.1360   20.9447 C   0  0  0  0  0  0
  -30.0750  -15.5789   21.1335 N   0  0  0  0  0  0
  -31.4504  -12.4265   19.1401 H   0  0  0  0  0  0
  -30.2943  -11.3516   19.8739 H   0  0  0  0  0  0
  -29.7296  -11.7840   17.4431 H   0  0  0  0  0  0
  -29.6358  -13.4994   17.7628 H   0  0  0  0  0  0
  -27.8019  -11.3141   18.7968 H   0  0  0  0  0  0
  -27.3696  -12.6563   17.7762 H   0  0  0  0  0  0
  -27.6660  -14.2629   19.5465 H   0  0  0  0  0  0
  -28.6721  -12.0304   21.3674 H   0  0  0  0  0  0
  -28.4373  -13.6886   21.8410 H   0  0  0  0  0  0
  -25.2702   -9.5744   22.4763 H   0  0  0  0  0  0
  -23.9929   -7.4698   22.7540 H   0  0  0  0  0  0
  -21.0750   -8.8765   19.8999 H   0  0  0  0  0  0
  -22.3581  -10.9685   19.6173 H   0  0  0  0  0  0
  -21.1998   -7.6119   23.9659 H   0  0  0  0  0  0
  -21.1520   -6.0525   25.9070 H   0  0  0  0  0  0
  -22.0569   -2.7547   23.2893 H   0  0  0  0  0  0
  -22.3961  -11.9943   22.4825 H   0  0  0  0  0  0
  -21.1054  -13.1402   22.2662 H   0  0  0  0  0  0
  -24.6518  -15.8448   20.5449 H   0  0  0  0  0  0
  -26.2567  -15.6316   20.0659 H   0  0  0  0  0  0
  -26.7148  -32.5493   23.1136 H   0  0  0  0  0  0
  -25.0128  -33.9764   25.0494 H   0  0  0  0  0  0
  -22.6968  -31.3083   21.4192 H   0  0  0  0  0  0
  -23.3757  -35.9622   23.3315 H   0  0  0  0  0  0
  -24.3590  -36.8905   22.2043 H   0  0  0  0  0  0
  -23.7234  -37.6514   23.6631 H   0  0  0  0  0  0
  -26.0677  -31.5793   20.6091 H   0  0  0  0  0  0
  -26.8246  -30.8638   22.0011 H   0  0  0  0  0  0
  -28.1312  -29.0826   21.1265 H   0  0  0  0  0  0
  -26.0394  -25.9620   19.0169 H   0  0  0  0  0  0
  -23.9601  -27.2822   19.0780 H   0  0  0  0  0  0
  -23.7313  -30.5937   19.4168 H   0  0  0  0  0  0
  -22.7383  -29.2515   19.8800 H   0  0  0  0  0  0
  -25.1284  -36.1983   25.0830 H   0  0  0  0  0  0
  -20.9933  -28.3228   24.1540 H   0  0  0  0  0  0
  -20.5821  -26.2289   23.3553 H   0  0  0  0  0  0
  -21.6771  -26.7613   22.1232 H   0  0  0  0  0  0
  -19.7155  -25.6522   21.0991 H   0  0  0  0  0  0
  -19.6810  -27.3470   20.6798 H   0  0  0  0  0  0
  -17.4378  -26.6740   21.3883 H   0  0  0  0  0  0
  -18.0411  -25.9957   22.8838 H   0  0  0  0  0  0
  -19.7894  -30.7195   24.2391 H   0  0  0  0  0  0
  -17.4936  -31.6243   24.5157 H   0  0  0  0  0  0
  -15.5329  -30.2938   23.7585 H   0  0  0  0  0  0
  -15.8664  -28.0804   22.7053 H   0  0  0  0  0  0
  -24.5921  -30.7090   25.7830 H   0  0  0  0  0  0
  -24.8949  -32.2907   26.4898 H   0  0  0  0  0  0
  -25.8098  -30.8934   27.0263 H   0  0  0  0  0  0
  -26.2894  -29.6832   24.1119 H   0  0  0  0  0  0
  -27.4065  -29.7256   25.4576 H   0  0  0  0  0  0
  -27.8740  -30.4381   23.9308 H   0  0  0  0  0  0
  -27.2698  -33.3597   26.2111 H   0  0  0  0  0  0
  -28.3878  -32.6890   25.0340 H   0  0  0  0  0  0
  -28.0730  -31.8410   26.5420 H   0  0  0  0  0  0
  -28.2607  -38.0099   24.7506 H   0  0  0  0  0  0
  -28.1075  -36.2638   24.6292 H   0  0  0  0  0  0
  -27.2295  -37.1443   25.8868 H   0  0  0  0  0  0
  -20.9311  -29.8855   21.7104 H   0  0  0  0  0  0
  -26.0196  -38.2886   24.1407 H   0  0  0  0  0  0
  -27.4084  -19.9650   20.4121 H   0  0  0  0  0  0
  -30.9928  -21.4462   22.2984 H   0  0  0  0  0  0
  -28.2855  -17.6676   20.5107 H   0  0  0  0  0  0
  -31.8752  -19.1508   22.3821 H   0  0  0  0  0  0
  -27.0712  -24.7080   22.4912 H   0  0  0  0  0  0
  -28.5606  -24.9714   23.4151 H   0  0  0  0  0  0
  -27.3873  -22.4276   23.2948 H   0  0  0  0  0  0
  -29.1194  -22.6841   23.4152 H   0  0  0  0  0  0
  -27.5104  -22.2113   20.9050 H   0  0  0  0  0  0
  -30.2851  -24.2245   18.9603 H   0  0  0  0  0  0
  -29.0417  -23.0357   18.5571 H   0  0  0  0  0  0
  -30.5208  -22.5209   19.3509 H   0  0  0  0  0  0
  -30.9857  -16.6408   22.6665 H   0  0  0  0  0  0
  -31.7649  -16.8731   21.1422 H   0  0  0  0  0  0
  -30.1937  -26.2052   20.6532 H   0  0  0  0  0  0
  -29.0402  -26.7678   21.8260 H   0  0  0  0  0  0
  -29.1109  -15.4480   21.4009 H   0  0  0  0  0  0
  1 25  1  0  0  0
  1 30  2  0  0  0
  1 85  1  0  0  0
  2  3  1  0  0  0
  2 25  1  0  0  0
  2 86  1  0  0  0
  2 87  1  0  0  0
  3  4  1  0  0  0
  3 88  1  0  0  0
  3 89  1  0  0  0
  4  5  1  0  0  0
  4 90  1  0  0  0
  4 91  1  0  0  0
  5  6  1  0  0  0
  5 26  1  0  0  0
  5 92  1  0  0  0
  6 25  1  0  0  0
  6 93  1  0  0  0
  6 94  1  0  0  0
  7  8  2  0  0  0
  7 26  1  0  0  0
  7 29  1  0  0  0
  8  9  1  0  0  0
  8 22  1  0  0  0
  9 10  1  0  0  0
  9 27  2  0  0  0
 10 11  2  0  0  0
 10 15  1  0  0  0
 11 12  1  0  0  0
 11 95  1  0  0  0
 12 13  2  0  0  0
 12 96  1  0  0  0
 13 14  1  0  0  0
 13 31  1  0  0  0
 14 15  2  0  0  0
 14 97  1  0  0  0
 15 98  1  0  0  0
 16 17  2  0  0  0
 16 21  1  0  0  0
 16 31  1  0  0  0
 17 18  1  0  0  0
 17 99  1  0  0  0
 18 19  2  0  0  0
 18100  1  0  0  0
 19 20  1  0  0  0
 19 24  1  0  0  0
 20 21  2  0  0  0
 20101  1  0  0  0
 21 23  1  0  0  0
 22 28  1  0  0  0
 22 32  2  0  0  0
 26 27  1  0  0  0
 28102  1  0  0  0
 28103  1  0  0  0
 29104  1  0  0  0
 29105  1  0  0  0
 33 34  1  0  0  0
 33 66  1  0  0  0
 33 70  2  0  0  0
 34 36  1  0  0  0
 34 59  1  0  0  0
 34106  1  0  0  0
 35 44  2  0  0  0
 35 45  1  0  0  0
 35 68  1  0  0  0
 36 56  1  0  0  0
 36107  1  0  0  0
 37 39  1  0  0  0
 37 47  1  0  0  0
 37 66  1  0  0  0
 37108  1  0  0  0
 38 43  2  0  0  0
 38 46  1  0  0  0
 38 47  1  0  0  0
 39 64  1  0  0  0
 39 67  2  0  0  0
 40 52  1  0  0  0
 40 53  2  0  0  0
 40 58  1  0  0  0
 41109  1  0  0  0
 41110  1  0  0  0
 41111  1  0  0  0
 41 48  1  0  0  0
 42 43  1  0  0  0
 42 66  1  0  0  0
 42112  1  0  0  0
 42113  1  0  0  0
 43 44  1  0  0  0
 44114  1  0  0  0
 45 46  2  0  0  0
 45115  1  0  0  0
 46116  1  0  0  0
 47117  1  0  0  0
 47118  1  0  0  0
 48 56  1  0  0  0
 48 65  1  0  0  0
 48119  1  0  0  0
 49 50  1  0  0  0
 49 53  1  0  0  0
 49 64  1  0  0  0
 49120  1  0  0  0
 50 51  1  0  0  0
 50121  1  0  0  0
 50122  1  0  0  0
 51 52  1  0  0  0
 51123  1  0  0  0
 51124  1  0  0  0
 52125  1  0  0  0
 52126  1  0  0  0
 53 54  1  0  0  0
 54 55  2  0  0  0
 54127  1  0  0  0
 55 57  1  0  0  0
 55128  1  0  0  0
 56 69  2  0  0  0
 57 58  2  0  0  0
 57129  1  0  0  0
 58130  1  0  0  0
 59 60  1  0  0  0
 59 61  1  0  0  0
 59 62  1  0  0  0
 60131  1  0  0  0
 60132  1  0  0  0
 60133  1  0  0  0
 61134  1  0  0  0
 61135  1  0  0  0
 61136  1  0  0  0
 62137  1  0  0  0
 62138  1  0  0  0
 62139  1  0  0  0
 63 65  1  0  0  0
 63140  1  0  0  0
 63141  1  0  0  0
 63142  1  0  0  0
 64143  1  0  0  0
 65144  1  0  0  0
 68 84  1  0  0  0
 71 73  2  0  0  0
 71 75  1  0  0  0
 71145  1  0  0  0
 72 74  1  0  0  0
 72 75  2  0  0  0
 72146  1  0  0  0
 73 76  1  0  0  0
 73147  1  0  0  0
 74 76  2  0  0  0
 74148  1  0  0  0
 75 81  1  0  0  0
 76 83  1  0  0  0
 77 78  2  0  0  0
 77 79  1  0  0  0
 77 84  1  0  0  0
 78 81  1  0  0  0
 78 82  1  0  0  0
 79 80  1  0  0  0
 79149  1  0  0  0
 79150  1  0  0  0
 80 81  1  0  0  0
 80151  1  0  0  0
 80152  1  0  0  0
 81153  1  0  0  0
 82154  1  0  0  0
 82155  1  0  0  0
 82156  1  0  0  0
 83 85  1  0  0  0
 83157  1  0  0  0
 83158  1  0  0  0
 84159  1  0  0  0
 84160  1  0  0  0
 85161  1  0  0  0
M  ISO  4   1 100  68 101  84 101  85 100
M  END
> <chiral flag>
0

> <version>
0

> <s_m_source_file>
/data/baiqing/PycharmProjects/Reinvent-master-3.2/result/LINK_invent/BTK/process_docking_weight1_custom_product_contain_oxygen_bond_distance_aromatic_linkinvent_7_9_3/rearranged_h_0130.sdf

> <i_m_source_file_index>
66

> <r_mmod_Potential_Energy-OPLS-2005>
24.3774318695068

> <r_mmod_Stretch_Energy-OPLS-2005>
43.797233581543

> <r_mmod_Bend_Energy-OPLS-2005>
180.376663208008

> <r_mmod_Torsional_Energy-OPLS-2005>
233.770721435547

> <r_mmod_Improper_Torsional_Energy-OPLS-2005>
3.59836387634277

> <r_mmod_Van_der_Waal_Energy-OPLS-2005>
135.310882568359

> <r_mmod_Electrostatic_Energy-OPLS-2005>
-396.906188964844

> <r_mmod_Solvation_Energy-OPLS-2005>
-197.794723510742

> <b_mmod_Minimization_Converged-OPLS-2005>
0

> <r_mmod_RMS_Derivative-OPLS-2005>
4.80710029602051

$$$$
66
                    3D
 Structure written by MMmdl.
163171  0  0  1  0            999 V2000
  -30.7378  -14.4153   20.6030 C   0  0  0  0  0  0
  -30.4175  -12.2848   19.4084 C   0  0  0  0  0  0
  -29.4901  -12.5118   18.1983 C   0  0  0  0  0  0
  -28.0120  -12.3715   18.6108 C   0  0  0  0  0  0
  -27.6639  -13.1985   19.8758 C   0  0  2  0  0  0
  -28.7060  -12.9658   20.9941 C   0  0  0  0  0  0
  -25.2564  -13.8102   20.5618 C   0  0  0  0  0  0
  -24.1832  -13.0396   20.9167 C   0  0  0  0  0  0
  -24.6396  -11.6870   20.8735 C   0  0  0  0  0  0
  -23.9056  -10.4268   21.0409 C   0  0  0  0  0  0
  -24.3610   -9.4191   21.9191 C   0  0  0  0  0  0
  -23.6282   -8.2233   22.0760 C   0  0  0  0  0  0
  -22.4268   -8.0270   21.3547 C   0  0  0  0  0  0
  -21.9901   -9.0243   20.4647 C   0  0  0  0  0  0
  -22.7232  -10.2119   20.3051 C   0  0  0  0  0  0
  -21.6849   -6.0729   22.5280 C   0  0  0  0  0  0
  -21.4012   -6.5640   23.8211 C   0  0  0  0  0  0
  -21.3651   -5.6791   24.9172 C   0  0  0  0  0  0
  -21.6044   -4.3054   24.7226 C   0  0  0  0  0  0
  -21.8821   -3.8143   23.4347 C   0  0  0  0  0  0
  -21.9195   -4.6958   22.3402 C   0  0  0  0  0  0
  -22.7858  -13.5219   21.1834 C   0  0  0  0  0  0
  -22.1666   -4.2147   21.0975 F   0  0  0  0  0  0
  -21.5621   -3.4538   25.7736 F   0  0  0  0  0  0
  -30.0440  -13.2562   20.4467 N   0  0  0  0  0  0
  -26.3028  -12.9282   20.3352 N   0  0  0  0  0  0
  -25.9326  -11.6450   20.5776 N   0  0  0  0  0  0
  -22.0498  -12.8219   22.0390 N   0  0  0  0  0  0
  -25.4171  -15.1797   20.3901 N   0  0  0  0  0  0
  -31.8417  -14.6146   20.0863 O   0  0  0  0  0  0
  -21.6632   -6.8871   21.4241 O   0  0  0  0  0  0
  -22.3555  -14.5536   20.6689 O   0  0  0  0  0  0
  -24.6098  -31.8705   23.2132 C   0  0  0  0  0  0
  -25.9008  -32.4833   23.8413 C   0  0  1  0  0  0
  -27.2461  -27.4730   20.0764 C   0  0  0  0  0  0
  -25.5873  -33.8634   24.2345 N   0  0  0  0  0  0
  -23.3971  -30.4916   21.5526 C   0  0  2  0  0  0
  -24.8463  -28.9590   20.1162 C   0  0  0  0  0  0
  -22.7379  -29.4666   22.5022 C   0  0  0  0  0  0
  -18.0250  -28.1374   22.8497 C   0  0  0  0  0  0
  -24.1479  -36.7325   23.2638 C   0  0  0  0  0  0
  -25.9217  -30.8404   21.3653 C   0  0  0  0  0  0
  -26.0002  -29.4751   20.7180 C   0  0  0  0  0  0
  -27.1981  -28.7308   20.7121 C   0  0  0  0  0  0
  -26.0735  -26.9557   19.4832 C   0  0  0  0  0  0
  -24.8740  -27.6939   19.5027 C   0  0  0  0  0  0
  -23.6043  -29.8193   20.1674 C   0  0  0  0  0  0
  -25.4105  -36.3133   24.0341 C   0  0  1  0  0  0
  -20.5834  -28.3659   23.1336 C   0  0  2  0  0  0
  -20.6741  -26.9397   22.5437 C   0  0  0  0  0  0
  -19.5724  -26.6386   21.5224 C   0  0  0  0  0  0
  -18.1893  -26.7926   22.1612 C   0  0  0  0  0  0
  -19.1498  -28.8830   23.2913 C   0  0  0  0  0  0
  -18.9433  -30.1433   23.8934 C   0  0  0  0  0  0
  -17.6437  -30.6584   24.0572 C   0  0  0  0  0  0
  -25.9029  -34.9486   23.5150 C   0  0  0  0  0  0
  -16.5328  -29.9094   23.6319 C   0  0  0  0  0  0
  -16.7239  -28.6500   23.0358 C   0  0  0  0  0  0
  -26.4442  -31.6596   25.0725 C   0  0  0  0  0  0
  -25.3727  -31.3688   26.1488 C   0  0  0  0  0  0
  -27.0243  -30.3033   24.6082 C   0  0  0  0  0  0
  -27.6045  -32.4290   25.7480 C   0  0  0  0  0  0
  -27.5586  -37.1820   24.8463 C   0  0  0  0  0  0
  -21.4110  -29.3039   22.3761 N   0  0  0  0  0  0
  -26.4299  -37.3813   23.9403 N   0  0  0  0  0  0
  -24.6605  -31.0819   22.1026 N   0  0  0  0  0  0
  -23.4162  -28.8208   23.3055 O   0  0  0  0  0  0
  -28.4261  -26.7685   20.0771 O   0  0  0  0  0  0
  -26.5605  -34.8932   22.4715 O   0  0  0  0  0  0
  -23.5299  -32.1455   23.7543 O   0  0  0  0  0  0
  -31.8808  -18.6512   21.6591 C   0  0  0  0  0  0
  -31.5829  -17.2761   21.7563 C   0  0  0  0  0  0
  -29.8036  -19.0130   20.4554 C   0  0  0  0  0  0
  -30.9958  -19.5330   21.0039 C   0  0  0  0  0  0
  -29.4922  -17.6439   20.5506 C   0  0  0  0  0  0
  -30.3948  -16.7600   21.1930 C   0  0  0  0  0  0
  -31.3548  -20.9532   20.8390 C   0  0  0  0  0  0
  -30.8459  -21.7618   19.8907 C   0  0  0  0  0  0
  -28.4185  -16.7234   18.4524 C   0  0  0  0  0  0
  -28.2063  -17.1567   19.9092 C   0  0  0  0  0  0
  -31.1760  -23.2286   19.7058 C   0  0  0  0  0  0
  -29.8999  -24.0761   19.5750 C   0  0  0  0  0  0
  -30.1642  -25.4814   19.0106 C   0  0  0  0  0  0
  -28.8777  -26.2979   18.8124 C   0  0  0  0  0  0
  -30.0989  -15.3752   21.2884 N   0  0  0  0  0  0
  -31.4631  -12.3732   19.1067 H   0  0  0  0  0  0
  -30.3058  -11.2687   19.7902 H   0  0  0  0  0  0
  -29.7239  -11.8020   17.4039 H   0  0  0  0  0  0
  -29.6641  -13.5038   17.7799 H   0  0  0  0  0  0
  -27.8161  -11.3140   18.7923 H   0  0  0  0  0  0
  -27.3624  -12.6616   17.7842 H   0  0  0  0  0  0
  -27.7104  -14.2448   19.5845 H   0  0  0  0  0  0
  -28.6733  -11.9280   21.3285 H   0  0  0  0  0  0
  -28.4657  -13.5577   21.8776 H   0  0  0  0  0  0
  -25.2756   -9.5665   22.4768 H   0  0  0  0  0  0
  -23.9983   -7.4629   22.7483 H   0  0  0  0  0  0
  -21.0832   -8.8763   19.8954 H   0  0  0  0  0  0
  -22.3701  -10.9658   19.6153 H   0  0  0  0  0  0
  -21.2002   -7.6152   23.9715 H   0  0  0  0  0  0
  -21.1467   -6.0519   25.9072 H   0  0  0  0  0  0
  -22.0607   -2.7608   23.2846 H   0  0  0  0  0  0
  -22.4098  -11.9859   22.4758 H   0  0  0  0  0  0
  -21.1130  -13.1271   22.2618 H   0  0  0  0  0  0
  -24.6340  -15.8202   20.4618 H   0  0  0  0  0  0
  -26.2428  -15.6056   19.9928 H   0  0  0  0  0  0
  -26.7081  -32.5558   23.1192 H   0  0  0  0  0  0
  -24.9989  -33.9805   25.0466 H   0  0  0  0  0  0
  -22.6853  -31.3071   21.4124 H   0  0  0  0  0  0
  -23.3754  -35.9644   23.3300 H   0  0  0  0  0  0
  -24.3574  -36.8947   22.2051 H   0  0  0  0  0  0
  -23.7209  -37.6521   23.6654 H   0  0  0  0  0  0
  -26.0296  -31.6040   20.5936 H   0  0  0  0  0  0
  -26.8108  -30.8984   21.9805 H   0  0  0  0  0  0
  -28.0894  -29.1250   21.1796 H   0  0  0  0  0  0
  -26.0739  -25.9814   19.0168 H   0  0  0  0  0  0
  -23.9852  -27.2863   19.0420 H   0  0  0  0  0  0
  -23.7056  -30.5909   19.4036 H   0  0  0  0  0  0
  -22.7309  -29.2319   19.8767 H   0  0  0  0  0  0
  -25.1288  -36.2015   25.0841 H   0  0  0  0  0  0
  -20.9905  -28.3217   24.1464 H   0  0  0  0  0  0
  -20.5612  -26.2278   23.3628 H   0  0  0  0  0  0
  -21.6619  -26.7431   22.1245 H   0  0  0  0  0  0
  -19.6881  -25.6298   21.1246 H   0  0  0  0  0  0
  -19.6666  -27.3209   20.6762 H   0  0  0  0  0  0
  -17.4175  -26.6690   21.4004 H   0  0  0  0  0  0
  -18.0270  -26.0054   22.8981 H   0  0  0  0  0  0
  -19.7917  -30.7230   24.2334 H   0  0  0  0  0  0
  -17.4997  -31.6273   24.5159 H   0  0  0  0  0  0
  -15.5330  -30.3016   23.7626 H   0  0  0  0  0  0
  -15.8628  -28.0825   22.7088 H   0  0  0  0  0  0
  -24.5911  -30.7020   25.7830 H   0  0  0  0  0  0
  -24.8906  -32.2828   26.4961 H   0  0  0  0  0  0
  -25.8096  -30.8844   27.0227 H   0  0  0  0  0  0
  -26.2762  -29.6826   24.1138 H   0  0  0  0  0  0
  -27.3994  -29.7244   25.4528 H   0  0  0  0  0  0
  -27.8614  -30.4330   23.9224 H   0  0  0  0  0  0
  -27.2696  -33.3593   26.2082 H   0  0  0  0  0  0
  -28.3852  -32.6834   25.0301 H   0  0  0  0  0  0
  -28.0705  -31.8382   26.5379 H   0  0  0  0  0  0
  -28.2635  -38.0092   24.7512 H   0  0  0  0  0  0
  -28.1057  -36.2635   24.6296 H   0  0  0  0  0  0
  -27.2300  -37.1472   25.8865 H   0  0  0  0  0  0
  -20.9260  -29.8791   21.7016 H   0  0  0  0  0  0
  -26.0202  -38.2899   24.1403 H   0  0  0  0  0  0
  -32.8057  -19.0218   22.0781 H   0  0  0  0  0  0
  -32.2809  -16.6176   22.2537 H   0  0  0  0  0  0
  -29.1044  -19.6644   19.9521 H   0  0  0  0  0  0
  -32.0661  -21.3548   21.5476 H   0  0  0  0  0  0
  -30.1470  -21.3664   19.1677 H   0  0  0  0  0  0
  -27.4932  -16.3518   18.0127 H   0  0  0  0  0  0
  -29.1649  -15.9336   18.3751 H   0  0  0  0  0  0
  -28.7607  -17.5601   17.8424 H   0  0  0  0  0  0
  -27.4588  -17.9507   19.9465 H   0  0  0  0  0  0
  -27.7986  -16.3457   20.5061 H   0  0  0  0  0  0
  -31.7749  -23.3138   18.7979 H   0  0  0  0  0  0
  -31.7960  -23.5897   20.5279 H   0  0  0  0  0  0
  -29.4022  -24.1472   20.5438 H   0  0  0  0  0  0
  -29.2005  -23.5680   18.9091 H   0  0  0  0  0  0
  -30.6584  -25.3803   18.0435 H   0  0  0  0  0  0
  -30.8588  -26.0273   19.6509 H   0  0  0  0  0  0
  -28.1341  -25.6879   18.2995 H   0  0  0  0  0  0
  -29.0830  -27.1577   18.1726 H   0  0  0  0  0  0
  -29.1760  -15.1262   21.6092 H   0  0  0  0  0  0
  1 25  1  0  0  0
  1 30  2  0  0  0
  1 85  1  0  0  0
  2  3  1  0  0  0
  2 25  1  0  0  0
  2 86  1  0  0  0
  2 87  1  0  0  0
  3  4  1  0  0  0
  3 88  1  0  0  0
  3 89  1  0  0  0
  4  5  1  0  0  0
  4 90  1  0  0  0
  4 91  1  0  0  0
  5  6  1  0  0  0
  5 26  1  0  0  0
  5 92  1  0  0  0
  6 25  1  0  0  0
  6 93  1  0  0  0
  6 94  1  0  0  0
  7  8  2  0  0  0
  7 26  1  0  0  0
  7 29  1  0  0  0
  8  9  1  0  0  0
  8 22  1  0  0  0
  9 10  1  0  0  0
  9 27  2  0  0  0
 10 11  2  0  0  0
 10 15  1  0  0  0
 11 12  1  0  0  0
 11 95  1  0  0  0
 12 13  2  0  0  0
 12 96  1  0  0  0
 13 14  1  0  0  0
 13 31  1  0  0  0
 14 15  2  0  0  0
 14 97  1  0  0  0
 15 98  1  0  0  0
 16 17  2  0  0  0
 16 21  1  0  0  0
 16 31  1  0  0  0
 17 18  1  0  0  0
 17 99  1  0  0  0
 18 19  2  0  0  0
 18100  1  0  0  0
 19 20  1  0  0  0
 19 24  1  0  0  0
 20 21  2  0  0  0
 20101  1  0  0  0
 21 23  1  0  0  0
 22 28  1  0  0  0
 22 32  2  0  0  0
 26 27  1  0  0  0
 28102  1  0  0  0
 28103  1  0  0  0
 29104  1  0  0  0
 29105  1  0  0  0
 33 34  1  0  0  0
 33 66  1  0  0  0
 33 70  2  0  0  0
 34 36  1  0  0  0
 34 59  1  0  0  0
 34106  1  0  0  0
 35 44  2  0  0  0
 35 45  1  0  0  0
 35 68  1  0  0  0
 36 56  1  0  0  0
 36107  1  0  0  0
 37 39  1  0  0  0
 37 47  1  0  0  0
 37 66  1  0  0  0
 37108  1  0  0  0
 38 43  2  0  0  0
 38 46  1  0  0  0
 38 47  1  0  0  0
 39 64  1  0  0  0
 39 67  2  0  0  0
 40 52  1  0  0  0
 40 53  2  0  0  0
 40 58  1  0  0  0
 41109  1  0  0  0
 41110  1  0  0  0
 41111  1  0  0  0
 41 48  1  0  0  0
 42 43  1  0  0  0
 42 66  1  0  0  0
 42112  1  0  0  0
 42113  1  0  0  0
 43 44  1  0  0  0
 44114  1  0  0  0
 45 46  2  0  0  0
 45115  1  0  0  0
 46116  1  0  0  0
 47117  1  0  0  0
 47118  1  0  0  0
 48 56  1  0  0  0
 48 65  1  0  0  0
 48119  1  0  0  0
 49 50  1  0  0  0
 49 53  1  0  0  0
 49 64  1  0  0  0
 49120  1  0  0  0
 50 51  1  0  0  0
 50121  1  0  0  0
 50122  1  0  0  0
 51 52  1  0  0  0
 51123  1  0  0  0
 51124  1  0  0  0
 52125  1  0  0  0
 52126  1  0  0  0
 53 54  1  0  0  0
 54 55  2  0  0  0
 54127  1  0  0  0
 55 57  1  0  0  0
 55128  1  0  0  0
 56 69  2  0  0  0
 57 58  2  0  0  0
 57129  1  0  0  0
 58130  1  0  0  0
 59 60  1  0  0  0
 59 61  1  0  0  0
 59 62  1  0  0  0
 60131  1  0  0  0
 60132  1  0  0  0
 60133  1  0  0  0
 61134  1  0  0  0
 61135  1  0  0  0
 61136  1  0  0  0
 62137  1  0  0  0
 62138  1  0  0  0
 62139  1  0  0  0
 63 65  1  0  0  0
 63140  1  0  0  0
 63141  1  0  0  0
 63142  1  0  0  0
 64143  1  0  0  0
 65144  1  0  0  0
 68 84  1  0  0  0
 71 72  2  0  0  0
 71 74  1  0  0  0
 71145  1  0  0  0
 72 76  1  0  0  0
 72146  1  0  0  0
 73 74  2  0  0  0
 73 75  1  0  0  0
 73147  1  0  0  0
 74 77  1  0  0  0
 75 76  2  0  0  0
 75 80  1  0  0  0
 76 85  1  0  0  0
 77 78  2  0  0  0
 77148  1  0  0  0
 78 81  1  0  0  0
 78149  1  0  0  0
 79 80  1  0  0  0
 79150  1  0  0  0
 79151  1  0  0  0
 79152  1  0  0  0
 80153  1  0  0  0
 80154  1  0  0  0
 81 82  1  0  0  0
 81155  1  0  0  0
 81156  1  0  0  0
 82 83  1  0  0  0
 82157  1  0  0  0
 82158  1  0  0  0
 83 84  1  0  0  0
 83159  1  0  0  0
 83160  1  0  0  0
 84161  1  0  0  0
 84162  1  0  0  0
 85163  1  0  0  0
M  ISO  4   1 100  68 101  84 101  85 100
M  END
> <chiral flag>
0

> <version>
0

> <s_m_source_file>
/data/baiqing/PycharmProjects/Reinvent-master-3.2/result/LINK_invent/BTK/process_docking_weight1_custom_product_contain_oxygen_bond_distance_aromatic_linkinvent_7_9_3/rearranged_h_0130.sdf

> <i_m_source_file_index>
67

> <r_mmod_Potential_Energy-OPLS-2005>
-50.7310485839844

> <r_mmod_Stretch_Energy-OPLS-2005>
31.7930011749268

> <r_mmod_Bend_Energy-OPLS-2005>
84.7701950073242

> <r_mmod_Torsional_Energy-OPLS-2005>
244.626586914062

> <r_mmod_Improper_Torsional_Energy-OPLS-2005>
4.24559879302979

> <r_mmod_Van_der_Waal_Energy-OPLS-2005>
147.480102539062

> <r_mmod_Electrostatic_Energy-OPLS-2005>
-373.584411621094

> <r_mmod_Solvation_Energy-OPLS-2005>
-198.687347412109

> <b_mmod_Minimization_Converged-OPLS-2005>
0

> <r_mmod_RMS_Derivative-OPLS-2005>
1.32804906368256

$$$$
67
                    3D
 Structure written by MMmdl.
166174  0  0  1  0            999 V2000
  -30.6204  -14.6325   20.4536 C   0  0  0  0  0  0
  -30.4389  -12.3748   19.4454 C   0  0  0  0  0  0
  -29.5061  -12.4705   18.2178 C   0  0  0  0  0  0
  -28.0255  -12.3293   18.6306 C   0  0  0  0  0  0
  -27.6471  -13.2087   19.8513 C   0  0  2  0  0  0
  -28.6960  -13.0832   20.9787 C   0  0  0  0  0  0
  -25.2506  -13.8107   20.5671 C   0  0  0  0  0  0
  -24.1793  -13.0385   20.9213 C   0  0  0  0  0  0
  -24.6370  -11.6867   20.8746 C   0  0  0  0  0  0
  -23.9033  -10.4265   21.0404 C   0  0  0  0  0  0
  -24.3596   -9.4186   21.9186 C   0  0  0  0  0  0
  -23.6288   -8.2216   22.0750 C   0  0  0  0  0  0
  -22.4268   -8.0253   21.3535 C   0  0  0  0  0  0
  -21.9890   -9.0217   20.4644 C   0  0  0  0  0  0
  -22.7208  -10.2110   20.3058 C   0  0  0  0  0  0
  -21.6845   -6.0717   22.5279 C   0  0  0  0  0  0
  -21.4007   -6.5626   23.8209 C   0  0  0  0  0  0
  -21.3658   -5.6784   24.9173 C   0  0  0  0  0  0
  -21.6047   -4.3045   24.7226 C   0  0  0  0  0  0
  -21.8818   -3.8134   23.4349 C   0  0  0  0  0  0
  -21.9192   -4.6949   22.3402 C   0  0  0  0  0  0
  -22.7819  -13.5191   21.1887 C   0  0  0  0  0  0
  -22.1663   -4.2132   21.0985 F   0  0  0  0  0  0
  -21.5634   -3.4532   25.7740 F   0  0  0  0  0  0
  -30.0110  -13.4085   20.4035 N   0  0  0  0  0  0
  -26.2942  -12.9300   20.3264 N   0  0  0  0  0  0
  -25.9291  -11.6471   20.5746 N   0  0  0  0  0  0
  -22.0463  -12.8194   22.0443 N   0  0  0  0  0  0
  -25.4114  -15.1816   20.4072 N   0  0  0  0  0  0
  -31.8098  -14.7801   20.1631 O   0  0  0  0  0  0
  -21.6633   -6.8853   21.4242 O   0  0  0  0  0  0
  -22.3518  -14.5497   20.6725 O   0  0  0  0  0  0
  -24.6236  -31.8634   23.2022 C   0  0  0  0  0  0
  -25.9093  -32.4795   23.8351 C   0  0  1  0  0  0
  -27.2350  -27.3504   20.1113 C   0  0  0  0  0  0
  -25.5926  -33.8594   24.2280 N   0  0  0  0  0  0
  -23.4161  -30.4857   21.5456 C   0  0  2  0  0  0
  -24.8625  -28.9429   20.1138 C   0  0  0  0  0  0
  -22.7470  -29.4636   22.4949 C   0  0  0  0  0  0
  -18.0287  -28.1400   22.8497 C   0  0  0  0  0  0
  -24.1491  -36.7284   23.2625 C   0  0  0  0  0  0
  -25.9549  -30.8015   21.3703 C   0  0  0  0  0  0
  -26.0299  -29.4312   20.7141 C   0  0  0  0  0  0
  -27.2164  -28.6456   20.7060 C   0  0  0  0  0  0
  -26.0390  -26.9036   19.4982 C   0  0  0  0  0  0
  -24.8665  -27.6807   19.5014 C   0  0  0  0  0  0
  -23.6292  -29.8185   20.1616 C   0  0  0  0  0  0
  -25.4113  -36.3090   24.0335 C   0  0  1  0  0  0
  -20.5887  -28.3695   23.1300 C   0  0  2  0  0  0
  -20.6783  -26.9426   22.5419 C   0  0  0  0  0  0
  -19.5756  -26.6403   21.5228 C   0  0  0  0  0  0
  -18.1932  -26.7941   22.1639 C   0  0  0  0  0  0
  -19.1538  -28.8867   23.2884 C   0  0  0  0  0  0
  -18.9459  -30.1475   23.8886 C   0  0  0  0  0  0
  -17.6460  -30.6595   24.0577 C   0  0  0  0  0  0
  -25.9066  -34.9468   23.5113 C   0  0  0  0  0  0
  -16.5354  -29.9101   23.6340 C   0  0  0  0  0  0
  -16.7272  -28.6527   23.0347 C   0  0  0  0  0  0
  -26.4483  -31.6602   25.0718 C   0  0  0  0  0  0
  -25.3706  -31.3758   26.1444 C   0  0  0  0  0  0
  -27.0312  -30.3027   24.6147 C   0  0  0  0  0  0
  -27.6067  -32.4327   25.7462 C   0  0  0  0  0  0
  -27.5619  -37.1748   24.8432 C   0  0  0  0  0  0
  -21.4182  -29.3045   22.3690 N   0  0  0  0  0  0
  -26.4276  -37.3807   23.9459 N   0  0  0  0  0  0
  -24.6834  -31.0671   22.0955 N   0  0  0  0  0  0
  -23.4199  -28.8183   23.3024 O   0  0  0  0  0  0
  -28.3779  -26.5404   20.1491 O   0  0  0  0  0  0
  -26.5628  -34.8942   22.4676 O   0  0  0  0  0  0
  -23.5409  -32.1414   23.7373 O   0  0  0  0  0  0
  -31.0028  -19.2530   21.1522 C   0  0  0  0  0  0
  -30.9214  -17.8342   21.1867 C   0  0  0  0  0  0
  -30.1577  -20.0449   20.3303 C   0  0  0  0  0  0
  -29.1106  -17.9141   19.5797 C   0  0  0  0  0  0
  -29.9656  -17.1284   20.4190 C   0  0  0  0  0  0
  -29.2387  -19.3411   19.5085 C   0  0  0  0  0  0
  -28.5417  -16.4435   17.5542 C   0  0  0  0  0  0
  -28.2845  -21.4073   16.6564 C   0  0  0  0  0  0
  -30.3410  -21.6036   20.2927 C   0  0  0  0  0  0
  -28.0165  -17.2397   18.7561 C   0  0  0  0  0  0
  -29.0929  -22.5745   20.3177 C   0  0  0  0  0  0
  -29.4024  -24.1310   20.3195 C   0  0  0  0  0  0
  -29.0511  -20.2961   17.3787 C   0  0  0  0  0  0
  -28.1976  -25.0922   19.9772 C   0  0  0  0  0  0
  -29.7663  -15.6922   20.5862 N   0  0  0  0  0  0
  -28.4476  -20.0558   18.6442 O   0  0  0  0  0  0
  -31.4793  -12.5022   19.1391 H   0  0  0  0  0  0
  -30.3787  -11.3859   19.9034 H   0  0  0  0  0  0
  -29.7632  -11.6964   17.4939 H   0  0  0  0  0  0
  -29.6616  -13.4207   17.7081 H   0  0  0  0  0  0
  -27.8532  -11.2798   18.8704 H   0  0  0  0  0  0
  -27.3741  -12.5563   17.7857 H   0  0  0  0  0  0
  -27.6557  -14.2352   19.4926 H   0  0  0  0  0  0
  -28.7044  -12.0715   21.3868 H   0  0  0  0  0  0
  -28.4478  -13.7414   21.8129 H   0  0  0  0  0  0
  -25.2741   -9.5675   22.4754 H   0  0  0  0  0  0
  -23.9999   -7.4605   22.7462 H   0  0  0  0  0  0
  -21.0813   -8.8721   19.8956 H   0  0  0  0  0  0
  -22.3642  -10.9640   19.6165 H   0  0  0  0  0  0
  -21.1991   -7.6133   23.9704 H   0  0  0  0  0  0
  -21.1490   -6.0517   25.9076 H   0  0  0  0  0  0
  -22.0599   -2.7600   23.2847 H   0  0  0  0  0  0
  -22.4070  -11.9857   22.4830 H   0  0  0  0  0  0
  -21.1087  -13.1239   22.2676 H   0  0  0  0  0  0
  -24.6269  -15.8186   20.4942 H   0  0  0  0  0  0
  -26.2329  -15.6183   20.0167 H   0  0  0  0  0  0
  -26.7164  -32.5473   23.1109 H   0  0  0  0  0  0
  -25.0111  -33.9741   25.0451 H   0  0  0  0  0  0
  -22.7090  -31.3053   21.4049 H   0  0  0  0  0  0
  -23.3793  -35.9571   23.3225 H   0  0  0  0  0  0
  -24.3610  -36.8948   22.2051 H   0  0  0  0  0  0
  -23.7181  -37.6453   23.6667 H   0  0  0  0  0  0
  -26.0880  -31.5646   20.6027 H   0  0  0  0  0  0
  -26.8348  -30.8480   21.9995 H   0  0  0  0  0  0
  -28.1121  -29.0167   21.1849 H   0  0  0  0  0  0
  -25.9787  -25.9397   19.0157 H   0  0  0  0  0  0
  -23.9687  -27.2959   19.0342 H   0  0  0  0  0  0
  -23.7452  -30.5922   19.4018 H   0  0  0  0  0  0
  -22.7500  -29.2452   19.8631 H   0  0  0  0  0  0
  -25.1270  -36.1929   25.0821 H   0  0  0  0  0  0
  -20.9989  -28.3269   24.1420 H   0  0  0  0  0  0
  -20.5741  -26.2294   23.3612 H   0  0  0  0  0  0
  -21.6648  -26.7495   22.1184 H   0  0  0  0  0  0
  -19.6919  -25.6315   21.1258 H   0  0  0  0  0  0
  -19.6691  -27.3220   20.6761 H   0  0  0  0  0  0
  -17.4217  -26.6696   21.4029 H   0  0  0  0  0  0
  -18.0320  -26.0090   22.9044 H   0  0  0  0  0  0
  -19.7931  -30.7303   24.2233 H   0  0  0  0  0  0
  -17.5017  -31.6267   24.5195 H   0  0  0  0  0  0
  -15.5354  -30.3003   23.7664 H   0  0  0  0  0  0
  -15.8676  -28.0857   22.7036 H   0  0  0  0  0  0
  -24.5874  -30.7115   25.7775 H   0  0  0  0  0  0
  -24.8903  -32.2941   26.4844 H   0  0  0  0  0  0
  -25.8014  -30.8955   27.0235 H   0  0  0  0  0  0
  -26.2873  -29.6788   24.1182 H   0  0  0  0  0  0
  -27.4040  -29.7267   25.4624 H   0  0  0  0  0  0
  -27.8732  -30.4331   23.9339 H   0  0  0  0  0  0
  -27.2716  -33.3644   26.2031 H   0  0  0  0  0  0
  -28.3866  -32.6853   25.0266 H   0  0  0  0  0  0
  -28.0755  -31.8458   26.5372 H   0  0  0  0  0  0
  -28.2498  -38.0186   24.7732 H   0  0  0  0  0  0
  -28.1255  -36.2744   24.5931 H   0  0  0  0  0  0
  -27.2389  -37.0995   25.8831 H   0  0  0  0  0  0
  -20.9365  -29.8747   21.6881 H   0  0  0  0  0  0
  -26.0153  -38.2846   24.1603 H   0  0  0  0  0  0
  -31.7435  -19.7365   21.7736 H   0  0  0  0  0  0
  -31.5793  -17.2872   21.8476 H   0  0  0  0  0  0
  -27.7161  -15.9880   17.0053 H   0  0  0  0  0  0
  -29.2102  -15.6441   17.8658 H   0  0  0  0  0  0
  -29.0886  -17.0789   16.8591 H   0  0  0  0  0  0
  -28.6782  -21.5580   15.6511 H   0  0  0  0  0  0
  -28.3669  -22.3569   17.1850 H   0  0  0  0  0  0
  -27.2261  -21.1623   16.5653 H   0  0  0  0  0  0
  -30.9367  -21.8332   19.4085 H   0  0  0  0  0  0
  -30.9760  -21.8747   21.1372 H   0  0  0  0  0  0
  -27.2918  -17.9722   18.4003 H   0  0  0  0  0  0
  -27.4504  -16.5945   19.4195 H   0  0  0  0  0  0
  -28.4862  -22.3389   21.1924 H   0  0  0  0  0  0
  -28.4569  -22.3652   19.4614 H   0  0  0  0  0  0
  -30.2076  -24.3309   19.6115 H   0  0  0  0  0  0
  -29.8030  -24.3966   21.2982 H   0  0  0  0  0  0
  -30.1005  -20.5784   17.4818 H   0  0  0  0  0  0
  -29.0224  -19.3850   16.7828 H   0  0  0  0  0  0
  -27.3432  -24.7798   20.5803 H   0  0  0  0  0  0
  -27.9283  -24.9094   18.9356 H   0  0  0  0  0  0
  -28.8031  -15.4056   20.6590 H   0  0  0  0  0  0
  1 25  1  0  0  0
  1 30  2  0  0  0
  1 85  1  0  0  0
  2  3  1  0  0  0
  2 25  1  0  0  0
  2 87  1  0  0  0
  2 88  1  0  0  0
  3  4  1  0  0  0
  3 89  1  0  0  0
  3 90  1  0  0  0
  4  5  1  0  0  0
  4 91  1  0  0  0
  4 92  1  0  0  0
  5  6  1  0  0  0
  5 26  1  0  0  0
  5 93  1  0  0  0
  6 25  1  0  0  0
  6 94  1  0  0  0
  6 95  1  0  0  0
  7  8  2  0  0  0
  7 26  1  0  0  0
  7 29  1  0  0  0
  8  9  1  0  0  0
  8 22  1  0  0  0
  9 10  1  0  0  0
  9 27  2  0  0  0
 10 11  2  0  0  0
 10 15  1  0  0  0
 11 12  1  0  0  0
 11 96  1  0  0  0
 12 13  2  0  0  0
 12 97  1  0  0  0
 13 14  1  0  0  0
 13 31  1  0  0  0
 14 15  2  0  0  0
 14 98  1  0  0  0
 15 99  1  0  0  0
 16 17  2  0  0  0
 16 21  1  0  0  0
 16 31  1  0  0  0
 17 18  1  0  0  0
 17100  1  0  0  0
 18 19  2  0  0  0
 18101  1  0  0  0
 19 20  1  0  0  0
 19 24  1  0  0  0
 20 21  2  0  0  0
 20102  1  0  0  0
 21 23  1  0  0  0
 22 28  1  0  0  0
 22 32  2  0  0  0
 26 27  1  0  0  0
 28103  1  0  0  0
 28104  1  0  0  0
 29105  1  0  0  0
 29106  1  0  0  0
 33 34  1  0  0  0
 33 66  1  0  0  0
 33 70  2  0  0  0
 34 36  1  0  0  0
 34 59  1  0  0  0
 34107  1  0  0  0
 35 44  2  0  0  0
 35 45  1  0  0  0
 35 68  1  0  0  0
 36 56  1  0  0  0
 36108  1  0  0  0
 37 39  1  0  0  0
 37 47  1  0  0  0
 37 66  1  0  0  0
 37109  1  0  0  0
 38 43  2  0  0  0
 38 46  1  0  0  0
 38 47  1  0  0  0
 39 64  1  0  0  0
 39 67  2  0  0  0
 40 52  1  0  0  0
 40 53  2  0  0  0
 40 58  1  0  0  0
 41110  1  0  0  0
 41111  1  0  0  0
 41112  1  0  0  0
 41 48  1  0  0  0
 42 43  1  0  0  0
 42 66  1  0  0  0
 42113  1  0  0  0
 42114  1  0  0  0
 43 44  1  0  0  0
 44115  1  0  0  0
 45 46  2  0  0  0
 45116  1  0  0  0
 46117  1  0  0  0
 47118  1  0  0  0
 47119  1  0  0  0
 48 56  1  0  0  0
 48 65  1  0  0  0
 48120  1  0  0  0
 49 50  1  0  0  0
 49 53  1  0  0  0
 49 64  1  0  0  0
 49121  1  0  0  0
 50 51  1  0  0  0
 50122  1  0  0  0
 50123  1  0  0  0
 51 52  1  0  0  0
 51124  1  0  0  0
 51125  1  0  0  0
 52126  1  0  0  0
 52127  1  0  0  0
 53 54  1  0  0  0
 54 55  2  0  0  0
 54128  1  0  0  0
 55 57  1  0  0  0
 55129  1  0  0  0
 56 69  2  0  0  0
 57 58  2  0  0  0
 57130  1  0  0  0
 58131  1  0  0  0
 59 60  1  0  0  0
 59 61  1  0  0  0
 59 62  1  0  0  0
 60132  1  0  0  0
 60133  1  0  0  0
 60134  1  0  0  0
 61135  1  0  0  0
 61136  1  0  0  0
 61137  1  0  0  0
 62138  1  0  0  0
 62139  1  0  0  0
 62140  1  0  0  0
 63 65  1  0  0  0
 63141  1  0  0  0
 63142  1  0  0  0
 63143  1  0  0  0
 64144  1  0  0  0
 65145  1  0  0  0
 68 84  1  0  0  0
 71 72  2  0  0  0
 71 73  1  0  0  0
 71146  1  0  0  0
 72 75  1  0  0  0
 72147  1  0  0  0
 73 76  2  0  0  0
 73 79  1  0  0  0
 74 75  2  0  0  0
 74 76  1  0  0  0
 74 80  1  0  0  0
 75 85  1  0  0  0
 76 86  1  0  0  0
 77 80  1  0  0  0
 77148  1  0  0  0
 77149  1  0  0  0
 77150  1  0  0  0
 78 83  1  0  0  0
 78151  1  0  0  0
 78152  1  0  0  0
 78153  1  0  0  0
 79 81  1  0  0  0
 79154  1  0  0  0
 79155  1  0  0  0
 80156  1  0  0  0
 80157  1  0  0  0
 81 82  1  0  0  0
 81158  1  0  0  0
 81159  1  0  0  0
 82 84  1  0  0  0
 82160  1  0  0  0
 82161  1  0  0  0
 83 86  1  0  0  0
 83162  1  0  0  0
 83163  1  0  0  0
 84164  1  0  0  0
 84165  1  0  0  0
 85166  1  0  0  0
M  ISO  4   1 100  68 101  84 101  85 100
M  END
> <chiral flag>
0

> <version>
0

> <s_m_source_file>
/data/baiqing/PycharmProjects/Reinvent-master-3.2/result/LINK_invent/BTK/process_docking_weight1_custom_product_contain_oxygen_bond_distance_aromatic_linkinvent_7_9_3/rearranged_h_0130.sdf

> <i_m_source_file_index>
68

> <r_mmod_Potential_Energy-OPLS-2005>
61.6117744445801

> <r_mmod_Stretch_Energy-OPLS-2005>
69.2568740844727

> <r_mmod_Bend_Energy-OPLS-2005>
120.712020874023

> <r_mmod_Torsional_Energy-OPLS-2005>
264.394226074219

> <r_mmod_Improper_Torsional_Energy-OPLS-2005>
7.36762666702271

> <r_mmod_Van_der_Waal_Energy-OPLS-2005>
134.238357543945

> <r_mmod_Electrostatic_Energy-OPLS-2005>
-375.382110595703

> <r_mmod_Solvation_Energy-OPLS-2005>
-203.049743652344

> <b_mmod_Minimization_Converged-OPLS-2005>
0

> <r_mmod_RMS_Derivative-OPLS-2005>
1.97408246994019

$$$$
68
                    3D
 Structure written by MMmdl.
152160  0  0  1  0            999 V2000
  -30.6390  -14.6788   20.4920 C   0  0  0  0  0  0
  -30.4300  -12.4130   19.4753 C   0  0  0  0  0  0
  -29.5099  -12.5119   18.2370 C   0  0  0  0  0  0
  -28.0323  -12.3468   18.6431 C   0  0  0  0  0  0
  -27.6496  -13.2275   19.8619 C   0  0  2  0  0  0
  -28.6905  -13.1068   20.9954 C   0  0  0  0  0  0
  -25.2535  -13.8193   20.5698 C   0  0  0  0  0  0
  -24.1809  -13.0442   20.9187 C   0  0  0  0  0  0
  -24.6395  -11.6919   20.8735 C   0  0  0  0  0  0
  -23.9074  -10.4294   21.0402 C   0  0  0  0  0  0
  -24.3625   -9.4208   21.9180 C   0  0  0  0  0  0
  -23.6295   -8.2246   22.0756 C   0  0  0  0  0  0
  -22.4271   -8.0286   21.3551 C   0  0  0  0  0  0
  -21.9909   -9.0261   20.4649 C   0  0  0  0  0  0
  -22.7246  -10.2137   20.3053 C   0  0  0  0  0  0
  -21.6851   -6.0734   22.5280 C   0  0  0  0  0  0
  -21.4017   -6.5637   23.8215 C   0  0  0  0  0  0
  -21.3661   -5.6789   24.9176 C   0  0  0  0  0  0
  -21.6042   -4.3053   24.7228 C   0  0  0  0  0  0
  -21.8817   -3.8146   23.4348 C   0  0  0  0  0  0
  -21.9193   -4.6962   22.3403 C   0  0  0  0  0  0
  -22.7830  -13.5223   21.1852 C   0  0  0  0  0  0
  -22.1659   -4.2147   21.0983 F   0  0  0  0  0  0
  -21.5630   -3.4537   25.7741 F   0  0  0  0  0  0
  -30.0052  -13.4563   20.4384 N   0  0  0  0  0  0
  -26.2970  -12.9398   20.3317 N   0  0  0  0  0  0
  -25.9330  -11.6539   20.5758 N   0  0  0  0  0  0
  -22.0479  -12.8222   22.0418 N   0  0  0  0  0  0
  -25.4243  -15.1917   20.4147 N   0  0  0  0  0  0
  -31.7914  -14.7786   20.0608 O   0  0  0  0  0  0
  -21.6637   -6.8882   21.4244 O   0  0  0  0  0  0
  -22.3511  -14.5524   20.6696 O   0  0  0  0  0  0
  -24.6279  -31.8590   23.2030 C   0  0  0  0  0  0
  -25.9121  -32.4774   23.8357 C   0  0  1  0  0  0
  -27.2172  -27.2912   20.1207 C   0  0  0  0  0  0
  -25.5930  -33.8576   24.2277 N   0  0  0  0  0  0
  -23.4230  -30.4843   21.5449 C   0  0  2  0  0  0
  -24.8697  -28.9413   20.1070 C   0  0  0  0  0  0
  -22.7487  -29.4621   22.4914 C   0  0  0  0  0  0
  -18.0288  -28.1397   22.8482 C   0  0  0  0  0  0
  -24.1487  -36.7293   23.2638 C   0  0  0  0  0  0
  -25.9677  -30.7790   21.3823 C   0  0  0  0  0  0
  -26.0387  -29.4057   20.7224 C   0  0  0  0  0  0
  -27.2126  -28.5904   20.7250 C   0  0  0  0  0  0
  -26.0308  -26.9037   19.4531 C   0  0  0  0  0  0
  -24.8695  -27.6968   19.4627 C   0  0  0  0  0  0
  -23.6400  -29.8250   20.1581 C   0  0  0  0  0  0
  -25.4113  -36.3082   24.0326 C   0  0  1  0  0  0
  -20.5891  -28.3704   23.1271 C   0  0  2  0  0  0
  -20.6778  -26.9424   22.5406 C   0  0  0  0  0  0
  -19.5753  -26.6390   21.5211 C   0  0  0  0  0  0
  -18.1934  -26.7937   22.1624 C   0  0  0  0  0  0
  -19.1543  -28.8865   23.2874 C   0  0  0  0  0  0
  -18.9467  -30.1463   23.8896 C   0  0  0  0  0  0
  -17.6468  -30.6595   24.0566 C   0  0  0  0  0  0
  -25.9054  -34.9449   23.5105 C   0  0  0  0  0  0
  -16.5357  -29.9098   23.6329 C   0  0  0  0  0  0
  -16.7276  -28.6517   23.0347 C   0  0  0  0  0  0
  -26.4495  -31.6590   25.0734 C   0  0  0  0  0  0
  -25.3721  -31.3740   26.1455 C   0  0  0  0  0  0
  -27.0347  -30.3009   24.6215 C   0  0  0  0  0  0
  -27.6042  -32.4336   25.7506 C   0  0  0  0  0  0
  -27.5579  -37.1798   24.8460 C   0  0  0  0  0  0
  -21.4197  -29.3057   22.3663 N   0  0  0  0  0  0
  -26.4287  -37.3782   23.9411 N   0  0  0  0  0  0
  -24.6915  -31.0578   22.0997 N   0  0  0  0  0  0
  -23.4200  -28.8151   23.2997 O   0  0  0  0  0  0
  -28.3157  -26.4087   20.2096 O   0  0  0  0  0  0
  -26.5627  -34.8916   22.4674 O   0  0  0  0  0  0
  -23.5436  -32.1399   23.7342 O   0  0  0  0  0  0
  -28.3654  -19.7435   22.7937 C   0  0  0  0  0  0
  -28.8992  -18.5454   22.2760 C   0  0  0  0  0  0
  -28.4026  -20.9438   22.0562 C   0  0  0  0  0  0
  -29.5342  -19.7469   20.2668 C   0  0  0  0  0  0
  -29.5166  -18.5007   21.0068 C   0  0  0  0  0  0
  -28.9790  -20.9885   20.7704 C   0  0  0  0  0  0
  -30.1071  -17.1713   20.5215 C   0  0  0  0  0  0
  -29.8853  -15.8827   20.9763 C   0  0  0  0  0  0
  -28.8529  -22.3193   19.9239 C   0  0  0  0  0  0
  -28.9690  -23.7903   20.5749 C   0  0  0  0  0  0
  -28.1295  -24.9637   19.8763 C   0  0  0  0  0  0
  -31.4741  -12.5167   19.1762 H   0  0  0  0  0  0
  -30.3558  -11.4245   19.9314 H   0  0  0  0  0  0
  -29.7820  -11.7536   17.5016 H   0  0  0  0  0  0
  -29.6510  -13.4779   17.7492 H   0  0  0  0  0  0
  -27.8740  -11.2949   18.8842 H   0  0  0  0  0  0
  -27.3780  -12.5650   17.7979 H   0  0  0  0  0  0
  -27.6632  -14.2600   19.5126 H   0  0  0  0  0  0
  -28.7089  -12.0883   21.3858 H   0  0  0  0  0  0
  -28.4205  -13.7352   21.8427 H   0  0  0  0  0  0
  -25.2772   -9.5680   22.4754 H   0  0  0  0  0  0
  -24.0004   -7.4633   22.7470 H   0  0  0  0  0  0
  -21.0843   -8.8782   19.8955 H   0  0  0  0  0  0
  -22.3704  -10.9678   19.6162 H   0  0  0  0  0  0
  -21.2010   -7.6147   23.9722 H   0  0  0  0  0  0
  -21.1483   -6.0517   25.9079 H   0  0  0  0  0  0
  -22.0595   -2.7606   23.2849 H   0  0  0  0  0  0
  -22.4097  -11.9892   22.4820 H   0  0  0  0  0  0
  -21.1100  -13.1257   22.2626 H   0  0  0  0  0  0
  -24.6611  -15.8494   20.5336 H   0  0  0  0  0  0
  -26.2866  -15.6349   20.1238 H   0  0  0  0  0  0
  -26.7187  -32.5433   23.1097 H   0  0  0  0  0  0
  -25.0058  -33.9723   25.0406 H   0  0  0  0  0  0
  -22.7180  -31.3061   21.4031 H   0  0  0  0  0  0
  -23.3751  -35.9623   23.3298 H   0  0  0  0  0  0
  -24.3578  -36.8922   22.2054 H   0  0  0  0  0  0
  -23.7234  -37.6490   23.6666 H   0  0  0  0  0  0
  -26.1075  -31.5426   20.6159 H   0  0  0  0  0  0
  -26.8449  -30.8238   22.0159 H   0  0  0  0  0  0
  -28.1031  -28.9367   21.2305 H   0  0  0  0  0  0
  -25.9608  -25.9687   18.9189 H   0  0  0  0  0  0
  -23.9784  -27.3424   18.9629 H   0  0  0  0  0  0
  -23.7657  -30.6054   19.4068 H   0  0  0  0  0  0
  -22.7586  -29.2602   19.8490 H   0  0  0  0  0  0
  -25.1292  -36.1933   25.0818 H   0  0  0  0  0  0
  -20.9981  -28.3286   24.1393 H   0  0  0  0  0  0
  -20.5686  -26.2316   23.3613 H   0  0  0  0  0  0
  -21.6646  -26.7458   22.1197 H   0  0  0  0  0  0
  -19.6917  -25.6299   21.1250 H   0  0  0  0  0  0
  -19.6690  -27.3191   20.6736 H   0  0  0  0  0  0
  -17.4200  -26.6674   21.4033 H   0  0  0  0  0  0
  -18.0341  -26.0084   22.9031 H   0  0  0  0  0  0
  -19.7944  -30.7277   24.2269 H   0  0  0  0  0  0
  -17.5027  -31.6273   24.5175 H   0  0  0  0  0  0
  -15.5361  -30.3006   23.7656 H   0  0  0  0  0  0
  -15.8672  -28.0843   22.7061 H   0  0  0  0  0  0
  -24.5903  -30.7079   25.7789 H   0  0  0  0  0  0
  -24.8902  -32.2912   26.4856 H   0  0  0  0  0  0
  -25.8042  -30.8942   27.0248 H   0  0  0  0  0  0
  -26.2939  -29.6759   24.1220 H   0  0  0  0  0  0
  -27.4007  -29.7267   25.4737 H   0  0  0  0  0  0
  -27.8824  -30.4286   23.9480 H   0  0  0  0  0  0
  -27.2636  -33.3624   26.2095 H   0  0  0  0  0  0
  -28.3849  -32.6927   25.0341 H   0  0  0  0  0  0
  -28.0721  -31.8468   26.5420 H   0  0  0  0  0  0
  -28.2586  -38.0108   24.7526 H   0  0  0  0  0  0
  -28.1090  -36.2640   24.6263 H   0  0  0  0  0  0
  -27.2302  -37.1417   25.8865 H   0  0  0  0  0  0
  -20.9376  -29.8794   21.6884 H   0  0  0  0  0  0
  -26.0167  -38.2852   24.1432 H   0  0  0  0  0  0
  -27.9082  -19.7380   23.7735 H   0  0  0  0  0  0
  -28.8464  -17.6564   22.8872 H   0  0  0  0  0  0
  -27.9458  -21.8255   22.4824 H   0  0  0  0  0  0
  -29.9672  -19.7447   19.2759 H   0  0  0  0  0  0
  -30.8355  -17.2820   19.7297 H   0  0  0  0  0  0
  -29.1478  -15.7453   21.7496 H   0  0  0  0  0  0
  -27.8710  -22.2542   19.4544 H   0  0  0  0  0  0
  -29.5588  -22.2594   19.0945 H   0  0  0  0  0  0
  -30.0226  -24.0673   20.6129 H   0  0  0  0  0  0
  -28.6459  -23.7552   21.6144 H   0  0  0  0  0  0
  -27.1010  -24.6748   20.0861 H   0  0  0  0  0  0
  -28.2572  -24.8770   18.7967 H   0  0  0  0  0  0
  1 25  1  0  0  0
  1 30  2  0  0  0
  1 78  1  0  0  0
  2  3  1  0  0  0
  2 25  1  0  0  0
  2 82  1  0  0  0
  2 83  1  0  0  0
  3  4  1  0  0  0
  3 84  1  0  0  0
  3 85  1  0  0  0
  4  5  1  0  0  0
  4 86  1  0  0  0
  4 87  1  0  0  0
  5  6  1  0  0  0
  5 26  1  0  0  0
  5 88  1  0  0  0
  6 25  1  0  0  0
  6 89  1  0  0  0
  6 90  1  0  0  0
  7  8  2  0  0  0
  7 26  1  0  0  0
  7 29  1  0  0  0
  8  9  1  0  0  0
  8 22  1  0  0  0
  9 10  1  0  0  0
  9 27  2  0  0  0
 10 11  2  0  0  0
 10 15  1  0  0  0
 11 12  1  0  0  0
 11 91  1  0  0  0
 12 13  2  0  0  0
 12 92  1  0  0  0
 13 14  1  0  0  0
 13 31  1  0  0  0
 14 15  2  0  0  0
 14 93  1  0  0  0
 15 94  1  0  0  0
 16 17  2  0  0  0
 16 21  1  0  0  0
 16 31  1  0  0  0
 17 18  1  0  0  0
 17 95  1  0  0  0
 18 19  2  0  0  0
 18 96  1  0  0  0
 19 20  1  0  0  0
 19 24  1  0  0  0
 20 21  2  0  0  0
 20 97  1  0  0  0
 21 23  1  0  0  0
 22 28  1  0  0  0
 22 32  2  0  0  0
 26 27  1  0  0  0
 28 98  1  0  0  0
 28 99  1  0  0  0
 29100  1  0  0  0
 29101  1  0  0  0
 33 34  1  0  0  0
 33 66  1  0  0  0
 33 70  2  0  0  0
 34 36  1  0  0  0
 34 59  1  0  0  0
 34102  1  0  0  0
 35 44  2  0  0  0
 35 45  1  0  0  0
 35 68  1  0  0  0
 36 56  1  0  0  0
 36103  1  0  0  0
 37 39  1  0  0  0
 37 47  1  0  0  0
 37 66  1  0  0  0
 37104  1  0  0  0
 38 43  2  0  0  0
 38 46  1  0  0  0
 38 47  1  0  0  0
 39 64  1  0  0  0
 39 67  2  0  0  0
 40 52  1  0  0  0
 40 53  2  0  0  0
 40 58  1  0  0  0
 41105  1  0  0  0
 41106  1  0  0  0
 41107  1  0  0  0
 41 48  1  0  0  0
 42 43  1  0  0  0
 42 66  1  0  0  0
 42108  1  0  0  0
 42109  1  0  0  0
 43 44  1  0  0  0
 44110  1  0  0  0
 45 46  2  0  0  0
 45111  1  0  0  0
 46112  1  0  0  0
 47113  1  0  0  0
 47114  1  0  0  0
 48 56  1  0  0  0
 48 65  1  0  0  0
 48115  1  0  0  0
 49 50  1  0  0  0
 49 53  1  0  0  0
 49 64  1  0  0  0
 49116  1  0  0  0
 50 51  1  0  0  0
 50117  1  0  0  0
 50118  1  0  0  0
 51 52  1  0  0  0
 51119  1  0  0  0
 51120  1  0  0  0
 52121  1  0  0  0
 52122  1  0  0  0
 53 54  1  0  0  0
 54 55  2  0  0  0
 54123  1  0  0  0
 55 57  1  0  0  0
 55124  1  0  0  0
 56 69  2  0  0  0
 57 58  2  0  0  0
 57125  1  0  0  0
 58126  1  0  0  0
 59 60  1  0  0  0
 59 61  1  0  0  0
 59 62  1  0  0  0
 60127  1  0  0  0
 60128  1  0  0  0
 60129  1  0  0  0
 61130  1  0  0  0
 61131  1  0  0  0
 61132  1  0  0  0
 62133  1  0  0  0
 62134  1  0  0  0
 62135  1  0  0  0
 63 65  1  0  0  0
 63136  1  0  0  0
 63137  1  0  0  0
 63138  1  0  0  0
 64139  1  0  0  0
 65140  1  0  0  0
 68 81  1  0  0  0
 71 72  2  0  0  0
 71 73  1  0  0  0
 71141  1  0  0  0
 72 75  1  0  0  0
 72142  1  0  0  0
 73 76  2  0  0  0
 73143  1  0  0  0
 74 75  2  0  0  0
 74 76  1  0  0  0
 74144  1  0  0  0
 75 77  1  0  0  0
 76 79  1  0  0  0
 77 78  2  0  0  0
 77145  1  0  0  0
 78146  1  0  0  0
 79 80  1  0  0  0
 79147  1  0  0  0
 79148  1  0  0  0
 80 81  1  0  0  0
 80149  1  0  0  0
 80150  1  0  0  0
 81151  1  0  0  0
 81152  1  0  0  0
M  ISO  4   1 100  68 101  78 100  81 101
M  END
> <chiral flag>
0

> <version>
0

> <s_m_source_file>
/data/baiqing/PycharmProjects/Reinvent-master-3.2/result/LINK_invent/BTK/process_docking_weight1_custom_product_contain_oxygen_bond_distance_aromatic_linkinvent_7_9_3/rearranged_h_0130.sdf

> <i_m_source_file_index>
69

> <r_mmod_Potential_Energy-OPLS-2005>
120.917083740234

> <r_mmod_Stretch_Energy-OPLS-2005>
99.5385589599609

> <r_mmod_Bend_Energy-OPLS-2005>
144.346664428711

> <r_mmod_Torsional_Energy-OPLS-2005>
187.363647460938

> <r_mmod_Improper_Torsional_Energy-OPLS-2005>
3.27065896987915

> <r_mmod_Van_der_Waal_Energy-OPLS-2005>
148.433212280273

> <r_mmod_Electrostatic_Energy-OPLS-2005>
-332.481079101562

> <r_mmod_Solvation_Energy-OPLS-2005>
-192.375839233398

> <b_mmod_Minimization_Converged-OPLS-2005>
0

> <r_mmod_RMS_Derivative-OPLS-2005>
0.82677698135376

$$$$
69
                    3D
 Structure written by MMmdl.
153161  0  0  1  0            999 V2000
  -30.7224  -14.4049   20.6472 C   0  0  0  0  0  0
  -30.4289  -12.2906   19.4047 C   0  0  0  0  0  0
  -29.4949  -12.5215   18.1992 C   0  0  0  0  0  0
  -28.0149  -12.3831   18.6086 C   0  0  0  0  0  0
  -27.6701  -13.2000   19.8815 C   0  0  2  0  0  0
  -28.7065  -12.9277   20.9943 C   0  0  0  0  0  0
  -25.2626  -13.8154   20.5674 C   0  0  0  0  0  0
  -24.1860  -13.0442   20.9160 C   0  0  0  0  0  0
  -24.6397  -11.6905   20.8707 C   0  0  0  0  0  0
  -23.9053  -10.4296   21.0388 C   0  0  0  0  0  0
  -24.3605   -9.4218   21.9175 C   0  0  0  0  0  0
  -23.6288   -8.2249   22.0750 C   0  0  0  0  0  0
  -22.4269   -8.0282   21.3544 C   0  0  0  0  0  0
  -21.9900   -9.0250   20.4642 C   0  0  0  0  0  0
  -22.7221  -10.2133   20.3047 C   0  0  0  0  0  0
  -21.6854   -6.0736   22.5282 C   0  0  0  0  0  0
  -21.4012   -6.5642   23.8214 C   0  0  0  0  0  0
  -21.3663   -5.6794   24.9178 C   0  0  0  0  0  0
  -21.6043   -4.3056   24.7227 C   0  0  0  0  0  0
  -21.8819   -3.8148   23.4347 C   0  0  0  0  0  0
  -21.9193   -4.6964   22.3404 C   0  0  0  0  0  0
  -22.7884  -13.5250   21.1835 C   0  0  0  0  0  0
  -22.1663   -4.2152   21.0979 F   0  0  0  0  0  0
  -21.5630   -3.4538   25.7737 F   0  0  0  0  0  0
  -30.0526  -13.2345   20.4673 N   0  0  0  0  0  0
  -26.3063  -12.9312   20.3371 N   0  0  0  0  0  0
  -25.9322  -11.6475   20.5731 N   0  0  0  0  0  0
  -22.0513  -12.8241   22.0383 N   0  0  0  0  0  0
  -25.4370  -15.1872   20.4112 N   0  0  0  0  0  0
  -31.7704  -14.6830   20.0545 O   0  0  0  0  0  0
  -21.6640   -6.8875   21.4242 O   0  0  0  0  0  0
  -22.3568  -14.5559   20.6690 O   0  0  0  0  0  0
  -24.6141  -31.8692   23.2103 C   0  0  0  0  0  0
  -25.9037  -32.4829   23.8393 C   0  0  1  0  0  0
  -27.2376  -27.4460   20.0873 C   0  0  0  0  0  0
  -25.5892  -33.8623   24.2328 N   0  0  0  0  0  0
  -23.4011  -30.4941   21.5506 C   0  0  2  0  0  0
  -24.8465  -28.9621   20.1147 C   0  0  0  0  0  0
  -22.7405  -29.4670   22.4983 C   0  0  0  0  0  0
  -18.0281  -28.1392   22.8502 C   0  0  0  0  0  0
  -24.1488  -36.7309   23.2639 C   0  0  0  0  0  0
  -25.9293  -30.8388   21.3608 C   0  0  0  0  0  0
  -26.0065  -29.4743   20.7075 C   0  0  0  0  0  0
  -27.2044  -28.7246   20.6882 C   0  0  0  0  0  0
  -26.0539  -26.9450   19.4950 C   0  0  0  0  0  0
  -24.8642  -27.6961   19.5065 C   0  0  0  0  0  0
  -23.6081  -29.8272   20.1649 C   0  0  0  0  0  0
  -25.4105  -36.3109   24.0342 C   0  0  1  0  0  0
  -20.5871  -28.3667   23.1327 C   0  0  2  0  0  0
  -20.6769  -26.9404   22.5419 C   0  0  0  0  0  0
  -19.5747  -26.6396   21.5218 C   0  0  0  0  0  0
  -18.1926  -26.7940   22.1630 C   0  0  0  0  0  0
  -19.1528  -28.8844   23.2920 C   0  0  0  0  0  0
  -18.9455  -30.1453   23.8927 C   0  0  0  0  0  0
  -17.6457  -30.6594   24.0574 C   0  0  0  0  0  0
  -25.9028  -34.9479   23.5129 C   0  0  0  0  0  0
  -16.5351  -29.9099   23.6328 C   0  0  0  0  0  0
  -16.7268  -28.6520   23.0343 C   0  0  0  0  0  0
  -26.4465  -31.6606   25.0717 C   0  0  0  0  0  0
  -25.3729  -31.3709   26.1461 C   0  0  0  0  0  0
  -27.0292  -30.3055   24.6077 C   0  0  0  0  0  0
  -27.6047  -32.4314   25.7477 C   0  0  0  0  0  0
  -27.5586  -37.1795   24.8462 C   0  0  0  0  0  0
  -21.4133  -29.3039   22.3727 N   0  0  0  0  0  0
  -26.4291  -37.3796   23.9421 N   0  0  0  0  0  0
  -24.6666  -31.0805   22.0995 N   0  0  0  0  0  0
  -23.4189  -28.8207   23.3014 O   0  0  0  0  0  0
  -28.4208  -26.7328   20.0931 O   0  0  0  0  0  0
  -26.5592  -34.8932   22.4691 O   0  0  0  0  0  0
  -23.5333  -32.1433   23.7505 O   0  0  0  0  0  0
  -30.4345  -18.8904   20.6476 C   0  0  0  0  0  0
  -28.5031  -18.5013   22.0693 C   0  0  0  0  0  0
  -30.7636  -17.5171   20.7219 C   0  0  0  0  0  0
  -28.8364  -17.1374   22.1548 C   0  0  0  0  0  0
  -29.2850  -19.3958   21.3033 C   0  0  0  0  0  0
  -29.9515  -16.6241   21.4633 C   0  0  0  0  0  0
  -29.8563  -21.8794   20.9560 C   0  0  0  0  0  0
  -29.4183  -23.1458   20.7254 C   0  0  0  0  0  0
  -28.8485  -20.8274   21.2171 C   0  0  0  0  0  0
  -29.6468  -24.6301   20.4071 C   0  0  0  0  0  0
  -28.3162  -25.3070   20.0308 C   0  0  0  0  0  0
  -30.1644  -15.2203   21.5553 N   0  0  0  0  0  0
  -27.6605  -21.1225   21.3947 O   0  0  0  0  0  0
  -31.4725  -12.3996   19.1031 H   0  0  0  0  0  0
  -30.3337  -11.2666   19.7696 H   0  0  0  0  0  0
  -29.7286  -11.8135   17.4025 H   0  0  0  0  0  0
  -29.6695  -13.5159   17.7852 H   0  0  0  0  0  0
  -27.8146  -11.3251   18.7809 H   0  0  0  0  0  0
  -27.3682  -12.6827   17.7831 H   0  0  0  0  0  0
  -27.7315  -14.2558   19.6159 H   0  0  0  0  0  0
  -28.6705  -11.8775   21.2873 H   0  0  0  0  0  0
  -28.4468  -13.4792   21.8978 H   0  0  0  0  0  0
  -25.2750   -9.5706   22.4748 H   0  0  0  0  0  0
  -24.0007   -7.4645   22.7468 H   0  0  0  0  0  0
  -21.0836   -8.8761   19.8945 H   0  0  0  0  0  0
  -22.3676  -10.9668   19.6155 H   0  0  0  0  0  0
  -21.1999   -7.6149   23.9721 H   0  0  0  0  0  0
  -21.1488   -6.0522   25.9082 H   0  0  0  0  0  0
  -22.0591   -2.7609   23.2845 H   0  0  0  0  0  0
  -22.4114  -11.9901   22.4782 H   0  0  0  0  0  0
  -21.1126  -13.1270   22.2569 H   0  0  0  0  0  0
  -24.6752  -15.8465   20.5271 H   0  0  0  0  0  0
  -26.3003  -15.6263   20.1161 H   0  0  0  0  0  0
  -26.7105  -32.5542   23.1156 H   0  0  0  0  0  0
  -25.0049  -33.9785   25.0476 H   0  0  0  0  0  0
  -22.6901  -31.3112   21.4118 H   0  0  0  0  0  0
  -23.3749  -35.9643   23.3305 H   0  0  0  0  0  0
  -24.3593  -36.8912   22.2054 H   0  0  0  0  0  0
  -23.7242  -37.6518   23.6641 H   0  0  0  0  0  0
  -26.0375  -31.6056   20.5924 H   0  0  0  0  0  0
  -26.8194  -30.8935   21.9757 H   0  0  0  0  0  0
  -28.1018  -29.1194   21.1437 H   0  0  0  0  0  0
  -26.0298  -25.9801   19.0110 H   0  0  0  0  0  0
  -23.9721  -27.2961   19.0450 H   0  0  0  0  0  0
  -23.7147  -30.6026   19.4051 H   0  0  0  0  0  0
  -22.7330  -29.2452   19.8695 H   0  0  0  0  0  0
  -25.1279  -36.1969   25.0834 H   0  0  0  0  0  0
  -20.9971  -28.3224   24.1444 H   0  0  0  0  0  0
  -20.5681  -26.2262   23.3599 H   0  0  0  0  0  0
  -21.6637  -26.7452   22.1199 H   0  0  0  0  0  0
  -19.6903  -25.6310   21.1234 H   0  0  0  0  0  0
  -19.6693  -27.3218   20.6761 H   0  0  0  0  0  0
  -17.4191  -26.6698   21.4036 H   0  0  0  0  0  0
  -18.0327  -26.0086   22.9031 H   0  0  0  0  0  0
  -19.7929  -30.7267   24.2300 H   0  0  0  0  0  0
  -17.5013  -31.6276   24.5169 H   0  0  0  0  0  0
  -15.5351  -30.3011   23.7641 H   0  0  0  0  0  0
  -15.8671  -28.0853   22.7032 H   0  0  0  0  0  0
  -24.5900  -30.7066   25.7785 H   0  0  0  0  0  0
  -24.8918  -32.2866   26.4907 H   0  0  0  0  0  0
  -25.8074  -30.8869   27.0218 H   0  0  0  0  0  0
  -26.2835  -29.6821   24.1129 H   0  0  0  0  0  0
  -27.4081  -29.7285   25.4522 H   0  0  0  0  0  0
  -27.8661  -30.4391   23.9219 H   0  0  0  0  0  0
  -27.2674  -33.3597   26.2105 H   0  0  0  0  0  0
  -28.3832  -32.6897   25.0285 H   0  0  0  0  0  0
  -28.0746  -31.8404   26.5349 H   0  0  0  0  0  0
  -28.2574  -38.0119   24.7538 H   0  0  0  0  0  0
  -28.1109  -36.2648   24.6240 H   0  0  0  0  0  0
  -27.2315  -37.1393   25.8867 H   0  0  0  0  0  0
  -20.9275  -29.8760   21.6958 H   0  0  0  0  0  0
  -26.0177  -38.2871   24.1442 H   0  0  0  0  0  0
  -31.0580  -19.5379   20.0477 H   0  0  0  0  0  0
  -27.6267  -18.8560   22.5946 H   0  0  0  0  0  0
  -31.6354  -17.1682   20.1874 H   0  0  0  0  0  0
  -28.2045  -16.4834   22.7397 H   0  0  0  0  0  0
  -30.8947  -21.5544   20.9848 H   0  0  0  0  0  0
  -30.4878  -23.2899   20.7321 H   0  0  0  0  0  0
  -30.3460  -24.7914   19.5784 H   0  0  0  0  0  0
  -30.0553  -25.1365   21.2867 H   0  0  0  0  0  0
  -27.5395  -24.9719   20.7220 H   0  0  0  0  0  0
  -28.0251  -24.9896   19.0285 H   0  0  0  0  0  0
  -29.4797  -14.7399   22.1181 H   0  0  0  0  0  0
  1 25  1  0  0  0
  1 30  2  0  0  0
  1 82  1  0  0  0
  2  3  1  0  0  0
  2 25  1  0  0  0
  2 84  1  0  0  0
  2 85  1  0  0  0
  3  4  1  0  0  0
  3 86  1  0  0  0
  3 87  1  0  0  0
  4  5  1  0  0  0
  4 88  1  0  0  0
  4 89  1  0  0  0
  5  6  1  0  0  0
  5 26  1  0  0  0
  5 90  1  0  0  0
  6 25  1  0  0  0
  6 91  1  0  0  0
  6 92  1  0  0  0
  7  8  2  0  0  0
  7 26  1  0  0  0
  7 29  1  0  0  0
  8  9  1  0  0  0
  8 22  1  0  0  0
  9 10  1  0  0  0
  9 27  2  0  0  0
 10 11  2  0  0  0
 10 15  1  0  0  0
 11 12  1  0  0  0
 11 93  1  0  0  0
 12 13  2  0  0  0
 12 94  1  0  0  0
 13 14  1  0  0  0
 13 31  1  0  0  0
 14 15  2  0  0  0
 14 95  1  0  0  0
 15 96  1  0  0  0
 16 17  2  0  0  0
 16 21  1  0  0  0
 16 31  1  0  0  0
 17 18  1  0  0  0
 17 97  1  0  0  0
 18 19  2  0  0  0
 18 98  1  0  0  0
 19 20  1  0  0  0
 19 24  1  0  0  0
 20 21  2  0  0  0
 20 99  1  0  0  0
 21 23  1  0  0  0
 22 28  1  0  0  0
 22 32  2  0  0  0
 26 27  1  0  0  0
 28100  1  0  0  0
 28101  1  0  0  0
 29102  1  0  0  0
 29103  1  0  0  0
 33 34  1  0  0  0
 33 66  1  0  0  0
 33 70  2  0  0  0
 34 36  1  0  0  0
 34 59  1  0  0  0
 34104  1  0  0  0
 35 44  2  0  0  0
 35 45  1  0  0  0
 35 68  1  0  0  0
 36 56  1  0  0  0
 36105  1  0  0  0
 37 39  1  0  0  0
 37 47  1  0  0  0
 37 66  1  0  0  0
 37106  1  0  0  0
 38 43  2  0  0  0
 38 46  1  0  0  0
 38 47  1  0  0  0
 39 64  1  0  0  0
 39 67  2  0  0  0
 40 52  1  0  0  0
 40 53  2  0  0  0
 40 58  1  0  0  0
 41107  1  0  0  0
 41108  1  0  0  0
 41109  1  0  0  0
 41 48  1  0  0  0
 42 43  1  0  0  0
 42 66  1  0  0  0
 42110  1  0  0  0
 42111  1  0  0  0
 43 44  1  0  0  0
 44112  1  0  0  0
 45 46  2  0  0  0
 45113  1  0  0  0
 46114  1  0  0  0
 47115  1  0  0  0
 47116  1  0  0  0
 48 56  1  0  0  0
 48 65  1  0  0  0
 48117  1  0  0  0
 49 50  1  0  0  0
 49 53  1  0  0  0
 49 64  1  0  0  0
 49118  1  0  0  0
 50 51  1  0  0  0
 50119  1  0  0  0
 50120  1  0  0  0
 51 52  1  0  0  0
 51121  1  0  0  0
 51122  1  0  0  0
 52123  1  0  0  0
 52124  1  0  0  0
 53 54  1  0  0  0
 54 55  2  0  0  0
 54125  1  0  0  0
 55 57  1  0  0  0
 55126  1  0  0  0
 56 69  2  0  0  0
 57 58  2  0  0  0
 57127  1  0  0  0
 58128  1  0  0  0
 59 60  1  0  0  0
 59 61  1  0  0  0
 59 62  1  0  0  0
 60129  1  0  0  0
 60130  1  0  0  0
 60131  1  0  0  0
 61132  1  0  0  0
 61133  1  0  0  0
 61134  1  0  0  0
 62135  1  0  0  0
 62136  1  0  0  0
 62137  1  0  0  0
 63 65  1  0  0  0
 63138  1  0  0  0
 63139  1  0  0  0
 63140  1  0  0  0
 64141  1  0  0  0
 65142  1  0  0  0
 68 81  1  0  0  0
 71 73  2  0  0  0
 71 75  1  0  0  0
 71143  1  0  0  0
 72 74  1  0  0  0
 72 75  2  0  0  0
 72144  1  0  0  0
 73 76  1  0  0  0
 73145  1  0  0  0
 74 76  2  0  0  0
 74146  1  0  0  0
 75 79  1  0  0  0
 76 82  1  0  0  0
 77 78  2  0  0  0
 77 79  1  0  0  0
 77147  1  0  0  0
 78 80  1  0  0  0
 78148  1  0  0  0
 79 83  2  0  0  0
 80 81  1  0  0  0
 80149  1  0  0  0
 80150  1  0  0  0
 81151  1  0  0  0
 81152  1  0  0  0
 82153  1  0  0  0
M  ISO  4   1 100  68 101  81 101  82 100
M  END
> <chiral flag>
0

> <version>
0

> <s_m_source_file>
/data/baiqing/PycharmProjects/Reinvent-master-3.2/result/LINK_invent/BTK/process_docking_weight1_custom_product_contain_oxygen_bond_distance_aromatic_linkinvent_7_9_3/rearranged_h_0130.sdf

> <i_m_source_file_index>
70

> <r_mmod_Potential_Energy-OPLS-2005>
220.094253540039

> <r_mmod_Stretch_Energy-OPLS-2005>
37.0079879760742

> <r_mmod_Bend_Energy-OPLS-2005>
330.052856445312

> <r_mmod_Torsional_Energy-OPLS-2005>
216.361373901367

> <r_mmod_Improper_Torsional_Energy-OPLS-2005>
4.47844886779785

> <r_mmod_Van_der_Waal_Energy-OPLS-2005>
175.501922607422

> <r_mmod_Electrostatic_Energy-OPLS-2005>
-334.329376220703

> <r_mmod_Solvation_Energy-OPLS-2005>
-217.366561889648

> <b_mmod_Minimization_Converged-OPLS-2005>
0

> <r_mmod_RMS_Derivative-OPLS-2005>
0.934323310852051

$$$$
70
                    3D
 Structure written by MMmdl.
158166  0  0  1  0            999 V2000
  -30.6555  -14.5370   20.4777 C   0  0  0  0  0  0
  -30.4325  -12.3189   19.4362 C   0  0  0  0  0  0
  -29.5024  -12.4885   18.2138 C   0  0  0  0  0  0
  -28.0212  -12.3364   18.6191 C   0  0  0  0  0  0
  -27.6540  -13.1931   19.8576 C   0  0  2  0  0  0
  -28.7007  -13.0076   20.9827 C   0  0  0  0  0  0
  -25.2584  -13.8113   20.5667 C   0  0  0  0  0  0
  -24.1827  -13.0411   20.9163 C   0  0  0  0  0  0
  -24.6375  -11.6879   20.8717 C   0  0  0  0  0  0
  -23.9046  -10.4282   21.0402 C   0  0  0  0  0  0
  -24.3609   -9.4203   21.9178 C   0  0  0  0  0  0
  -23.6287   -8.2239   22.0748 C   0  0  0  0  0  0
  -22.4268   -8.0278   21.3541 C   0  0  0  0  0  0
  -21.9899   -9.0250   20.4643 C   0  0  0  0  0  0
  -22.7224  -10.2129   20.3049 C   0  0  0  0  0  0
  -21.6851   -6.0735   22.5281 C   0  0  0  0  0  0
  -21.4009   -6.5640   23.8216 C   0  0  0  0  0  0
  -21.3652   -5.6792   24.9179 C   0  0  0  0  0  0
  -21.6046   -4.3056   24.7227 C   0  0  0  0  0  0
  -21.8822   -3.8147   23.4350 C   0  0  0  0  0  0
  -21.9189   -4.6962   22.3404 C   0  0  0  0  0  0
  -22.7857  -13.5218   21.1850 C   0  0  0  0  0  0
  -22.1659   -4.2151   21.0982 F   0  0  0  0  0  0
  -21.5633   -3.4537   25.7735 F   0  0  0  0  0  0
  -30.0314  -13.3224   20.4364 N   0  0  0  0  0  0
  -26.2990  -12.9251   20.3284 N   0  0  0  0  0  0
  -25.9290  -11.6434   20.5727 N   0  0  0  0  0  0
  -22.0494  -12.8214   22.0409 N   0  0  0  0  0  0
  -25.4308  -15.1834   20.4142 N   0  0  0  0  0  0
  -31.8448  -14.6656   20.1732 O   0  0  0  0  0  0
  -21.6635   -6.8878   21.4245 O   0  0  0  0  0  0
  -22.3544  -14.5532   20.6709 O   0  0  0  0  0  0
  -24.6151  -31.8670   23.2079 C   0  0  0  0  0  0
  -25.9041  -32.4817   23.8382 C   0  0  1  0  0  0
  -27.2403  -27.4141   20.0883 C   0  0  0  0  0  0
  -25.5895  -33.8614   24.2311 N   0  0  0  0  0  0
  -23.4038  -30.4897   21.5496 C   0  0  2  0  0  0
  -24.8496  -28.9517   20.1175 C   0  0  0  0  0  0
  -22.7413  -29.4654   22.4993 C   0  0  0  0  0  0
  -18.0277  -28.1370   22.8491 C   0  0  0  0  0  0
  -24.1489  -36.7314   23.2637 C   0  0  0  0  0  0
  -25.9351  -30.8247   21.3646 C   0  0  0  0  0  0
  -26.0106  -29.4562   20.7135 C   0  0  0  0  0  0
  -27.2029  -28.6935   20.6993 C   0  0  0  0  0  0
  -26.0471  -26.9215   19.5068 C   0  0  0  0  0  0
  -24.8634  -27.6831   19.5168 C   0  0  0  0  0  0
  -23.6125  -29.8200   20.1656 C   0  0  0  0  0  0
  -25.4111  -36.3111   24.0334 C   0  0  1  0  0  0
  -20.5865  -28.3663   23.1326 C   0  0  2  0  0  0
  -20.6772  -26.9397   22.5430 C   0  0  0  0  0  0
  -19.5761  -26.6380   21.5216 C   0  0  0  0  0  0
  -18.1931  -26.7918   22.1614 C   0  0  0  0  0  0
  -19.1521  -28.8830   23.2907 C   0  0  0  0  0  0
  -18.9448  -30.1436   23.8919 C   0  0  0  0  0  0
  -17.6450  -30.6575   24.0565 C   0  0  0  0  0  0
  -25.9038  -34.9476   23.5122 C   0  0  0  0  0  0
  -16.5343  -29.9081   23.6320 C   0  0  0  0  0  0
  -16.7264  -28.6497   23.0342 C   0  0  0  0  0  0
  -26.4462  -31.6599   25.0714 C   0  0  0  0  0  0
  -25.3722  -31.3715   26.1462 C   0  0  0  0  0  0
  -27.0288  -30.3038   24.6098 C   0  0  0  0  0  0
  -27.6034  -32.4318   25.7476 C   0  0  0  0  0  0
  -27.5580  -37.1811   24.8462 C   0  0  0  0  0  0
  -21.4136  -29.3034   22.3732 N   0  0  0  0  0  0
  -26.4294  -37.3795   23.9403 N   0  0  0  0  0  0
  -24.6696  -31.0758   22.0988 N   0  0  0  0  0  0
  -23.4176  -28.8203   23.3040 O   0  0  0  0  0  0
  -28.4346  -26.7070   20.1035 O   0  0  0  0  0  0
  -26.5610  -34.8930   22.4688 O   0  0  0  0  0  0
  -23.5343  -32.1433   23.7471 O   0  0  0  0  0  0
  -27.8518  -17.7120   19.4880 C   0  0  0  0  0  0
  -26.8938  -18.6952   19.2194 C   0  0  0  0  0  0
  -29.3610  -19.4250   20.2938 C   0  0  0  0  0  0
  -29.1066  -18.0528   20.0210 C   0  0  0  0  0  0
  -27.1452  -20.0608   19.4642 C   0  0  0  0  0  0
  -28.4094  -20.4552   20.0212 C   0  0  0  0  0  0
  -30.0906  -16.9528   20.2221 C   0  0  0  0  0  0
  -29.7438  -15.6882   20.5777 C   0  0  0  0  0  0
  -28.7978  -24.2421   20.2508 C   0  0  0  0  0  0
  -25.1416  -21.3525   20.3622 C   0  0  0  0  0  0
  -25.9741  -20.9814   19.1270 C   0  0  0  0  0  0
  -28.5859  -25.4819   19.3497 C   0  0  0  0  0  0
  -28.2175  -22.9060   19.7417 C   0  0  0  0  0  0
  -29.4004  -24.3201   21.3282 O   0  0  0  0  0  0
  -28.8091  -21.7492   20.3650 O   0  0  0  0  0  0
  -31.4756  -12.4248   19.1336 H   0  0  0  0  0  0
  -30.3424  -11.3135   19.8511 H   0  0  0  0  0  0
  -29.7554  -11.7566   17.4456 H   0  0  0  0  0  0
  -29.6608  -13.4700   17.7638 H   0  0  0  0  0  0
  -27.8431  -11.2820   18.8334 H   0  0  0  0  0  0
  -27.3722  -12.5906   17.7801 H   0  0  0  0  0  0
  -27.6732  -14.2250   19.5138 H   0  0  0  0  0  0
  -28.6876  -11.9777   21.3427 H   0  0  0  0  0  0
  -28.4647  -13.6187   21.8545 H   0  0  0  0  0  0
  -25.2762   -9.5685   22.4739 H   0  0  0  0  0  0
  -24.0004   -7.4634   22.7466 H   0  0  0  0  0  0
  -21.0829   -8.8769   19.8949 H   0  0  0  0  0  0
  -22.3688  -10.9667   19.6151 H   0  0  0  0  0  0
  -21.2002   -7.6147   23.9718 H   0  0  0  0  0  0
  -21.1465   -6.0522   25.9083 H   0  0  0  0  0  0
  -22.0606   -2.7607   23.2850 H   0  0  0  0  0  0
  -22.4104  -11.9864   22.4783 H   0  0  0  0  0  0
  -21.1120  -13.1257   22.2631 H   0  0  0  0  0  0
  -24.6704  -15.8402   20.5497 H   0  0  0  0  0  0
  -26.3003  -15.6327   20.1638 H   0  0  0  0  0  0
  -26.7109  -32.5520   23.1143 H   0  0  0  0  0  0
  -25.0024  -33.9769   25.0445 H   0  0  0  0  0  0
  -22.6934  -31.3070   21.4097 H   0  0  0  0  0  0
  -23.3748  -35.9651   23.3314 H   0  0  0  0  0  0
  -24.3580  -36.8913   22.2047 H   0  0  0  0  0  0
  -23.7248  -37.6525   23.6647 H   0  0  0  0  0  0
  -26.0501  -31.5889   20.5944 H   0  0  0  0  0  0
  -26.8217  -30.8782   21.9845 H   0  0  0  0  0  0
  -28.0993  -29.0847   21.1602 H   0  0  0  0  0  0
  -25.9823  -25.9456   19.0529 H   0  0  0  0  0  0
  -23.9656  -27.2812   19.0673 H   0  0  0  0  0  0
  -23.7207  -30.5933   19.4038 H   0  0  0  0  0  0
  -22.7361  -29.2386   19.8723 H   0  0  0  0  0  0
  -25.1292  -36.1975   25.0828 H   0  0  0  0  0  0
  -20.9954  -28.3229   24.1448 H   0  0  0  0  0  0
  -20.5672  -26.2266   23.3616 H   0  0  0  0  0  0
  -21.6651  -26.7446   22.1233 H   0  0  0  0  0  0
  -19.6926  -25.6298   21.1229 H   0  0  0  0  0  0
  -19.6709  -27.3205   20.6760 H   0  0  0  0  0  0
  -17.4212  -26.6677   21.4000 H   0  0  0  0  0  0
  -18.0321  -26.0048   22.8997 H   0  0  0  0  0  0
  -19.7922  -30.7244   24.2303 H   0  0  0  0  0  0
  -17.5006  -31.6257   24.5170 H   0  0  0  0  0  0
  -15.5343  -30.2987   23.7638 H   0  0  0  0  0  0
  -15.8665  -28.0823   22.7046 H   0  0  0  0  0  0
  -24.5893  -30.7066   25.7800 H   0  0  0  0  0  0
  -24.8920  -32.2876   26.4910 H   0  0  0  0  0  0
  -25.8067  -30.8882   27.0223 H   0  0  0  0  0  0
  -26.2835  -29.6806   24.1145 H   0  0  0  0  0  0
  -27.4043  -29.7268   25.4558 H   0  0  0  0  0  0
  -27.8680  -30.4348   23.9262 H   0  0  0  0  0  0
  -27.2649  -33.3604   26.2087 H   0  0  0  0  0  0
  -28.3827  -32.6899   25.0293 H   0  0  0  0  0  0
  -28.0728  -31.8427   26.5364 H   0  0  0  0  0  0
  -28.2612  -38.0095   24.7505 H   0  0  0  0  0  0
  -28.1065  -36.2629   24.6304 H   0  0  0  0  0  0
  -27.2298  -37.1478   25.8865 H   0  0  0  0  0  0
  -20.9294  -29.8748   21.6949 H   0  0  0  0  0  0
  -26.0189  -38.2876   24.1398 H   0  0  0  0  0  0
  -27.6204  -16.6882   19.2352 H   0  0  0  0  0  0
  -25.9433  -18.3791   18.8119 H   0  0  0  0  0  0
  -30.3191  -19.7008   20.7111 H   0  0  0  0  0  0
  -31.1175  -17.1768   19.9656 H   0  0  0  0  0  0
  -28.7241  -15.5417   20.8876 H   0  0  0  0  0  0
  -24.3189  -22.0134   20.0890 H   0  0  0  0  0  0
  -25.7346  -21.8533   21.1274 H   0  0  0  0  0  0
  -24.7107  -20.4612   20.8190 H   0  0  0  0  0  0
  -25.3095  -20.4633   18.4341 H   0  0  0  0  0  0
  -26.2820  -21.8439   18.5424 H   0  0  0  0  0  0
  -27.7969  -25.2939   18.6270 H   0  0  0  0  0  0
  -29.4904  -25.5913   18.7517 H   0  0  0  0  0  0
  -28.3212  -22.8486   18.6575 H   0  0  0  0  0  0
  -27.1667  -22.9781   19.9950 H   0  0  0  0  0  0
  1 25  1  0  0  0
  1 30  2  0  0  0
  1 78  1  0  0  0
  2  3  1  0  0  0
  2 25  1  0  0  0
  2 86  1  0  0  0
  2 87  1  0  0  0
  3  4  1  0  0  0
  3 88  1  0  0  0
  3 89  1  0  0  0
  4  5  1  0  0  0
  4 90  1  0  0  0
  4 91  1  0  0  0
  5  6  1  0  0  0
  5 26  1  0  0  0
  5 92  1  0  0  0
  6 25  1  0  0  0
  6 93  1  0  0  0
  6 94  1  0  0  0
  7  8  2  0  0  0
  7 26  1  0  0  0
  7 29  1  0  0  0
  8  9  1  0  0  0
  8 22  1  0  0  0
  9 10  1  0  0  0
  9 27  2  0  0  0
 10 11  2  0  0  0
 10 15  1  0  0  0
 11 12  1  0  0  0
 11 95  1  0  0  0
 12 13  2  0  0  0
 12 96  1  0  0  0
 13 14  1  0  0  0
 13 31  1  0  0  0
 14 15  2  0  0  0
 14 97  1  0  0  0
 15 98  1  0  0  0
 16 17  2  0  0  0
 16 21  1  0  0  0
 16 31  1  0  0  0
 17 18  1  0  0  0
 17 99  1  0  0  0
 18 19  2  0  0  0
 18100  1  0  0  0
 19 20  1  0  0  0
 19 24  1  0  0  0
 20 21  2  0  0  0
 20101  1  0  0  0
 21 23  1  0  0  0
 22 28  1  0  0  0
 22 32  2  0  0  0
 26 27  1  0  0  0
 28102  1  0  0  0
 28103  1  0  0  0
 29104  1  0  0  0
 29105  1  0  0  0
 33 34  1  0  0  0
 33 66  1  0  0  0
 33 70  2  0  0  0
 34 36  1  0  0  0
 34 59  1  0  0  0
 34106  1  0  0  0
 35 44  2  0  0  0
 35 45  1  0  0  0
 35 68  1  0  0  0
 36 56  1  0  0  0
 36107  1  0  0  0
 37 39  1  0  0  0
 37 47  1  0  0  0
 37 66  1  0  0  0
 37108  1  0  0  0
 38 43  2  0  0  0
 38 46  1  0  0  0
 38 47  1  0  0  0
 39 64  1  0  0  0
 39 67  2  0  0  0
 40 52  1  0  0  0
 40 53  2  0  0  0
 40 58  1  0  0  0
 41109  1  0  0  0
 41110  1  0  0  0
 41111  1  0  0  0
 41 48  1  0  0  0
 42 43  1  0  0  0
 42 66  1  0  0  0
 42112  1  0  0  0
 42113  1  0  0  0
 43 44  1  0  0  0
 44114  1  0  0  0
 45 46  2  0  0  0
 45115  1  0  0  0
 46116  1  0  0  0
 47117  1  0  0  0
 47118  1  0  0  0
 48 56  1  0  0  0
 48 65  1  0  0  0
 48119  1  0  0  0
 49 50  1  0  0  0
 49 53  1  0  0  0
 49 64  1  0  0  0
 49120  1  0  0  0
 50 51  1  0  0  0
 50121  1  0  0  0
 50122  1  0  0  0
 51 52  1  0  0  0
 51123  1  0  0  0
 51124  1  0  0  0
 52125  1  0  0  0
 52126  1  0  0  0
 53 54  1  0  0  0
 54 55  2  0  0  0
 54127  1  0  0  0
 55 57  1  0  0  0
 55128  1  0  0  0
 56 69  2  0  0  0
 57 58  2  0  0  0
 57129  1  0  0  0
 58130  1  0  0  0
 59 60  1  0  0  0
 59 61  1  0  0  0
 59 62  1  0  0  0
 60131  1  0  0  0
 60132  1  0  0  0
 60133  1  0  0  0
 61134  1  0  0  0
 61135  1  0  0  0
 61136  1  0  0  0
 62137  1  0  0  0
 62138  1  0  0  0
 62139  1  0  0  0
 63 65  1  0  0  0
 63140  1  0  0  0
 63141  1  0  0  0
 63142  1  0  0  0
 64143  1  0  0  0
 65144  1  0  0  0
 68 82  1  0  0  0
 71 72  2  0  0  0
 71 74  1  0  0  0
 71145  1  0  0  0
 72 75  1  0  0  0
 72146  1  0  0  0
 73 74  2  0  0  0
 73 76  1  0  0  0
 73147  1  0  0  0
 74 77  1  0  0  0
 75 76  2  0  0  0
 75 81  1  0  0  0
 76 85  1  0  0  0
 77 78  2  0  0  0
 77148  1  0  0  0
 78149  1  0  0  0
 79 82  1  0  0  0
 79 83  1  0  0  0
 79 84  2  0  0  0
 80 81  1  0  0  0
 80150  1  0  0  0
 80151  1  0  0  0
 80152  1  0  0  0
 81153  1  0  0  0
 81154  1  0  0  0
 82155  1  0  0  0
 82156  1  0  0  0
 83 85  1  0  0  0
 83157  1  0  0  0
 83158  1  0  0  0
M  ISO  4   1 100  68 101  78 100  82 101
M  END
> <chiral flag>
0

> <version>
0

> <s_m_source_file>
/data/baiqing/PycharmProjects/Reinvent-master-3.2/result/LINK_invent/BTK/process_docking_weight1_custom_product_contain_oxygen_bond_distance_aromatic_linkinvent_7_9_3/rearranged_h_0130.sdf

> <i_m_source_file_index>
71

> <r_mmod_Potential_Energy-OPLS-2005>
58.4613418579102

> <r_mmod_Stretch_Energy-OPLS-2005>
47.5870246887207

> <r_mmod_Bend_Energy-OPLS-2005>
131.666427612305

> <r_mmod_Torsional_Energy-OPLS-2005>
205.777328491211

> <r_mmod_Improper_Torsional_Energy-OPLS-2005>
9.81423187255859

> <r_mmod_Van_der_Waal_Energy-OPLS-2005>
162.404342651367

> <r_mmod_Electrostatic_Energy-OPLS-2005>
-291.657928466797

> <r_mmod_Solvation_Energy-OPLS-2005>
-229.204544067383

> <b_mmod_Minimization_Converged-OPLS-2005>
0

> <r_mmod_RMS_Derivative-OPLS-2005>
1.20941567420959

$$$$
71
                    3D
 Structure written by MMmdl.
158166  0  0  1  0            999 V2000
  -30.6670  -14.4387   20.5719 C   0  0  0  0  0  0
  -30.4312  -12.2866   19.4044 C   0  0  0  0  0  0
  -29.4980  -12.4982   18.1941 C   0  0  0  0  0  0
  -28.0116  -12.3835   18.5970 C   0  0  0  0  0  0
  -27.6634  -13.1924   19.8758 C   0  0  2  0  0  0
  -28.7029  -12.9266   20.9866 C   0  0  0  0  0  0
  -25.2598  -13.8115   20.5655 C   0  0  0  0  0  0
  -24.1838  -13.0411   20.9137 C   0  0  0  0  0  0
  -24.6365  -11.6881   20.8692 C   0  0  0  0  0  0
  -23.9027  -10.4285   21.0368 C   0  0  0  0  0  0
  -24.3595   -9.4223   21.9163 C   0  0  0  0  0  0
  -23.6277   -8.2261   22.0755 C   0  0  0  0  0  0
  -22.4261   -8.0282   21.3555 C   0  0  0  0  0  0
  -21.9868   -9.0242   20.4647 C   0  0  0  0  0  0
  -22.7192  -10.2119   20.3030 C   0  0  0  0  0  0
  -21.6864   -6.0710   22.5265 C   0  0  0  0  0  0
  -21.4023   -6.5618   23.8195 C   0  0  0  0  0  0
  -21.3659   -5.6767   24.9161 C   0  0  0  0  0  0
  -21.6049   -4.3034   24.7216 C   0  0  0  0  0  0
  -21.8829   -3.8130   23.4338 C   0  0  0  0  0  0
  -21.9200   -4.6940   22.3386 C   0  0  0  0  0  0
  -22.7874  -13.5239   21.1810 C   0  0  0  0  0  0
  -22.1678   -4.2121   21.0962 F   0  0  0  0  0  0
  -21.5617   -3.4521   25.7741 F   0  0  0  0  0  0
  -30.0356  -13.2447   20.4435 N   0  0  0  0  0  0
  -26.3018  -12.9251   20.3324 N   0  0  0  0  0  0
  -25.9278  -11.6424   20.5707 N   0  0  0  0  0  0
  -22.0509  -12.8269   22.0375 N   0  0  0  0  0  0
  -25.4326  -15.1830   20.4085 N   0  0  0  0  0  0
  -31.7977  -14.6635   20.1238 O   0  0  0  0  0  0
  -21.6656   -6.8862   21.4231 O   0  0  0  0  0  0
  -22.3576  -14.5547   20.6643 O   0  0  0  0  0  0
  -24.6117  -31.8701   23.2128 C   0  0  0  0  0  0
  -25.9022  -32.4828   23.8408 C   0  0  1  0  0  0
  -27.2496  -27.4675   20.0835 C   0  0  0  0  0  0
  -25.5883  -33.8624   24.2356 N   0  0  0  0  0  0
  -23.3978  -30.4958   21.5486 C   0  0  2  0  0  0
  -24.8435  -28.9561   20.1211 C   0  0  0  0  0  0
  -22.7369  -29.4695   22.4962 C   0  0  0  0  0  0
  -18.0279  -28.1382   22.8483 C   0  0  0  0  0  0
  -24.1482  -36.7319   23.2638 C   0  0  0  0  0  0
  -25.9221  -30.8446   21.3594 C   0  0  0  0  0  0
  -25.9990  -29.4781   20.7129 C   0  0  0  0  0  0
  -27.1976  -28.7374   20.6961 C   0  0  0  0  0  0
  -26.0651  -26.9363   19.5185 C   0  0  0  0  0  0
  -24.8675  -27.6790   19.5320 C   0  0  0  0  0  0
  -23.6070  -29.8248   20.1637 C   0  0  0  0  0  0
  -25.4096  -36.3106   24.0343 C   0  0  1  0  0  0
  -20.5859  -28.3684   23.1296 C   0  0  2  0  0  0
  -20.6772  -26.9412   22.5412 C   0  0  0  0  0  0
  -19.5759  -26.6389   21.5199 C   0  0  0  0  0  0
  -18.1931  -26.7934   22.1601 C   0  0  0  0  0  0
  -19.1522  -28.8840   23.2905 C   0  0  0  0  0  0
  -18.9462  -30.1435   23.8939 C   0  0  0  0  0  0
  -17.6469  -30.6584   24.0576 C   0  0  0  0  0  0
  -25.9021  -34.9479   23.5149 C   0  0  0  0  0  0
  -16.5363  -29.9102   23.6310 C   0  0  0  0  0  0
  -16.7269  -28.6512   23.0346 C   0  0  0  0  0  0
  -26.4480  -31.6596   25.0719 C   0  0  0  0  0  0
  -25.3777  -31.3694   26.1488 C   0  0  0  0  0  0
  -27.0304  -30.3041   24.6064 C   0  0  0  0  0  0
  -27.6060  -32.4308   25.7475 C   0  0  0  0  0  0
  -27.5573  -37.1813   24.8460 C   0  0  0  0  0  0
  -21.4096  -29.3057   22.3679 N   0  0  0  0  0  0
  -26.4277  -37.3792   23.9403 N   0  0  0  0  0  0
  -24.6619  -31.0840   22.0994 N   0  0  0  0  0  0
  -23.4148  -28.8227   23.2992 O   0  0  0  0  0  0
  -28.4751  -26.8362   20.0677 O   0  0  0  0  0  0
  -26.5586  -34.8927   22.4708 O   0  0  0  0  0  0
  -23.5317  -32.1428   23.7555 O   0  0  0  0  0  0
  -30.8197  -18.9575   21.7117 C   0  0  0  0  0  0
  -30.6486  -17.5711   21.8887 C   0  0  0  0  0  0
  -29.7333  -18.8130   19.5380 C   0  0  0  0  0  0
  -30.3775  -19.5802   20.5275 C   0  0  0  0  0  0
  -29.5668  -17.4232   19.6991 C   0  0  0  0  0  0
  -30.0533  -16.7921   20.8754 C   0  0  0  0  0  0
  -29.7282  -23.4376   20.3051 C   0  0  0  0  0  0
  -28.8741  -16.6568   18.5862 C   0  0  0  0  0  0
  -30.6406  -21.0543   20.2882 C   0  0  0  0  0  0
  -29.4075  -21.9518   20.5061 C   0  0  0  0  0  0
  -28.5650  -24.4309   20.3858 C   0  0  0  0  0  0
  -28.6673  -25.6008   19.3837 C   0  0  0  0  0  0
  -29.8955  -15.4040   21.0946 N   0  0  0  0  0  0
  -30.8873  -23.8244   20.1213 O   0  0  0  0  0  0
  -31.4725  -12.4053   19.1011 H   0  0  0  0  0  0
  -30.3466  -11.2685   19.7839 H   0  0  0  0  0  0
  -29.7243  -11.7692   17.4147 H   0  0  0  0  0  0
  -29.6875  -13.4751   17.7508 H   0  0  0  0  0  0
  -27.7898  -11.3286   18.7545 H   0  0  0  0  0  0
  -27.3804  -12.7077   17.7682 H   0  0  0  0  0  0
  -27.7138  -14.2465   19.6110 H   0  0  0  0  0  0
  -28.6728  -11.8776   21.2835 H   0  0  0  0  0  0
  -28.4643  -13.4855   21.8921 H   0  0  0  0  0  0
  -25.2736   -9.5712   22.4739 H   0  0  0  0  0  0
  -23.9985   -7.4658   22.7485 H   0  0  0  0  0  0
  -21.0791   -8.8761   19.8960 H   0  0  0  0  0  0
  -22.3648  -10.9658   19.6139 H   0  0  0  0  0  0
  -21.2036   -7.6131   23.9683 H   0  0  0  0  0  0
  -21.1459   -6.0510   25.9055 H   0  0  0  0  0  0
  -22.0612   -2.7590   23.2859 H   0  0  0  0  0  0
  -22.4087  -11.9929   22.4785 H   0  0  0  0  0  0
  -21.1129  -13.1344   22.2548 H   0  0  0  0  0  0
  -24.6619  -15.8344   20.5139 H   0  0  0  0  0  0
  -26.2833  -15.6301   20.0949 H   0  0  0  0  0  0
  -26.7091  -32.5571   23.1176 H   0  0  0  0  0  0
  -25.0039  -33.9794   25.0500 H   0  0  0  0  0  0
  -22.6879  -31.3132   21.4096 H   0  0  0  0  0  0
  -23.3724  -35.9671   23.3321 H   0  0  0  0  0  0
  -24.3581  -36.8911   22.2049 H   0  0  0  0  0  0
  -23.7279  -37.6545   23.6646 H   0  0  0  0  0  0
  -26.0261  -31.6101   20.5891 H   0  0  0  0  0  0
  -26.8129  -30.9042   21.9721 H   0  0  0  0  0  0
  -28.0928  -29.1444   21.1451 H   0  0  0  0  0  0
  -26.0392  -25.9568   19.0668 H   0  0  0  0  0  0
  -23.9715  -27.2619   19.0929 H   0  0  0  0  0  0
  -23.7214  -30.5997   19.4044 H   0  0  0  0  0  0
  -22.7304  -29.2475   19.8637 H   0  0  0  0  0  0
  -25.1271  -36.1973   25.0835 H   0  0  0  0  0  0
  -20.9993  -28.3286   24.1399 H   0  0  0  0  0  0
  -20.5644  -26.2301   23.3612 H   0  0  0  0  0  0
  -21.6659  -26.7442   22.1237 H   0  0  0  0  0  0
  -19.6926  -25.6302   21.1226 H   0  0  0  0  0  0
  -19.6701  -27.3188   20.6723 H   0  0  0  0  0  0
  -17.4206  -26.6686   21.4000 H   0  0  0  0  0  0
  -18.0328  -26.0065   22.8980 H   0  0  0  0  0  0
  -19.7951  -30.7222   24.2336 H   0  0  0  0  0  0
  -17.5047  -31.6275   24.5169 H   0  0  0  0  0  0
  -15.5373  -30.3039   23.7599 H   0  0  0  0  0  0
  -15.8667  -28.0844   22.7054 H   0  0  0  0  0  0
  -24.5913  -30.7077   25.7844 H   0  0  0  0  0  0
  -24.9022  -32.2854   26.4993 H   0  0  0  0  0  0
  -25.8155  -30.8821   27.0205 H   0  0  0  0  0  0
  -26.2822  -29.6790   24.1169 H   0  0  0  0  0  0
  -27.4140  -29.7287   25.4504 H   0  0  0  0  0  0
  -27.8635  -30.4364   23.9150 H   0  0  0  0  0  0
  -27.2672  -33.3579   26.2108 H   0  0  0  0  0  0
  -28.3841  -32.6910   25.0286 H   0  0  0  0  0  0
  -28.0758  -31.8399   26.5350 H   0  0  0  0  0  0
  -28.2600  -38.0100   24.7483 H   0  0  0  0  0  0
  -28.1055  -36.2633   24.6293 H   0  0  0  0  0  0
  -27.2295  -37.1495   25.8865 H   0  0  0  0  0  0
  -20.9227  -29.8782   21.6921 H   0  0  0  0  0  0
  -26.0166  -38.2857   24.1411 H   0  0  0  0  0  0
  -31.3091  -19.5341   22.4849 H   0  0  0  0  0  0
  -30.9893  -17.1065   22.8032 H   0  0  0  0  0  0
  -29.3843  -19.2947   18.6348 H   0  0  0  0  0  0
  -28.9957  -17.1766   17.6360 H   0  0  0  0  0  0
  -27.8053  -16.5765   18.7844 H   0  0  0  0  0  0
  -29.2888  -15.6605   18.4521 H   0  0  0  0  0  0
  -31.0012  -21.1692   19.2647 H   0  0  0  0  0  0
  -31.4572  -21.3727   20.9370 H   0  0  0  0  0  0
  -28.6124  -21.6698   19.8153 H   0  0  0  0  0  0
  -29.0143  -21.8148   21.5139 H   0  0  0  0  0  0
  -28.5787  -24.8277   21.4013 H   0  0  0  0  0  0
  -27.6157  -23.9106   20.2663 H   0  0  0  0  0  0
  -28.0150  -25.4575   18.5245 H   0  0  0  0  0  0
  -29.6645  -25.6666   18.9483 H   0  0  0  0  0  0
  -28.9919  -15.0998   21.4260 H   0  0  0  0  0  0
  1 25  1  0  0  0
  1 30  2  0  0  0
  1 83  1  0  0  0
  2  3  1  0  0  0
  2 25  1  0  0  0
  2 85  1  0  0  0
  2 86  1  0  0  0
  3  4  1  0  0  0
  3 87  1  0  0  0
  3 88  1  0  0  0
  4  5  1  0  0  0
  4 89  1  0  0  0
  4 90  1  0  0  0
  5  6  1  0  0  0
  5 26  1  0  0  0
  5 91  1  0  0  0
  6 25  1  0  0  0
  6 92  1  0  0  0
  6 93  1  0  0  0
  7  8  2  0  0  0
  7 26  1  0  0  0
  7 29  1  0  0  0
  8  9  1  0  0  0
  8 22  1  0  0  0
  9 10  1  0  0  0
  9 27  2  0  0  0
 10 11  2  0  0  0
 10 15  1  0  0  0
 11 12  1  0  0  0
 11 94  1  0  0  0
 12 13  2  0  0  0
 12 95  1  0  0  0
 13 14  1  0  0  0
 13 31  1  0  0  0
 14 15  2  0  0  0
 14 96  1  0  0  0
 15 97  1  0  0  0
 16 17  2  0  0  0
 16 21  1  0  0  0
 16 31  1  0  0  0
 17 18  1  0  0  0
 17 98  1  0  0  0
 18 19  2  0  0  0
 18 99  1  0  0  0
 19 20  1  0  0  0
 19 24  1  0  0  0
 20 21  2  0  0  0
 20100  1  0  0  0
 21 23  1  0  0  0
 22 28  1  0  0  0
 22 32  2  0  0  0
 26 27  1  0  0  0
 28101  1  0  0  0
 28102  1  0  0  0
 29103  1  0  0  0
 29104  1  0  0  0
 33 34  1  0  0  0
 33 66  1  0  0  0
 33 70  2  0  0  0
 34 36  1  0  0  0
 34 59  1  0  0  0
 34105  1  0  0  0
 35 44  2  0  0  0
 35 45  1  0  0  0
 35 68  1  0  0  0
 36 56  1  0  0  0
 36106  1  0  0  0
 37 39  1  0  0  0
 37 47  1  0  0  0
 37 66  1  0  0  0
 37107  1  0  0  0
 38 43  2  0  0  0
 38 46  1  0  0  0
 38 47  1  0  0  0
 39 64  1  0  0  0
 39 67  2  0  0  0
 40 52  1  0  0  0
 40 53  2  0  0  0
 40 58  1  0  0  0
 41108  1  0  0  0
 41109  1  0  0  0
 41110  1  0  0  0
 41 48  1  0  0  0
 42 43  1  0  0  0
 42 66  1  0  0  0
 42111  1  0  0  0
 42112  1  0  0  0
 43 44  1  0  0  0
 44113  1  0  0  0
 45 46  2  0  0  0
 45114  1  0  0  0
 46115  1  0  0  0
 47116  1  0  0  0
 47117  1  0  0  0
 48 56  1  0  0  0
 48 65  1  0  0  0
 48118  1  0  0  0
 49 50  1  0  0  0
 49 53  1  0  0  0
 49 64  1  0  0  0
 49119  1  0  0  0
 50 51  1  0  0  0
 50120  1  0  0  0
 50121  1  0  0  0
 51 52  1  0  0  0
 51122  1  0  0  0
 51123  1  0  0  0
 52124  1  0  0  0
 52125  1  0  0  0
 53 54  1  0  0  0
 54 55  2  0  0  0
 54126  1  0  0  0
 55 57  1  0  0  0
 55127  1  0  0  0
 56 69  2  0  0  0
 57 58  2  0  0  0
 57128  1  0  0  0
 58129  1  0  0  0
 59 60  1  0  0  0
 59 61  1  0  0  0
 59 62  1  0  0  0
 60130  1  0  0  0
 60131  1  0  0  0
 60132  1  0  0  0
 61133  1  0  0  0
 61134  1  0  0  0
 61135  1  0  0  0
 62136  1  0  0  0
 62137  1  0  0  0
 62138  1  0  0  0
 63 65  1  0  0  0
 63139  1  0  0  0
 63140  1  0  0  0
 63141  1  0  0  0
 64142  1  0  0  0
 65143  1  0  0  0
 68 82  1  0  0  0
 71 72  2  0  0  0
 71 74  1  0  0  0
 71144  1  0  0  0
 72 76  1  0  0  0
 72145  1  0  0  0
 73 74  2  0  0  0
 73 75  1  0  0  0
 73146  1  0  0  0
 74 79  1  0  0  0
 75 76  2  0  0  0
 75 78  1  0  0  0
 76 83  1  0  0  0
 77 80  1  0  0  0
 77 81  1  0  0  0
 77 84  2  0  0  0
 78147  1  0  0  0
 78148  1  0  0  0
 78149  1  0  0  0
 79 80  1  0  0  0
 79150  1  0  0  0
 79151  1  0  0  0
 80152  1  0  0  0
 80153  1  0  0  0
 81 82  1  0  0  0
 81154  1  0  0  0
 81155  1  0  0  0
 82156  1  0  0  0
 82157  1  0  0  0
 83158  1  0  0  0
M  ISO  4   1 100  68 101  82 101  83 100
M  END
> <chiral flag>
0

> <version>
0

> <s_m_source_file>
/data/baiqing/PycharmProjects/Reinvent-master-3.2/result/LINK_invent/BTK/process_docking_weight1_custom_product_contain_oxygen_bond_distance_aromatic_linkinvent_7_9_3/rearranged_h_0130.sdf

> <i_m_source_file_index>
72

> <r_mmod_Potential_Energy-OPLS-2005>
-101.449935913086

> <r_mmod_Stretch_Energy-OPLS-2005>
31.8464050292969

> <r_mmod_Bend_Energy-OPLS-2005>
98.22119140625

> <r_mmod_Torsional_Energy-OPLS-2005>
235.49543762207

> <r_mmod_Improper_Torsional_Energy-OPLS-2005>
4.68449974060059

> <r_mmod_Van_der_Waal_Energy-OPLS-2005>
155.074371337891

> <r_mmod_Electrostatic_Energy-OPLS-2005>
-415.735565185547

> <r_mmod_Solvation_Energy-OPLS-2005>
-222.623977661133

> <b_mmod_Minimization_Converged-OPLS-2005>
0

> <r_mmod_RMS_Derivative-OPLS-2005>
2.9196355342865

$$$$
72
                    3D
 Structure written by MMmdl.
159167  0  0  1  0            999 V2000
  -30.5776  -14.6301   20.5094 C   0  0  0  0  0  0
  -30.4507  -12.3917   19.4384 C   0  0  0  0  0  0
  -29.5094  -12.5093   18.2176 C   0  0  0  0  0  0
  -28.0299  -12.3547   18.6263 C   0  0  0  0  0  0
  -27.6569  -13.2063   19.8680 C   0  0  2  0  0  0
  -28.7013  -13.0183   20.9916 C   0  0  0  0  0  0
  -25.2598  -13.8133   20.5677 C   0  0  0  0  0  0
  -24.1846  -13.0409   20.9183 C   0  0  0  0  0  0
  -24.6395  -11.6888   20.8707 C   0  0  0  0  0  0
  -23.9052  -10.4283   21.0386 C   0  0  0  0  0  0
  -24.3602   -9.4212   21.9178 C   0  0  0  0  0  0
  -23.6288   -8.2238   22.0744 C   0  0  0  0  0  0
  -22.4265   -8.0272   21.3539 C   0  0  0  0  0  0
  -21.9901   -9.0234   20.4636 C   0  0  0  0  0  0
  -22.7218  -10.2123   20.3052 C   0  0  0  0  0  0
  -21.6863   -6.0732   22.5271 C   0  0  0  0  0  0
  -21.4023   -6.5637   23.8211 C   0  0  0  0  0  0
  -21.3669   -5.6785   24.9170 C   0  0  0  0  0  0
  -21.6057   -4.3050   24.7218 C   0  0  0  0  0  0
  -21.8828   -3.8142   23.4338 C   0  0  0  0  0  0
  -21.9196   -4.6959   22.3395 C   0  0  0  0  0  0
  -22.7866  -13.5207   21.1848 C   0  0  0  0  0  0
  -22.1653   -4.2144   21.0970 F   0  0  0  0  0  0
  -21.5644   -3.4541   25.7736 F   0  0  0  0  0  0
  -30.0152  -13.3845   20.4383 N   0  0  0  0  0  0
  -26.3009  -12.9292   20.3320 N   0  0  0  0  0  0
  -25.9321  -11.6461   20.5731 N   0  0  0  0  0  0
  -22.0482  -12.8211   22.0409 N   0  0  0  0  0  0
  -25.4333  -15.1849   20.4113 N   0  0  0  0  0  0
  -31.7234  -14.8509   20.1008 O   0  0  0  0  0  0
  -21.6646   -6.8858   21.4229 O   0  0  0  0  0  0
  -22.3554  -14.5499   20.6674 O   0  0  0  0  0  0
  -24.6226  -31.8608   23.2024 C   0  0  0  0  0  0
  -25.9075  -32.4782   23.8363 C   0  0  1  0  0  0
  -27.2315  -27.3413   20.1145 C   0  0  0  0  0  0
  -25.5903  -33.8593   24.2285 N   0  0  0  0  0  0
  -23.4156  -30.4823   21.5441 C   0  0  2  0  0  0
  -24.8598  -28.9304   20.1122 C   0  0  0  0  0  0
  -22.7444  -29.4653   22.4964 C   0  0  0  0  0  0
  -18.0288  -28.1402   22.8476 C   0  0  0  0  0  0
  -24.1479  -36.7300   23.2654 C   0  0  0  0  0  0
  -25.9519  -30.7951   21.3706 C   0  0  0  0  0  0
  -26.0227  -29.4238   20.7131 C   0  0  0  0  0  0
  -27.2055  -28.6375   20.7073 C   0  0  0  0  0  0
  -26.0393  -26.8740   19.5207 C   0  0  0  0  0  0
  -24.8673  -27.6591   19.5115 C   0  0  0  0  0  0
  -23.6254  -29.8078   20.1610 C   0  0  0  0  0  0
  -25.4110  -36.3105   24.0343 C   0  0  1  0  0  0
  -20.5880  -28.3712   23.1293 C   0  0  2  0  0  0
  -20.6792  -26.9441   22.5413 C   0  0  0  0  0  0
  -19.5769  -26.6400   21.5216 C   0  0  0  0  0  0
  -18.1947  -26.7948   22.1620 C   0  0  0  0  0  0
  -19.1535  -28.8870   23.2880 C   0  0  0  0  0  0
  -18.9452  -30.1470   23.8900 C   0  0  0  0  0  0
  -17.6454  -30.6597   24.0567 C   0  0  0  0  0  0
  -25.9048  -34.9469   23.5120 C   0  0  0  0  0  0
  -16.5348  -29.9106   23.6314 C   0  0  0  0  0  0
  -16.7280  -28.6525   23.0328 C   0  0  0  0  0  0
  -26.4456  -31.6615   25.0750 C   0  0  0  0  0  0
  -25.3699  -31.3751   26.1482 C   0  0  0  0  0  0
  -27.0327  -30.3049   24.6245 C   0  0  0  0  0  0
  -27.6019  -32.4380   25.7496 C   0  0  0  0  0  0
  -27.5577  -37.1807   24.8468 C   0  0  0  0  0  0
  -21.4167  -29.3076   22.3697 N   0  0  0  0  0  0
  -26.4287  -37.3796   23.9411 N   0  0  0  0  0  0
  -24.6816  -31.0646   22.0956 N   0  0  0  0  0  0
  -23.4173  -28.8203   23.3056 O   0  0  0  0  0  0
  -28.4061  -26.5875   20.1810 O   0  0  0  0  0  0
  -26.5625  -34.8934   22.4695 O   0  0  0  0  0  0
  -23.5397  -32.1391   23.7370 O   0  0  0  0  0  0
  -29.3769  -19.2759   21.8181 C   0  0  0  0  0  0
  -29.7603  -17.9059   21.8640 C   0  0  0  0  0  0
  -28.7906  -19.0347   19.4998 C   0  0  0  0  0  0
  -28.8452  -19.8714   20.6456 C   0  0  0  0  0  0
  -29.1783  -17.6570   19.5337 C   0  0  0  0  0  0
  -29.6524  -17.0515   20.7378 C   0  0  0  0  0  0
  -28.9795  -16.8434   18.2660 C   0  0  0  0  0  0
  -28.4998  -25.2560   18.0799 C   0  0  0  0  0  0
  -28.1588  -21.2832   20.7056 C   0  0  0  0  0  0
  -28.7838  -22.5560   20.0073 C   0  0  0  0  0  0
  -28.0576  -23.9482   20.3077 C   0  0  0  0  0  0
  -28.6409  -25.2497   19.6116 C   0  0  2  0  0  0
  -29.7281  -15.6104   20.9441 N   0  0  0  0  0  0
  -31.4846  -12.5550   19.1288 H   0  0  0  0  0  0
  -30.4178  -11.3862   19.8620 H   0  0  0  0  0  0
  -29.7679  -11.7548   17.4725 H   0  0  0  0  0  0
  -29.6533  -13.4778   17.7360 H   0  0  0  0  0  0
  -27.8583  -11.2991   18.8392 H   0  0  0  0  0  0
  -27.3774  -12.6073   17.7901 H   0  0  0  0  0  0
  -27.6813  -14.2475   19.5459 H   0  0  0  0  0  0
  -28.7166  -11.9804   21.3254 H   0  0  0  0  0  0
  -28.4461  -13.6020   21.8773 H   0  0  0  0  0  0
  -25.2733   -9.5720   22.4779 H   0  0  0  0  0  0
  -24.0027   -7.4630   22.7447 H   0  0  0  0  0  0
  -21.0853   -8.8742   19.8909 H   0  0  0  0  0  0
  -22.3659  -10.9677   19.6189 H   0  0  0  0  0  0
  -21.2008   -7.6142   23.9733 H   0  0  0  0  0  0
  -21.1491   -6.0492   25.9080 H   0  0  0  0  0  0
  -22.0601   -2.7607   23.2822 H   0  0  0  0  0  0
  -22.4058  -11.9881   22.4839 H   0  0  0  0  0  0
  -21.1107  -13.1283   22.2596 H   0  0  0  0  0  0
  -24.6649  -15.8371   20.5205 H   0  0  0  0  0  0
  -26.2917  -15.6305   20.1108 H   0  0  0  0  0  0
  -26.7162  -32.5449   23.1128 H   0  0  0  0  0  0
  -25.0021  -33.9758   25.0410 H   0  0  0  0  0  0
  -22.7098  -31.3028   21.3971 H   0  0  0  0  0  0
  -23.3755  -35.9615   23.3319 H   0  0  0  0  0  0
  -24.3570  -36.8916   22.2069 H   0  0  0  0  0  0
  -23.7203  -37.6499   23.6660 H   0  0  0  0  0  0
  -26.0850  -31.5603   20.6053 H   0  0  0  0  0  0
  -26.8318  -30.8408   22.0011 H   0  0  0  0  0  0
  -28.0968  -29.0151   21.1879 H   0  0  0  0  0  0
  -25.9818  -25.8864   19.0928 H   0  0  0  0  0  0
  -23.9676  -27.2641   19.0601 H   0  0  0  0  0  0
  -23.7390  -30.5809   19.3997 H   0  0  0  0  0  0
  -22.7463  -29.2321   19.8652 H   0  0  0  0  0  0
  -25.1282  -36.1980   25.0835 H   0  0  0  0  0  0
  -20.9950  -28.3278   24.1421 H   0  0  0  0  0  0
  -20.5697  -26.2329   23.3614 H   0  0  0  0  0  0
  -21.6666  -26.7488   22.1208 H   0  0  0  0  0  0
  -19.6926  -25.6302   21.1266 H   0  0  0  0  0  0
  -19.6711  -27.3204   20.6738 H   0  0  0  0  0  0
  -17.4220  -26.6689   21.4026 H   0  0  0  0  0  0
  -18.0349  -26.0110   22.9034 H   0  0  0  0  0  0
  -19.7928  -30.7287   24.2288 H   0  0  0  0  0  0
  -17.5002  -31.6267   24.5181 H   0  0  0  0  0  0
  -15.5346  -30.2996   23.7646 H   0  0  0  0  0  0
  -15.8678  -28.0846   22.7029 H   0  0  0  0  0  0
  -24.5845  -30.7136   25.7799 H   0  0  0  0  0  0
  -24.8917  -32.2915   26.4957 H   0  0  0  0  0  0
  -25.8021  -30.8879   27.0231 H   0  0  0  0  0  0
  -26.2926  -29.6781   24.1251 H   0  0  0  0  0  0
  -27.3996  -29.7337   25.4782 H   0  0  0  0  0  0
  -27.8786  -30.4354   23.9493 H   0  0  0  0  0  0
  -27.2621  -33.3680   26.2072 H   0  0  0  0  0  0
  -28.3784  -32.6960   25.0282 H   0  0  0  0  0  0
  -28.0727  -31.8523   26.5408 H   0  0  0  0  0  0
  -28.2608  -38.0093   24.7514 H   0  0  0  0  0  0
  -28.1063  -36.2631   24.6287 H   0  0  0  0  0  0
  -27.2302  -37.1441   25.8875 H   0  0  0  0  0  0
  -20.9351  -29.8764   21.6866 H   0  0  0  0  0  0
  -26.0182  -38.2880   24.1405 H   0  0  0  0  0  0
  -29.4164  -19.8512   22.7331 H   0  0  0  0  0  0
  -30.0719  -17.4909   22.8126 H   0  0  0  0  0  0
  -28.3641  -19.4331   18.5895 H   0  0  0  0  0  0
  -29.3090  -17.4150   17.3977 H   0  0  0  0  0  0
  -27.9246  -16.5997   18.1319 H   0  0  0  0  0  0
  -29.5461  -15.9158   18.2675 H   0  0  0  0  0  0
  -27.4651  -25.2075   17.7503 H   0  0  0  0  0  0
  -29.0110  -24.4012   17.6388 H   0  0  0  0  0  0
  -28.9484  -26.1540   17.6538 H   0  0  0  0  0  0
  -28.0238  -21.5270   21.7603 H   0  0  0  0  0  0
  -27.1437  -21.1556   20.3247 H   0  0  0  0  0  0
  -28.8099  -22.3821   18.9306 H   0  0  0  0  0  0
  -29.8253  -22.6424   20.3168 H   0  0  0  0  0  0
  -28.0884  -24.1089   21.3862 H   0  0  0  0  0  0
  -26.9995  -23.8608   20.0609 H   0  0  0  0  0  0
  -29.7145  -25.1564   19.7785 H   0  0  0  0  0  0
  -28.8908  -15.2218   21.3500 H   0  0  0  0  0  0
  1 25  1  0  0  0
  1 30  2  0  0  0
  1 83  1  0  0  0
  2  3  1  0  0  0
  2 25  1  0  0  0
  2 84  1  0  0  0
  2 85  1  0  0  0
  3  4  1  0  0  0
  3 86  1  0  0  0
  3 87  1  0  0  0
  4  5  1  0  0  0
  4 88  1  0  0  0
  4 89  1  0  0  0
  5  6  1  0  0  0
  5 26  1  0  0  0
  5 90  1  0  0  0
  6 25  1  0  0  0
  6 91  1  0  0  0
  6 92  1  0  0  0
  7  8  2  0  0  0
  7 26  1  0  0  0
  7 29  1  0  0  0
  8  9  1  0  0  0
  8 22  1  0  0  0
  9 10  1  0  0  0
  9 27  2  0  0  0
 10 11  2  0  0  0
 10 15  1  0  0  0
 11 12  1  0  0  0
 11 93  1  0  0  0
 12 13  2  0  0  0
 12 94  1  0  0  0
 13 14  1  0  0  0
 13 31  1  0  0  0
 14 15  2  0  0  0
 14 95  1  0  0  0
 15 96  1  0  0  0
 16 17  2  0  0  0
 16 21  1  0  0  0
 16 31  1  0  0  0
 17 18  1  0  0  0
 17 97  1  0  0  0
 18 19  2  0  0  0
 18 98  1  0  0  0
 19 20  1  0  0  0
 19 24  1  0  0  0
 20 21  2  0  0  0
 20 99  1  0  0  0
 21 23  1  0  0  0
 22 28  1  0  0  0
 22 32  2  0  0  0
 26 27  1  0  0  0
 28100  1  0  0  0
 28101  1  0  0  0
 29102  1  0  0  0
 29103  1  0  0  0
 33 34  1  0  0  0
 33 66  1  0  0  0
 33 70  2  0  0  0
 34 36  1  0  0  0
 34 59  1  0  0  0
 34104  1  0  0  0
 35 44  2  0  0  0
 35 45  1  0  0  0
 35 68  1  0  0  0
 36 56  1  0  0  0
 36105  1  0  0  0
 37 39  1  0  0  0
 37 47  1  0  0  0
 37 66  1  0  0  0
 37106  1  0  0  0
 38 43  2  0  0  0
 38 46  1  0  0  0
 38 47  1  0  0  0
 39 64  1  0  0  0
 39 67  2  0  0  0
 40 52  1  0  0  0
 40 53  2  0  0  0
 40 58  1  0  0  0
 41107  1  0  0  0
 41108  1  0  0  0
 41109  1  0  0  0
 41 48  1  0  0  0
 42 43  1  0  0  0
 42 66  1  0  0  0
 42110  1  0  0  0
 42111  1  0  0  0
 43 44  1  0  0  0
 44112  1  0  0  0
 45 46  2  0  0  0
 45113  1  0  0  0
 46114  1  0  0  0
 47115  1  0  0  0
 47116  1  0  0  0
 48 56  1  0  0  0
 48 65  1  0  0  0
 48117  1  0  0  0
 49 50  1  0  0  0
 49 53  1  0  0  0
 49 64  1  0  0  0
 49118  1  0  0  0
 50 51  1  0  0  0
 50119  1  0  0  0
 50120  1  0  0  0
 51 52  1  0  0  0
 51121  1  0  0  0
 51122  1  0  0  0
 52123  1  0  0  0
 52124  1  0  0  0
 53 54  1  0  0  0
 54 55  2  0  0  0
 54125  1  0  0  0
 55 57  1  0  0  0
 55126  1  0  0  0
 56 69  2  0  0  0
 57 58  2  0  0  0
 57127  1  0  0  0
 58128  1  0  0  0
 59 60  1  0  0  0
 59 61  1  0  0  0
 59 62  1  0  0  0
 60129  1  0  0  0
 60130  1  0  0  0
 60131  1  0  0  0
 61132  1  0  0  0
 61133  1  0  0  0
 61134  1  0  0  0
 62135  1  0  0  0
 62136  1  0  0  0
 62137  1  0  0  0
 63 65  1  0  0  0
 63138  1  0  0  0
 63139  1  0  0  0
 63140  1  0  0  0
 64141  1  0  0  0
 65142  1  0  0  0
 68 82  1  0  0  0
 71 72  2  0  0  0
 71 74  1  0  0  0
 71143  1  0  0  0
 72 76  1  0  0  0
 72144  1  0  0  0
 73 74  2  0  0  0
 73 75  1  0  0  0
 73145  1  0  0  0
 74 79  1  0  0  0
 75 76  2  0  0  0
 75 77  1  0  0  0
 76 83  1  0  0  0
 77146  1  0  0  0
 77147  1  0  0  0
 77148  1  0  0  0
 78149  1  0  0  0
 78150  1  0  0  0
 78151  1  0  0  0
 78 82  1  0  0  0
 79 80  1  0  0  0
 79152  1  0  0  0
 79153  1  0  0  0
 80 81  1  0  0  0
 80154  1  0  0  0
 80155  1  0  0  0
 81 82  1  0  0  0
 81156  1  0  0  0
 81157  1  0  0  0
 82158  1  0  0  0
 83159  1  0  0  0
M  ISO  4   1 100  68 101  82 101  83 100
M  END
> <chiral flag>
0

> <version>
0

> <s_m_source_file>
/data/baiqing/PycharmProjects/Reinvent-master-3.2/result/LINK_invent/BTK/process_docking_weight1_custom_product_contain_oxygen_bond_distance_aromatic_linkinvent_7_9_3/rearranged_h_0130.sdf

> <i_m_source_file_index>
73

> <r_mmod_Potential_Energy-OPLS-2005>
57.0386161804199

> <r_mmod_Stretch_Energy-OPLS-2005>
70.66064453125

> <r_mmod_Bend_Energy-OPLS-2005>
163.117950439453

> <r_mmod_Torsional_Energy-OPLS-2005>
240.319137573242

> <r_mmod_Improper_Torsional_Energy-OPLS-2005>
7.19145250320435

> <r_mmod_Van_der_Waal_Energy-OPLS-2005>
131.720291137695

> <r_mmod_Electrostatic_Energy-OPLS-2005>
-397.852783203125

> <r_mmod_Solvation_Energy-OPLS-2005>
-200.427917480469

> <b_mmod_Minimization_Converged-OPLS-2005>
0

> <r_mmod_RMS_Derivative-OPLS-2005>
2.42883086204529

$$$$
73
                    3D
 Structure written by MMmdl.
152160  0  0  1  0            999 V2000
  -30.6084  -14.6973   20.5223 C   0  0  0  0  0  0
  -30.4449  -12.4317   19.4727 C   0  0  0  0  0  0
  -29.5174  -12.5238   18.2381 C   0  0  0  0  0  0
  -28.0375  -12.3532   18.6390 C   0  0  0  0  0  0
  -27.6545  -13.2195   19.8667 C   0  0  2  0  0  0
  -28.6955  -13.0647   20.9960 C   0  0  0  0  0  0
  -25.2591  -13.8170   20.5729 C   0  0  0  0  0  0
  -24.1843  -13.0434   20.9175 C   0  0  0  0  0  0
  -24.6399  -11.6899   20.8699 C   0  0  0  0  0  0
  -23.9053  -10.4290   21.0380 C   0  0  0  0  0  0
  -24.3612   -9.4214   21.9168 C   0  0  0  0  0  0
  -23.6292   -8.2246   22.0750 C   0  0  0  0  0  0
  -22.4275   -8.0277   21.3538 C   0  0  0  0  0  0
  -21.9897   -9.0250   20.4649 C   0  0  0  0  0  0
  -22.7222  -10.2128   20.3041 C   0  0  0  0  0  0
  -21.6862   -6.0734   22.5274 C   0  0  0  0  0  0
  -21.4018   -6.5633   23.8210 C   0  0  0  0  0  0
  -21.3667   -5.6783   24.9174 C   0  0  0  0  0  0
  -21.6048   -4.3044   24.7222 C   0  0  0  0  0  0
  -21.8819   -3.8142   23.4341 C   0  0  0  0  0  0
  -21.9196   -4.6959   22.3402 C   0  0  0  0  0  0
  -22.7875  -13.5231   21.1839 C   0  0  0  0  0  0
  -22.1675   -4.2143   21.0976 F   0  0  0  0  0  0
  -21.5625   -3.4529   25.7741 F   0  0  0  0  0  0
  -30.0055  -13.4565   20.4491 N   0  0  0  0  0  0
  -26.3000  -12.9349   20.3323 N   0  0  0  0  0  0
  -25.9323  -11.6492   20.5720 N   0  0  0  0  0  0
  -22.0513  -12.8239   22.0405 N   0  0  0  0  0  0
  -25.4293  -15.1897   20.4209 N   0  0  0  0  0  0
  -31.7520  -14.8403   20.0780 O   0  0  0  0  0  0
  -21.6638   -6.8877   21.4238 O   0  0  0  0  0  0
  -22.3553  -14.5542   20.6694 O   0  0  0  0  0  0
  -24.6311  -31.8572   23.1992 C   0  0  0  0  0  0
  -25.9145  -32.4760   23.8329 C   0  0  1  0  0  0
  -27.2289  -27.2930   20.1278 C   0  0  0  0  0  0
  -25.5939  -33.8556   24.2248 N   0  0  0  0  0  0
  -23.4250  -30.4820   21.5419 C   0  0  2  0  0  0
  -24.8724  -28.9339   20.1107 C   0  0  0  0  0  0
  -22.7499  -29.4630   22.4912 C   0  0  0  0  0  0
  -18.0294  -28.1414   22.8486 C   0  0  0  0  0  0
  -24.1481  -36.7300   23.2631 C   0  0  0  0  0  0
  -25.9685  -30.7837   21.3709 C   0  0  0  0  0  0
  -26.0436  -29.4088   20.7142 C   0  0  0  0  0  0
  -27.2244  -28.6021   20.7107 C   0  0  0  0  0  0
  -26.0318  -26.8830   19.4922 C   0  0  0  0  0  0
  -24.8700  -27.6777   19.4883 C   0  0  0  0  0  0
  -23.6414  -29.8170   20.1578 C   0  0  0  0  0  0
  -25.4107  -36.3062   24.0309 C   0  0  1  0  0  0
  -20.5900  -28.3712   23.1279 C   0  0  2  0  0  0
  -20.6793  -26.9434   22.5412 C   0  0  0  0  0  0
  -19.5759  -26.6396   21.5227 C   0  0  0  0  0  0
  -18.1940  -26.7953   22.1639 C   0  0  0  0  0  0
  -19.1545  -28.8882   23.2879 C   0  0  0  0  0  0
  -18.9469  -30.1490   23.8876 C   0  0  0  0  0  0
  -17.6463  -30.6603   24.0583 C   0  0  0  0  0  0
  -25.9049  -34.9440   23.5077 C   0  0  0  0  0  0
  -16.5356  -29.9096   23.6347 C   0  0  0  0  0  0
  -16.7282  -28.6539   23.0323 C   0  0  0  0  0  0
  -26.4510  -31.6572   25.0712 C   0  0  0  0  0  0
  -25.3744  -31.3745   26.1441 C   0  0  0  0  0  0
  -27.0353  -30.2985   24.6195 C   0  0  0  0  0  0
  -27.6045  -32.4319   25.7505 C   0  0  0  0  0  0
  -27.5573  -37.1801   24.8462 C   0  0  0  0  0  0
  -21.4205  -29.3048   22.3656 N   0  0  0  0  0  0
  -26.4278  -37.3768   23.9413 N   0  0  0  0  0  0
  -24.6939  -31.0577   22.0943 N   0  0  0  0  0  0
  -23.4227  -28.8173   23.2999 O   0  0  0  0  0  0
  -28.3359  -26.4170   20.1927 O   0  0  0  0  0  0
  -26.5621  -34.8914   22.4644 O   0  0  0  0  0  0
  -23.5467  -32.1360   23.7317 O   0  0  0  0  0  0
  -27.9495  -19.9354   22.3854 C   0  0  0  0  0  0
  -27.5690  -18.7366   22.8862 C   0  0  0  0  0  0
  -28.9492  -19.7246   21.3828 C   0  0  0  0  0  0
  -29.1421  -18.3096   21.3825 C   0  0  0  0  0  0
  -29.9448  -17.2042   20.7981 C   0  0  0  0  0  0
  -29.7984  -15.8457   21.0539 C   0  0  0  0  0  0
  -29.5708  -20.9903   20.6668 C   0  0  0  0  0  0
  -28.6241  -22.2949   20.4624 C   0  0  0  0  0  0
  -29.1629  -23.8135   20.4363 C   0  0  0  0  0  0
  -28.0698  -24.9486   20.1181 C   0  0  0  0  0  0
  -28.2668  -17.7629   22.2822 O   0  0  0  0  0  0
  -31.4860  -12.5633   19.1738 H   0  0  0  0  0  0
  -30.3961  -11.4380   19.9209 H   0  0  0  0  0  0
  -29.7976  -11.7715   17.4985 H   0  0  0  0  0  0
  -29.6526  -13.4925   17.7540 H   0  0  0  0  0  0
  -27.8772  -11.2990   18.8686 H   0  0  0  0  0  0
  -27.3875  -12.5835   17.7949 H   0  0  0  0  0  0
  -27.6739  -14.2574   19.5320 H   0  0  0  0  0  0
  -28.7310  -12.0281   21.3348 H   0  0  0  0  0  0
  -28.4140  -13.6292   21.8817 H   0  0  0  0  0  0
  -25.2761   -9.5704   22.4738 H   0  0  0  0  0  0
  -24.0015   -7.4636   22.7464 H   0  0  0  0  0  0
  -21.0827   -8.8764   19.8953 H   0  0  0  0  0  0
  -22.3678  -10.9666   19.6150 H   0  0  0  0  0  0
  -21.2011   -7.6138   23.9715 H   0  0  0  0  0  0
  -21.1494   -6.0510   25.9076 H   0  0  0  0  0  0
  -22.0590   -2.7600   23.2835 H   0  0  0  0  0  0
  -22.4125  -11.9910   22.4813 H   0  0  0  0  0  0
  -21.1130  -13.1274   22.2590 H   0  0  0  0  0  0
  -24.6661  -15.8459   20.5443 H   0  0  0  0  0  0
  -26.2941  -15.6377   20.1437 H   0  0  0  0  0  0
  -26.7220  -32.5435   23.1081 H   0  0  0  0  0  0
  -25.0087  -33.9688   25.0396 H   0  0  0  0  0  0
  -22.7205  -31.3041   21.3967 H   0  0  0  0  0  0
  -23.3720  -35.9655   23.3283 H   0  0  0  0  0  0
  -24.3584  -36.8940   22.2050 H   0  0  0  0  0  0
  -23.7244  -37.6500   23.6674 H   0  0  0  0  0  0
  -26.0961  -31.5443   20.5994 H   0  0  0  0  0  0
  -26.8516  -30.8377   21.9967 H   0  0  0  0  0  0
  -28.1208  -28.9613   21.1959 H   0  0  0  0  0  0
  -25.9579  -25.9245   19.0025 H   0  0  0  0  0  0
  -23.9728  -27.3068   19.0109 H   0  0  0  0  0  0
  -23.7681  -30.5924   19.4010 H   0  0  0  0  0  0
  -22.7607  -29.2497   19.8518 H   0  0  0  0  0  0
  -25.1281  -36.1894   25.0795 H   0  0  0  0  0  0
  -21.0001  -28.3296   24.1398 H   0  0  0  0  0  0
  -20.5730  -26.2323   23.3617 H   0  0  0  0  0  0
  -21.6662  -26.7489   22.1189 H   0  0  0  0  0  0
  -19.6924  -25.6304   21.1264 H   0  0  0  0  0  0
  -19.6686  -27.3206   20.6757 H   0  0  0  0  0  0
  -17.4212  -26.6697   21.4038 H   0  0  0  0  0  0
  -18.0333  -26.0109   22.9050 H   0  0  0  0  0  0
  -19.7939  -30.7338   24.2205 H   0  0  0  0  0  0
  -17.5009  -31.6269   24.5204 H   0  0  0  0  0  0
  -15.5354  -30.2991   23.7676 H   0  0  0  0  0  0
  -15.8694  -28.0879   22.6979 H   0  0  0  0  0  0
  -24.5894  -30.7104   25.7802 H   0  0  0  0  0  0
  -24.8972  -32.2929   26.4866 H   0  0  0  0  0  0
  -25.8075  -30.8936   27.0215 H   0  0  0  0  0  0
  -26.2936  -29.6724   24.1214 H   0  0  0  0  0  0
  -27.4012  -29.7254   25.4722 H   0  0  0  0  0  0
  -27.8824  -30.4241   23.9448 H   0  0  0  0  0  0
  -27.2614  -33.3603   26.2083 H   0  0  0  0  0  0
  -28.3875  -32.6894   25.0364 H   0  0  0  0  0  0
  -28.0686  -31.8442   26.5432 H   0  0  0  0  0  0
  -28.2572  -38.0114   24.7515 H   0  0  0  0  0  0
  -28.1078  -36.2640   24.6263 H   0  0  0  0  0  0
  -27.2314  -37.1437   25.8872 H   0  0  0  0  0  0
  -20.9385  -29.8769   21.6859 H   0  0  0  0  0  0
  -26.0142  -38.2832   24.1424 H   0  0  0  0  0  0
  -27.5393  -20.8717   22.7361 H   0  0  0  0  0  0
  -26.8666  -18.4213   23.6456 H   0  0  0  0  0  0
  -30.7238  -17.5085   20.1145 H   0  0  0  0  0  0
  -29.0076  -15.5956   21.7392 H   0  0  0  0  0  0
  -29.9840  -20.6825   19.7063 H   0  0  0  0  0  0
  -30.4273  -21.2853   21.2742 H   0  0  0  0  0  0
  -27.8843  -22.3154   21.2558 H   0  0  0  0  0  0
  -28.0345  -22.1283   19.5606 H   0  0  0  0  0  0
  -29.9724  -23.9029   19.7116 H   0  0  0  0  0  0
  -29.6120  -24.0303   21.4064 H   0  0  0  0  0  0
  -27.2250  -24.7527   20.7807 H   0  0  0  0  0  0
  -27.7216  -24.7335   19.1086 H   0  0  0  0  0  0
  1 25  1  0  0  0
  1 30  2  0  0  0
  1 76  1  0  0  0
  2  3  1  0  0  0
  2 25  1  0  0  0
  2 82  1  0  0  0
  2 83  1  0  0  0
  3  4  1  0  0  0
  3 84  1  0  0  0
  3 85  1  0  0  0
  4  5  1  0  0  0
  4 86  1  0  0  0
  4 87  1  0  0  0
  5  6  1  0  0  0
  5 26  1  0  0  0
  5 88  1  0  0  0
  6 25  1  0  0  0
  6 89  1  0  0  0
  6 90  1  0  0  0
  7  8  2  0  0  0
  7 26  1  0  0  0
  7 29  1  0  0  0
  8  9  1  0  0  0
  8 22  1  0  0  0
  9 10  1  0  0  0
  9 27  2  0  0  0
 10 11  2  0  0  0
 10 15  1  0  0  0
 11 12  1  0  0  0
 11 91  1  0  0  0
 12 13  2  0  0  0
 12 92  1  0  0  0
 13 14  1  0  0  0
 13 31  1  0  0  0
 14 15  2  0  0  0
 14 93  1  0  0  0
 15 94  1  0  0  0
 16 17  2  0  0  0
 16 21  1  0  0  0
 16 31  1  0  0  0
 17 18  1  0  0  0
 17 95  1  0  0  0
 18 19  2  0  0  0
 18 96  1  0  0  0
 19 20  1  0  0  0
 19 24  1  0  0  0
 20 21  2  0  0  0
 20 97  1  0  0  0
 21 23  1  0  0  0
 22 28  1  0  0  0
 22 32  2  0  0  0
 26 27  1  0  0  0
 28 98  1  0  0  0
 28 99  1  0  0  0
 29100  1  0  0  0
 29101  1  0  0  0
 33 34  1  0  0  0
 33 66  1  0  0  0
 33 70  2  0  0  0
 34 36  1  0  0  0
 34 59  1  0  0  0
 34102  1  0  0  0
 35 44  2  0  0  0
 35 45  1  0  0  0
 35 68  1  0  0  0
 36 56  1  0  0  0
 36103  1  0  0  0
 37 39  1  0  0  0
 37 47  1  0  0  0
 37 66  1  0  0  0
 37104  1  0  0  0
 38 43  2  0  0  0
 38 46  1  0  0  0
 38 47  1  0  0  0
 39 64  1  0  0  0
 39 67  2  0  0  0
 40 52  1  0  0  0
 40 53  2  0  0  0
 40 58  1  0  0  0
 41105  1  0  0  0
 41106  1  0  0  0
 41107  1  0  0  0
 41 48  1  0  0  0
 42 43  1  0  0  0
 42 66  1  0  0  0
 42108  1  0  0  0
 42109  1  0  0  0
 43 44  1  0  0  0
 44110  1  0  0  0
 45 46  2  0  0  0
 45111  1  0  0  0
 46112  1  0  0  0
 47113  1  0  0  0
 47114  1  0  0  0
 48 56  1  0  0  0
 48 65  1  0  0  0
 48115  1  0  0  0
 49 50  1  0  0  0
 49 53  1  0  0  0
 49 64  1  0  0  0
 49116  1  0  0  0
 50 51  1  0  0  0
 50117  1  0  0  0
 50118  1  0  0  0
 51 52  1  0  0  0
 51119  1  0  0  0
 51120  1  0  0  0
 52121  1  0  0  0
 52122  1  0  0  0
 53 54  1  0  0  0
 54 55  2  0  0  0
 54123  1  0  0  0
 55 57  1  0  0  0
 55124  1  0  0  0
 56 69  2  0  0  0
 57 58  2  0  0  0
 57125  1  0  0  0
 58126  1  0  0  0
 59 60  1  0  0  0
 59 61  1  0  0  0
 59 62  1  0  0  0
 60127  1  0  0  0
 60128  1  0  0  0
 60129  1  0  0  0
 61130  1  0  0  0
 61131  1  0  0  0
 61132  1  0  0  0
 62133  1  0  0  0
 62134  1  0  0  0
 62135  1  0  0  0
 63 65  1  0  0  0
 63136  1  0  0  0
 63137  1  0  0  0
 63138  1  0  0  0
 64139  1  0  0  0
 65140  1  0  0  0
 68 80  1  0  0  0
 71 72  2  0  0  0
 71 73  1  0  0  0
 71141  1  0  0  0
 72 81  1  0  0  0
 72142  1  0  0  0
 73 74  2  0  0  0
 73 77  1  0  0  0
 74 75  1  0  0  0
 74 81  1  0  0  0
 75 76  2  0  0  0
 75143  1  0  0  0
 76144  1  0  0  0
 77 78  1  0  0  0
 77145  1  0  0  0
 77146  1  0  0  0
 78 79  1  0  0  0
 78147  1  0  0  0
 78148  1  0  0  0
 79 80  1  0  0  0
 79149  1  0  0  0
 79150  1  0  0  0
 80151  1  0  0  0
 80152  1  0  0  0
M  ISO  4   1 100  68 101  76 100  80 101
M  END
> <chiral flag>
0

> <version>
0

> <s_m_source_file>
/data/baiqing/PycharmProjects/Reinvent-master-3.2/result/LINK_invent/BTK/process_docking_weight1_custom_product_contain_oxygen_bond_distance_aromatic_linkinvent_7_9_3/rearranged_h_0130.sdf

> <i_m_source_file_index>
74

> <r_mmod_Potential_Energy-OPLS-2005>
131.338760375977

> <r_mmod_Stretch_Energy-OPLS-2005>
111.969223022461

> <r_mmod_Bend_Energy-OPLS-2005>
177.134368896484

> <r_mmod_Torsional_Energy-OPLS-2005>
180.305572509766

> <r_mmod_Improper_Torsional_Energy-OPLS-2005>
2.67944693565369

> <r_mmod_Van_der_Waal_Energy-OPLS-2005>
132.705627441406

> <r_mmod_Electrostatic_Energy-OPLS-2005>
-344.244201660156

> <r_mmod_Solvation_Energy-OPLS-2005>
-192.338165283203

> <b_mmod_Minimization_Converged-OPLS-2005>
0

> <r_mmod_RMS_Derivative-OPLS-2005>
2.42802476882935

$$$$
74
                    3D
 Structure written by MMmdl.
162171  0  0  1  0            999 V2000
  -30.7480  -14.4535   20.5243 C   0  0  0  0  0  0
  -30.3990  -12.2762   19.4470 C   0  0  0  0  0  0
  -29.4942  -12.4895   18.2164 C   0  0  0  0  0  0
  -28.0098  -12.3769   18.6151 C   0  0  0  0  0  0
  -27.6567  -13.2191   19.8713 C   0  0  2  0  0  0
  -28.6968  -13.0249   20.9974 C   0  0  0  0  0  0
  -25.2548  -13.8185   20.5680 C   0  0  0  0  0  0
  -24.1816  -13.0446   20.9162 C   0  0  0  0  0  0
  -24.6383  -11.6916   20.8714 C   0  0  0  0  0  0
  -23.9054  -10.4297   21.0383 C   0  0  0  0  0  0
  -24.3604   -9.4221   21.9174 C   0  0  0  0  0  0
  -23.6282   -8.2257   22.0763 C   0  0  0  0  0  0
  -22.4271   -8.0277   21.3545 C   0  0  0  0  0  0
  -21.9893   -9.0245   20.4648 C   0  0  0  0  0  0
  -22.7215  -10.2128   20.3046 C   0  0  0  0  0  0
  -21.6856   -6.0724   22.5271 C   0  0  0  0  0  0
  -21.4019   -6.5630   23.8200 C   0  0  0  0  0  0
  -21.3666   -5.6786   24.9165 C   0  0  0  0  0  0
  -21.6050   -4.3047   24.7216 C   0  0  0  0  0  0
  -21.8819   -3.8139   23.4335 C   0  0  0  0  0  0
  -21.9192   -4.6954   22.3392 C   0  0  0  0  0  0
  -22.7840  -13.5235   21.1817 C   0  0  0  0  0  0
  -22.1657   -4.2139   21.0971 F   0  0  0  0  0  0
  -21.5637   -3.4534   25.7732 F   0  0  0  0  0  0
  -30.0315  -13.2963   20.4440 N   0  0  0  0  0  0
  -26.2999  -12.9389   20.3351 N   0  0  0  0  0  0
  -25.9318  -11.6532   20.5754 N   0  0  0  0  0  0
  -22.0473  -12.8249   22.0380 N   0  0  0  0  0  0
  -25.4252  -15.1911   20.4125 N   0  0  0  0  0  0
  -31.9062  -14.5104   20.1025 O   0  0  0  0  0  0
  -21.6646   -6.8866   21.4233 O   0  0  0  0  0  0
  -22.3530  -14.5538   20.6652 O   0  0  0  0  0  0
  -24.6132  -31.8697   23.2112 C   0  0  0  0  0  0
  -25.9032  -32.4841   23.8411 C   0  0  1  0  0  0
  -27.2362  -27.4563   20.1010 C   0  0  0  0  0  0
  -25.5885  -33.8638   24.2335 N   0  0  0  0  0  0
  -23.4018  -30.4923   21.5503 C   0  0  2  0  0  0
  -24.8518  -28.9632   20.1125 C   0  0  0  0  0  0
  -22.7415  -29.4662   22.4986 C   0  0  0  0  0  0
  -18.0278  -28.1371   22.8490 C   0  0  0  0  0  0
  -24.1475  -36.7320   23.2638 C   0  0  0  0  0  0
  -25.9284  -30.8448   21.3605 C   0  0  0  0  0  0
  -26.0099  -29.4816   20.7067 C   0  0  0  0  0  0
  -27.2100  -28.7361   20.6957 C   0  0  0  0  0  0
  -26.0666  -26.9489   19.4969 C   0  0  0  0  0  0
  -24.8741  -27.6965   19.5022 C   0  0  0  0  0  0
  -23.6107  -29.8257   20.1640 C   0  0  0  0  0  0
  -25.4101  -36.3127   24.0337 C   0  0  1  0  0  0
  -20.5867  -28.3667   23.1317 C   0  0  2  0  0  0
  -20.6764  -26.9404   22.5419 C   0  0  0  0  0  0
  -19.5747  -26.6384   21.5210 C   0  0  0  0  0  0
  -18.1925  -26.7920   22.1617 C   0  0  0  0  0  0
  -19.1525  -28.8834   23.2901 C   0  0  0  0  0  0
  -18.9447  -30.1438   23.8914 C   0  0  0  0  0  0
  -17.6447  -30.6579   24.0558 C   0  0  0  0  0  0
  -25.9032  -34.9490   23.5134 C   0  0  0  0  0  0
  -16.5341  -29.9079   23.6316 C   0  0  0  0  0  0
  -16.7264  -28.6494   23.0346 C   0  0  0  0  0  0
  -26.4461  -31.6620   25.0736 C   0  0  0  0  0  0
  -25.3725  -31.3724   26.1481 C   0  0  0  0  0  0
  -27.0292  -30.3066   24.6105 C   0  0  0  0  0  0
  -27.6043  -32.4332   25.7491 C   0  0  0  0  0  0
  -27.5579  -37.1808   24.8457 C   0  0  0  0  0  0
  -21.4144  -29.3035   22.3726 N   0  0  0  0  0  0
  -26.4285  -37.3810   23.9414 N   0  0  0  0  0  0
  -24.6659  -31.0816   22.1000 N   0  0  0  0  0  0
  -23.4193  -28.8201   23.3022 O   0  0  0  0  0  0
  -28.3698  -26.6834   20.1393 O   0  0  0  0  0  0
  -26.5600  -34.8936   22.4697 O   0  0  0  0  0  0
  -23.5323  -32.1440   23.7513 O   0  0  0  0  0  0
  -29.2302  -18.5054   21.8979 C   0  0  0  0  0  0
  -28.8018  -19.8204   22.1726 C   0  0  0  0  0  0
  -30.0184  -20.6255   20.2365 C   0  0  0  0  0  0
  -30.0791  -18.2351   20.8024 C   0  0  0  0  0  0
  -30.4618  -19.3134   19.9519 C   0  0  0  0  0  0
  -29.1788  -20.8910   21.3380 C   0  0  0  0  0  0
  -30.5549  -16.8602   20.5346 C   0  0  0  0  0  0
  -30.0471  -15.6705   20.9435 C   0  0  0  0  0  0
  -29.0437  -24.3584   20.6101 C   0  0  0  0  0  0
  -31.7805  -19.0942   16.6450 C   0  0  0  0  0  0
  -30.8853  -18.2407   17.5488 C   0  0  0  0  0  0
  -31.6485  -20.1971   17.6988 C   0  0  0  0  0  0
  -31.3649  -19.0931   18.7374 C   0  0  0  0  0  0
  -28.3223  -23.0019   20.5725 C   0  0  0  0  0  0
  -28.2128  -25.5755   21.0392 C   0  0  0  0  0  0
  -30.2407  -24.4604   20.3185 O   0  0  0  0  0  0
  -28.7471  -22.1615   21.6535 O   0  0  0  0  0  0
  -31.4493  -12.3163   19.1543 H   0  0  0  0  0  0
  -30.2496  -11.2774   19.8599 H   0  0  0  0  0  0
  -29.7293  -11.7551   17.4446 H   0  0  0  0  0  0
  -29.6889  -13.4689   17.7765 H   0  0  0  0  0  0
  -27.7979  -11.3236   18.8014 H   0  0  0  0  0  0
  -27.3729  -12.6695   17.7790 H   0  0  0  0  0  0
  -27.6942  -14.2655   19.5682 H   0  0  0  0  0  0
  -28.6605  -12.0018   21.3740 H   0  0  0  0  0  0
  -28.4659  -13.6518   21.8583 H   0  0  0  0  0  0
  -25.2741   -9.5719   22.4748 H   0  0  0  0  0  0
  -23.9992   -7.4667   22.7502 H   0  0  0  0  0  0
  -21.0823   -8.8748   19.8964 H   0  0  0  0  0  0
  -22.3650  -10.9661   19.6160 H   0  0  0  0  0  0
  -21.2014   -7.6140   23.9700 H   0  0  0  0  0  0
  -21.1495   -6.0515   25.9064 H   0  0  0  0  0  0
  -22.0596   -2.7598   23.2833 H   0  0  0  0  0  0
  -22.4061  -11.9903   22.4781 H   0  0  0  0  0  0
  -21.1098  -13.1313   22.2575 H   0  0  0  0  0  0
  -24.6603  -15.8462   20.5340 H   0  0  0  0  0  0
  -26.2828  -15.6351   20.1092 H   0  0  0  0  0  0
  -26.7112  -32.5566   23.1191 H   0  0  0  0  0  0
  -25.0006  -33.9808   25.0457 H   0  0  0  0  0  0
  -22.6899  -31.3088   21.4117 H   0  0  0  0  0  0
  -23.3740  -35.9650   23.3308 H   0  0  0  0  0  0
  -24.3563  -36.8930   22.2051 H   0  0  0  0  0  0
  -23.7222  -37.6524   23.6646 H   0  0  0  0  0  0
  -26.0360  -31.6128   20.5935 H   0  0  0  0  0  0
  -26.8179  -30.9005   21.9765 H   0  0  0  0  0  0
  -28.1046  -29.1280   21.1598 H   0  0  0  0  0  0
  -26.0759  -25.9724   19.0343 H   0  0  0  0  0  0
  -23.9836  -27.2922   19.0413 H   0  0  0  0  0  0
  -23.7191  -30.6025   19.4057 H   0  0  0  0  0  0
  -22.7371  -29.2439   19.8663 H   0  0  0  0  0  0
  -25.1273  -36.1990   25.0830 H   0  0  0  0  0  0
  -20.9961  -28.3226   24.1437 H   0  0  0  0  0  0
  -20.5668  -26.2272   23.3600 H   0  0  0  0  0  0
  -21.6633  -26.7444   22.1211 H   0  0  0  0  0  0
  -19.6911  -25.6302   21.1227 H   0  0  0  0  0  0
  -19.6686  -27.3204   20.6746 H   0  0  0  0  0  0
  -17.4201  -26.6677   21.4014 H   0  0  0  0  0  0
  -18.0326  -26.0052   22.9002 H   0  0  0  0  0  0
  -19.7922  -30.7247   24.2297 H   0  0  0  0  0  0
  -17.5002  -31.6264   24.5144 H   0  0  0  0  0  0
  -15.5345  -30.2985   23.7618 H   0  0  0  0  0  0
  -15.8666  -28.0808   22.7055 H   0  0  0  0  0  0
  -24.5875  -30.7105   25.7798 H   0  0  0  0  0  0
  -24.8941  -32.2887   26.4961 H   0  0  0  0  0  0
  -25.8068  -30.8851   27.0224 H   0  0  0  0  0  0
  -26.2845  -29.6841   24.1130 H   0  0  0  0  0  0
  -27.4038  -29.7287   25.4567 H   0  0  0  0  0  0
  -27.8689  -30.4390   23.9275 H   0  0  0  0  0  0
  -27.2673  -33.3612   26.2124 H   0  0  0  0  0  0
  -28.3828  -32.6934   25.0305 H   0  0  0  0  0  0
  -28.0752  -31.8430   26.5366 H   0  0  0  0  0  0
  -28.2592  -38.0112   24.7533 H   0  0  0  0  0  0
  -28.1082  -36.2649   24.6242 H   0  0  0  0  0  0
  -27.2305  -37.1409   25.8862 H   0  0  0  0  0  0
  -20.9305  -29.8761   21.6950 H   0  0  0  0  0  0
  -26.0177  -38.2885   24.1438 H   0  0  0  0  0  0
  -28.9238  -17.7081   22.5593 H   0  0  0  0  0  0
  -28.1728  -20.0061   23.0313 H   0  0  0  0  0  0
  -30.3470  -21.4468   19.6169 H   0  0  0  0  0  0
  -31.4539  -16.8284   19.9376 H   0  0  0  0  0  0
  -29.1561  -15.6386   21.5477 H   0  0  0  0  0  0
  -31.3581  -19.3352   15.6685 H   0  0  0  0  0  0
  -32.7963  -18.7042   16.5629 H   0  0  0  0  0  0
  -31.1451  -17.1827   17.5979 H   0  0  0  0  0  0
  -29.8244  -18.3795   17.3320 H   0  0  0  0  0  0
  -30.7895  -20.8383   17.4932 H   0  0  0  0  0  0
  -32.5496  -20.7832   17.8827 H   0  0  0  0  0  0
  -32.3237  -18.7171   19.1023 H   0  0  0  0  0  0
  -28.4753  -22.5455   19.5949 H   0  0  0  0  0  0
  -27.2488  -23.1611   20.6644 H   0  0  0  0  0  0
  -28.5452  -25.8842   22.0302 H   0  0  0  0  0  0
  -27.1697  -25.2744   21.1410 H   0  0  0  0  0  0
  1 25  1  0  0  0
  1 30  2  0  0  0
  1 78  1  0  0  0
  2  3  1  0  0  0
  2 25  1  0  0  0
  2 88  1  0  0  0
  2 89  1  0  0  0
  3  4  1  0  0  0
  3 90  1  0  0  0
  3 91  1  0  0  0
  4  5  1  0  0  0
  4 92  1  0  0  0
  4 93  1  0  0  0
  5  6  1  0  0  0
  5 26  1  0  0  0
  5 94  1  0  0  0
  6 25  1  0  0  0
  6 95  1  0  0  0
  6 96  1  0  0  0
  7  8  2  0  0  0
  7 26  1  0  0  0
  7 29  1  0  0  0
  8  9  1  0  0  0
  8 22  1  0  0  0
  9 10  1  0  0  0
  9 27  2  0  0  0
 10 11  2  0  0  0
 10 15  1  0  0  0
 11 12  1  0  0  0
 11 97  1  0  0  0
 12 13  2  0  0  0
 12 98  1  0  0  0
 13 14  1  0  0  0
 13 31  1  0  0  0
 14 15  2  0  0  0
 14 99  1  0  0  0
 15100  1  0  0  0
 16 17  2  0  0  0
 16 21  1  0  0  0
 16 31  1  0  0  0
 17 18  1  0  0  0
 17101  1  0  0  0
 18 19  2  0  0  0
 18102  1  0  0  0
 19 20  1  0  0  0
 19 24  1  0  0  0
 20 21  2  0  0  0
 20103  1  0  0  0
 21 23  1  0  0  0
 22 28  1  0  0  0
 22 32  2  0  0  0
 26 27  1  0  0  0
 28104  1  0  0  0
 28105  1  0  0  0
 29106  1  0  0  0
 29107  1  0  0  0
 33 34  1  0  0  0
 33 66  1  0  0  0
 33 70  2  0  0  0
 34 36  1  0  0  0
 34 59  1  0  0  0
 34108  1  0  0  0
 35 44  2  0  0  0
 35 45  1  0  0  0
 35 68  1  0  0  0
 36 56  1  0  0  0
 36109  1  0  0  0
 37 39  1  0  0  0
 37 47  1  0  0  0
 37 66  1  0  0  0
 37110  1  0  0  0
 38 43  2  0  0  0
 38 46  1  0  0  0
 38 47  1  0  0  0
 39 64  1  0  0  0
 39 67  2  0  0  0
 40 52  1  0  0  0
 40 53  2  0  0  0
 40 58  1  0  0  0
 41111  1  0  0  0
 41112  1  0  0  0
 41113  1  0  0  0
 41 48  1  0  0  0
 42 43  1  0  0  0
 42 66  1  0  0  0
 42114  1  0  0  0
 42115  1  0  0  0
 43 44  1  0  0  0
 44116  1  0  0  0
 45 46  2  0  0  0
 45117  1  0  0  0
 46118  1  0  0  0
 47119  1  0  0  0
 47120  1  0  0  0
 48 56  1  0  0  0
 48 65  1  0  0  0
 48121  1  0  0  0
 49 50  1  0  0  0
 49 53  1  0  0  0
 49 64  1  0  0  0
 49122  1  0  0  0
 50 51  1  0  0  0
 50123  1  0  0  0
 50124  1  0  0  0
 51 52  1  0  0  0
 51125  1  0  0  0
 51126  1  0  0  0
 52127  1  0  0  0
 52128  1  0  0  0
 53 54  1  0  0  0
 54 55  2  0  0  0
 54129  1  0  0  0
 55 57  1  0  0  0
 55130  1  0  0  0
 56 69  2  0  0  0
 57 58  2  0  0  0
 57131  1  0  0  0
 58132  1  0  0  0
 59 60  1  0  0  0
 59 61  1  0  0  0
 59 62  1  0  0  0
 60133  1  0  0  0
 60134  1  0  0  0
 60135  1  0  0  0
 61136  1  0  0  0
 61137  1  0  0  0
 61138  1  0  0  0
 62139  1  0  0  0
 62140  1  0  0  0
 62141  1  0  0  0
 63 65  1  0  0  0
 63142  1  0  0  0
 63143  1  0  0  0
 63144  1  0  0  0
 64145  1  0  0  0
 65146  1  0  0  0
 68 85  1  0  0  0
 71 72  2  0  0  0
 71 74  1  0  0  0
 71147  1  0  0  0
 72 76  1  0  0  0
 72148  1  0  0  0
 73 75  1  0  0  0
 73 76  2  0  0  0
 73149  1  0  0  0
 74 75  2  0  0  0
 74 77  1  0  0  0
 75 83  1  0  0  0
 76 87  1  0  0  0
 77 78  2  0  0  0
 77150  1  0  0  0
 78151  1  0  0  0
 79 84  1  0  0  0
 79 85  1  0  0  0
 79 86  2  0  0  0
 80 81  1  0  0  0
 80 82  1  0  0  0
 80152  1  0  0  0
 80153  1  0  0  0
 81 83  1  0  0  0
 81154  1  0  0  0
 81155  1  0  0  0
 82 83  1  0  0  0
 82156  1  0  0  0
 82157  1  0  0  0
 83158  1  0  0  0
 84 87  1  0  0  0
 84159  1  0  0  0
 84160  1  0  0  0
 85161  1  0  0  0
 85162  1  0  0  0
M  ISO  4   1 100  68 101  78 100  85 101
M  END
> <chiral flag>
0

> <version>
0

> <s_m_source_file>
/data/baiqing/PycharmProjects/Reinvent-master-3.2/result/LINK_invent/BTK/process_docking_weight1_custom_product_contain_oxygen_bond_distance_aromatic_linkinvent_7_9_3/rearranged_h_0130.sdf

> <i_m_source_file_index>
75

> <r_mmod_Potential_Energy-OPLS-2005>
70.6671981811523

> <r_mmod_Stretch_Energy-OPLS-2005>
37.2134437561035

> <r_mmod_Bend_Energy-OPLS-2005>
115.915832519531

> <r_mmod_Torsional_Energy-OPLS-2005>
259.47021484375

> <r_mmod_Improper_Torsional_Energy-OPLS-2005>
4.01305484771729

> <r_mmod_Van_der_Waal_Energy-OPLS-2005>
163.006546020508

> <r_mmod_Electrostatic_Energy-OPLS-2005>
-312.950592041016

> <r_mmod_Solvation_Energy-OPLS-2005>
-213.534027099609

> <b_mmod_Minimization_Converged-OPLS-2005>
0

> <r_mmod_RMS_Derivative-OPLS-2005>
1.35249423980713

$$$$
75
                    3D
 Structure written by MMmdl.
159167  0  0  1  0            999 V2000
  -30.7226  -14.4161   20.6110 C   0  0  0  0  0  0
  -30.4166  -12.2803   19.4135 C   0  0  0  0  0  0
  -29.4904  -12.5024   18.2014 C   0  0  0  0  0  0
  -28.0115  -12.3667   18.6134 C   0  0  0  0  0  0
  -27.6626  -13.2030   19.8731 C   0  0  2  0  0  0
  -28.7026  -12.9752   20.9929 C   0  0  0  0  0  0
  -25.2601  -13.8155   20.5674 C   0  0  0  0  0  0
  -24.1844  -13.0435   20.9163 C   0  0  0  0  0  0
  -24.6389  -11.6900   20.8721 C   0  0  0  0  0  0
  -23.9049  -10.4292   21.0396 C   0  0  0  0  0  0
  -24.3606   -9.4213   21.9176 C   0  0  0  0  0  0
  -23.6287   -8.2245   22.0753 C   0  0  0  0  0  0
  -22.4269   -8.0277   21.3542 C   0  0  0  0  0  0
  -21.9898   -9.0246   20.4643 C   0  0  0  0  0  0
  -22.7220  -10.2129   20.3049 C   0  0  0  0  0  0
  -21.6853   -6.0730   22.5279 C   0  0  0  0  0  0
  -21.4015   -6.5636   23.8210 C   0  0  0  0  0  0
  -21.3659   -5.6792   24.9172 C   0  0  0  0  0  0
  -21.6044   -4.3055   24.7227 C   0  0  0  0  0  0
  -21.8819   -3.8144   23.4350 C   0  0  0  0  0  0
  -21.9195   -4.6959   22.3404 C   0  0  0  0  0  0
  -22.7868  -13.5239   21.1835 C   0  0  0  0  0  0
  -22.1662   -4.2144   21.0981 F   0  0  0  0  0  0
  -21.5630   -3.4539   25.7741 F   0  0  0  0  0  0
  -30.0386  -13.2548   20.4468 N   0  0  0  0  0  0
  -26.3031  -12.9321   20.3352 N   0  0  0  0  0  0
  -25.9318  -11.6483   20.5746 N   0  0  0  0  0  0
  -22.0511  -12.8230   22.0395 N   0  0  0  0  0  0
  -25.4341  -15.1870   20.4105 N   0  0  0  0  0  0
  -31.8352  -14.5912   20.1039 O   0  0  0  0  0  0
  -21.6638   -6.8870   21.4237 O   0  0  0  0  0  0
  -22.3549  -14.5547   20.6691 O   0  0  0  0  0  0
  -24.6114  -31.8700   23.2127 C   0  0  0  0  0  0
  -25.9022  -32.4832   23.8410 C   0  0  1  0  0  0
  -27.2334  -27.4630   20.0977 C   0  0  0  0  0  0
  -25.5898  -33.8632   24.2347 N   0  0  0  0  0  0
  -23.3972  -30.4935   21.5517 C   0  0  2  0  0  0
  -24.8445  -28.9598   20.1191 C   0  0  0  0  0  0
  -22.7391  -29.4665   22.5004 C   0  0  0  0  0  0
  -18.0263  -28.1364   22.8490 C   0  0  0  0  0  0
  -24.1487  -36.7321   23.2636 C   0  0  0  0  0  0
  -25.9224  -30.8447   21.3608 C   0  0  0  0  0  0
  -26.0010  -29.4787   20.7150 C   0  0  0  0  0  0
  -27.2011  -28.7362   20.7037 C   0  0  0  0  0  0
  -26.0634  -26.9497   19.5005 C   0  0  0  0  0  0
  -24.8678  -27.6918   19.5118 C   0  0  0  0  0  0
  -23.6049  -29.8242   20.1663 C   0  0  0  0  0  0
  -25.4105  -36.3117   24.0343 C   0  0  1  0  0  0
  -20.5853  -28.3649   23.1329 C   0  0  2  0  0  0
  -20.6758  -26.9392   22.5414 C   0  0  0  0  0  0
  -19.5741  -26.6379   21.5201 C   0  0  0  0  0  0
  -18.1914  -26.7908   22.1615 C   0  0  0  0  0  0
  -19.1513  -28.8820   23.2903 C   0  0  0  0  0  0
  -18.9449  -30.1427   23.8917 C   0  0  0  0  0  0
  -17.6452  -30.6579   24.0561 C   0  0  0  0  0  0
  -25.9030  -34.9483   23.5140 C   0  0  0  0  0  0
  -16.5342  -29.9086   23.6321 C   0  0  0  0  0  0
  -16.7255  -28.6498   23.0349 C   0  0  0  0  0  0
  -26.4462  -31.6600   25.0723 C   0  0  0  0  0  0
  -25.3751  -31.3690   26.1489 C   0  0  0  0  0  0
  -27.0282  -30.3053   24.6050 C   0  0  0  0  0  0
  -27.6043  -32.4307   25.7484 C   0  0  0  0  0  0
  -27.5583  -37.1813   24.8463 C   0  0  0  0  0  0
  -21.4125  -29.3025   22.3745 N   0  0  0  0  0  0
  -26.4293  -37.3800   23.9408 N   0  0  0  0  0  0
  -24.6614  -31.0838   22.1002 N   0  0  0  0  0  0
  -23.4183  -28.8202   23.3023 O   0  0  0  0  0  0
  -28.4036  -26.7496   20.0532 O   0  0  0  0  0  0
  -26.5584  -34.8931   22.4696 O   0  0  0  0  0  0
  -23.5317  -32.1428   23.7557 O   0  0  0  0  0  0
  -29.3984  -18.6594   20.2266 C   0  0  0  0  0  0
  -28.7082  -19.8831   20.2624 C   0  0  0  0  0  0
  -29.9569  -18.9073   22.5838 C   0  0  0  0  0  0
  -30.0419  -18.1749   21.3816 C   0  0  0  0  0  0
  -28.6454  -20.6376   21.4521 C   0  0  0  0  0  0
  -29.2621  -20.1378   22.6275 C   0  0  0  0  0  0
  -28.3500  -24.3274   20.4034 C   0  0  0  0  0  0
  -29.2050  -20.9040   23.9382 C   0  0  0  0  0  0
  -30.8753  -16.9083   21.2875 C   0  0  0  0  0  0
  -27.9452  -21.9896   21.4031 C   0  0  0  0  0  0
  -28.9470  -23.1371   21.1564 C   0  0  0  0  0  0
  -28.5059  -25.7174   21.0377 C   0  0  0  0  0  0
  -30.0470  -15.6011   21.3313 C   0  0  0  0  0  0
  -27.7980  -24.1635   19.3108 O   0  0  0  0  0  0
  -31.4621  -12.3659   19.1132 H   0  0  0  0  0  0
  -30.3032  -11.2664   19.8005 H   0  0  0  0  0  0
  -29.7247  -11.7859   17.4134 H   0  0  0  0  0  0
  -29.6662  -13.4924   17.7784 H   0  0  0  0  0  0
  -27.8174  -11.3104   18.8047 H   0  0  0  0  0  0
  -27.3619  -12.6479   17.7837 H   0  0  0  0  0  0
  -27.7101  -14.2511   19.5787 H   0  0  0  0  0  0
  -28.6639  -11.9418   21.3402 H   0  0  0  0  0  0
  -28.4668  -13.5839   21.8656 H   0  0  0  0  0  0
  -25.2752   -9.5693   22.4747 H   0  0  0  0  0  0
  -23.9999   -7.4639   22.7479 H   0  0  0  0  0  0
  -21.0828   -8.8756   19.8954 H   0  0  0  0  0  0
  -22.3671  -10.9662   19.6158 H   0  0  0  0  0  0
  -21.2005   -7.6146   23.9710 H   0  0  0  0  0  0
  -21.1483   -6.0524   25.9072 H   0  0  0  0  0  0
  -22.0600   -2.7608   23.2852 H   0  0  0  0  0  0
  -22.4128  -11.9888   22.4778 H   0  0  0  0  0  0
  -21.1129  -13.1257   22.2608 H   0  0  0  0  0  0
  -24.6733  -15.8475   20.5279 H   0  0  0  0  0  0
  -26.2983  -15.6269   20.1197 H   0  0  0  0  0  0
  -26.7099  -32.5562   23.1183 H   0  0  0  0  0  0
  -25.0080  -33.9790   25.0512 H   0  0  0  0  0  0
  -22.6844  -31.3091   21.4138 H   0  0  0  0  0  0
  -23.3744  -35.9659   23.3304 H   0  0  0  0  0  0
  -24.3592  -36.8926   22.2049 H   0  0  0  0  0  0
  -23.7246  -37.6535   23.6645 H   0  0  0  0  0  0
  -26.0274  -31.6098   20.5905 H   0  0  0  0  0  0
  -26.8123  -30.9021   21.9755 H   0  0  0  0  0  0
  -28.0982  -29.1359   21.1548 H   0  0  0  0  0  0
  -26.0740  -25.9845   19.0158 H   0  0  0  0  0  0
  -23.9791  -27.2861   19.0479 H   0  0  0  0  0  0
  -23.7116  -30.5973   19.4044 H   0  0  0  0  0  0
  -22.7308  -29.2400   19.8732 H   0  0  0  0  0  0
  -25.1277  -36.1989   25.0836 H   0  0  0  0  0  0
  -20.9936  -28.3213   24.1453 H   0  0  0  0  0  0
  -20.5660  -26.2259   23.3597 H   0  0  0  0  0  0
  -21.6633  -26.7441   22.1211 H   0  0  0  0  0  0
  -19.6911  -25.6295   21.1224 H   0  0  0  0  0  0
  -19.6688  -27.3200   20.6741 H   0  0  0  0  0  0
  -17.4184  -26.6655   21.4014 H   0  0  0  0  0  0
  -18.0322  -26.0039   22.9005 H   0  0  0  0  0  0
  -19.7933  -30.7221   24.2316 H   0  0  0  0  0  0
  -17.5016  -31.6269   24.5145 H   0  0  0  0  0  0
  -15.5348  -30.2996   23.7631 H   0  0  0  0  0  0
  -15.8651  -28.0825   22.7064 H   0  0  0  0  0  0
  -24.5918  -30.7037   25.7835 H   0  0  0  0  0  0
  -24.8955  -32.2844   26.4971 H   0  0  0  0  0  0
  -25.8128  -30.8843   27.0229 H   0  0  0  0  0  0
  -26.2803  -29.6835   24.1120 H   0  0  0  0  0  0
  -27.4085  -29.7267   25.4479 H   0  0  0  0  0  0
  -27.8626  -30.4382   23.9161 H   0  0  0  0  0  0
  -27.2658  -33.3588   26.2098 H   0  0  0  0  0  0
  -28.3839  -32.6890   25.0306 H   0  0  0  0  0  0
  -28.0723  -31.8409   26.5375 H   0  0  0  0  0  0
  -28.2593  -38.0116   24.7522 H   0  0  0  0  0  0
  -28.1078  -36.2652   24.6267 H   0  0  0  0  0  0
  -27.2306  -37.1444   25.8866 H   0  0  0  0  0  0
  -20.9281  -29.8763   21.6989 H   0  0  0  0  0  0
  -26.0189  -38.2878   24.1416 H   0  0  0  0  0  0
  -29.4567  -18.1085   19.2978 H   0  0  0  0  0  0
  -28.2451  -20.2538   19.3578 H   0  0  0  0  0  0
  -30.4506  -18.5342   23.4713 H   0  0  0  0  0  0
  -29.8874  -20.4806   24.6761 H   0  0  0  0  0  0
  -28.1979  -20.8663   24.3532 H   0  0  0  0  0  0
  -29.4826  -21.9479   23.8002 H   0  0  0  0  0  0
  -31.6199  -16.8965   22.0850 H   0  0  0  0  0  0
  -31.4411  -16.9908   20.3583 H   0  0  0  0  0  0
  -27.3902  -22.1625   22.3254 H   0  0  0  0  0  0
  -27.1881  -21.9556   20.6175 H   0  0  0  0  0  0
  -29.3993  -23.4664   22.0908 H   0  0  0  0  0  0
  -29.7631  -22.7713   20.5334 H   0  0  0  0  0  0
  -29.4869  -25.7831   21.5084 H   0  0  0  0  0  0
  -27.7633  -25.8418   21.8273 H   0  0  0  0  0  0
  -29.0955  -15.7733   20.8286 H   0  0  0  0  0  0
  -29.8173  -15.3438   22.3652 H   0  0  0  0  0  0
  1 25  1  0  0  0
  1 30  2  0  0  0
  1 83  1  0  0  0
  2  3  1  0  0  0
  2 25  1  0  0  0
  2 85  1  0  0  0
  2 86  1  0  0  0
  3  4  1  0  0  0
  3 87  1  0  0  0
  3 88  1  0  0  0
  4  5  1  0  0  0
  4 89  1  0  0  0
  4 90  1  0  0  0
  5  6  1  0  0  0
  5 26  1  0  0  0
  5 91  1  0  0  0
  6 25  1  0  0  0
  6 92  1  0  0  0
  6 93  1  0  0  0
  7  8  2  0  0  0
  7 26  1  0  0  0
  7 29  1  0  0  0
  8  9  1  0  0  0
  8 22  1  0  0  0
  9 10  1  0  0  0
  9 27  2  0  0  0
 10 11  2  0  0  0
 10 15  1  0  0  0
 11 12  1  0  0  0
 11 94  1  0  0  0
 12 13  2  0  0  0
 12 95  1  0  0  0
 13 14  1  0  0  0
 13 31  1  0  0  0
 14 15  2  0  0  0
 14 96  1  0  0  0
 15 97  1  0  0  0
 16 17  2  0  0  0
 16 21  1  0  0  0
 16 31  1  0  0  0
 17 18  1  0  0  0
 17 98  1  0  0  0
 18 19  2  0  0  0
 18 99  1  0  0  0
 19 20  1  0  0  0
 19 24  1  0  0  0
 20 21  2  0  0  0
 20100  1  0  0  0
 21 23  1  0  0  0
 22 28  1  0  0  0
 22 32  2  0  0  0
 26 27  1  0  0  0
 28101  1  0  0  0
 28102  1  0  0  0
 29103  1  0  0  0
 29104  1  0  0  0
 33 34  1  0  0  0
 33 66  1  0  0  0
 33 70  2  0  0  0
 34 36  1  0  0  0
 34 59  1  0  0  0
 34105  1  0  0  0
 35 44  2  0  0  0
 35 45  1  0  0  0
 35 68  1  0  0  0
 36 56  1  0  0  0
 36106  1  0  0  0
 37 39  1  0  0  0
 37 47  1  0  0  0
 37 66  1  0  0  0
 37107  1  0  0  0
 38 43  2  0  0  0
 38 46  1  0  0  0
 38 47  1  0  0  0
 39 64  1  0  0  0
 39 67  2  0  0  0
 40 52  1  0  0  0
 40 53  2  0  0  0
 40 58  1  0  0  0
 41108  1  0  0  0
 41109  1  0  0  0
 41110  1  0  0  0
 41 48  1  0  0  0
 42 43  1  0  0  0
 42 66  1  0  0  0
 42111  1  0  0  0
 42112  1  0  0  0
 43 44  1  0  0  0
 44113  1  0  0  0
 45 46  2  0  0  0
 45114  1  0  0  0
 46115  1  0  0  0
 47116  1  0  0  0
 47117  1  0  0  0
 48 56  1  0  0  0
 48 65  1  0  0  0
 48118  1  0  0  0
 49 50  1  0  0  0
 49 53  1  0  0  0
 49 64  1  0  0  0
 49119  1  0  0  0
 50 51  1  0  0  0
 50120  1  0  0  0
 50121  1  0  0  0
 51 52  1  0  0  0
 51122  1  0  0  0
 51123  1  0  0  0
 52124  1  0  0  0
 52125  1  0  0  0
 53 54  1  0  0  0
 54 55  2  0  0  0
 54126  1  0  0  0
 55 57  1  0  0  0
 55127  1  0  0  0
 56 69  2  0  0  0
 57 58  2  0  0  0
 57128  1  0  0  0
 58129  1  0  0  0
 59 60  1  0  0  0
 59 61  1  0  0  0
 59 62  1  0  0  0
 60130  1  0  0  0
 60131  1  0  0  0
 60132  1  0  0  0
 61133  1  0  0  0
 61134  1  0  0  0
 61135  1  0  0  0
 62136  1  0  0  0
 62137  1  0  0  0
 62138  1  0  0  0
 63 65  1  0  0  0
 63139  1  0  0  0
 63140  1  0  0  0
 63141  1  0  0  0
 64142  1  0  0  0
 65143  1  0  0  0
 68 82  1  0  0  0
 71 72  2  0  0  0
 71 74  1  0  0  0
 71144  1  0  0  0
 72 75  1  0  0  0
 72145  1  0  0  0
 73 74  2  0  0  0
 73 76  1  0  0  0
 73146  1  0  0  0
 74 79  1  0  0  0
 75 76  2  0  0  0
 75 80  1  0  0  0
 76 78  1  0  0  0
 77 81  1  0  0  0
 77 82  1  0  0  0
 77 84  2  0  0  0
 78147  1  0  0  0
 78148  1  0  0  0
 78149  1  0  0  0
 79 83  1  0  0  0
 79150  1  0  0  0
 79151  1  0  0  0
 80 81  1  0  0  0
 80152  1  0  0  0
 80153  1  0  0  0
 81154  1  0  0  0
 81155  1  0  0  0
 82156  1  0  0  0
 82157  1  0  0  0
 83158  1  0  0  0
 83159  1  0  0  0
M  ISO  4   1 100  68 101  82 101  83 100
M  END
> <chiral flag>
0

> <version>
0

> <s_m_source_file>
/data/baiqing/PycharmProjects/Reinvent-master-3.2/result/LINK_invent/BTK/process_docking_weight1_custom_product_contain_oxygen_bond_distance_aromatic_linkinvent_7_9_3/rearranged_h_0130.sdf

> <i_m_source_file_index>
76

> <r_mmod_Potential_Energy-OPLS-2005>
-70.538688659668

> <r_mmod_Stretch_Energy-OPLS-2005>
32.2756767272949

> <r_mmod_Bend_Energy-OPLS-2005>
83.5216217041016

> <r_mmod_Torsional_Energy-OPLS-2005>
207.753997802734

> <r_mmod_Improper_Torsional_Energy-OPLS-2005>
2.96113872528076

> <r_mmod_Van_der_Waal_Energy-OPLS-2005>
150.326156616211

> <r_mmod_Electrostatic_Energy-OPLS-2005>
-351.713287353516

> <r_mmod_Solvation_Energy-OPLS-2005>
-204.295700073242

> <b_mmod_Minimization_Converged-OPLS-2005>
0

> <r_mmod_RMS_Derivative-OPLS-2005>
1.07673358917236

$$$$
76
                    3D
 Structure written by MMmdl.
155163  0  0  1  0            999 V2000
  -30.5444  -14.8806   20.4250 C   0  0  0  0  0  0
  -30.4509  -12.5392   19.4844 C   0  0  0  0  0  0
  -29.5228  -12.5244   18.2466 C   0  0  0  0  0  0
  -28.0523  -12.3188   18.6624 C   0  0  0  0  0  0
  -27.6395  -13.2295   19.8475 C   0  0  2  0  0  0
  -28.6880  -13.2114   20.9819 C   0  0  0  0  0  0
  -25.2484  -13.8142   20.5737 C   0  0  0  0  0  0
  -24.1782  -13.0387   20.9219 C   0  0  0  0  0  0
  -24.6392  -11.6878   20.8745 C   0  0  0  0  0  0
  -23.9071  -10.4264   21.0402 C   0  0  0  0  0  0
  -24.3619   -9.4185   21.9182 C   0  0  0  0  0  0
  -23.6288   -8.2227   22.0756 C   0  0  0  0  0  0
  -22.4269   -8.0271   21.3544 C   0  0  0  0  0  0
  -21.9908   -9.0246   20.4646 C   0  0  0  0  0  0
  -22.7244  -10.2117   20.3051 C   0  0  0  0  0  0
  -21.6847   -6.0730   22.5281 C   0  0  0  0  0  0
  -21.4012   -6.5636   23.8215 C   0  0  0  0  0  0
  -21.3658   -5.6786   24.9176 C   0  0  0  0  0  0
  -21.6044   -4.3050   24.7225 C   0  0  0  0  0  0
  -21.8820   -3.8143   23.4347 C   0  0  0  0  0  0
  -21.9192   -4.6959   22.3403 C   0  0  0  0  0  0
  -22.7805  -13.5183   21.1870 C   0  0  0  0  0  0
  -22.1659   -4.2148   21.0980 F   0  0  0  0  0  0
  -21.5630   -3.4533   25.7736 F   0  0  0  0  0  0
  -29.9757  -13.6136   20.3948 N   0  0  0  0  0  0
  -26.2927  -12.9367   20.3276 N   0  0  0  0  0  0
  -25.9324  -11.6509   20.5742 N   0  0  0  0  0  0
  -22.0440  -12.8191   22.0427 N   0  0  0  0  0  0
  -25.4073  -15.1873   20.4253 N   0  0  0  0  0  0
  -31.7357  -15.0011   20.1207 O   0  0  0  0  0  0
  -21.6628   -6.8872   21.4242 O   0  0  0  0  0  0
  -22.3502  -14.5491   20.6712 O   0  0  0  0  0  0
  -24.6404  -31.8474   23.1919 C   0  0  0  0  0  0
  -25.9196  -32.4709   23.8290 C   0  0  1  0  0  0
  -27.2245  -27.1773   20.1362 C   0  0  0  0  0  0
  -25.5960  -33.8513   24.2211 N   0  0  0  0  0  0
  -23.4420  -30.4679   21.5368 C   0  0  2  0  0  0
  -24.8928  -28.9044   20.1069 C   0  0  0  0  0  0
  -22.7554  -29.4560   22.4876 C   0  0  0  0  0  0
  -18.0298  -28.1392   22.8473 C   0  0  0  0  0  0
  -24.1493  -36.7259   23.2640 C   0  0  0  0  0  0
  -25.9954  -30.7314   21.3882 C   0  0  0  0  0  0
  -26.0668  -29.3471   20.7287 C   0  0  0  0  0  0
  -27.2305  -28.4963   20.7344 C   0  0  0  0  0  0
  -26.0283  -26.8367   19.4621 C   0  0  0  0  0  0
  -24.8845  -27.6609   19.4599 C   0  0  0  0  0  0
  -23.6661  -29.7998   20.1544 C   0  0  0  0  0  0
  -25.4123  -36.3040   24.0318 C   0  0  1  0  0  0
  -20.5910  -28.3712   23.1242 C   0  0  2  0  0  0
  -20.6784  -26.9421   22.5402 C   0  0  0  0  0  0
  -19.5760  -26.6380   21.5207 C   0  0  0  0  0  0
  -18.1940  -26.7931   22.1620 C   0  0  0  0  0  0
  -19.1556  -28.8872   23.2847 C   0  0  0  0  0  0
  -18.9473  -30.1470   23.8870 C   0  0  0  0  0  0
  -17.6471  -30.6590   24.0555 C   0  0  0  0  0  0
  -25.9072  -34.9414   23.5070 C   0  0  0  0  0  0
  -16.5361  -29.9079   23.6337 C   0  0  0  0  0  0
  -16.7284  -28.6500   23.0354 C   0  0  0  0  0  0
  -26.4530  -31.6565   25.0718 C   0  0  0  0  0  0
  -25.3720  -31.3745   26.1415 C   0  0  0  0  0  0
  -27.0392  -30.2963   24.6284 C   0  0  0  0  0  0
  -27.6069  -32.4319   25.7499 C   0  0  0  0  0  0
  -27.5576  -37.1786   24.8465 C   0  0  0  0  0  0
  -21.4250  -29.3043   22.3624 N   0  0  0  0  0  0
  -26.4288  -37.3750   23.9407 N   0  0  0  0  0  0
  -24.7118  -31.0360   22.0940 N   0  0  0  0  0  0
  -23.4214  -28.8108   23.3012 O   0  0  0  0  0  0
  -28.2845  -26.2122   20.2288 O   0  0  0  0  0  0
  -26.5649  -34.8908   22.4643 O   0  0  0  0  0  0
  -23.5533  -32.1339   23.7160 O   0  0  0  0  0  0
  -30.2359  -19.9281   20.9140 C   0  0  0  0  0  0
  -30.4275  -18.4898   21.0779 C   0  0  0  0  0  0
  -28.5537  -19.5013   19.3180 C   0  0  0  0  0  0
  -29.2678  -20.5148   20.0283 C   0  0  0  0  0  0
  -28.7411  -18.0756   19.4613 C   0  0  0  0  0  0
  -29.6934  -17.4816   20.3588 C   0  0  0  0  0  0
  -28.8757  -23.4715   20.4289 C   0  0  0  0  0  0
  -28.6392  -16.5776   17.4065 C   0  0  0  0  0  0
  -29.0722  -22.0857   19.5838 C   0  0  0  0  0  0
  -27.8723  -17.1836   18.5890 C   0  0  0  0  0  0
  -28.0680  -24.7496   19.7913 C   0  0  0  0  0  0
  -29.6940  -15.9831   20.6334 N   0  0  0  0  0  0
  -29.3496  -23.5578   21.5667 O   0  0  0  0  0  0
  -31.4851  -12.6983   19.1740 H   0  0  0  0  0  0
  -30.4362  -11.5729   19.9912 H   0  0  0  0  0  0
  -29.8296  -11.7400   17.5530 H   0  0  0  0  0  0
  -29.6204  -13.4659   17.7042 H   0  0  0  0  0  0
  -27.9327  -11.2721   18.9443 H   0  0  0  0  0  0
  -27.3915  -12.4817   17.8102 H   0  0  0  0  0  0
  -27.6161  -14.2351   19.4376 H   0  0  0  0  0  0
  -28.7596  -12.2194   21.4300 H   0  0  0  0  0  0
  -28.3983  -13.8883   21.7873 H   0  0  0  0  0  0
  -25.2763   -9.5660   22.4759 H   0  0  0  0  0  0
  -23.9993   -7.4616   22.7477 H   0  0  0  0  0  0
  -21.0838   -8.8770   19.8954 H   0  0  0  0  0  0
  -22.3709  -10.9657   19.6161 H   0  0  0  0  0  0
  -21.2005   -7.6144   23.9719 H   0  0  0  0  0  0
  -21.1479   -6.0514   25.9078 H   0  0  0  0  0  0
  -22.0602   -2.7607   23.2843 H   0  0  0  0  0  0
  -22.4044  -11.9857   22.4833 H   0  0  0  0  0  0
  -21.1067  -13.1242   22.2628 H   0  0  0  0  0  0
  -24.6301  -15.8279   20.5458 H   0  0  0  0  0  0
  -26.2499  -15.6441   20.1098 H   0  0  0  0  0  0
  -26.7260  -32.5331   23.1021 H   0  0  0  0  0  0
  -25.0106  -33.9630   25.0359 H   0  0  0  0  0  0
  -22.7419  -31.2924   21.3853 H   0  0  0  0  0  0
  -23.3759  -35.9587   23.3297 H   0  0  0  0  0  0
  -24.3585  -36.8894   22.2057 H   0  0  0  0  0  0
  -23.7247  -37.6454   23.6678 H   0  0  0  0  0  0
  -26.1495  -31.4881   20.6177 H   0  0  0  0  0  0
  -26.8667  -30.7788   22.0297 H   0  0  0  0  0  0
  -28.1214  -28.8266   21.2501 H   0  0  0  0  0  0
  -25.9335  -25.8980   18.9387 H   0  0  0  0  0  0
  -23.9910  -27.3210   18.9540 H   0  0  0  0  0  0
  -23.7967  -30.5753   19.3986 H   0  0  0  0  0  0
  -22.7827  -29.2374   19.8468 H   0  0  0  0  0  0
  -25.1314  -36.1867   25.0810 H   0  0  0  0  0  0
  -20.9994  -28.3294   24.1366 H   0  0  0  0  0  0
  -20.5676  -26.2326   23.3615 H   0  0  0  0  0  0
  -21.6651  -26.7428   22.1203 H   0  0  0  0  0  0
  -19.6923  -25.6284   21.1254 H   0  0  0  0  0  0
  -19.6702  -27.3173   20.6723 H   0  0  0  0  0  0
  -17.4210  -26.6665   21.4022 H   0  0  0  0  0  0
  -18.0346  -26.0080   22.9025 H   0  0  0  0  0  0
  -19.7951  -30.7291   24.2225 H   0  0  0  0  0  0
  -17.5026  -31.6269   24.5158 H   0  0  0  0  0  0
  -15.5360  -30.2972   23.7682 H   0  0  0  0  0  0
  -15.8684  -28.0814   22.7082 H   0  0  0  0  0  0
  -24.5908  -30.7085   25.7734 H   0  0  0  0  0  0
  -24.8897  -32.2923   26.4788 H   0  0  0  0  0  0
  -25.8008  -30.8952   27.0224 H   0  0  0  0  0  0
  -26.3006  -29.6681   24.1291 H   0  0  0  0  0  0
  -27.4014  -29.7268   25.4854 H   0  0  0  0  0  0
  -27.8915  -30.4206   23.9598 H   0  0  0  0  0  0
  -27.2677  -33.3640   26.2028 H   0  0  0  0  0  0
  -28.3907  -32.6837   25.0342 H   0  0  0  0  0  0
  -28.0707  -31.8469   26.5452 H   0  0  0  0  0  0
  -28.2585  -38.0088   24.7512 H   0  0  0  0  0  0
  -28.1078  -36.2618   24.6294 H   0  0  0  0  0  0
  -27.2294  -37.1436   25.8867 H   0  0  0  0  0  0
  -20.9457  -29.8763   21.6811 H   0  0  0  0  0  0
  -26.0157  -38.2820   24.1400 H   0  0  0  0  0  0
  -30.8727  -20.5912   21.4834 H   0  0  0  0  0  0
  -31.1579  -18.1615   21.8038 H   0  0  0  0  0  0
  -27.8311  -19.8354   18.5864 H   0  0  0  0  0  0
  -27.9903  -15.9332   16.8129 H   0  0  0  0  0  0
  -29.4842  -15.9759   17.7404 H   0  0  0  0  0  0
  -29.0250  -17.3566   16.7484 H   0  0  0  0  0  0
  -28.2266  -22.0819   18.8968 H   0  0  0  0  0  0
  -29.9290  -22.2917   18.9426 H   0  0  0  0  0  0
  -27.0173  -17.7469   18.2130 H   0  0  0  0  0  0
  -27.4486  -16.3998   19.2052 H   0  0  0  0  0  0
  -27.0264  -24.4973   19.9824 H   0  0  0  0  0  0
  -28.1944  -24.7081   18.7093 H   0  0  0  0  0  0
  -28.7688  -15.6412   20.8386 H   0  0  0  0  0  0
  1 25  1  0  0  0
  1 30  2  0  0  0
  1 82  1  0  0  0
  2  3  1  0  0  0
  2 25  1  0  0  0
  2 84  1  0  0  0
  2 85  1  0  0  0
  3  4  1  0  0  0
  3 86  1  0  0  0
  3 87  1  0  0  0
  4  5  1  0  0  0
  4 88  1  0  0  0
  4 89  1  0  0  0
  5  6  1  0  0  0
  5 26  1  0  0  0
  5 90  1  0  0  0
  6 25  1  0  0  0
  6 91  1  0  0  0
  6 92  1  0  0  0
  7  8  2  0  0  0
  7 26  1  0  0  0
  7 29  1  0  0  0
  8  9  1  0  0  0
  8 22  1  0  0  0
  9 10  1  0  0  0
  9 27  2  0  0  0
 10 11  2  0  0  0
 10 15  1  0  0  0
 11 12  1  0  0  0
 11 93  1  0  0  0
 12 13  2  0  0  0
 12 94  1  0  0  0
 13 14  1  0  0  0
 13 31  1  0  0  0
 14 15  2  0  0  0
 14 95  1  0  0  0
 15 96  1  0  0  0
 16 17  2  0  0  0
 16 21  1  0  0  0
 16 31  1  0  0  0
 17 18  1  0  0  0
 17 97  1  0  0  0
 18 19  2  0  0  0
 18 98  1  0  0  0
 19 20  1  0  0  0
 19 24  1  0  0  0
 20 21  2  0  0  0
 20 99  1  0  0  0
 21 23  1  0  0  0
 22 28  1  0  0  0
 22 32  2  0  0  0
 26 27  1  0  0  0
 28100  1  0  0  0
 28101  1  0  0  0
 29102  1  0  0  0
 29103  1  0  0  0
 33 34  1  0  0  0
 33 66  1  0  0  0
 33 70  2  0  0  0
 34 36  1  0  0  0
 34 59  1  0  0  0
 34104  1  0  0  0
 35 44  2  0  0  0
 35 45  1  0  0  0
 35 68  1  0  0  0
 36 56  1  0  0  0
 36105  1  0  0  0
 37 39  1  0  0  0
 37 47  1  0  0  0
 37 66  1  0  0  0
 37106  1  0  0  0
 38 43  2  0  0  0
 38 46  1  0  0  0
 38 47  1  0  0  0
 39 64  1  0  0  0
 39 67  2  0  0  0
 40 52  1  0  0  0
 40 53  2  0  0  0
 40 58  1  0  0  0
 41107  1  0  0  0
 41108  1  0  0  0
 41109  1  0  0  0
 41 48  1  0  0  0
 42 43  1  0  0  0
 42 66  1  0  0  0
 42110  1  0  0  0
 42111  1  0  0  0
 43 44  1  0  0  0
 44112  1  0  0  0
 45 46  2  0  0  0
 45113  1  0  0  0
 46114  1  0  0  0
 47115  1  0  0  0
 47116  1  0  0  0
 48 56  1  0  0  0
 48 65  1  0  0  0
 48117  1  0  0  0
 49 50  1  0  0  0
 49 53  1  0  0  0
 49 64  1  0  0  0
 49118  1  0  0  0
 50 51  1  0  0  0
 50119  1  0  0  0
 50120  1  0  0  0
 51 52  1  0  0  0
 51121  1  0  0  0
 51122  1  0  0  0
 52123  1  0  0  0
 52124  1  0  0  0
 53 54  1  0  0  0
 54 55  2  0  0  0
 54125  1  0  0  0
 55 57  1  0  0  0
 55126  1  0  0  0
 56 69  2  0  0  0
 57 58  2  0  0  0
 57127  1  0  0  0
 58128  1  0  0  0
 59 60  1  0  0  0
 59 61  1  0  0  0
 59 62  1  0  0  0
 60129  1  0  0  0
 60130  1  0  0  0
 60131  1  0  0  0
 61132  1  0  0  0
 61133  1  0  0  0
 61134  1  0  0  0
 62135  1  0  0  0
 62136  1  0  0  0
 62137  1  0  0  0
 63 65  1  0  0  0
 63138  1  0  0  0
 63139  1  0  0  0
 63140  1  0  0  0
 64141  1  0  0  0
 65142  1  0  0  0
 68 81  1  0  0  0
 71 72  2  0  0  0
 71 74  1  0  0  0
 71143  1  0  0  0
 72 76  1  0  0  0
 72144  1  0  0  0
 73 74  2  0  0  0
 73 75  1  0  0  0
 73145  1  0  0  0
 74 79  1  0  0  0
 75 76  2  0  0  0
 75 80  1  0  0  0
 76 82  1  0  0  0
 77 79  1  0  0  0
 77 81  1  0  0  0
 77 83  2  0  0  0
 78 80  1  0  0  0
 78146  1  0  0  0
 78147  1  0  0  0
 78148  1  0  0  0
 79149  1  0  0  0
 79150  1  0  0  0
 80151  1  0  0  0
 80152  1  0  0  0
 81153  1  0  0  0
 81154  1  0  0  0
 82155  1  0  0  0
M  ISO  4   1 100  68 101  81 101  82 100
M  END
> <chiral flag>
0

> <version>
0

> <s_m_source_file>
/data/baiqing/PycharmProjects/Reinvent-master-3.2/result/LINK_invent/BTK/process_docking_weight1_custom_product_contain_oxygen_bond_distance_aromatic_linkinvent_7_9_3/rearranged_h_0130.sdf

> <i_m_source_file_index>
77

> <r_mmod_Potential_Energy-OPLS-2005>
402.856903076172

> <r_mmod_Stretch_Energy-OPLS-2005>
192.450561523438

> <r_mmod_Bend_Energy-OPLS-2005>
250.660873413086

> <r_mmod_Torsional_Energy-OPLS-2005>
240.01579284668

> <r_mmod_Improper_Torsional_Energy-OPLS-2005>
6.96896600723267

> <r_mmod_Van_der_Waal_Energy-OPLS-2005>
125.99388885498

> <r_mmod_Electrostatic_Energy-OPLS-2005>
-331.827728271484

> <r_mmod_Solvation_Energy-OPLS-2005>
-235.352294921875

> <b_mmod_Minimization_Converged-OPLS-2005>
0

> <r_mmod_RMS_Derivative-OPLS-2005>
0.6465784907341

$$$$
77
                    3D
 Structure written by MMmdl.
159167  0  0  1  0            999 V2000
  -30.7010  -14.5423   20.5039 C   0  0  0  0  0  0
  -30.4122  -12.3318   19.4464 C   0  0  0  0  0  0
  -29.4953  -12.4975   18.2174 C   0  0  0  0  0  0
  -28.0171  -12.3618   18.6265 C   0  0  0  0  0  0
  -27.6554  -13.2228   19.8661 C   0  0  2  0  0  0
  -28.6989  -13.0708   20.9969 C   0  0  0  0  0  0
  -25.2575  -13.8184   20.5706 C   0  0  0  0  0  0
  -24.1844  -13.0444   20.9194 C   0  0  0  0  0  0
  -24.6408  -11.6915   20.8731 C   0  0  0  0  0  0
  -23.9076  -10.4292   21.0405 C   0  0  0  0  0  0
  -24.3635   -9.4207   21.9176 C   0  0  0  0  0  0
  -23.6308   -8.2246   22.0755 C   0  0  0  0  0  0
  -22.4282   -8.0288   21.3555 C   0  0  0  0  0  0
  -21.9919   -9.0255   20.4652 C   0  0  0  0  0  0
  -22.7245  -10.2134   20.3058 C   0  0  0  0  0  0
  -21.6858   -6.0732   22.5274 C   0  0  0  0  0  0
  -21.4016   -6.5639   23.8205 C   0  0  0  0  0  0
  -21.3671   -5.6804   24.9178 C   0  0  0  0  0  0
  -21.6047   -4.3061   24.7229 C   0  0  0  0  0  0
  -21.8827   -3.8146   23.4352 C   0  0  0  0  0  0
  -21.9203   -4.6959   22.3400 C   0  0  0  0  0  0
  -22.7864  -13.5221   21.1849 C   0  0  0  0  0  0
  -22.1671   -4.2145   21.0977 F   0  0  0  0  0  0
  -21.5634   -3.4539   25.7734 F   0  0  0  0  0  0
  -30.0221  -13.3603   20.4294 N   0  0  0  0  0  0
  -26.3014  -12.9385   20.3355 N   0  0  0  0  0  0
  -25.9345  -11.6530   20.5772 N   0  0  0  0  0  0
  -22.0533  -12.8201   22.0409 N   0  0  0  0  0  0
  -25.4287  -15.1898   20.4117 N   0  0  0  0  0  0
  -31.8749  -14.6152   20.1353 O   0  0  0  0  0  0
  -21.6656   -6.8880   21.4239 O   0  0  0  0  0  0
  -22.3532  -14.5529   20.6711 O   0  0  0  0  0  0
  -24.6157  -31.8646   23.2073 C   0  0  0  0  0  0
  -25.9035  -32.4804   23.8382 C   0  0  1  0  0  0
  -27.2372  -27.3956   20.1077 C   0  0  0  0  0  0
  -25.5883  -33.8609   24.2321 N   0  0  0  0  0  0
  -23.4067  -30.4860   21.5459 C   0  0  2  0  0  0
  -24.8553  -28.9492   20.1076 C   0  0  0  0  0  0
  -22.7423  -29.4634   22.4968 C   0  0  0  0  0  0
  -18.0271  -28.1370   22.8495 C   0  0  0  0  0  0
  -24.1486  -36.7319   23.2637 C   0  0  0  0  0  0
  -25.9357  -30.8190   21.3649 C   0  0  0  0  0  0
  -26.0132  -29.4492   20.7148 C   0  0  0  0  0  0
  -27.2005  -28.6777   20.7167 C   0  0  0  0  0  0
  -26.0659  -26.9336   19.4658 C   0  0  0  0  0  0
  -24.8793  -27.6937   19.4778 C   0  0  0  0  0  0
  -23.6166  -29.8162   20.1602 C   0  0  0  0  0  0
  -25.4105  -36.3108   24.0339 C   0  0  1  0  0  0
  -20.5862  -28.3667   23.1315 C   0  0  2  0  0  0
  -20.6752  -26.9398   22.5415 C   0  0  0  0  0  0
  -19.5731  -26.6382   21.5209 C   0  0  0  0  0  0
  -18.1917  -26.7922   22.1623 C   0  0  0  0  0  0
  -19.1517  -28.8832   23.2904 C   0  0  0  0  0  0
  -18.9446  -30.1439   23.8920 C   0  0  0  0  0  0
  -17.6447  -30.6584   24.0559 C   0  0  0  0  0  0
  -25.9037  -34.9472   23.5135 C   0  0  0  0  0  0
  -16.5344  -29.9086   23.6313 C   0  0  0  0  0  0
  -16.7260  -28.6493   23.0352 C   0  0  0  0  0  0
  -26.4457  -31.6582   25.0723 C   0  0  0  0  0  0
  -25.3721  -31.3690   26.1476 C   0  0  0  0  0  0
  -27.0279  -30.3018   24.6108 C   0  0  0  0  0  0
  -27.6056  -32.4284   25.7489 C   0  0  0  0  0  0
  -27.5579  -37.1812   24.8457 C   0  0  0  0  0  0
  -21.4144  -29.3032   22.3721 N   0  0  0  0  0  0
  -26.4291  -37.3789   23.9408 N   0  0  0  0  0  0
  -24.6707  -31.0724   22.0982 N   0  0  0  0  0  0
  -23.4185  -28.8175   23.3022 O   0  0  0  0  0  0
  -28.4031  -26.6466   20.1927 O   0  0  0  0  0  0
  -26.5609  -34.8920   22.4702 O   0  0  0  0  0  0
  -23.5348  -32.1416   23.7445 O   0  0  0  0  0  0
  -30.6812  -19.8352   20.0310 C   0  0  0  0  0  0
  -29.3201  -18.0503   20.9923 C   0  0  0  0  0  0
  -31.4373  -17.5148   19.9338 C   0  0  0  0  0  0
  -29.5208  -19.4409   20.7255 C   0  0  0  0  0  0
  -31.6479  -18.8831   19.6595 C   0  0  0  0  0  0
  -30.2626  -17.0563   20.5897 C   0  0  0  0  0  0
  -28.2774  -21.7142   20.3914 C   0  0  0  0  0  0
  -28.0962  -22.9453   20.9417 C   0  0  0  0  0  0
  -28.5689  -20.4996   21.2212 C   0  0  0  0  0  0
  -33.0221  -18.9043   17.5209 C   0  0  0  0  0  0
  -32.9327  -19.3392   18.9869 C   0  0  0  0  0  0
  -27.5337  -24.2066   20.2507 C   0  0  0  0  0  0
  -28.5127  -25.2887   19.6923 C   0  0  0  0  0  0
  -29.9834  -15.6504   20.8423 N   0  0  0  0  0  0
  -27.9921  -20.3426   22.3019 O   0  0  0  0  0  0
  -31.4588  -12.4058   19.1454 H   0  0  0  0  0  0
  -30.2982  -11.3368   19.8792 H   0  0  0  0  0  0
  -29.7381  -11.7571   17.4549 H   0  0  0  0  0  0
  -29.6658  -13.4743   17.7610 H   0  0  0  0  0  0
  -27.8299  -11.3087   18.8383 H   0  0  0  0  0  0
  -27.3714  -12.6242   17.7883 H   0  0  0  0  0  0
  -27.6782  -14.2610   19.5340 H   0  0  0  0  0  0
  -28.6812  -12.0593   21.4025 H   0  0  0  0  0  0
  -28.4653  -13.7314   21.8337 H   0  0  0  0  0  0
  -25.2788   -9.5670   22.4746 H   0  0  0  0  0  0
  -24.0023   -7.4633   22.7462 H   0  0  0  0  0  0
  -21.0864   -8.8771   19.8941 H   0  0  0  0  0  0
  -22.3715  -10.9680   19.6167 H   0  0  0  0  0  0
  -21.2001   -7.6147   23.9692 H   0  0  0  0  0  0
  -21.1487   -6.0540   25.9076 H   0  0  0  0  0  0
  -22.0595   -2.7605   23.2844 H   0  0  0  0  0  0
  -22.4193  -11.9872   22.4777 H   0  0  0  0  0  0
  -21.1134  -13.1172   22.2634 H   0  0  0  0  0  0
  -24.6600  -15.8432   20.5148 H   0  0  0  0  0  0
  -26.2763  -15.6268   20.0721 H   0  0  0  0  0  0
  -26.7116  -32.5517   23.1158 H   0  0  0  0  0  0
  -24.9997  -33.9754   25.0441 H   0  0  0  0  0  0
  -22.6971  -31.3031   21.4041 H   0  0  0  0  0  0
  -23.3740  -35.9652   23.3287 H   0  0  0  0  0  0
  -24.3581  -36.8951   22.2052 H   0  0  0  0  0  0
  -23.7244  -37.6524   23.6662 H   0  0  0  0  0  0
  -26.0467  -31.5819   20.5924 H   0  0  0  0  0  0
  -26.8234  -30.8795   21.9820 H   0  0  0  0  0  0
  -28.0881  -29.0530   21.2064 H   0  0  0  0  0  0
  -26.0492  -25.9813   18.9587 H   0  0  0  0  0  0
  -23.9929  -27.3086   18.9927 H   0  0  0  0  0  0
  -23.7219  -30.5884   19.3981 H   0  0  0  0  0  0
  -22.7420  -29.2310   19.8689 H   0  0  0  0  0  0
  -25.1279  -36.1967   25.0830 H   0  0  0  0  0  0
  -20.9956  -28.3227   24.1432 H   0  0  0  0  0  0
  -20.5638  -26.2280   23.3607 H   0  0  0  0  0  0
  -21.6635  -26.7420   22.1230 H   0  0  0  0  0  0
  -19.6901  -25.6293   21.1234 H   0  0  0  0  0  0
  -19.6675  -27.3200   20.6747 H   0  0  0  0  0  0
  -17.4185  -26.6669   21.4025 H   0  0  0  0  0  0
  -18.0318  -26.0055   22.9014 H   0  0  0  0  0  0
  -19.7921  -30.7239   24.2324 H   0  0  0  0  0  0
  -17.5001  -31.6267   24.5155 H   0  0  0  0  0  0
  -15.5349  -30.2993   23.7614 H   0  0  0  0  0  0
  -15.8662  -28.0810   22.7071 H   0  0  0  0  0  0
  -24.5899  -30.7032   25.7806 H   0  0  0  0  0  0
  -24.8902  -32.2842   26.4925 H   0  0  0  0  0  0
  -25.8072  -30.8854   27.0232 H   0  0  0  0  0  0
  -26.2822  -29.6799   24.1140 H   0  0  0  0  0  0
  -27.4013  -29.7238   25.4573 H   0  0  0  0  0  0
  -27.8676  -30.4328   23.9278 H   0  0  0  0  0  0
  -27.2698  -33.3572   26.2104 H   0  0  0  0  0  0
  -28.3845  -32.6845   25.0298 H   0  0  0  0  0  0
  -28.0736  -31.8366   26.5364 H   0  0  0  0  0  0
  -28.2596  -38.0111   24.7510 H   0  0  0  0  0  0
  -28.1080  -36.2648   24.6271 H   0  0  0  0  0  0
  -27.2304  -37.1452   25.8860 H   0  0  0  0  0  0
  -20.9306  -29.8776   21.6958 H   0  0  0  0  0  0
  -26.0178  -38.2867   24.1408 H   0  0  0  0  0  0
  -30.8580  -20.8831   19.8316 H   0  0  0  0  0  0
  -28.4219  -17.7475   21.5156 H   0  0  0  0  0  0
  -32.2105  -16.8389   19.6102 H   0  0  0  0  0  0
  -28.1610  -21.5664   19.3275 H   0  0  0  0  0  0
  -28.2927  -23.0662   21.9993 H   0  0  0  0  0  0
  -33.9269  -19.2980   17.0572 H   0  0  0  0  0  0
  -32.1690  -19.2703   16.9490 H   0  0  0  0  0  0
  -33.0520  -17.8203   17.4266 H   0  0  0  0  0  0
  -33.7839  -18.9456   19.5464 H   0  0  0  0  0  0
  -33.0148  -20.4260   19.0454 H   0  0  0  0  0  0
  -26.8565  -24.6682   20.9694 H   0  0  0  0  0  0
  -26.9007  -23.8699   19.4294 H   0  0  0  0  0  0
  -28.4365  -25.3198   18.6046 H   0  0  0  0  0  0
  -29.5355  -24.9675   19.8929 H   0  0  0  0  0  0
  -29.0617  -15.4502   21.1993 H   0  0  0  0  0  0
  1 25  1  0  0  0
  1 30  2  0  0  0
  1 84  1  0  0  0
  2  3  1  0  0  0
  2 25  1  0  0  0
  2 86  1  0  0  0
  2 87  1  0  0  0
  3  4  1  0  0  0
  3 88  1  0  0  0
  3 89  1  0  0  0
  4  5  1  0  0  0
  4 90  1  0  0  0
  4 91  1  0  0  0
  5  6  1  0  0  0
  5 26  1  0  0  0
  5 92  1  0  0  0
  6 25  1  0  0  0
  6 93  1  0  0  0
  6 94  1  0  0  0
  7  8  2  0  0  0
  7 26  1  0  0  0
  7 29  1  0  0  0
  8  9  1  0  0  0
  8 22  1  0  0  0
  9 10  1  0  0  0
  9 27  2  0  0  0
 10 11  2  0  0  0
 10 15  1  0  0  0
 11 12  1  0  0  0
 11 95  1  0  0  0
 12 13  2  0  0  0
 12 96  1  0  0  0
 13 14  1  0  0  0
 13 31  1  0  0  0
 14 15  2  0  0  0
 14 97  1  0  0  0
 15 98  1  0  0  0
 16 17  2  0  0  0
 16 21  1  0  0  0
 16 31  1  0  0  0
 17 18  1  0  0  0
 17 99  1  0  0  0
 18 19  2  0  0  0
 18100  1  0  0  0
 19 20  1  0  0  0
 19 24  1  0  0  0
 20 21  2  0  0  0
 20101  1  0  0  0
 21 23  1  0  0  0
 22 28  1  0  0  0
 22 32  2  0  0  0
 26 27  1  0  0  0
 28102  1  0  0  0
 28103  1  0  0  0
 29104  1  0  0  0
 29105  1  0  0  0
 33 34  1  0  0  0
 33 66  1  0  0  0
 33 70  2  0  0  0
 34 36  1  0  0  0
 34 59  1  0  0  0
 34106  1  0  0  0
 35 44  2  0  0  0
 35 45  1  0  0  0
 35 68  1  0  0  0
 36 56  1  0  0  0
 36107  1  0  0  0
 37 39  1  0  0  0
 37 47  1  0  0  0
 37 66  1  0  0  0
 37108  1  0  0  0
 38 43  2  0  0  0
 38 46  1  0  0  0
 38 47  1  0  0  0
 39 64  1  0  0  0
 39 67  2  0  0  0
 40 52  1  0  0  0
 40 53  2  0  0  0
 40 58  1  0  0  0
 41109  1  0  0  0
 41110  1  0  0  0
 41111  1  0  0  0
 41 48  1  0  0  0
 42 43  1  0  0  0
 42 66  1  0  0  0
 42112  1  0  0  0
 42113  1  0  0  0
 43 44  1  0  0  0
 44114  1  0  0  0
 45 46  2  0  0  0
 45115  1  0  0  0
 46116  1  0  0  0
 47117  1  0  0  0
 47118  1  0  0  0
 48 56  1  0  0  0
 48 65  1  0  0  0
 48119  1  0  0  0
 49 50  1  0  0  0
 49 53  1  0  0  0
 49 64  1  0  0  0
 49120  1  0  0  0
 50 51  1  0  0  0
 50121  1  0  0  0
 50122  1  0  0  0
 51 52  1  0  0  0
 51123  1  0  0  0
 51124  1  0  0  0
 52125  1  0  0  0
 52126  1  0  0  0
 53 54  1  0  0  0
 54 55  2  0  0  0
 54127  1  0  0  0
 55 57  1  0  0  0
 55128  1  0  0  0
 56 69  2  0  0  0
 57 58  2  0  0  0
 57129  1  0  0  0
 58130  1  0  0  0
 59 60  1  0  0  0
 59 61  1  0  0  0
 59 62  1  0  0  0
 60131  1  0  0  0
 60132  1  0  0  0
 60133  1  0  0  0
 61134  1  0  0  0
 61135  1  0  0  0
 61136  1  0  0  0
 62137  1  0  0  0
 62138  1  0  0  0
 62139  1  0  0  0
 63 65  1  0  0  0
 63140  1  0  0  0
 63141  1  0  0  0
 63142  1  0  0  0
 64143  1  0  0  0
 65144  1  0  0  0
 68 83  1  0  0  0
 71 74  2  0  0  0
 71 75  1  0  0  0
 71145  1  0  0  0
 72 74  1  0  0  0
 72 76  2  0  0  0
 72146  1  0  0  0
 73 75  2  0  0  0
 73 76  1  0  0  0
 73147  1  0  0  0
 74 79  1  0  0  0
 75 81  1  0  0  0
 76 84  1  0  0  0
 77 78  2  0  0  0
 77 79  1  0  0  0
 77148  1  0  0  0
 78 82  1  0  0  0
 78149  1  0  0  0
 79 85  2  0  0  0
 80 81  1  0  0  0
 80150  1  0  0  0
 80151  1  0  0  0
 80152  1  0  0  0
 81153  1  0  0  0
 81154  1  0  0  0
 82 83  1  0  0  0
 82155  1  0  0  0
 82156  1  0  0  0
 83157  1  0  0  0
 83158  1  0  0  0
 84159  1  0  0  0
M  ISO  4   1 100  68 101  83 101  84 100
M  END
> <chiral flag>
0

> <version>
0

> <s_m_source_file>
/data/baiqing/PycharmProjects/Reinvent-master-3.2/result/LINK_invent/BTK/process_docking_weight1_custom_product_contain_oxygen_bond_distance_aromatic_linkinvent_7_9_3/rearranged_h_0130.sdf

> <i_m_source_file_index>
78

> <r_mmod_Potential_Energy-OPLS-2005>
23.8108444213867

> <r_mmod_Stretch_Energy-OPLS-2005>
52.1759872436523

> <r_mmod_Bend_Energy-OPLS-2005>
126.790603637695

> <r_mmod_Torsional_Energy-OPLS-2005>
236.746688842773

> <r_mmod_Improper_Torsional_Energy-OPLS-2005>
5.26479482650757

> <r_mmod_Van_der_Waal_Energy-OPLS-2005>
152.852264404297

> <r_mmod_Electrostatic_Energy-OPLS-2005>
-363.937377929688

> <r_mmod_Solvation_Energy-OPLS-2005>
-212.355682373047

> <b_mmod_Minimization_Converged-OPLS-2005>
0

> <r_mmod_RMS_Derivative-OPLS-2005>
2.53369879722595

$$$$
78
                    3D
 Structure written by MMmdl.
157165  0  0  1  0            999 V2000
  -30.5606  -14.7370   20.5959 C   0  0  0  0  0  0
  -30.4485  -12.4842   19.4820 C   0  0  0  0  0  0
  -29.5218  -12.5432   18.2413 C   0  0  0  0  0  0
  -28.0399  -12.3614   18.6319 C   0  0  0  0  0  0
  -27.6444  -13.2152   19.8627 C   0  0  2  0  0  0
  -28.6756  -13.0582   20.9973 C   0  0  0  0  0  0
  -25.2446  -13.8075   20.5520 C   0  0  0  0  0  0
  -24.1732  -13.0353   20.9243 C   0  0  0  0  0  0
  -24.6366  -11.6871   20.8851 C   0  0  0  0  0  0
  -23.9009  -10.4241   21.0455 C   0  0  0  0  0  0
  -24.3554   -9.4135   21.9210 C   0  0  0  0  0  0
  -23.6242   -8.2155   22.0753 C   0  0  0  0  0  0
  -22.4226   -8.0220   21.3503 C   0  0  0  0  0  0
  -21.9852   -9.0206   20.4593 C   0  0  0  0  0  0
  -22.7196  -10.2096   20.3046 C   0  0  0  0  0  0
  -21.6804   -6.0698   22.5280 C   0  0  0  0  0  0
  -21.3991   -6.5601   23.8217 C   0  0  0  0  0  0
  -21.3698   -5.6766   24.9179 C   0  0  0  0  0  0
  -21.6053   -4.3017   24.7218 C   0  0  0  0  0  0
  -21.8808   -3.8115   23.4344 C   0  0  0  0  0  0
  -21.9189   -4.6947   22.3396 C   0  0  0  0  0  0
  -22.7754  -13.5194   21.1906 C   0  0  0  0  0  0
  -22.1656   -4.2140   21.0967 F   0  0  0  0  0  0
  -21.5662   -3.4497   25.7726 F   0  0  0  0  0  0
  -29.9803  -13.4874   20.4694 N   0  0  0  0  0  0
  -26.2902  -12.9282   20.3243 N   0  0  0  0  0  0
  -25.9283  -11.6455   20.5797 N   0  0  0  0  0  0
  -22.0326  -12.8238   22.0480 N   0  0  0  0  0  0
  -25.4012  -15.1738   20.3563 N   0  0  0  0  0  0
  -31.6861  -14.9216   20.1197 O   0  0  0  0  0  0
  -21.6574   -6.8838   21.4218 O   0  0  0  0  0  0
  -22.3467  -14.5522   20.6804 O   0  0  0  0  0  0
  -24.6307  -31.8549   23.1973 C   0  0  0  0  0  0
  -25.9129  -32.4755   23.8312 C   0  0  1  0  0  0
  -27.2238  -27.2522   20.1547 C   0  0  0  0  0  0
  -25.5936  -33.8583   24.2247 N   0  0  0  0  0  0
  -23.4289  -30.4777   21.5397 C   0  0  2  0  0  0
  -24.8803  -28.9273   20.1076 C   0  0  0  0  0  0
  -22.7501  -29.4619   22.4905 C   0  0  0  0  0  0
  -18.0309  -28.1380   22.8493 C   0  0  0  0  0  0
  -24.1503  -36.7280   23.2646 C   0  0  0  0  0  0
  -25.9769  -30.7658   21.3841 C   0  0  0  0  0  0
  -26.0497  -29.3900   20.7241 C   0  0  0  0  0  0
  -27.2235  -28.5665   20.7380 C   0  0  0  0  0  0
  -26.0347  -26.8693   19.4878 C   0  0  0  0  0  0
  -24.8787  -27.6742   19.4757 C   0  0  0  0  0  0
  -23.6470  -29.8105   20.1566 C   0  0  0  0  0  0
  -25.4133  -36.3079   24.0331 C   0  0  1  0  0  0
  -20.5907  -28.3700   23.1261 C   0  0  2  0  0  0
  -20.6816  -26.9431   22.5386 C   0  0  0  0  0  0
  -19.5790  -26.6382   21.5212 C   0  0  0  0  0  0
  -18.1965  -26.7925   22.1625 C   0  0  0  0  0  0
  -19.1556  -28.8869   23.2860 C   0  0  0  0  0  0
  -18.9487  -30.1474   23.8876 C   0  0  0  0  0  0
  -17.6488  -30.6588   24.0571 C   0  0  0  0  0  0
  -25.9068  -34.9459   23.5093 C   0  0  0  0  0  0
  -16.5375  -29.9086   23.6346 C   0  0  0  0  0  0
  -16.7299  -28.6498   23.0373 C   0  0  0  0  0  0
  -26.4490  -31.6575   25.0712 C   0  0  0  0  0  0
  -25.3701  -31.3745   26.1412 C   0  0  0  0  0  0
  -27.0362  -30.2986   24.6233 C   0  0  0  0  0  0
  -27.6047  -32.4308   25.7486 C   0  0  0  0  0  0
  -27.5579  -37.1803   24.8480 C   0  0  0  0  0  0
  -21.4210  -29.3063   22.3656 N   0  0  0  0  0  0
  -26.4301  -37.3777   23.9415 N   0  0  0  0  0  0
  -24.6967  -31.0506   22.0954 N   0  0  0  0  0  0
  -23.4198  -28.8191   23.3024 O   0  0  0  0  0  0
  -28.2958  -26.3279   20.2303 O   0  0  0  0  0  0
  -26.5647  -34.8933   22.4664 O   0  0  0  0  0  0
  -23.5444  -32.1418   23.7224 O   0  0  0  0  0  0
  -26.3868  -19.2262   23.2277 C   0  0  0  0  0  0
  -27.3734  -20.0518   22.6752 C   0  0  0  0  0  0
  -27.4607  -17.3434   22.1822 C   0  0  0  0  0  0
  -28.5323  -18.1151   21.6376 C   0  0  0  0  0  0
  -26.3953  -17.8698   22.9258 C   0  0  0  0  0  0
  -28.4074  -19.5922   21.8016 C   0  0  0  0  0  0
  -29.5680  -17.1688   20.9620 C   0  0  0  0  0  0
  -29.7406  -15.8135   21.2719 C   0  0  0  0  0  0
  -28.9547  -23.6886   20.5634 C   0  0  0  0  0  0
  -25.2191  -17.0067   23.3445 C   0  0  0  0  0  0
  -29.2063  -20.8109   21.1318 C   0  0  0  0  0  0
  -28.4578  -22.2809   21.1487 C   0  0  0  0  0  0
  -27.9077  -24.9100   20.5743 C   0  0  0  0  0  0
  -30.0985  -23.8191   20.1201 O   0  0  0  0  0  0
  -31.4827  -12.6578   19.1828 H   0  0  0  0  0  0
  -30.4313  -11.4840   19.9130 H   0  0  0  0  0  0
  -29.8102  -11.7805   17.5175 H   0  0  0  0  0  0
  -29.6569  -13.5003   17.7352 H   0  0  0  0  0  0
  -27.8900  -11.3047   18.8582 H   0  0  0  0  0  0
  -27.3923  -12.5975   17.7861 H   0  0  0  0  0  0
  -27.6646  -14.2563   19.5444 H   0  0  0  0  0  0
  -28.7220  -12.0123   21.3131 H   0  0  0  0  0  0
  -28.3542  -13.6152   21.8757 H   0  0  0  0  0  0
  -25.2720   -9.5642   22.4741 H   0  0  0  0  0  0
  -23.9992   -7.4536   22.7495 H   0  0  0  0  0  0
  -21.0766   -8.8702   19.8884 H   0  0  0  0  0  0
  -22.3661  -10.9613   19.6130 H   0  0  0  0  0  0
  -21.1904   -7.6098   23.9704 H   0  0  0  0  0  0
  -21.1579   -6.0492   25.9096 H   0  0  0  0  0  0
  -22.0560   -2.7576   23.2827 H   0  0  0  0  0  0
  -22.3934  -12.0025   22.5111 H   0  0  0  0  0  0
  -21.0909  -13.1244   22.2564 H   0  0  0  0  0  0
  -24.5867  -15.7766   20.3204 H   0  0  0  0  0  0
  -26.2040  -15.5762   19.8900 H   0  0  0  0  0  0
  -26.7211  -32.5393   23.1069 H   0  0  0  0  0  0
  -25.0112  -33.9738   25.0398 H   0  0  0  0  0  0
  -22.7247  -31.2992   21.3924 H   0  0  0  0  0  0
  -23.3762  -35.9608   23.3335 H   0  0  0  0  0  0
  -24.3589  -36.8861   22.2046 H   0  0  0  0  0  0
  -23.7227  -37.6487   23.6643 H   0  0  0  0  0  0
  -26.1279  -31.5288   20.6177 H   0  0  0  0  0  0
  -26.8480  -30.8003   22.0266 H   0  0  0  0  0  0
  -28.1062  -28.9179   21.2538 H   0  0  0  0  0  0
  -25.9628  -25.9210   18.9756 H   0  0  0  0  0  0
  -23.9850  -27.3145   18.9837 H   0  0  0  0  0  0
  -23.7720  -30.5855   19.3988 H   0  0  0  0  0  0
  -22.7694  -29.2352   19.8532 H   0  0  0  0  0  0
  -25.1305  -36.1937   25.0816 H   0  0  0  0  0  0
  -20.9995  -28.3291   24.1380 H   0  0  0  0  0  0
  -20.5745  -26.2338   23.3591 H   0  0  0  0  0  0
  -21.6692  -26.7489   22.1171 H   0  0  0  0  0  0
  -19.6967  -25.6290   21.1262 H   0  0  0  0  0  0
  -19.6715  -27.3196   20.6742 H   0  0  0  0  0  0
  -17.4237  -26.6677   21.4016 H   0  0  0  0  0  0
  -18.0365  -26.0047   22.9006 H   0  0  0  0  0  0
  -19.7970  -30.7300   24.2205 H   0  0  0  0  0  0
  -17.5059  -31.6278   24.5171 H   0  0  0  0  0  0
  -15.5383  -30.2999   23.7690 H   0  0  0  0  0  0
  -15.8685  -28.0821   22.7098 H   0  0  0  0  0  0
  -24.5891  -30.7085   25.7727 H   0  0  0  0  0  0
  -24.8888  -32.2939   26.4769 H   0  0  0  0  0  0
  -25.7998  -30.8951   27.0217 H   0  0  0  0  0  0
  -26.2974  -29.6692   24.1269 H   0  0  0  0  0  0
  -27.4051  -29.7279   25.4760 H   0  0  0  0  0  0
  -27.8847  -30.4260   23.9515 H   0  0  0  0  0  0
  -27.2664  -33.3625   26.2042 H   0  0  0  0  0  0
  -28.3877  -32.6824   25.0320 H   0  0  0  0  0  0
  -28.0697  -31.8429   26.5407 H   0  0  0  0  0  0
  -28.2630  -38.0071   24.7511 H   0  0  0  0  0  0
  -28.1035  -36.2601   24.6335 H   0  0  0  0  0  0
  -27.2306  -37.1494   25.8886 H   0  0  0  0  0  0
  -20.9395  -29.8695   21.6790 H   0  0  0  0  0  0
  -26.0183  -38.2867   24.1349 H   0  0  0  0  0  0
  -25.5841  -19.6362   23.8316 H   0  0  0  0  0  0
  -27.2443  -21.0907   22.9216 H   0  0  0  0  0  0
  -27.3840  -16.2838   21.9989 H   0  0  0  0  0  0
  -30.1351  -17.5884   20.1433 H   0  0  0  0  0  0
  -29.2171  -15.4594   22.1441 H   0  0  0  0  0  0
  -25.4856  -15.9501   23.3752 H   0  0  0  0  0  0
  -24.4122  -17.1305   22.6177 H   0  0  0  0  0  0
  -24.8343  -17.2944   24.3248 H   0  0  0  0  0  0
  -29.4541  -20.5159   20.1117 H   0  0  0  0  0  0
  -30.1646  -20.9027   21.6475 H   0  0  0  0  0  0
  -27.4667  -22.1401   20.7173 H   0  0  0  0  0  0
  -28.3012  -22.5463   22.1919 H   0  0  0  0  0  0
  -27.4861  -24.9340   21.5785 H   0  0  0  0  0  0
  -27.1054  -24.5734   19.9219 H   0  0  0  0  0  0
  1 25  1  0  0  0
  1 30  2  0  0  0
  1 78  1  0  0  0
  2  3  1  0  0  0
  2 25  1  0  0  0
  2 85  1  0  0  0
  2 86  1  0  0  0
  3  4  1  0  0  0
  3 87  1  0  0  0
  3 88  1  0  0  0
  4  5  1  0  0  0
  4 89  1  0  0  0
  4 90  1  0  0  0
  5  6  1  0  0  0
  5 26  1  0  0  0
  5 91  1  0  0  0
  6 25  1  0  0  0
  6 92  1  0  0  0
  6 93  1  0  0  0
  7  8  2  0  0  0
  7 26  1  0  0  0
  7 29  1  0  0  0
  8  9  1  0  0  0
  8 22  1  0  0  0
  9 10  1  0  0  0
  9 27  2  0  0  0
 10 11  2  0  0  0
 10 15  1  0  0  0
 11 12  1  0  0  0
 11 94  1  0  0  0
 12 13  2  0  0  0
 12 95  1  0  0  0
 13 14  1  0  0  0
 13 31  1  0  0  0
 14 15  2  0  0  0
 14 96  1  0  0  0
 15 97  1  0  0  0
 16 17  2  0  0  0
 16 21  1  0  0  0
 16 31  1  0  0  0
 17 18  1  0  0  0
 17 98  1  0  0  0
 18 19  2  0  0  0
 18 99  1  0  0  0
 19 20  1  0  0  0
 19 24  1  0  0  0
 20 21  2  0  0  0
 20100  1  0  0  0
 21 23  1  0  0  0
 22 28  1  0  0  0
 22 32  2  0  0  0
 26 27  1  0  0  0
 28101  1  0  0  0
 28102  1  0  0  0
 29103  1  0  0  0
 29104  1  0  0  0
 33 34  1  0  0  0
 33 66  1  0  0  0
 33 70  2  0  0  0
 34 36  1  0  0  0
 34 59  1  0  0  0
 34105  1  0  0  0
 35 44  2  0  0  0
 35 45  1  0  0  0
 35 68  1  0  0  0
 36 56  1  0  0  0
 36106  1  0  0  0
 37 39  1  0  0  0
 37 47  1  0  0  0
 37 66  1  0  0  0
 37107  1  0  0  0
 38 43  2  0  0  0
 38 46  1  0  0  0
 38 47  1  0  0  0
 39 64  1  0  0  0
 39 67  2  0  0  0
 40 52  1  0  0  0
 40 53  2  0  0  0
 40 58  1  0  0  0
 41108  1  0  0  0
 41109  1  0  0  0
 41110  1  0  0  0
 41 48  1  0  0  0
 42 43  1  0  0  0
 42 66  1  0  0  0
 42111  1  0  0  0
 42112  1  0  0  0
 43 44  1  0  0  0
 44113  1  0  0  0
 45 46  2  0  0  0
 45114  1  0  0  0
 46115  1  0  0  0
 47116  1  0  0  0
 47117  1  0  0  0
 48 56  1  0  0  0
 48 65  1  0  0  0
 48118  1  0  0  0
 49 50  1  0  0  0
 49 53  1  0  0  0
 49 64  1  0  0  0
 49119  1  0  0  0
 50 51  1  0  0  0
 50120  1  0  0  0
 50121  1  0  0  0
 51 52  1  0  0  0
 51122  1  0  0  0
 51123  1  0  0  0
 52124  1  0  0  0
 52125  1  0  0  0
 53 54  1  0  0  0
 54 55  2  0  0  0
 54126  1  0  0  0
 55 57  1  0  0  0
 55127  1  0  0  0
 56 69  2  0  0  0
 57 58  2  0  0  0
 57128  1  0  0  0
 58129  1  0  0  0
 59 60  1  0  0  0
 59 61  1  0  0  0
 59 62  1  0  0  0
 60130  1  0  0  0
 60131  1  0  0  0
 60132  1  0  0  0
 61133  1  0  0  0
 61134  1  0  0  0
 61135  1  0  0  0
 62136  1  0  0  0
 62137  1  0  0  0
 62138  1  0  0  0
 63 65  1  0  0  0
 63139  1  0  0  0
 63140  1  0  0  0
 63141  1  0  0  0
 64142  1  0  0  0
 65143  1  0  0  0
 68 83  1  0  0  0
 71 72  2  0  0  0
 71 75  1  0  0  0
 71144  1  0  0  0
 72 76  1  0  0  0
 72145  1  0  0  0
 73 74  1  0  0  0
 73 75  2  0  0  0
 73146  1  0  0  0
 74 76  2  0  0  0
 74 77  1  0  0  0
 75 80  1  0  0  0
 76 81  1  0  0  0
 77 78  2  0  0  0
 77147  1  0  0  0
 78148  1  0  0  0
 79 82  1  0  0  0
 79 83  1  0  0  0
 79 84  2  0  0  0
 80149  1  0  0  0
 80150  1  0  0  0
 80151  1  0  0  0
 81 82  1  0  0  0
 81152  1  0  0  0
 81153  1  0  0  0
 82154  1  0  0  0
 82155  1  0  0  0
 83156  1  0  0  0
 83157  1  0  0  0
M  ISO  4   1 100  68 101  78 100  83 101
M  END
> <chiral flag>
0

> <version>
0

> <s_m_source_file>
/data/baiqing/PycharmProjects/Reinvent-master-3.2/result/LINK_invent/BTK/process_docking_weight1_custom_product_contain_oxygen_bond_distance_aromatic_linkinvent_7_9_3/rearranged_h_0130.sdf

> <i_m_source_file_index>
79

> <r_mmod_Potential_Energy-OPLS-2005>
289.835693359375

> <r_mmod_Stretch_Energy-OPLS-2005>
155.287307739258

> <r_mmod_Bend_Energy-OPLS-2005>
220.892761230469

> <r_mmod_Torsional_Energy-OPLS-2005>
211.474212646484

> <r_mmod_Improper_Torsional_Energy-OPLS-2005>
4.7345118522644

> <r_mmod_Van_der_Waal_Energy-OPLS-2005>
154.411361694336

> <r_mmod_Electrostatic_Energy-OPLS-2005>
-334.421325683594

> <r_mmod_Solvation_Energy-OPLS-2005>
-211.892364501953

> <b_mmod_Minimization_Converged-OPLS-2005>
0

> <r_mmod_RMS_Derivative-OPLS-2005>
6.4466700553894

$$$$
79
                    3D
 Structure written by MMmdl.
168177  0  0  1  0            999 V2000
  -30.6495  -14.5870   20.3741 C   0  0  0  0  0  0
  -30.4454  -12.3252   19.4484 C   0  0  0  0  0  0
  -29.5099  -12.4293   18.2226 C   0  0  0  0  0  0
  -28.0200  -12.3279   18.6251 C   0  0  0  0  0  0
  -27.6445  -13.2017   19.8513 C   0  0  2  0  0  0
  -28.7107  -13.0868   20.9688 C   0  0  0  0  0  0
  -25.2566  -13.8091   20.5738 C   0  0  0  0  0  0
  -24.1814  -13.0391   20.9220 C   0  0  0  0  0  0
  -24.6370  -11.6861   20.8776 C   0  0  0  0  0  0
  -23.9028  -10.4277   21.0446 C   0  0  0  0  0  0
  -24.3599   -9.4209   21.9216 C   0  0  0  0  0  0
  -23.6277   -8.2247   22.0781 C   0  0  0  0  0  0
  -22.4274   -8.0275   21.3548 C   0  0  0  0  0  0
  -21.9899   -9.0253   20.4660 C   0  0  0  0  0  0
  -22.7218  -10.2133   20.3069 C   0  0  0  0  0  0
  -21.6860   -6.0718   22.5277 C   0  0  0  0  0  0
  -21.4021   -6.5620   23.8203 C   0  0  0  0  0  0
  -21.3677   -5.6789   24.9171 C   0  0  0  0  0  0
  -21.6060   -4.3051   24.7251 C   0  0  0  0  0  0
  -21.8816   -3.8128   23.4374 C   0  0  0  0  0  0
  -21.9200   -4.6942   22.3418 C   0  0  0  0  0  0
  -22.7853  -13.5243   21.1862 C   0  0  0  0  0  0
  -22.1648   -4.2120   21.0996 F   0  0  0  0  0  0
  -21.5661   -3.4529   25.7766 F   0  0  0  0  0  0
  -30.0458  -13.3628   20.4074 N   0  0  0  0  0  0
  -26.2961  -12.9223   20.3333 N   0  0  0  0  0  0
  -25.9279  -11.6409   20.5772 N   0  0  0  0  0  0
  -22.0442  -12.8253   22.0392 N   0  0  0  0  0  0
  -25.4302  -15.1802   20.4212 N   0  0  0  0  0  0
  -31.8695  -14.7223   20.2763 O   0  0  0  0  0  0
  -21.6657   -6.8858   21.4236 O   0  0  0  0  0  0
  -22.3591  -14.5565   20.6699 O   0  0  0  0  0  0
  -24.6176  -31.8638   23.2065 C   0  0  0  0  0  0
  -25.9048  -32.4803   23.8372 C   0  0  1  0  0  0
  -27.2322  -27.3853   20.1215 C   0  0  0  0  0  0
  -25.5897  -33.8605   24.2302 N   0  0  0  0  0  0
  -23.4095  -30.4880   21.5455 C   0  0  2  0  0  0
  -24.8575  -28.9514   20.1121 C   0  0  0  0  0  0
  -22.7418  -29.4642   22.4920 C   0  0  0  0  0  0
  -18.0269  -28.1375   22.8464 C   0  0  0  0  0  0
  -24.1483  -36.7307   23.2642 C   0  0  0  0  0  0
  -25.9427  -30.8143   21.3698 C   0  0  0  0  0  0
  -26.0192  -29.4477   20.7149 C   0  0  0  0  0  0
  -27.2081  -28.6756   20.7127 C   0  0  0  0  0  0
  -26.0466  -26.9192   19.5042 C   0  0  0  0  0  0
  -24.8696  -27.6887   19.4983 C   0  0  0  0  0  0
  -23.6227  -29.8229   20.1598 C   0  0  0  0  0  0
  -25.4105  -36.3096   24.0340 C   0  0  1  0  0  0
  -20.5863  -28.3673   23.1273 C   0  0  2  0  0  0
  -20.6764  -26.9401   22.5395 C   0  0  0  0  0  0
  -19.5753  -26.6373   21.5186 C   0  0  0  0  0  0
  -18.1926  -26.7919   22.1603 C   0  0  0  0  0  0
  -19.1523  -28.8841   23.2876 C   0  0  0  0  0  0
  -18.9461  -30.1435   23.8896 C   0  0  0  0  0  0
  -17.6472  -30.6588   24.0564 C   0  0  0  0  0  0
  -25.9027  -34.9460   23.5120 C   0  0  0  0  0  0
  -16.5354  -29.9094   23.6336 C   0  0  0  0  0  0
  -16.7262  -28.6514   23.0349 C   0  0  0  0  0  0
  -26.4465  -31.6603   25.0723 C   0  0  0  0  0  0
  -25.3742  -31.3730   26.1491 C   0  0  0  0  0  0
  -27.0303  -30.3040   24.6122 C   0  0  0  0  0  0
  -27.6010  -32.4346   25.7495 C   0  0  0  0  0  0
  -27.5577  -37.1807   24.8467 C   0  0  0  0  0  0
  -21.4142  -29.3050   22.3684 N   0  0  0  0  0  0
  -26.4286  -37.3781   23.9403 N   0  0  0  0  0  0
  -24.6744  -31.0709   22.0974 N   0  0  0  0  0  0
  -23.4175  -28.8170   23.2976 O   0  0  0  0  0  0
  -28.3857  -26.6083   20.1798 O   0  0  0  0  0  0
  -26.5590  -34.8916   22.4672 O   0  0  0  0  0  0
  -23.5360  -32.1379   23.7444 O   0  0  0  0  0  0
  -31.2300  -21.7901   21.4557 C   0  0  0  0  0  0
  -31.9690  -20.6807   21.9222 C   0  0  0  0  0  0
  -29.4186  -20.2893   20.8918 C   0  0  0  0  0  0
  -30.1324  -19.1465   21.3838 C   0  0  0  0  0  0
  -29.9576  -21.6085   20.8799 C   0  0  0  0  0  0
  -31.4430  -19.3686   21.8767 C   0  0  0  0  0  0
  -29.3665  -16.8343   20.2457 C   0  0  0  0  0  0
  -29.7513  -15.6037   19.8173 C   0  0  0  0  0  0
  -28.1114  -17.5305   19.7880 C   0  0  0  0  0  0
  -27.9369  -17.6728   21.3229 C   0  0  0  0  0  0
  -29.4771  -17.7274   21.4966 C   0  0  2  0  0  0
  -32.2846  -18.2154   22.4034 C   0  0  0  0  0  0
  -32.0650  -24.5807   19.7171 C   0  0  0  0  0  0
  -29.1437  -22.7616   20.2205 C   0  0  0  0  0  0
  -30.5927  -24.7920   19.3461 C   0  0  0  0  0  0
  -28.2312  -25.1640   20.0937 C   0  0  0  0  0  0
  -29.5171  -24.2978   20.3582 C   0  0  1  0  0  0
  -31.4874  -12.4296   19.1382 H   0  0  0  0  0  0
  -30.3699  -11.3415   19.9113 H   0  0  0  0  0  0
  -29.7413  -11.6265   17.5232 H   0  0  0  0  0  0
  -29.7041  -13.3546   17.6808 H   0  0  0  0  0  0
  -27.8164  -11.2810   18.8510 H   0  0  0  0  0  0
  -27.3830  -12.5784   17.7755 H   0  0  0  0  0  0
  -27.6128  -14.2260   19.4994 H   0  0  0  0  0  0
  -28.7025  -12.0831   21.3975 H   0  0  0  0  0  0
  -28.4923  -13.7772   21.7848 H   0  0  0  0  0  0
  -25.2752   -9.5698   22.4777 H   0  0  0  0  0  0
  -23.9991   -7.4662   22.7525 H   0  0  0  0  0  0
  -21.0823   -8.8786   19.8981 H   0  0  0  0  0  0
  -22.3697  -10.9673   19.6171 H   0  0  0  0  0  0
  -21.1985   -7.6133   23.9683 H   0  0  0  0  0  0
  -21.1508   -6.0531   25.9060 H   0  0  0  0  0  0
  -22.0581   -2.7595   23.2899 H   0  0  0  0  0  0
  -22.4017  -11.9897   22.4784 H   0  0  0  0  0  0
  -21.1055  -13.1299   22.2539 H   0  0  0  0  0  0
  -24.6876  -15.8493   20.5848 H   0  0  0  0  0  0
  -26.3089  -15.6150   20.1749 H   0  0  0  0  0  0
  -26.7116  -32.5498   23.1122 H   0  0  0  0  0  0
  -25.0081  -33.9770   25.0478 H   0  0  0  0  0  0
  -22.7012  -31.3065   21.4017 H   0  0  0  0  0  0
  -23.3744  -35.9645   23.3315 H   0  0  0  0  0  0
  -24.3573  -36.8905   22.2055 H   0  0  0  0  0  0
  -23.7237  -37.6514   23.6651 H   0  0  0  0  0  0
  -26.0657  -31.5746   20.5988 H   0  0  0  0  0  0
  -26.8273  -30.8634   21.9925 H   0  0  0  0  0  0
  -28.0990  -29.0486   21.1977 H   0  0  0  0  0  0
  -25.9997  -25.9521   19.0263 H   0  0  0  0  0  0
  -23.9794  -27.2991   19.0245 H   0  0  0  0  0  0
  -23.7388  -30.5981   19.4007 H   0  0  0  0  0  0
  -22.7465  -29.2465   19.8587 H   0  0  0  0  0  0
  -25.1278  -36.1954   25.0836 H   0  0  0  0  0  0
  -20.9955  -28.3241   24.1394 H   0  0  0  0  0  0
  -20.5634  -26.2281   23.3590 H   0  0  0  0  0  0
  -21.6640  -26.7424   22.1206 H   0  0  0  0  0  0
  -19.6929  -25.6282   21.1224 H   0  0  0  0  0  0
  -19.6712  -27.3178   20.6714 H   0  0  0  0  0  0
  -17.4189  -26.6633   21.4017 H   0  0  0  0  0  0
  -18.0367  -26.0061   22.9008 H   0  0  0  0  0  0
  -19.7947  -30.7237   24.2273 H   0  0  0  0  0  0
  -17.5044  -31.6273   24.5156 H   0  0  0  0  0  0
  -15.5366  -30.3018   23.7666 H   0  0  0  0  0  0
  -15.8645  -28.0848   22.7073 H   0  0  0  0  0  0
  -24.5892  -30.7093   25.7843 H   0  0  0  0  0  0
  -24.8992  -32.2920   26.4945 H   0  0  0  0  0  0
  -25.8128  -30.8896   27.0237 H   0  0  0  0  0  0
  -26.2862  -29.6806   24.1159 H   0  0  0  0  0  0
  -27.4046  -29.7256   25.4573 H   0  0  0  0  0  0
  -27.8696  -30.4337   23.9287 H   0  0  0  0  0  0
  -27.2585  -33.3632   26.2066 H   0  0  0  0  0  0
  -28.3835  -32.6938   25.0354 H   0  0  0  0  0  0
  -28.0665  -31.8495   26.5433 H   0  0  0  0  0  0
  -28.2588  -38.0105   24.7506 H   0  0  0  0  0  0
  -28.1077  -36.2639   24.6300 H   0  0  0  0  0  0
  -27.2302  -37.1458   25.8870 H   0  0  0  0  0  0
  -20.9286  -29.8813   21.6945 H   0  0  0  0  0  0
  -26.0180  -38.2852   24.1418 H   0  0  0  0  0  0
  -31.6596  -22.7739   21.5408 H   0  0  0  0  0  0
  -32.9585  -20.8493   22.3275 H   0  0  0  0  0  0
  -28.4106  -20.1748   20.5229 H   0  0  0  0  0  0
  -29.2898  -15.3164   18.8866 H   0  0  0  0  0  0
  -27.3282  -16.9400   19.3154 H   0  0  0  0  0  0
  -28.2313  -18.4719   19.2533 H   0  0  0  0  0  0
  -27.4924  -16.7816   21.7774 H   0  0  0  0  0  0
  -27.3937  -18.5526   21.6657 H   0  0  0  0  0  0
  -29.7673  -17.2290   22.4230 H   0  0  0  0  0  0
  -33.3211  -18.5171   22.5632 H   0  0  0  0  0  0
  -32.2921  -17.3827   21.6976 H   0  0  0  0  0  0
  -31.8868  -17.8538   23.3539 H   0  0  0  0  0  0
  -32.7078  -25.1481   19.0428 H   0  0  0  0  0  0
  -32.3667  -23.5384   19.6320 H   0  0  0  0  0  0
  -32.2791  -24.9354   20.7263 H   0  0  0  0  0  0
  -28.1319  -22.6446   20.6094 H   0  0  0  0  0  0
  -29.0679  -22.5201   19.1598 H   0  0  0  0  0  0
  -30.3880  -24.3871   18.3549 H   0  0  0  0  0  0
  -30.4948  -25.8719   19.2285 H   0  0  0  0  0  0
  -27.4537  -24.8590   20.7972 H   0  0  0  0  0  0
  -27.8731  -24.9126   19.0949 H   0  0  0  0  0  0
  -29.8352  -24.5047   21.3799 H   0  0  0  0  0  0
  1 25  1  0  0  0
  1 30  2  0  0  0
  1 78  1  0  0  0
  2  3  1  0  0  0
  2 25  1  0  0  0
  2 88  1  0  0  0
  2 89  1  0  0  0
  3  4  1  0  0  0
  3 90  1  0  0  0
  3 91  1  0  0  0
  4  5  1  0  0  0
  4 92  1  0  0  0
  4 93  1  0  0  0
  5  6  1  0  0  0
  5 26  1  0  0  0
  5 94  1  0  0  0
  6 25  1  0  0  0
  6 95  1  0  0  0
  6 96  1  0  0  0
  7  8  2  0  0  0
  7 26  1  0  0  0
  7 29  1  0  0  0
  8  9  1  0  0  0
  8 22  1  0  0  0
  9 10  1  0  0  0
  9 27  2  0  0  0
 10 11  2  0  0  0
 10 15  1  0  0  0
 11 12  1  0  0  0
 11 97  1  0  0  0
 12 13  2  0  0  0
 12 98  1  0  0  0
 13 14  1  0  0  0
 13 31  1  0  0  0
 14 15  2  0  0  0
 14 99  1  0  0  0
 15100  1  0  0  0
 16 17  2  0  0  0
 16 21  1  0  0  0
 16 31  1  0  0  0
 17 18  1  0  0  0
 17101  1  0  0  0
 18 19  2  0  0  0
 18102  1  0  0  0
 19 20  1  0  0  0
 19 24  1  0  0  0
 20 21  2  0  0  0
 20103  1  0  0  0
 21 23  1  0  0  0
 22 28  1  0  0  0
 22 32  2  0  0  0
 26 27  1  0  0  0
 28104  1  0  0  0
 28105  1  0  0  0
 29106  1  0  0  0
 29107  1  0  0  0
 33 34  1  0  0  0
 33 66  1  0  0  0
 33 70  2  0  0  0
 34 36  1  0  0  0
 34 59  1  0  0  0
 34108  1  0  0  0
 35 44  2  0  0  0
 35 45  1  0  0  0
 35 68  1  0  0  0
 36 56  1  0  0  0
 36109  1  0  0  0
 37 39  1  0  0  0
 37 47  1  0  0  0
 37 66  1  0  0  0
 37110  1  0  0  0
 38 43  2  0  0  0
 38 46  1  0  0  0
 38 47  1  0  0  0
 39 64  1  0  0  0
 39 67  2  0  0  0
 40 52  1  0  0  0
 40 53  2  0  0  0
 40 58  1  0  0  0
 41111  1  0  0  0
 41112  1  0  0  0
 41113  1  0  0  0
 41 48  1  0  0  0
 42 43  1  0  0  0
 42 66  1  0  0  0
 42114  1  0  0  0
 42115  1  0  0  0
 43 44  1  0  0  0
 44116  1  0  0  0
 45 46  2  0  0  0
 45117  1  0  0  0
 46118  1  0  0  0
 47119  1  0  0  0
 47120  1  0  0  0
 48 56  1  0  0  0
 48 65  1  0  0  0
 48121  1  0  0  0
 49 50  1  0  0  0
 49 53  1  0  0  0
 49 64  1  0  0  0
 49122  1  0  0  0
 50 51  1  0  0  0
 50123  1  0  0  0
 50124  1  0  0  0
 51 52  1  0  0  0
 51125  1  0  0  0
 51126  1  0  0  0
 52127  1  0  0  0
 52128  1  0  0  0
 53 54  1  0  0  0
 54 55  2  0  0  0
 54129  1  0  0  0
 55 57  1  0  0  0
 55130  1  0  0  0
 56 69  2  0  0  0
 57 58  2  0  0  0
 57131  1  0  0  0
 58132  1  0  0  0
 59 60  1  0  0  0
 59 61  1  0  0  0
 59 62  1  0  0  0
 60133  1  0  0  0
 60134  1  0  0  0
 60135  1  0  0  0
 61136  1  0  0  0
 61137  1  0  0  0
 61138  1  0  0  0
 62139  1  0  0  0
 62140  1  0  0  0
 62141  1  0  0  0
 63 65  1  0  0  0
 63142  1  0  0  0
 63143  1  0  0  0
 63144  1  0  0  0
 64145  1  0  0  0
 65146  1  0  0  0
 68 86  1  0  0  0
 71 72  2  0  0  0
 71 75  1  0  0  0
 71147  1  0  0  0
 72 76  1  0  0  0
 72148  1  0  0  0
 73 74  1  0  0  0
 73 75  2  0  0  0
 73149  1  0  0  0
 74 76  2  0  0  0
 74 81  1  0  0  0
 75 84  1  0  0  0
 76 82  1  0  0  0
 77 78  2  0  0  0
 77 79  1  0  0  0
 77 81  1  0  0  0
 78150  1  0  0  0
 79 80  1  0  0  0
 79151  1  0  0  0
 79152  1  0  0  0
 80 81  1  0  0  0
 80153  1  0  0  0
 80154  1  0  0  0
 81155  1  0  0  0
 82156  1  0  0  0
 82157  1  0  0  0
 82158  1  0  0  0
 83 85  1  0  0  0
 83159  1  0  0  0
 83160  1  0  0  0
 83161  1  0  0  0
 84162  1  0  0  0
 84163  1  0  0  0
 84 87  1  0  0  0
 85 87  1  0  0  0
 85164  1  0  0  0
 85165  1  0  0  0
 86 87  1  0  0  0
 86166  1  0  0  0
 86167  1  0  0  0
 87168  1  0  0  0
M  ISO  4   1 100  68 101  78 100  86 101
M  END
> <chiral flag>
0

> <version>
0

> <s_m_source_file>
/data/baiqing/PycharmProjects/Reinvent-master-3.2/result/LINK_invent/BTK/process_docking_weight1_custom_product_contain_oxygen_bond_distance_aromatic_linkinvent_7_9_3/rearranged_h_0130.sdf

> <i_m_source_file_index>
80

> <r_mmod_Potential_Energy-OPLS-2005>
219.456756591797

> <r_mmod_Stretch_Energy-OPLS-2005>
57.7789878845215

> <r_mmod_Bend_Energy-OPLS-2005>
176.403472900391

> <r_mmod_Torsional_Energy-OPLS-2005>
269.349945068359

> <r_mmod_Improper_Torsional_Energy-OPLS-2005>
22.6654644012451

> <r_mmod_Van_der_Waal_Energy-OPLS-2005>
154.883361816406

> <r_mmod_Electrostatic_Energy-OPLS-2005>
-316.797058105469

> <r_mmod_Solvation_Energy-OPLS-2005>
-187.234451293945

> <b_mmod_Minimization_Converged-OPLS-2005>
0

> <r_mmod_RMS_Derivative-OPLS-2005>
3.39129018783569

$$$$
80
                    3D
 Structure written by MMmdl.
159167  0  0  1  0            999 V2000
  -30.5327  -14.6814   20.5135 C   0  0  0  0  0  0
  -30.4618  -12.4186   19.4465 C   0  0  0  0  0  0
  -29.5205  -12.5033   18.2198 C   0  0  0  0  0  0
  -28.0363  -12.3539   18.6219 C   0  0  0  0  0  0
  -27.6574  -13.2070   19.8633 C   0  0  2  0  0  0
  -28.7003  -13.0141   20.9862 C   0  0  0  0  0  0
  -25.2616  -13.8153   20.5711 C   0  0  0  0  0  0
  -24.1860  -13.0430   20.9187 C   0  0  0  0  0  0
  -24.6400  -11.6892   20.8693 C   0  0  0  0  0  0
  -23.9067  -10.4280   21.0381 C   0  0  0  0  0  0
  -24.3624   -9.4194   21.9169 C   0  0  0  0  0  0
  -23.6299   -8.2229   22.0744 C   0  0  0  0  0  0
  -22.4281   -8.0275   21.3546 C   0  0  0  0  0  0
  -21.9906   -9.0241   20.4655 C   0  0  0  0  0  0
  -22.7225  -10.2123   20.3044 C   0  0  0  0  0  0
  -21.6862   -6.0732   22.5290 C   0  0  0  0  0  0
  -21.4004   -6.5639   23.8218 C   0  0  0  0  0  0
  -21.3647   -5.6787   24.9187 C   0  0  0  0  0  0
  -21.6038   -4.3052   24.7244 C   0  0  0  0  0  0
  -21.8830   -3.8144   23.4366 C   0  0  0  0  0  0
  -21.9194   -4.6953   22.3412 C   0  0  0  0  0  0
  -22.7892  -13.5231   21.1862 C   0  0  0  0  0  0
  -22.1672   -4.2141   21.0995 F   0  0  0  0  0  0
  -21.5618   -3.4537   25.7748 F   0  0  0  0  0  0
  -30.0060  -13.4132   20.4401 N   0  0  0  0  0  0
  -26.3002  -12.9295   20.3259 N   0  0  0  0  0  0
  -25.9309  -11.6456   20.5665 N   0  0  0  0  0  0
  -22.0532  -12.8222   22.0423 N   0  0  0  0  0  0
  -25.4399  -15.1873   20.4287 N   0  0  0  0  0  0
  -31.6749  -14.9239   20.1034 O   0  0  0  0  0  0
  -21.6649   -6.8878   21.4253 O   0  0  0  0  0  0
  -22.3567  -14.5541   20.6732 O   0  0  0  0  0  0
  -24.6185  -31.8625   23.1958 C   0  0  0  0  0  0
  -25.9028  -32.4824   23.8299 C   0  0  1  0  0  0
  -27.2419  -27.3515   20.1286 C   0  0  0  0  0  0
  -25.5859  -33.8610   24.2261 N   0  0  0  0  0  0
  -23.4123  -30.4826   21.5399 C   0  0  2  0  0  0
  -24.8587  -28.9275   20.1177 C   0  0  0  0  0  0
  -22.7438  -29.4685   22.4965 C   0  0  0  0  0  0
  -18.0309  -28.1424   22.8570 C   0  0  0  0  0  0
  -24.1471  -36.7290   23.2646 C   0  0  0  0  0  0
  -25.9397  -30.8188   21.3383 C   0  0  0  0  0  0
  -26.0240  -29.4325   20.7085 C   0  0  0  0  0  0
  -27.2209  -28.6635   20.6947 C   0  0  0  0  0  0
  -26.0535  -26.8797   19.5293 C   0  0  0  0  0  0
  -24.8743  -27.6575   19.5122 C   0  0  0  0  0  0
  -23.6218  -29.8015   20.1597 C   0  0  0  0  0  0
  -25.4097  -36.3105   24.0358 C   0  0  1  0  0  0
  -20.5912  -28.3690   23.1355 C   0  0  2  0  0  0
  -20.6787  -26.9418   22.5456 C   0  0  0  0  0  0
  -19.5774  -26.6440   21.5242 C   0  0  0  0  0  0
  -18.1935  -26.8002   22.1632 C   0  0  0  0  0  0
  -19.1578  -28.8866   23.2980 C   0  0  0  0  0  0
  -18.9496  -30.1485   23.8980 C   0  0  0  0  0  0
  -17.6500  -30.6631   24.0623 C   0  0  0  0  0  0
  -25.9052  -34.9507   23.5125 C   0  0  0  0  0  0
  -16.5392  -29.9161   23.6344 C   0  0  0  0  0  0
  -16.7307  -28.6573   23.0356 C   0  0  0  0  0  0
  -26.4410  -31.6579   25.0613 C   0  0  0  0  0  0
  -25.3655  -31.3757   26.1346 C   0  0  0  0  0  0
  -27.0129  -30.3034   24.5867 C   0  0  0  0  0  0
  -27.6088  -32.4164   25.7365 C   0  0  0  0  0  0
  -27.5584  -37.1802   24.8490 C   0  0  0  0  0  0
  -21.4160  -29.3066   22.3735 N   0  0  0  0  0  0
  -26.4281  -37.3797   23.9451 N   0  0  0  0  0  0
  -24.6789  -31.0716   22.0849 N   0  0  0  0  0  0
  -23.4166  -28.8260   23.3081 O   0  0  0  0  0  0
  -28.4056  -26.5797   20.0890 O   0  0  0  0  0  0
  -26.5627  -34.8970   22.4700 O   0  0  0  0  0  0
  -23.5391  -32.1348   23.7381 O   0  0  0  0  0  0
  -29.9087  -19.3868   19.9348 C   0  0  0  0  0  0
  -30.1639  -17.9708   19.9839 C   0  0  0  0  0  0
  -28.2841  -19.1367   21.6751 C   0  0  0  0  0  0
  -28.9476  -20.0097   20.7800 C   0  0  0  0  0  0
  -28.5186  -17.7284   21.7395 C   0  0  0  0  0  0
  -29.4880  -17.1003   20.8917 C   0  0  0  0  0  0
  -26.4188  -17.4999   23.2966 C   0  0  0  0  0  0
  -28.5839  -21.5519   20.8469 C   0  0  0  0  0  0
  -27.7443  -16.9008   22.7762 C   0  0  0  0  0  0
  -28.9399  -22.5802   19.6887 C   0  0  0  0  0  0
  -28.1801  -23.9925   19.5707 C   0  0  0  0  0  0
  -28.4256  -25.1883   20.5802 C   0  0  0  0  0  0
  -29.6528  -15.6348   20.9764 N   0  0  0  0  0  0
  -31.4945  -12.5952   19.1380 H   0  0  0  0  0  0
  -30.4516  -11.4144   19.8742 H   0  0  0  0  0  0
  -29.7882  -11.7381   17.4896 H   0  0  0  0  0  0
  -29.6692  -13.4598   17.7193 H   0  0  0  0  0  0
  -27.8531  -11.3002   18.8292 H   0  0  0  0  0  0
  -27.3944  -12.6108   17.7789 H   0  0  0  0  0  0
  -27.6832  -14.2506   19.5438 H   0  0  0  0  0  0
  -28.7246  -11.9657   21.2895 H   0  0  0  0  0  0
  -28.4354  -13.5691   21.8858 H   0  0  0  0  0  0
  -25.2780   -9.5686   22.4730 H   0  0  0  0  0  0
  -24.0017   -7.4629   22.7457 H   0  0  0  0  0  0
  -21.0824   -8.8761   19.8977 H   0  0  0  0  0  0
  -22.3672  -10.9661   19.6152 H   0  0  0  0  0  0
  -21.1995   -7.6142   23.9716 H   0  0  0  0  0  0
  -21.1451   -6.0527   25.9087 H   0  0  0  0  0  0
  -22.0616   -2.7604   23.2876 H   0  0  0  0  0  0
  -22.4156  -11.9879   22.4799 H   0  0  0  0  0  0
  -21.1146  -13.1246   22.2633 H   0  0  0  0  0  0
  -24.7023  -15.8496   20.6411 H   0  0  0  0  0  0
  -26.3039  -15.6335   20.1495 H   0  0  0  0  0  0
  -26.7106  -32.5515   23.1079 H   0  0  0  0  0  0
  -24.9937  -33.9740   25.0359 H   0  0  0  0  0  0
  -22.7152  -31.3087   21.3964 H   0  0  0  0  0  0
  -23.3766  -35.9581   23.3295 H   0  0  0  0  0  0
  -24.3618  -36.8896   22.2067 H   0  0  0  0  0  0
  -23.7146  -37.6474   23.6643 H   0  0  0  0  0  0
  -26.0234  -31.5668   20.5476 H   0  0  0  0  0  0
  -26.8390  -30.9087   21.9366 H   0  0  0  0  0  0
  -28.1257  -29.0732   21.1256 H   0  0  0  0  0  0
  -26.0414  -25.9084   19.0548 H   0  0  0  0  0  0
  -23.9806  -27.2804   19.0337 H   0  0  0  0  0  0
  -23.7266  -30.5651   19.3874 H   0  0  0  0  0  0
  -22.7424  -29.2175   19.8766 H   0  0  0  0  0  0
  -25.1272  -36.1980   25.0848 H   0  0  0  0  0  0
  -21.0062  -28.3244   24.1456 H   0  0  0  0  0  0
  -20.5666  -26.2295   23.3648 H   0  0  0  0  0  0
  -21.6658  -26.7438   22.1259 H   0  0  0  0  0  0
  -19.6892  -25.6354   21.1233 H   0  0  0  0  0  0
  -19.6714  -27.3308   20.6819 H   0  0  0  0  0  0
  -17.4226  -26.6855   21.3998 H   0  0  0  0  0  0
  -18.0299  -26.0126   22.9007 H   0  0  0  0  0  0
  -19.7967  -30.7330   24.2329 H   0  0  0  0  0  0
  -17.5058  -31.6310   24.5235 H   0  0  0  0  0  0
  -15.5392  -30.3096   23.7625 H   0  0  0  0  0  0
  -15.8721  -28.0935   22.6971 H   0  0  0  0  0  0
  -24.5961  -30.6912   25.7765 H   0  0  0  0  0  0
  -24.8645  -32.2902   26.4546 H   0  0  0  0  0  0
  -25.7985  -30.9190   27.0250 H   0  0  0  0  0  0
  -26.2570  -29.6921   24.0912 H   0  0  0  0  0  0
  -27.3942  -29.7156   25.4225 H   0  0  0  0  0  0
  -27.8401  -30.4421   23.8903 H   0  0  0  0  0  0
  -27.2894  -33.3603   26.1794 H   0  0  0  0  0  0
  -28.3973  -32.6389   25.0174 H   0  0  0  0  0  0
  -28.0551  -31.8238   26.5357 H   0  0  0  0  0  0
  -28.2635  -38.0074   24.7526 H   0  0  0  0  0  0
  -28.1028  -36.2613   24.6290 H   0  0  0  0  0  0
  -27.2350  -37.1449   25.8910 H   0  0  0  0  0  0
  -20.9305  -29.8799   21.6976 H   0  0  0  0  0  0
  -26.0182  -38.2881   24.1477 H   0  0  0  0  0  0
  -30.4655  -19.9958   19.2369 H   0  0  0  0  0  0
  -30.8887  -17.5594   19.2952 H   0  0  0  0  0  0
  -27.5725  -19.5889   22.3485 H   0  0  0  0  0  0
  -25.9330  -16.8000   23.9785 H   0  0  0  0  0  0
  -25.7167  -17.7057   22.4880 H   0  0  0  0  0  0
  -26.5675  -18.4208   23.8626 H   0  0  0  0  0  0
  -29.0031  -21.9393   21.7783 H   0  0  0  0  0  0
  -27.5029  -21.5947   20.9963 H   0  0  0  0  0  0
  -28.4133  -16.7393   23.6213 H   0  0  0  0  0  0
  -27.5175  -15.9149   22.3704 H   0  0  0  0  0  0
  -28.7177  -22.0743   18.7451 H   0  0  0  0  0  0
  -30.0198  -22.7401   19.6620 H   0  0  0  0  0  0
  -27.1073  -23.8144   19.5019 H   0  0  0  0  0  0
  -28.4440  -24.3862   18.5873 H   0  0  0  0  0  0
  -29.4297  -25.0529   20.9894 H   0  0  0  0  0  0
  -27.7575  -25.0994   21.4389 H   0  0  0  0  0  0
  -28.8576  -15.1813   21.3975 H   0  0  0  0  0  0
  1 25  1  0  0  0
  1 30  2  0  0  0
  1 83  1  0  0  0
  2  3  1  0  0  0
  2 25  1  0  0  0
  2 84  1  0  0  0
  2 85  1  0  0  0
  3  4  1  0  0  0
  3 86  1  0  0  0
  3 87  1  0  0  0
  4  5  1  0  0  0
  4 88  1  0  0  0
  4 89  1  0  0  0
  5  6  1  0  0  0
  5 26  1  0  0  0
  5 90  1  0  0  0
  6 25  1  0  0  0
  6 91  1  0  0  0
  6 92  1  0  0  0
  7  8  2  0  0  0
  7 26  1  0  0  0
  7 29  1  0  0  0
  8  9  1  0  0  0
  8 22  1  0  0  0
  9 10  1  0  0  0
  9 27  2  0  0  0
 10 11  2  0  0  0
 10 15  1  0  0  0
 11 12  1  0  0  0
 11 93  1  0  0  0
 12 13  2  0  0  0
 12 94  1  0  0  0
 13 14  1  0  0  0
 13 31  1  0  0  0
 14 15  2  0  0  0
 14 95  1  0  0  0
 15 96  1  0  0  0
 16 17  2  0  0  0
 16 21  1  0  0  0
 16 31  1  0  0  0
 17 18  1  0  0  0
 17 97  1  0  0  0
 18 19  2  0  0  0
 18 98  1  0  0  0
 19 20  1  0  0  0
 19 24  1  0  0  0
 20 21  2  0  0  0
 20 99  1  0  0  0
 21 23  1  0  0  0
 22 28  1  0  0  0
 22 32  2  0  0  0
 26 27  1  0  0  0
 28100  1  0  0  0
 28101  1  0  0  0
 29102  1  0  0  0
 29103  1  0  0  0
 33 34  1  0  0  0
 33 66  1  0  0  0
 33 70  2  0  0  0
 34 36  1  0  0  0
 34 59  1  0  0  0
 34104  1  0  0  0
 35 44  2  0  0  0
 35 45  1  0  0  0
 35 68  1  0  0  0
 36 56  1  0  0  0
 36105  1  0  0  0
 37 39  1  0  0  0
 37 47  1  0  0  0
 37 66  1  0  0  0
 37106  1  0  0  0
 38 43  2  0  0  0
 38 46  1  0  0  0
 38 47  1  0  0  0
 39 64  1  0  0  0
 39 67  2  0  0  0
 40 52  1  0  0  0
 40 53  2  0  0  0
 40 58  1  0  0  0
 41107  1  0  0  0
 41108  1  0  0  0
 41109  1  0  0  0
 41 48  1  0  0  0
 42 43  1  0  0  0
 42 66  1  0  0  0
 42110  1  0  0  0
 42111  1  0  0  0
 43 44  1  0  0  0
 44112  1  0  0  0
 45 46  2  0  0  0
 45113  1  0  0  0
 46114  1  0  0  0
 47115  1  0  0  0
 47116  1  0  0  0
 48 56  1  0  0  0
 48 65  1  0  0  0
 48117  1  0  0  0
 49 50  1  0  0  0
 49 53  1  0  0  0
 49 64  1  0  0  0
 49118  1  0  0  0
 50 51  1  0  0  0
 50119  1  0  0  0
 50120  1  0  0  0
 51 52  1  0  0  0
 51121  1  0  0  0
 51122  1  0  0  0
 52123  1  0  0  0
 52124  1  0  0  0
 53 54  1  0  0  0
 54 55  2  0  0  0
 54125  1  0  0  0
 55 57  1  0  0  0
 55126  1  0  0  0
 56 69  2  0  0  0
 57 58  2  0  0  0
 57127  1  0  0  0
 58128  1  0  0  0
 59 60  1  0  0  0
 59 61  1  0  0  0
 59 62  1  0  0  0
 60129  1  0  0  0
 60130  1  0  0  0
 60131  1  0  0  0
 61132  1  0  0  0
 61133  1  0  0  0
 61134  1  0  0  0
 62135  1  0  0  0
 62136  1  0  0  0
 62137  1  0  0  0
 63 65  1  0  0  0
 63138  1  0  0  0
 63139  1  0  0  0
 63140  1  0  0  0
 64141  1  0  0  0
 65142  1  0  0  0
 68 82  1  0  0  0
 71 72  2  0  0  0
 71 74  1  0  0  0
 71143  1  0  0  0
 72 76  1  0  0  0
 72144  1  0  0  0
 73 74  2  0  0  0
 73 75  1  0  0  0
 73145  1  0  0  0
 74 78  1  0  0  0
 75 76  2  0  0  0
 75 79  1  0  0  0
 76 83  1  0  0  0
 77 79  1  0  0  0
 77146  1  0  0  0
 77147  1  0  0  0
 77148  1  0  0  0
 78 80  1  0  0  0
 78149  1  0  0  0
 78150  1  0  0  0
 79151  1  0  0  0
 79152  1  0  0  0
 80 81  1  0  0  0
 80153  1  0  0  0
 80154  1  0  0  0
 81 82  1  0  0  0
 81155  1  0  0  0
 81156  1  0  0  0
 82157  1  0  0  0
 82158  1  0  0  0
 83159  1  0  0  0
M  ISO  4   1 100  68 101  82 101  83 100
M  END
> <chiral flag>
0

> <version>
0

> <s_m_source_file>
/data/baiqing/PycharmProjects/Reinvent-master-3.2/result/LINK_invent/BTK/process_docking_weight1_custom_product_contain_oxygen_bond_distance_aromatic_linkinvent_7_9_3/rearranged_h_0130.sdf

> <i_m_source_file_index>
81

> <r_mmod_Potential_Energy-OPLS-2005>
109.51001739502

> <r_mmod_Stretch_Energy-OPLS-2005>
87.7397842407227

> <r_mmod_Bend_Energy-OPLS-2005>
177.589004516602

> <r_mmod_Torsional_Energy-OPLS-2005>
234.628082275391

> <r_mmod_Improper_Torsional_Energy-OPLS-2005>
3.30152487754822

> <r_mmod_Van_der_Waal_Energy-OPLS-2005>
132.659530639648

> <r_mmod_Electrostatic_Energy-OPLS-2005>
-379.081176757812

> <r_mmod_Solvation_Energy-OPLS-2005>
-197.209701538086

> <b_mmod_Minimization_Converged-OPLS-2005>
0

> <r_mmod_RMS_Derivative-OPLS-2005>
5.76249551773071

$$$$
81
                    3D
 Structure written by MMmdl.
154162  0  0  1  0            999 V2000
  -30.7092  -14.4496   20.5944 C   0  0  0  0  0  0
  -30.4174  -12.3037   19.4142 C   0  0  0  0  0  0
  -29.4905  -12.5286   18.2006 C   0  0  0  0  0  0
  -28.0087  -12.3925   18.6064 C   0  0  0  0  0  0
  -27.6619  -13.2075   19.8814 C   0  0  2  0  0  0
  -28.7022  -12.9457   20.9916 C   0  0  0  0  0  0
  -25.2567  -13.8165   20.5704 C   0  0  0  0  0  0
  -24.1815  -13.0437   20.9190 C   0  0  0  0  0  0
  -24.6374  -11.6907   20.8748 C   0  0  0  0  0  0
  -23.9043  -10.4291   21.0406 C   0  0  0  0  0  0
  -24.3609   -9.4208   21.9179 C   0  0  0  0  0  0
  -23.6303   -8.2234   22.0749 C   0  0  0  0  0  0
  -22.4275   -8.0270   21.3551 C   0  0  0  0  0  0
  -21.9901   -9.0237   20.4649 C   0  0  0  0  0  0
  -22.7217  -10.2127   20.3053 C   0  0  0  0  0  0
  -21.6851   -6.0737   22.5290 C   0  0  0  0  0  0
  -21.4005   -6.5644   23.8224 C   0  0  0  0  0  0
  -21.3659   -5.6800   24.9188 C   0  0  0  0  0  0
  -21.6047   -4.3062   24.7238 C   0  0  0  0  0  0
  -21.8815   -3.8151   23.4361 C   0  0  0  0  0  0
  -21.9188   -4.6964   22.3414 C   0  0  0  0  0  0
  -22.7836  -13.5232   21.1862 C   0  0  0  0  0  0
  -22.1659   -4.2149   21.0996 F   0  0  0  0  0  0
  -21.5633   -3.4544   25.7749 F   0  0  0  0  0  0
  -30.0348  -13.2718   20.4567 N   0  0  0  0  0  0
  -26.3016  -12.9341   20.3399 N   0  0  0  0  0  0
  -25.9298  -11.6497   20.5772 N   0  0  0  0  0  0
  -22.0471  -12.8240   22.0430 N   0  0  0  0  0  0
  -25.4275  -15.1882   20.4133 N   0  0  0  0  0  0
  -31.8134  -14.6264   20.0697 O   0  0  0  0  0  0
  -21.6644   -6.8868   21.4247 O   0  0  0  0  0  0
  -22.3528  -14.5548   20.6723 O   0  0  0  0  0  0
  -24.6140  -31.8683   23.2102 C   0  0  0  0  0  0
  -25.9031  -32.4829   23.8405 C   0  0  1  0  0  0
  -27.2385  -27.4513   20.1027 C   0  0  0  0  0  0
  -25.5894  -33.8629   24.2336 N   0  0  0  0  0  0
  -23.4023  -30.4906   21.5501 C   0  0  2  0  0  0
  -24.8520  -28.9589   20.1131 C   0  0  0  0  0  0
  -22.7412  -29.4656   22.4993 C   0  0  0  0  0  0
  -18.0268  -28.1379   22.8494 C   0  0  0  0  0  0
  -24.1480  -36.7319   23.2630 C   0  0  0  0  0  0
  -25.9290  -30.8414   21.3592 C   0  0  0  0  0  0
  -26.0104  -29.4767   20.7081 C   0  0  0  0  0  0
  -27.2104  -28.7313   20.6967 C   0  0  0  0  0  0
  -26.0684  -26.9423   19.5016 C   0  0  0  0  0  0
  -24.8760  -27.6911   19.5040 C   0  0  0  0  0  0
  -23.6107  -29.8209   20.1645 C   0  0  0  0  0  0
  -25.4095  -36.3115   24.0337 C   0  0  1  0  0  0
  -20.5861  -28.3665   23.1322 C   0  0  2  0  0  0
  -20.6757  -26.9399   22.5421 C   0  0  0  0  0  0
  -19.5735  -26.6384   21.5218 C   0  0  0  0  0  0
  -18.1915  -26.7926   22.1628 C   0  0  0  0  0  0
  -19.1520  -28.8837   23.2907 C   0  0  0  0  0  0
  -18.9447  -30.1447   23.8913 C   0  0  0  0  0  0
  -17.6447  -30.6581   24.0566 C   0  0  0  0  0  0
  -25.9031  -34.9480   23.5134 C   0  0  0  0  0  0
  -16.5339  -29.9084   23.6327 C   0  0  0  0  0  0
  -16.7257  -28.6505   23.0343 C   0  0  0  0  0  0
  -26.4464  -31.6600   25.0725 C   0  0  0  0  0  0
  -25.3743  -31.3693   26.1484 C   0  0  0  0  0  0
  -27.0284  -30.3043   24.6080 C   0  0  0  0  0  0
  -27.6052  -32.4312   25.7478 C   0  0  0  0  0  0
  -27.5598  -37.1782   24.8440 C   0  0  0  0  0  0
  -21.4138  -29.3033   22.3732 N   0  0  0  0  0  0
  -26.4270  -37.3816   23.9444 N   0  0  0  0  0  0
  -24.6669  -31.0804   22.0991 N   0  0  0  0  0  0
  -23.4191  -28.8202   23.3030 O   0  0  0  0  0  0
  -28.3841  -26.6939   20.1113 O   0  0  0  0  0  0
  -26.5597  -34.8931   22.4697 O   0  0  0  0  0  0
  -23.5332  -32.1425   23.7508 O   0  0  0  0  0  0
  -28.3976  -19.1810   23.3091 C   0  0  0  0  0  0
  -28.9140  -17.9942   22.7541 C   0  0  0  0  0  0
  -28.6063  -20.4185   22.6712 C   0  0  0  0  0  0
  -29.8452  -19.2817   20.9135 C   0  0  0  0  0  0
  -29.6536  -18.0314   21.5512 C   0  0  0  0  0  0
  -29.3322  -20.4816   21.4608 C   0  0  0  0  0  0
  -30.2257  -16.8134   20.9363 C   0  0  0  0  0  0
  -30.0174  -15.5268   21.3045 C   0  0  0  0  0  0
  -29.0439  -24.3454   20.4977 C   0  0  0  0  0  0
  -29.5881  -21.8066   20.7329 C   0  0  0  0  0  0
  -28.8260  -23.0398   21.2825 C   0  0  0  0  0  0
  -28.3045  -25.5870   21.0237 C   0  0  0  0  0  0
  -29.7776  -24.3946   19.5042 O   0  0  0  0  0  0
  -31.4620  -12.3952   19.1124 H   0  0  0  0  0  0
  -30.3139  -11.2851   19.7902 H   0  0  0  0  0  0
  -29.7285  -11.8201   17.4065 H   0  0  0  0  0  0
  -29.6650  -13.5221   17.7839 H   0  0  0  0  0  0
  -27.8059  -11.3353   18.7757 H   0  0  0  0  0  0
  -27.3622  -12.6973   17.7823 H   0  0  0  0  0  0
  -27.7171  -14.2632   19.6166 H   0  0  0  0  0  0
  -28.6818  -11.8920   21.2749 H   0  0  0  0  0  0
  -28.4467  -13.4781   21.9051 H   0  0  0  0  0  0
  -25.2749   -9.5702   22.4763 H   0  0  0  0  0  0
  -24.0025   -7.4620   22.7455 H   0  0  0  0  0  0
  -21.0832   -8.8738   19.8957 H   0  0  0  0  0  0
  -22.3652  -10.9665   19.6173 H   0  0  0  0  0  0
  -21.1994   -7.6150   23.9735 H   0  0  0  0  0  0
  -21.1488   -6.0529   25.9094 H   0  0  0  0  0  0
  -22.0595   -2.7613   23.2864 H   0  0  0  0  0  0
  -22.4088  -11.9927   22.4871 H   0  0  0  0  0  0
  -21.1075  -13.1255   22.2608 H   0  0  0  0  0  0
  -24.6652  -15.8462   20.5325 H   0  0  0  0  0  0
  -26.2968  -15.6317   20.1413 H   0  0  0  0  0  0
  -26.7112  -32.5550   23.1186 H   0  0  0  0  0  0
  -25.0049  -33.9794   25.0482 H   0  0  0  0  0  0
  -22.6911  -31.3074   21.4098 H   0  0  0  0  0  0
  -23.3763  -35.9627   23.3235 H   0  0  0  0  0  0
  -24.3605  -36.8994   22.2061 H   0  0  0  0  0  0
  -23.7190  -37.6485   23.6685 H   0  0  0  0  0  0
  -26.0358  -31.6084   20.5911 H   0  0  0  0  0  0
  -26.8184  -30.8986   21.9747 H   0  0  0  0  0  0
  -28.1062  -29.1283   21.1550 H   0  0  0  0  0  0
  -26.0806  -25.9670   19.0361 H   0  0  0  0  0  0
  -23.9876  -27.2880   19.0374 H   0  0  0  0  0  0
  -23.7143  -30.5945   19.4025 H   0  0  0  0  0  0
  -22.7370  -29.2359   19.8709 H   0  0  0  0  0  0
  -25.1256  -36.1971   25.0826 H   0  0  0  0  0  0
  -20.9955  -28.3224   24.1443 H   0  0  0  0  0  0
  -20.5660  -26.2273   23.3611 H   0  0  0  0  0  0
  -21.6627  -26.7444   22.1211 H   0  0  0  0  0  0
  -19.6892  -25.6298   21.1244 H   0  0  0  0  0  0
  -19.6673  -27.3204   20.6759 H   0  0  0  0  0  0
  -17.4186  -26.6684   21.4027 H   0  0  0  0  0  0
  -18.0305  -26.0062   22.9019 H   0  0  0  0  0  0
  -19.7916  -30.7264   24.2291 H   0  0  0  0  0  0
  -17.4994  -31.6267   24.5157 H   0  0  0  0  0  0
  -15.5339  -30.2992   23.7635 H   0  0  0  0  0  0
  -15.8657  -28.0834   22.7044 H   0  0  0  0  0  0
  -24.5902  -30.7059   25.7817 H   0  0  0  0  0  0
  -24.8951  -32.2844   26.4974 H   0  0  0  0  0  0
  -25.8105  -30.8827   27.0217 H   0  0  0  0  0  0
  -26.2815  -29.6816   24.1141 H   0  0  0  0  0  0
  -27.4066  -29.7267   25.4526 H   0  0  0  0  0  0
  -27.8648  -30.4368   23.9212 H   0  0  0  0  0  0
  -27.2680  -33.3601   26.2092 H   0  0  0  0  0  0
  -28.3835  -32.6894   25.0282 H   0  0  0  0  0  0
  -28.0750  -31.8413   26.5359 H   0  0  0  0  0  0
  -28.2519  -38.0175   24.7644 H   0  0  0  0  0  0
  -28.1191  -36.2724   24.6056 H   0  0  0  0  0  0
  -27.2356  -37.1160   25.8840 H   0  0  0  0  0  0
  -20.9301  -29.8768   21.6964 H   0  0  0  0  0  0
  -26.0155  -38.2872   24.1540 H   0  0  0  0  0  0
  -27.8418  -19.1409   24.2358 H   0  0  0  0  0  0
  -28.7449  -17.0636   23.2757 H   0  0  0  0  0  0
  -28.1990  -21.3086   23.1302 H   0  0  0  0  0  0
  -30.4046  -19.3251   19.9886 H   0  0  0  0  0  0
  -30.8924  -17.0016   20.1050 H   0  0  0  0  0  0
  -29.3593  -15.3118   22.1279 H   0  0  0  0  0  0
  -29.3335  -21.6648   19.6816 H   0  0  0  0  0  0
  -30.6612  -22.0008   20.7620 H   0  0  0  0  0  0
  -27.7557  -22.8352   21.2835 H   0  0  0  0  0  0
  -29.1138  -23.2243   22.3178 H   0  0  0  0  0  0
  -28.7501  -25.8806   21.9743 H   0  0  0  0  0  0
  -27.2708  -25.3081   21.2315 H   0  0  0  0  0  0
  1 25  1  0  0  0
  1 30  2  0  0  0
  1 78  1  0  0  0
  2  3  1  0  0  0
  2 25  1  0  0  0
  2 84  1  0  0  0
  2 85  1  0  0  0
  3  4  1  0  0  0
  3 86  1  0  0  0
  3 87  1  0  0  0
  4  5  1  0  0  0
  4 88  1  0  0  0
  4 89  1  0  0  0
  5  6  1  0  0  0
  5 26  1  0  0  0
  5 90  1  0  0  0
  6 25  1  0  0  0
  6 91  1  0  0  0
  6 92  1  0  0  0
  7  8  2  0  0  0
  7 26  1  0  0  0
  7 29  1  0  0  0
  8  9  1  0  0  0
  8 22  1  0  0  0
  9 10  1  0  0  0
  9 27  2  0  0  0
 10 11  2  0  0  0
 10 15  1  0  0  0
 11 12  1  0  0  0
 11 93  1  0  0  0
 12 13  2  0  0  0
 12 94  1  0  0  0
 13 14  1  0  0  0
 13 31  1  0  0  0
 14 15  2  0  0  0
 14 95  1  0  0  0
 15 96  1  0  0  0
 16 17  2  0  0  0
 16 21  1  0  0  0
 16 31  1  0  0  0
 17 18  1  0  0  0
 17 97  1  0  0  0
 18 19  2  0  0  0
 18 98  1  0  0  0
 19 20  1  0  0  0
 19 24  1  0  0  0
 20 21  2  0  0  0
 20 99  1  0  0  0
 21 23  1  0  0  0
 22 28  1  0  0  0
 22 32  2  0  0  0
 26 27  1  0  0  0
 28100  1  0  0  0
 28101  1  0  0  0
 29102  1  0  0  0
 29103  1  0  0  0
 33 34  1  0  0  0
 33 66  1  0  0  0
 33 70  2  0  0  0
 34 36  1  0  0  0
 34 59  1  0  0  0
 34104  1  0  0  0
 35 44  2  0  0  0
 35 45  1  0  0  0
 35 68  1  0  0  0
 36 56  1  0  0  0
 36105  1  0  0  0
 37 39  1  0  0  0
 37 47  1  0  0  0
 37 66  1  0  0  0
 37106  1  0  0  0
 38 43  2  0  0  0
 38 46  1  0  0  0
 38 47  1  0  0  0
 39 64  1  0  0  0
 39 67  2  0  0  0
 40 52  1  0  0  0
 40 53  2  0  0  0
 40 58  1  0  0  0
 41107  1  0  0  0
 41108  1  0  0  0
 41109  1  0  0  0
 41 48  1  0  0  0
 42 43  1  0  0  0
 42 66  1  0  0  0
 42110  1  0  0  0
 42111  1  0  0  0
 43 44  1  0  0  0
 44112  1  0  0  0
 45 46  2  0  0  0
 45113  1  0  0  0
 46114  1  0  0  0
 47115  1  0  0  0
 47116  1  0  0  0
 48 56  1  0  0  0
 48 65  1  0  0  0
 48117  1  0  0  0
 49 50  1  0  0  0
 49 53  1  0  0  0
 49 64  1  0  0  0
 49118  1  0  0  0
 50 51  1  0  0  0
 50119  1  0  0  0
 50120  1  0  0  0
 51 52  1  0  0  0
 51121  1  0  0  0
 51122  1  0  0  0
 52123  1  0  0  0
 52124  1  0  0  0
 53 54  1  0  0  0
 54 55  2  0  0  0
 54125  1  0  0  0
 55 57  1  0  0  0
 55126  1  0  0  0
 56 69  2  0  0  0
 57 58  2  0  0  0
 57127  1  0  0  0
 58128  1  0  0  0
 59 60  1  0  0  0
 59 61  1  0  0  0
 59 62  1  0  0  0
 60129  1  0  0  0
 60130  1  0  0  0
 60131  1  0  0  0
 61132  1  0  0  0
 61133  1  0  0  0
 61134  1  0  0  0
 62135  1  0  0  0
 62136  1  0  0  0
 62137  1  0  0  0
 63 65  1  0  0  0
 63138  1  0  0  0
 63139  1  0  0  0
 63140  1  0  0  0
 64141  1  0  0  0
 65142  1  0  0  0
 68 82  1  0  0  0
 71 72  2  0  0  0
 71 73  1  0  0  0
 71143  1  0  0  0
 72 75  1  0  0  0
 72144  1  0  0  0
 73 76  2  0  0  0
 73145  1  0  0  0
 74 75  2  0  0  0
 74 76  1  0  0  0
 74146  1  0  0  0
 75 77  1  0  0  0
 76 80  1  0  0  0
 77 78  2  0  0  0
 77147  1  0  0  0
 78148  1  0  0  0
 79 81  1  0  0  0
 79 82  1  0  0  0
 79 83  2  0  0  0
 80 81  1  0  0  0
 80149  1  0  0  0
 80150  1  0  0  0
 81151  1  0  0  0
 81152  1  0  0  0
 82153  1  0  0  0
 82154  1  0  0  0
M  ISO  4   1 100  68 101  78 100  82 101
M  END
> <chiral flag>
0

> <version>
0

> <s_m_source_file>
/data/baiqing/PycharmProjects/Reinvent-master-3.2/result/LINK_invent/BTK/process_docking_weight1_custom_product_contain_oxygen_bond_distance_aromatic_linkinvent_7_9_3/rearranged_h_0130.sdf

> <i_m_source_file_index>
82

> <r_mmod_Potential_Energy-OPLS-2005>
-42.3476715087891

> <r_mmod_Stretch_Energy-OPLS-2005>
36.3030433654785

> <r_mmod_Bend_Energy-OPLS-2005>
91.243049621582

> <r_mmod_Torsional_Energy-OPLS-2005>
199.183517456055

> <r_mmod_Improper_Torsional_Energy-OPLS-2005>
2.53581047058105

> <r_mmod_Van_der_Waal_Energy-OPLS-2005>
156.734222412109

> <r_mmod_Electrostatic_Energy-OPLS-2005>
-327.857116699219

> <r_mmod_Solvation_Energy-OPLS-2005>
-210.790023803711

> <b_mmod_Minimization_Converged-OPLS-2005>
0

> <r_mmod_RMS_Derivative-OPLS-2005>
1.45438706874847

$$$$
82
                    3D
 Structure written by MMmdl.
159168  0  0  1  0            999 V2000
  -30.6716  -14.6017   20.5602 C   0  0  0  0  0  0
  -30.4382  -12.3888   19.4399 C   0  0  0  0  0  0
  -29.5068  -12.5251   18.2154 C   0  0  0  0  0  0
  -28.0299  -12.3627   18.6252 C   0  0  0  0  0  0
  -27.6611  -13.2184   19.8666 C   0  0  2  0  0  0
  -28.7035  -13.0368   20.9901 C   0  0  0  0  0  0
  -25.2610  -13.8185   20.5700 C   0  0  0  0  0  0
  -24.1857  -13.0456   20.9183 C   0  0  0  0  0  0
  -24.6416  -11.6926   20.8718 C   0  0  0  0  0  0
  -23.9080  -10.4310   21.0402 C   0  0  0  0  0  0
  -24.3623   -9.4222   21.9179 C   0  0  0  0  0  0
  -23.6302   -8.2251   22.0746 C   0  0  0  0  0  0
  -22.4280   -8.0285   21.3535 C   0  0  0  0  0  0
  -21.9919   -9.0265   20.4642 C   0  0  0  0  0  0
  -22.7254  -10.2142   20.3058 C   0  0  0  0  0  0
  -21.6860   -6.0739   22.5281 C   0  0  0  0  0  0
  -21.4009   -6.5640   23.8213 C   0  0  0  0  0  0
  -21.3664   -5.6786   24.9173 C   0  0  0  0  0  0
  -21.6047   -4.3053   24.7220 C   0  0  0  0  0  0
  -21.8825   -3.8148   23.4346 C   0  0  0  0  0  0
  -21.9196   -4.6966   22.3401 C   0  0  0  0  0  0
  -22.7876  -13.5245   21.1862 C   0  0  0  0  0  0
  -22.1668   -4.2149   21.0980 F   0  0  0  0  0  0
  -21.5631   -3.4542   25.7740 F   0  0  0  0  0  0
  -30.0263  -13.3937   20.4419 N   0  0  0  0  0  0
  -26.3042  -12.9371   20.3343 N   0  0  0  0  0  0
  -25.9349  -11.6523   20.5718 N   0  0  0  0  0  0
  -22.0493  -12.8228   22.0400 N   0  0  0  0  0  0
  -25.4371  -15.1905   20.4201 N   0  0  0  0  0  0
  -31.7680  -14.7843   20.0238 O   0  0  0  0  0  0
  -21.6643   -6.8888   21.4237 O   0  0  0  0  0  0
  -22.3573  -14.5557   20.6723 O   0  0  0  0  0  0
  -24.6235  -31.8611   23.2065 C   0  0  0  0  0  0
  -25.9101  -32.4780   23.8376 C   0  0  1  0  0  0
  -27.2357  -27.3489   20.0805 C   0  0  0  0  0  0
  -25.5927  -33.8581   24.2310 N   0  0  0  0  0  0
  -23.4158  -30.4831   21.5515 C   0  0  2  0  0  0
  -24.8614  -28.9468   20.1144 C   0  0  0  0  0  0
  -22.7448  -29.4613   22.4994 C   0  0  0  0  0  0
  -18.0276  -28.1387   22.8507 C   0  0  0  0  0  0
  -24.1475  -36.7252   23.2642 C   0  0  0  0  0  0
  -25.9566  -30.7933   21.3802 C   0  0  0  0  0  0
  -26.0287  -29.4246   20.7198 C   0  0  0  0  0  0
  -27.2139  -28.6335   20.7036 C   0  0  0  0  0  0
  -26.0423  -26.9293   19.4435 C   0  0  0  0  0  0
  -24.8683  -27.7014   19.4731 C   0  0  0  0  0  0
  -23.6262  -29.8197   20.1664 C   0  0  0  0  0  0
  -25.4103  -36.3074   24.0347 C   0  0  1  0  0  0
  -20.5877  -28.3657   23.1309 C   0  0  2  0  0  0
  -20.6754  -26.9400   22.5415 C   0  0  0  0  0  0
  -19.5736  -26.6398   21.5217 C   0  0  0  0  0  0
  -18.1918  -26.7925   22.1642 C   0  0  0  0  0  0
  -19.1532  -28.8845   23.2894 C   0  0  0  0  0  0
  -18.9455  -30.1452   23.8905 C   0  0  0  0  0  0
  -17.6451  -30.6592   24.0565 C   0  0  0  0  0  0
  -25.9052  -34.9452   23.5128 C   0  0  0  0  0  0
  -16.5341  -29.9092   23.6338 C   0  0  0  0  0  0
  -16.7260  -28.6506   23.0374 C   0  0  0  0  0  0
  -26.4502  -31.6561   25.0724 C   0  0  0  0  0  0
  -25.3748  -31.3661   26.1456 C   0  0  0  0  0  0
  -27.0330  -30.2988   24.6155 C   0  0  0  0  0  0
  -27.6088  -32.4261   25.7473 C   0  0  0  0  0  0
  -27.5566  -37.1786   24.8484 C   0  0  0  0  0  0
  -21.4166  -29.3002   22.3697 N   0  0  0  0  0  0
  -26.4276  -37.3775   23.9431 N   0  0  0  0  0  0
  -24.6839  -31.0622   22.1024 N   0  0  0  0  0  0
  -23.4169  -28.8167   23.3087 O   0  0  0  0  0  0
  -28.3764  -26.5307   20.1185 O   0  0  0  0  0  0
  -26.5627  -34.8918   22.4697 O   0  0  0  0  0  0
  -23.5412  -32.1425   23.7406 O   0  0  0  0  0  0
  -30.7682  -18.6131   17.8422 C   0  0  0  0  0  0
  -30.5762  -19.9660   18.1729 C   0  0  0  0  0  0
  -30.5404  -17.6245   18.8163 C   0  0  0  0  0  0
  -30.1495  -20.3080   19.4680 C   0  0  0  0  0  0
  -30.1317  -18.0027   20.1074 C   0  0  0  0  0  0
  -30.0403  -21.7848   19.7972 C   0  0  0  0  0  0
  -28.9311  -22.5478   19.9593 C   0  0  0  0  0  0
  -29.8455  -16.9896   21.1844 C   0  0  0  0  0  0
  -30.0102  -15.6375   21.3802 C   0  0  0  0  0  0
  -31.2571  -22.6757   19.9589 C   0  0  0  0  0  0
  -30.7142  -24.1330   19.9861 C   0  0  0  0  0  0
  -29.2127  -24.0294   20.3156 C   0  0  1  0  0  0
  -27.4979  -22.0636   19.8446 C   0  0  0  0  0  0
  -28.2731  -25.1295   19.6734 C   0  0  0  0  0  0
  -29.9480  -19.3342   20.4142 N   0  0  0  0  0  0
  -31.4805  -12.5060   19.1375 H   0  0  0  0  0  0
  -30.3671  -11.3854   19.8646 H   0  0  0  0  0  0
  -29.7684  -11.7776   17.4646 H   0  0  0  0  0  0
  -29.6510  -13.4980   17.7422 H   0  0  0  0  0  0
  -27.8636  -11.3069   18.8404 H   0  0  0  0  0  0
  -27.3751  -12.6092   17.7873 H   0  0  0  0  0  0
  -27.6925  -14.2617   19.5528 H   0  0  0  0  0  0
  -28.7138  -12.0011   21.3320 H   0  0  0  0  0  0
  -28.4222  -13.6205   21.8636 H   0  0  0  0  0  0
  -25.2767   -9.5701   22.4750 H   0  0  0  0  0  0
  -24.0025   -7.4642   22.7463 H   0  0  0  0  0  0
  -21.0859   -8.8785   19.8951 H   0  0  0  0  0  0
  -22.3717  -10.9670   19.6166 H   0  0  0  0  0  0
  -21.1983   -7.6145   23.9714 H   0  0  0  0  0  0
  -21.1482   -6.0518   25.9076 H   0  0  0  0  0  0
  -22.0598   -2.7610   23.2843 H   0  0  0  0  0  0
  -22.4121  -11.9893   22.4774 H   0  0  0  0  0  0
  -21.1094  -13.1234   22.2566 H   0  0  0  0  0  0
  -24.6851  -15.8574   20.5581 H   0  0  0  0  0  0
  -26.3099  -15.6267   20.1476 H   0  0  0  0  0  0
  -26.7153  -32.5492   23.1116 H   0  0  0  0  0  0
  -25.0032  -33.9717   25.0427 H   0  0  0  0  0  0
  -22.7081  -31.3034   21.4130 H   0  0  0  0  0  0
  -23.3756  -35.9568   23.3327 H   0  0  0  0  0  0
  -24.3548  -36.8834   22.2046 H   0  0  0  0  0  0
  -23.7208  -37.6456   23.6627 H   0  0  0  0  0  0
  -26.0903  -31.5570   20.6128 H   0  0  0  0  0  0
  -26.8352  -30.8371   22.0119 H   0  0  0  0  0  0
  -28.1073  -28.9970   21.1919 H   0  0  0  0  0  0
  -25.9750  -25.9965   18.9065 H   0  0  0  0  0  0
  -23.9766  -27.3354   18.9821 H   0  0  0  0  0  0
  -23.7398  -30.5963   19.4093 H   0  0  0  0  0  0
  -22.7466  -29.2451   19.8683 H   0  0  0  0  0  0
  -25.1277  -36.1925   25.0842 H   0  0  0  0  0  0
  -20.9972  -28.3230   24.1429 H   0  0  0  0  0  0
  -20.5653  -26.2273   23.3593 H   0  0  0  0  0  0
  -21.6616  -26.7425   22.1220 H   0  0  0  0  0  0
  -19.6881  -25.6324   21.1210 H   0  0  0  0  0  0
  -19.6668  -27.3227   20.6767 H   0  0  0  0  0  0
  -17.4178  -26.6670   21.4054 H   0  0  0  0  0  0
  -18.0342  -26.0057   22.9042 H   0  0  0  0  0  0
  -19.7930  -30.7282   24.2267 H   0  0  0  0  0  0
  -17.5011  -31.6282   24.5159 H   0  0  0  0  0  0
  -15.5352  -30.3003   23.7659 H   0  0  0  0  0  0
  -15.8660  -28.0826   22.7105 H   0  0  0  0  0  0
  -24.5927  -30.7009   25.7769 H   0  0  0  0  0  0
  -24.8947  -32.2806   26.4924 H   0  0  0  0  0  0
  -25.8104  -30.8790   27.0192 H   0  0  0  0  0  0
  -26.2886  -29.6742   24.1195 H   0  0  0  0  0  0
  -27.4034  -29.7217   25.4637 H   0  0  0  0  0  0
  -27.8758  -30.4269   23.9371 H   0  0  0  0  0  0
  -27.2722  -33.3537   26.2111 H   0  0  0  0  0  0
  -28.3867  -32.6849   25.0276 H   0  0  0  0  0  0
  -28.0791  -31.8336   26.5330 H   0  0  0  0  0  0
  -28.2623  -38.0048   24.7523 H   0  0  0  0  0  0
  -28.1025  -36.2584   24.6324 H   0  0  0  0  0  0
  -27.2284  -37.1455   25.8892 H   0  0  0  0  0  0
  -20.9354  -29.8664   21.6848 H   0  0  0  0  0  0
  -26.0152  -38.2850   24.1445 H   0  0  0  0  0  0
  -31.0915  -18.3373   16.8490 H   0  0  0  0  0  0
  -30.7612  -20.7368   17.4356 H   0  0  0  0  0  0
  -30.6747  -16.5878   18.5514 H   0  0  0  0  0  0
  -29.3560  -17.4599   22.0232 H   0  0  0  0  0  0
  -29.6293  -15.2901   22.3271 H   0  0  0  0  0  0
  -31.9540  -22.5372   19.1304 H   0  0  0  0  0  0
  -31.7778  -22.4163   20.8804 H   0  0  0  0  0  0
  -30.8401  -24.5757   18.9973 H   0  0  0  0  0  0
  -31.2545  -24.7679   20.6901 H   0  0  0  0  0  0
  -29.0892  -24.0945   21.3970 H   0  0  0  0  0  0
  -27.4565  -21.0062   19.5831 H   0  0  0  0  0  0
  -26.9689  -22.6148   19.0660 H   0  0  0  0  0  0
  -26.9720  -22.2032   20.7873 H   0  0  0  0  0  0
  -27.2784  -24.7657   19.9170 H   0  0  0  0  0  0
  -28.3609  -25.1058   18.5872 H   0  0  0  0  0  0
  1 25  1  0  0  0
  1 30  2  0  0  0
  1 79  1  0  0  0
  2  3  1  0  0  0
  2 25  1  0  0  0
  2 86  1  0  0  0
  2 87  1  0  0  0
  3  4  1  0  0  0
  3 88  1  0  0  0
  3 89  1  0  0  0
  4  5  1  0  0  0
  4 90  1  0  0  0
  4 91  1  0  0  0
  5  6  1  0  0  0
  5 26  1  0  0  0
  5 92  1  0  0  0
  6 25  1  0  0  0
  6 93  1  0  0  0
  6 94  1  0  0  0
  7  8  2  0  0  0
  7 26  1  0  0  0
  7 29  1  0  0  0
  8  9  1  0  0  0
  8 22  1  0  0  0
  9 10  1  0  0  0
  9 27  2  0  0  0
 10 11  2  0  0  0
 10 15  1  0  0  0
 11 12  1  0  0  0
 11 95  1  0  0  0
 12 13  2  0  0  0
 12 96  1  0  0  0
 13 14  1  0  0  0
 13 31  1  0  0  0
 14 15  2  0  0  0
 14 97  1  0  0  0
 15 98  1  0  0  0
 16 17  2  0  0  0
 16 21  1  0  0  0
 16 31  1  0  0  0
 17 18  1  0  0  0
 17 99  1  0  0  0
 18 19  2  0  0  0
 18100  1  0  0  0
 19 20  1  0  0  0
 19 24  1  0  0  0
 20 21  2  0  0  0
 20101  1  0  0  0
 21 23  1  0  0  0
 22 28  1  0  0  0
 22 32  2  0  0  0
 26 27  1  0  0  0
 28102  1  0  0  0
 28103  1  0  0  0
 29104  1  0  0  0
 29105  1  0  0  0
 33 34  1  0  0  0
 33 66  1  0  0  0
 33 70  2  0  0  0
 34 36  1  0  0  0
 34 59  1  0  0  0
 34106  1  0  0  0
 35 44  2  0  0  0
 35 45  1  0  0  0
 35 68  1  0  0  0
 36 56  1  0  0  0
 36107  1  0  0  0
 37 39  1  0  0  0
 37 47  1  0  0  0
 37 66  1  0  0  0
 37108  1  0  0  0
 38 43  2  0  0  0
 38 46  1  0  0  0
 38 47  1  0  0  0
 39 64  1  0  0  0
 39 67  2  0  0  0
 40 52  1  0  0  0
 40 53  2  0  0  0
 40 58  1  0  0  0
 41109  1  0  0  0
 41110  1  0  0  0
 41111  1  0  0  0
 41 48  1  0  0  0
 42 43  1  0  0  0
 42 66  1  0  0  0
 42112  1  0  0  0
 42113  1  0  0  0
 43 44  1  0  0  0
 44114  1  0  0  0
 45 46  2  0  0  0
 45115  1  0  0  0
 46116  1  0  0  0
 47117  1  0  0  0
 47118  1  0  0  0
 48 56  1  0  0  0
 48 65  1  0  0  0
 48119  1  0  0  0
 49 50  1  0  0  0
 49 53  1  0  0  0
 49 64  1  0  0  0
 49120  1  0  0  0
 50 51  1  0  0  0
 50121  1  0  0  0
 50122  1  0  0  0
 51 52  1  0  0  0
 51123  1  0  0  0
 51124  1  0  0  0
 52125  1  0  0  0
 52126  1  0  0  0
 53 54  1  0  0  0
 54 55  2  0  0  0
 54127  1  0  0  0
 55 57  1  0  0  0
 55128  1  0  0  0
 56 69  2  0  0  0
 57 58  2  0  0  0
 57129  1  0  0  0
 58130  1  0  0  0
 59 60  1  0  0  0
 59 61  1  0  0  0
 59 62  1  0  0  0
 60131  1  0  0  0
 60132  1  0  0  0
 60133  1  0  0  0
 61134  1  0  0  0
 61135  1  0  0  0
 61136  1  0  0  0
 62137  1  0  0  0
 62138  1  0  0  0
 62139  1  0  0  0
 63 65  1  0  0  0
 63140  1  0  0  0
 63141  1  0  0  0
 63142  1  0  0  0
 64143  1  0  0  0
 65144  1  0  0  0
 68 84  1  0  0  0
 71 72  2  0  0  0
 71 73  1  0  0  0
 71145  1  0  0  0
 72 74  1  0  0  0
 72146  1  0  0  0
 73 75  2  0  0  0
 73147  1  0  0  0
 74 76  1  0  0  0
 74 85  2  0  0  0
 75 78  1  0  0  0
 75 85  1  0  0  0
 76 77  2  0  0  0
 76 80  1  0  0  0
 77 82  1  0  0  0
 77 83  1  0  0  0
 78 79  2  0  0  0
 78148  1  0  0  0
 79149  1  0  0  0
 80 81  1  0  0  0
 80150  1  0  0  0
 80151  1  0  0  0
 81 82  1  0  0  0
 81152  1  0  0  0
 81153  1  0  0  0
 82 84  1  0  0  0
 82154  1  0  0  0
 83155  1  0  0  0
 83156  1  0  0  0
 83157  1  0  0  0
 84158  1  0  0  0
 84159  1  0  0  0
M  ISO  4   1 100  68 101  79 100  84 101
M  END
> <chiral flag>
0

> <version>
0

> <s_m_source_file>
/data/baiqing/PycharmProjects/Reinvent-master-3.2/result/LINK_invent/BTK/process_docking_weight1_custom_product_contain_oxygen_bond_distance_aromatic_linkinvent_7_9_3/rearranged_h_0130.sdf

> <i_m_source_file_index>
83

> <r_mmod_Potential_Energy-OPLS-2005>
-39.5211372375488

> <r_mmod_Stretch_Energy-OPLS-2005>
68.1705474853516

> <r_mmod_Bend_Energy-OPLS-2005>
203.495651245117

> <r_mmod_Torsional_Energy-OPLS-2005>
214.759735107422

> <r_mmod_Improper_Torsional_Energy-OPLS-2005>
2.5105619430542

> <r_mmod_Van_der_Waal_Energy-OPLS-2005>
147.265090942383

> <r_mmod_Electrostatic_Energy-OPLS-2005>
-514.712097167969

> <r_mmod_Solvation_Energy-OPLS-2005>
-195.887893676758

> <b_mmod_Minimization_Converged-OPLS-2005>
0

> <r_mmod_RMS_Derivative-OPLS-2005>
3.12087655067444

$$$$
83
                    3D
 Structure written by MMmdl.
164172  0  0  1  0            999 V2000
  -30.7000  -14.4481   20.6110 C   0  0  0  0  0  0
  -30.4130  -12.3026   19.3881 C   0  0  0  0  0  0
  -29.4775  -12.5279   18.1830 C   0  0  0  0  0  0
  -28.0032  -12.3916   18.6056 C   0  0  0  0  0  0
  -27.6682  -13.2068   19.8821 C   0  0  2  0  0  0
  -28.7166  -12.9408   20.9880 C   0  0  0  0  0  0
  -25.2641  -13.8149   20.5664 C   0  0  0  0  0  0
  -24.1890  -13.0409   20.9165 C   0  0  0  0  0  0
  -24.6443  -11.6893   20.8752 C   0  0  0  0  0  0
  -23.9122  -10.4269   21.0445 C   0  0  0  0  0  0
  -24.3654   -9.4164   21.9205 C   0  0  0  0  0  0
  -23.6279   -8.2221   22.0791 C   0  0  0  0  0  0
  -22.4271   -8.0306   21.3563 C   0  0  0  0  0  0
  -21.9940   -9.0292   20.4669 C   0  0  0  0  0  0
  -22.7314  -10.2144   20.3074 C   0  0  0  0  0  0
  -21.6844   -6.0743   22.5262 C   0  0  0  0  0  0
  -21.4019   -6.5644   23.8202 C   0  0  0  0  0  0
  -21.3643   -5.6816   24.9173 C   0  0  0  0  0  0
  -21.6030   -4.3075   24.7227 C   0  0  0  0  0  0
  -21.8830   -3.8158   23.4350 C   0  0  0  0  0  0
  -21.9185   -4.6965   22.3403 C   0  0  0  0  0  0
  -22.7907  -13.5240   21.1817 C   0  0  0  0  0  0
  -22.1665   -4.2145   21.0986 F   0  0  0  0  0  0
  -21.5621   -3.4558   25.7728 F   0  0  0  0  0  0
  -30.0391  -13.2677   20.4347 N   0  0  0  0  0  0
  -26.3080  -12.9318   20.3400 N   0  0  0  0  0  0
  -25.9376  -11.6479   20.5819 N   0  0  0  0  0  0
  -22.0576  -12.8189   22.0366 N   0  0  0  0  0  0
  -25.4407  -15.1855   20.4060 N   0  0  0  0  0  0
  -31.7831  -14.6700   20.0589 O   0  0  0  0  0  0
  -21.6642   -6.8898   21.4234 O   0  0  0  0  0  0
  -22.3568  -14.5518   20.6644 O   0  0  0  0  0  0
  -24.6150  -31.8623   23.1988 C   0  0  0  0  0  0
  -25.9021  -32.4792   23.8339 C   0  0  1  0  0  0
  -27.2528  -27.4180   20.0669 C   0  0  0  0  0  0
  -25.5869  -33.8591   24.2244 N   0  0  0  0  0  0
  -23.4042  -30.4797   21.5405 C   0  0  2  0  0  0
  -24.8521  -28.9314   20.1122 C   0  0  0  0  0  0
  -22.7396  -29.4630   22.4968 C   0  0  0  0  0  0
  -18.0263  -28.1375   22.8464 C   0  0  0  0  0  0
  -24.1503  -36.7324   23.2638 C   0  0  0  0  0  0
  -25.9323  -30.8176   21.3516 C   0  0  0  0  0  0
  -26.0102  -29.4468   20.7044 C   0  0  0  0  0  0
  -27.2066  -28.6932   20.6841 C   0  0  0  0  0  0
  -26.0615  -26.9016   19.5128 C   0  0  0  0  0  0
  -24.8712  -27.6560   19.5189 C   0  0  0  0  0  0
  -23.6116  -29.7957   20.1617 C   0  0  0  0  0  0
  -25.4119  -36.3070   24.0317 C   0  0  1  0  0  0
  -20.5844  -28.3665   23.1308 C   0  0  2  0  0  0
  -20.6740  -26.9395   22.5410 C   0  0  0  0  0  0
  -19.5747  -26.6363   21.5188 C   0  0  0  0  0  0
  -18.1916  -26.7923   22.1586 C   0  0  0  0  0  0
  -19.1511  -28.8829   23.2892 C   0  0  0  0  0  0
  -18.9450  -30.1434   23.8897 C   0  0  0  0  0  0
  -17.6457  -30.6583   24.0540 C   0  0  0  0  0  0
  -25.9041  -34.9450   23.5078 C   0  0  0  0  0  0
  -16.5343  -29.9084   23.6317 C   0  0  0  0  0  0
  -16.7255  -28.6497   23.0342 C   0  0  0  0  0  0
  -26.4427  -31.6591   25.0689 C   0  0  0  0  0  0
  -25.3680  -31.3733   26.1443 C   0  0  0  0  0  0
  -27.0253  -30.3030   24.6070 C   0  0  0  0  0  0
  -27.5990  -32.4324   25.7468 C   0  0  0  0  0  0
  -27.5604  -37.1782   24.8425 C   0  0  0  0  0  0
  -21.4125  -29.3036   22.3721 N   0  0  0  0  0  0
  -26.4284  -37.3782   23.9420 N   0  0  0  0  0  0
  -24.6693  -31.0710   22.0887 N   0  0  0  0  0  0
  -23.4154  -28.8172   23.3027 O   0  0  0  0  0  0
  -28.4576  -26.7304   20.0784 O   0  0  0  0  0  0
  -26.5646  -34.8921   22.4665 O   0  0  0  0  0  0
  -23.5335  -32.1389   23.7371 O   0  0  0  0  0  0
  -30.4283  -21.2610   20.0659 C   0  0  0  0  0  0
  -30.4972  -19.9071   20.4839 C   0  0  0  0  0  0
  -28.3694  -19.4945   19.4046 C   0  0  0  0  0  0
  -29.3354  -21.7513   19.3037 C   0  0  0  0  0  0
  -28.2924  -20.8381   18.9769 C   0  0  0  0  0  0
  -29.4665  -19.0006   20.1327 C   0  0  0  0  0  0
  -29.3595  -23.1425   18.7470 C   0  0  0  0  0  0
  -27.1022  -21.2318   18.1103 C   0  0  0  0  0  0
  -28.3410  -26.0812   17.6480 C   0  0  0  0  0  0
  -30.4115  -26.1774   19.0453 C   0  0  0  0  0  0
  -28.7096  -24.3015   19.5531 C   0  0  0  0  0  0
  -30.0742  -15.5617   21.4933 C   0  0  0  0  0  0
  -30.4692  -17.0375   21.1862 C   0  0  0  0  0  0
  -28.9146  -25.7929   19.0648 C   0  0  0  0  0  0
  -29.8907  -23.3143   17.6136 N   0  0  0  0  0  0
  -29.4400  -17.6438   20.4064 O   0  0  0  0  0  0
  -31.4574  -12.3851   19.0831 H   0  0  0  0  0  0
  -30.3043  -11.2850   19.7662 H   0  0  0  0  0  0
  -29.7004  -11.8146   17.3882 H   0  0  0  0  0  0
  -29.6476  -13.5214   17.7629 H   0  0  0  0  0  0
  -27.8012  -11.3342   18.7817 H   0  0  0  0  0  0
  -27.3482  -12.6936   17.7869 H   0  0  0  0  0  0
  -27.7264  -14.2608   19.6096 H   0  0  0  0  0  0
  -28.6915  -11.8891   21.2828 H   0  0  0  0  0  0
  -28.4866  -13.4855   21.9020 H   0  0  0  0  0  0
  -25.2835   -9.5569   22.4767 H   0  0  0  0  0  0
  -23.9942   -7.4629   22.7544 H   0  0  0  0  0  0
  -21.0868   -8.8885   19.8963 H   0  0  0  0  0  0
  -22.3856  -10.9707   19.6189 H   0  0  0  0  0  0
  -21.2043   -7.6164   23.9684 H   0  0  0  0  0  0
  -21.1448   -6.0562   25.9065 H   0  0  0  0  0  0
  -22.0619   -2.7606   23.2862 H   0  0  0  0  0  0
  -22.4209  -11.9804   22.4649 H   0  0  0  0  0  0
  -21.1210  -13.1206   22.2691 H   0  0  0  0  0  0
  -24.6836  -15.8523   20.5153 H   0  0  0  0  0  0
  -26.3013  -15.6116   20.0826 H   0  0  0  0  0  0
  -26.7084  -32.5475   23.1110 H   0  0  0  0  0  0
  -24.9946  -33.9736   25.0333 H   0  0  0  0  0  0
  -22.6957  -31.2943   21.3892 H   0  0  0  0  0  0
  -23.3795  -35.9614   23.3149 H   0  0  0  0  0  0
  -24.3634  -36.9135   22.2087 H   0  0  0  0  0  0
  -23.7215  -37.6451   23.6796 H   0  0  0  0  0  0
  -26.0376  -31.5762   20.5745 H   0  0  0  0  0  0
  -26.8235  -30.8823   21.9641 H   0  0  0  0  0  0
  -28.1046  -29.0878   21.1371 H   0  0  0  0  0  0
  -26.0360  -25.9115   19.0857 H   0  0  0  0  0  0
  -23.9760  -27.2430   19.0776 H   0  0  0  0  0  0
  -23.7065  -30.5528   19.3858 H   0  0  0  0  0  0
  -22.7403  -29.1982   19.8829 H   0  0  0  0  0  0
  -25.1297  -36.1902   25.0806 H   0  0  0  0  0  0
  -20.9939  -28.3221   24.1439 H   0  0  0  0  0  0
  -20.5585  -26.2269   23.3593 H   0  0  0  0  0  0
  -21.6624  -26.7398   22.1253 H   0  0  0  0  0  0
  -19.6907  -25.6265   21.1250 H   0  0  0  0  0  0
  -19.6712  -27.3135   20.6689 H   0  0  0  0  0  0
  -17.4188  -26.6658   21.3983 H   0  0  0  0  0  0
  -18.0327  -26.0061   22.8971 H   0  0  0  0  0  0
  -19.7931  -30.7234   24.2258 H   0  0  0  0  0  0
  -17.5027  -31.6270   24.5148 H   0  0  0  0  0  0
  -15.5355  -30.2995   23.7636 H   0  0  0  0  0  0
  -15.8646  -28.0818   22.7066 H   0  0  0  0  0  0
  -24.5793  -30.7157   25.7789 H   0  0  0  0  0  0
  -24.8946  -32.2909   26.4940 H   0  0  0  0  0  0
  -25.8013  -30.8843   27.0173 H   0  0  0  0  0  0
  -26.2785  -29.6827   24.1096 H   0  0  0  0  0  0
  -27.4003  -29.7254   25.4534 H   0  0  0  0  0  0
  -27.8636  -30.4388   23.9229 H   0  0  0  0  0  0
  -27.2587  -33.3619   26.2059 H   0  0  0  0  0  0
  -28.3789  -32.6897   25.0285 H   0  0  0  0  0  0
  -28.0654  -31.8433   26.5376 H   0  0  0  0  0  0
  -28.2501  -38.0191   24.7617 H   0  0  0  0  0  0
  -28.1224  -36.2737   24.6062 H   0  0  0  0  0  0
  -27.2346  -37.1185   25.8822 H   0  0  0  0  0  0
  -20.9272  -29.8813   21.6998 H   0  0  0  0  0  0
  -26.0155  -38.2839   24.1510 H   0  0  0  0  0  0
  -31.2576  -21.9163   20.2991 H   0  0  0  0  0  0
  -31.3642  -19.5810   21.0428 H   0  0  0  0  0  0
  -27.5865  -18.7989   19.1395 H   0  0  0  0  0  0
  -26.3219  -20.4697   18.1597 H   0  0  0  0  0  0
  -27.4099  -21.3158   17.0643 H   0  0  0  0  0  0
  -26.6550  -22.1766   18.4222 H   0  0  0  0  0  0
  -29.0009  -25.7025   16.8663 H   0  0  0  0  0  0
  -28.2342  -27.1519   17.4631 H   0  0  0  0  0  0
  -27.3781  -25.6031   17.4717 H   0  0  0  0  0  0
  -30.9490  -25.7220   18.2140 H   0  0  0  0  0  0
  -30.9178  -25.8794   19.9636 H   0  0  0  0  0  0
  -30.5360  -27.2561   18.9380 H   0  0  0  0  0  0
  -29.0851  -24.2237   20.5755 H   0  0  0  0  0  0
  -27.6443  -24.0911   19.6338 H   0  0  0  0  0  0
  -28.9876  -15.5171   21.4606 H   0  0  0  0  0  0
  -30.3532  -15.3319   22.5184 H   0  0  0  0  0  0
  -31.4289  -17.1250   20.6755 H   0  0  0  0  0  0
  -30.5587  -17.5791   22.1268 H   0  0  0  0  0  0
  -30.2345  -22.4345   17.2450 H   0  0  0  0  0  0
  1 25  1  0  0  0
  1 30  2  0  0  0
  1 82  1  0  0  0
  2  3  1  0  0  0
  2 25  1  0  0  0
  2 87  1  0  0  0
  2 88  1  0  0  0
  3  4  1  0  0  0
  3 89  1  0  0  0
  3 90  1  0  0  0
  4  5  1  0  0  0
  4 91  1  0  0  0
  4 92  1  0  0  0
  5  6  1  0  0  0
  5 26  1  0  0  0
  5 93  1  0  0  0
  6 25  1  0  0  0
  6 94  1  0  0  0
  6 95  1  0  0  0
  7  8  2  0  0  0
  7 26  1  0  0  0
  7 29  1  0  0  0
  8  9  1  0  0  0
  8 22  1  0  0  0
  9 10  1  0  0  0
  9 27  2  0  0  0
 10 11  2  0  0  0
 10 15  1  0  0  0
 11 12  1  0  0  0
 11 96  1  0  0  0
 12 13  2  0  0  0
 12 97  1  0  0  0
 13 14  1  0  0  0
 13 31  1  0  0  0
 14 15  2  0  0  0
 14 98  1  0  0  0
 15 99  1  0  0  0
 16 17  2  0  0  0
 16 21  1  0  0  0
 16 31  1  0  0  0
 17 18  1  0  0  0
 17100  1  0  0  0
 18 19  2  0  0  0
 18101  1  0  0  0
 19 20  1  0  0  0
 19 24  1  0  0  0
 20 21  2  0  0  0
 20102  1  0  0  0
 21 23  1  0  0  0
 22 28  1  0  0  0
 22 32  2  0  0  0
 26 27  1  0  0  0
 28103  1  0  0  0
 28104  1  0  0  0
 29105  1  0  0  0
 29106  1  0  0  0
 33 34  1  0  0  0
 33 66  1  0  0  0
 33 70  2  0  0  0
 34 36  1  0  0  0
 34 59  1  0  0  0
 34107  1  0  0  0
 35 44  2  0  0  0
 35 45  1  0  0  0
 35 68  1  0  0  0
 36 56  1  0  0  0
 36108  1  0  0  0
 37 39  1  0  0  0
 37 47  1  0  0  0
 37 66  1  0  0  0
 37109  1  0  0  0
 38 43  2  0  0  0
 38 46  1  0  0  0
 38 47  1  0  0  0
 39 64  1  0  0  0
 39 67  2  0  0  0
 40 52  1  0  0  0
 40 53  2  0  0  0
 40 58  1  0  0  0
 41110  1  0  0  0
 41111  1  0  0  0
 41112  1  0  0  0
 41 48  1  0  0  0
 42 43  1  0  0  0
 42 66  1  0  0  0
 42113  1  0  0  0
 42114  1  0  0  0
 43 44  1  0  0  0
 44115  1  0  0  0
 45 46  2  0  0  0
 45116  1  0  0  0
 46117  1  0  0  0
 47118  1  0  0  0
 47119  1  0  0  0
 48 56  1  0  0  0
 48 65  1  0  0  0
 48120  1  0  0  0
 49 50  1  0  0  0
 49 53  1  0  0  0
 49 64  1  0  0  0
 49121  1  0  0  0
 50 51  1  0  0  0
 50122  1  0  0  0
 50123  1  0  0  0
 51 52  1  0  0  0
 51124  1  0  0  0
 51125  1  0  0  0
 52126  1  0  0  0
 52127  1  0  0  0
 53 54  1  0  0  0
 54 55  2  0  0  0
 54128  1  0  0  0
 55 57  1  0  0  0
 55129  1  0  0  0
 56 69  2  0  0  0
 57 58  2  0  0  0
 57130  1  0  0  0
 58131  1  0  0  0
 59 60  1  0  0  0
 59 61  1  0  0  0
 59 62  1  0  0  0
 60132  1  0  0  0
 60133  1  0  0  0
 60134  1  0  0  0
 61135  1  0  0  0
 61136  1  0  0  0
 61137  1  0  0  0
 62138  1  0  0  0
 62139  1  0  0  0
 62140  1  0  0  0
 63 65  1  0  0  0
 63141  1  0  0  0
 63142  1  0  0  0
 63143  1  0  0  0
 64144  1  0  0  0
 65145  1  0  0  0
 68 84  1  0  0  0
 71 72  2  0  0  0
 71 74  1  0  0  0
 71146  1  0  0  0
 72 76  1  0  0  0
 72147  1  0  0  0
 73 75  1  0  0  0
 73 76  2  0  0  0
 73148  1  0  0  0
 74 75  2  0  0  0
 74 77  1  0  0  0
 75 78  1  0  0  0
 76 86  1  0  0  0
 77 81  1  0  0  0
 77 85  2  0  0  0
 78149  1  0  0  0
 78150  1  0  0  0
 78151  1  0  0  0
 79152  1  0  0  0
 79153  1  0  0  0
 79154  1  0  0  0
 79 84  1  0  0  0
 80 84  1  0  0  0
 80155  1  0  0  0
 80156  1  0  0  0
 80157  1  0  0  0
 81 84  1  0  0  0
 81158  1  0  0  0
 81159  1  0  0  0
 82 83  1  0  0  0
 82160  1  0  0  0
 82161  1  0  0  0
 83 86  1  0  0  0
 83162  1  0  0  0
 83163  1  0  0  0
 85164  1  0  0  0
M  ISO  4   1 100  68 101  82 100  84 101
M  END
> <chiral flag>
0

> <version>
0

> <s_m_source_file>
/data/baiqing/PycharmProjects/Reinvent-master-3.2/result/LINK_invent/BTK/process_docking_weight1_custom_product_contain_oxygen_bond_distance_aromatic_linkinvent_7_9_3/rearranged_h_0130.sdf

> <i_m_source_file_index>
84

> <r_mmod_Potential_Energy-OPLS-2005>
45.7406959533691

> <r_mmod_Stretch_Energy-OPLS-2005>
49.3363647460938

> <r_mmod_Bend_Energy-OPLS-2005>
146.245147705078

> <r_mmod_Torsional_Energy-OPLS-2005>
197.008285522461

> <r_mmod_Improper_Torsional_Energy-OPLS-2005>
2.55391693115234

> <r_mmod_Van_der_Waal_Energy-OPLS-2005>
155.334487915039

> <r_mmod_Electrostatic_Energy-OPLS-2005>
-323.435668945312

> <r_mmod_Solvation_Energy-OPLS-2005>
-193.26872253418

> <b_mmod_Minimization_Converged-OPLS-2005>
0

> <r_mmod_RMS_Derivative-OPLS-2005>
4.92116069793701

$$$$
84
                    3D
 Structure written by MMmdl.
165173  0  0  1  0            999 V2000
  -30.7350  -14.4811   20.5435 C   0  0  0  0  0  0
  -30.4042  -12.3033   19.4361 C   0  0  0  0  0  0
  -29.4889  -12.4978   18.2118 C   0  0  0  0  0  0
  -28.0098  -12.3680   18.6217 C   0  0  0  0  0  0
  -27.6559  -13.2189   19.8722 C   0  0  2  0  0  0
  -28.7006  -13.0408   20.9983 C   0  0  0  0  0  0
  -25.2546  -13.8192   20.5691 C   0  0  0  0  0  0
  -24.1814  -13.0446   20.9179 C   0  0  0  0  0  0
  -24.6393  -11.6920   20.8736 C   0  0  0  0  0  0
  -23.9069  -10.4294   21.0404 C   0  0  0  0  0  0
  -24.3622   -9.4209   21.9184 C   0  0  0  0  0  0
  -23.6291   -8.2247   22.0761 C   0  0  0  0  0  0
  -22.4277   -8.0278   21.3548 C   0  0  0  0  0  0
  -21.9917   -9.0256   20.4651 C   0  0  0  0  0  0
  -22.7243  -10.2135   20.3056 C   0  0  0  0  0  0
  -21.6853   -6.0728   22.5276 C   0  0  0  0  0  0
  -21.4015   -6.5637   23.8206 C   0  0  0  0  0  0
  -21.3661   -5.6796   24.9172 C   0  0  0  0  0  0
  -21.6042   -4.3057   24.7223 C   0  0  0  0  0  0
  -21.8822   -3.8141   23.4350 C   0  0  0  0  0  0
  -21.9190   -4.6956   22.3400 C   0  0  0  0  0  0
  -22.7837  -13.5231   21.1838 C   0  0  0  0  0  0
  -22.1655   -4.2139   21.0980 F   0  0  0  0  0  0
  -21.5634   -3.4545   25.7740 F   0  0  0  0  0  0
  -30.0279  -13.3219   20.4323 N   0  0  0  0  0  0
  -26.2996  -12.9389   20.3376 N   0  0  0  0  0  0
  -25.9330  -11.6537   20.5797 N   0  0  0  0  0  0
  -22.0487  -12.8210   22.0394 N   0  0  0  0  0  0
  -25.4243  -15.1911   20.4100 N   0  0  0  0  0  0
  -31.8662  -14.5862   20.0644 O   0  0  0  0  0  0
  -21.6637   -6.8876   21.4241 O   0  0  0  0  0  0
  -22.3509  -14.5531   20.6682 O   0  0  0  0  0  0
  -24.6172  -31.8679   23.2103 C   0  0  0  0  0  0
  -25.9056  -32.4812   23.8405 C   0  0  1  0  0  0
  -27.2241  -27.4195   20.0980 C   0  0  0  0  0  0
  -25.5911  -33.8619   24.2325 N   0  0  0  0  0  0
  -23.4047  -30.4923   21.5518 C   0  0  2  0  0  0
  -24.8493  -28.9563   20.1134 C   0  0  0  0  0  0
  -22.7413  -29.4679   22.5006 C   0  0  0  0  0  0
  -18.0276  -28.1379   22.8503 C   0  0  0  0  0  0
  -24.1493  -36.7310   23.2642 C   0  0  0  0  0  0
  -25.9354  -30.8280   21.3650 C   0  0  0  0  0  0
  -26.0125  -29.4638   20.7067 C   0  0  0  0  0  0
  -27.2083  -28.7050   20.6906 C   0  0  0  0  0  0
  -26.0476  -26.9336   19.4904 C   0  0  0  0  0  0
  -24.8625  -27.6920   19.4993 C   0  0  0  0  0  0
  -23.6125  -29.8253   20.1667 C   0  0  0  0  0  0
  -25.4114  -36.3108   24.0337 C   0  0  1  0  0  0
  -20.5862  -28.3687   23.1308 C   0  0  2  0  0  0
  -20.6768  -26.9423   22.5420 C   0  0  0  0  0  0
  -19.5751  -26.6391   21.5217 C   0  0  0  0  0  0
  -18.1926  -26.7925   22.1622 C   0  0  0  0  0  0
  -19.1526  -28.8845   23.2899 C   0  0  0  0  0  0
  -18.9452  -30.1443   23.8919 C   0  0  0  0  0  0
  -17.6458  -30.6590   24.0564 C   0  0  0  0  0  0
  -25.9045  -34.9470   23.5126 C   0  0  0  0  0  0
  -16.5350  -29.9093   23.6332 C   0  0  0  0  0  0
  -16.7263  -28.6502   23.0367 C   0  0  0  0  0  0
  -26.4469  -31.6585   25.0734 C   0  0  0  0  0  0
  -25.3732  -31.3662   26.1475 C   0  0  0  0  0  0
  -27.0297  -30.3028   24.6115 C   0  0  0  0  0  0
  -27.6080  -32.4282   25.7468 C   0  0  0  0  0  0
  -27.5578  -37.1815   24.8475 C   0  0  0  0  0  0
  -21.4144  -29.3051   22.3712 N   0  0  0  0  0  0
  -26.4299  -37.3795   23.9405 N   0  0  0  0  0  0
  -24.6702  -31.0770   22.1002 N   0  0  0  0  0  0
  -23.4168  -28.8228   23.3072 O   0  0  0  0  0  0
  -28.3625  -26.6379   20.1150 O   0  0  0  0  0  0
  -26.5614  -34.8915   22.4693 O   0  0  0  0  0  0
  -23.5368  -32.1453   23.7499 O   0  0  0  0  0  0
  -29.7544  -18.0347   20.9764 C   0  0  0  0  0  0
  -31.9631  -17.1456   21.4102 C   0  0  0  0  0  0
  -30.2488  -19.3719   21.0283 C   0  0  0  0  0  0
  -32.4939  -18.4459   21.4484 C   0  0  0  0  0  0
  -31.6511  -19.5736   21.2376 C   0  0  0  0  0  0
  -30.6013  -16.9060   21.1345 C   0  0  0  0  0  0
  -29.2479  -20.4801   20.8916 C   0  0  0  0  0  0
  -29.3782  -21.6969   20.3002 C   0  0  0  0  0  0
  -28.3221  -22.7421   20.3567 C   0  0  0  0  0  0
  -34.2668  -18.5364   23.2629 C   0  0  0  0  0  0
  -32.9225  -21.3946   19.9717 C   0  0  0  0  0  0
  -33.9855  -18.5625   21.7558 C   0  0  0  0  0  0
  -32.2718  -20.9710   21.3032 C   0  0  0  0  0  0
  -28.6121  -24.1447   19.7667 C   0  0  0  0  0  0
  -28.1935  -25.3210   20.6943 C   0  0  0  0  0  0
  -30.0881  -15.5598   21.0497 N   0  0  0  0  0  0
  -27.2147  -22.5288   20.8587 O   0  0  0  0  0  0
  -31.4529  -12.3624   19.1380 H   0  0  0  0  0  0
  -30.2750  -11.3048   19.8571 H   0  0  0  0  0  0
  -29.7287  -11.7671   17.4379 H   0  0  0  0  0  0
  -29.6638  -13.4797   17.7691 H   0  0  0  0  0  0
  -27.8134  -11.3143   18.8225 H   0  0  0  0  0  0
  -27.3643  -12.6416   17.7861 H   0  0  0  0  0  0
  -27.6901  -14.2618   19.5571 H   0  0  0  0  0  0
  -28.6750  -12.0208   21.3841 H   0  0  0  0  0  0
  -28.4742  -13.6856   21.8486 H   0  0  0  0  0  0
  -25.2777   -9.5669   22.4750 H   0  0  0  0  0  0
  -23.9990   -7.4641   22.7493 H   0  0  0  0  0  0
  -21.0846   -8.8781   19.8962 H   0  0  0  0  0  0
  -22.3712  -10.9671   19.6155 H   0  0  0  0  0  0
  -21.2011   -7.6145   23.9703 H   0  0  0  0  0  0
  -21.1483   -6.0530   25.9072 H   0  0  0  0  0  0
  -22.0600   -2.7603   23.2858 H   0  0  0  0  0  0
  -22.4121  -11.9867   22.4758 H   0  0  0  0  0  0
  -21.1108  -13.1228   22.2628 H   0  0  0  0  0  0
  -24.6605  -15.8481   20.5253 H   0  0  0  0  0  0
  -26.2754  -15.6310   20.0840 H   0  0  0  0  0  0
  -26.7130  -32.5512   23.1174 H   0  0  0  0  0  0
  -25.0060  -33.9791   25.0468 H   0  0  0  0  0  0
  -22.6956  -31.3107   21.4130 H   0  0  0  0  0  0
  -23.3763  -35.9640   23.3320 H   0  0  0  0  0  0
  -24.3579  -36.8935   22.2055 H   0  0  0  0  0  0
  -23.7241  -37.6513   23.6656 H   0  0  0  0  0  0
  -26.0535  -31.5960   20.5997 H   0  0  0  0  0  0
  -26.8212  -30.8774   21.9865 H   0  0  0  0  0  0
  -28.1054  -29.0888   21.1556 H   0  0  0  0  0  0
  -26.0461  -25.9626   19.0150 H   0  0  0  0  0  0
  -23.9698  -27.2953   19.0359 H   0  0  0  0  0  0
  -23.7189  -30.6016   19.4075 H   0  0  0  0  0  0
  -22.7345  -29.2481   19.8726 H   0  0  0  0  0  0
  -25.1291  -36.1979   25.0833 H   0  0  0  0  0  0
  -20.9951  -28.3263   24.1424 H   0  0  0  0  0  0
  -20.5697  -26.2301   23.3614 H   0  0  0  0  0  0
  -21.6632  -26.7468   22.1208 H   0  0  0  0  0  0
  -19.6929  -25.6304   21.1242 H   0  0  0  0  0  0
  -19.6686  -27.3203   20.6746 H   0  0  0  0  0  0
  -17.4200  -26.6703   21.4014 H   0  0  0  0  0  0
  -18.0306  -26.0041   22.8989 H   0  0  0  0  0  0
  -19.7928  -30.7250   24.2315 H   0  0  0  0  0  0
  -17.5015  -31.6269   24.5156 H   0  0  0  0  0  0
  -15.5353  -30.3007   23.7634 H   0  0  0  0  0  0
  -15.8662  -28.0817   22.7099 H   0  0  0  0  0  0
  -24.5931  -30.6985   25.7788 H   0  0  0  0  0  0
  -24.8875  -32.2789   26.4931 H   0  0  0  0  0  0
  -25.8085  -30.8818   27.0225 H   0  0  0  0  0  0
  -26.2836  -29.6772   24.1193 H   0  0  0  0  0  0
  -27.4101  -29.7272   25.4567 H   0  0  0  0  0  0
  -27.8659  -30.4355   23.9245 H   0  0  0  0  0  0
  -27.2767  -33.3618   26.2027 H   0  0  0  0  0  0
  -28.3874  -32.6776   25.0249 H   0  0  0  0  0  0
  -28.0747  -31.8391   26.5378 H   0  0  0  0  0  0
  -28.2614  -38.0089   24.7486 H   0  0  0  0  0  0
  -28.1052  -36.2621   24.6346 H   0  0  0  0  0  0
  -27.2288  -37.1525   25.8877 H   0  0  0  0  0  0
  -20.9315  -29.8736   21.6895 H   0  0  0  0  0  0
  -26.0194  -38.2883   24.1384 H   0  0  0  0  0  0
  -28.6990  -17.8749   20.8033 H   0  0  0  0  0  0
  -32.6370  -16.3212   21.5939 H   0  0  0  0  0  0
  -28.3073  -20.2760   21.3843 H   0  0  0  0  0  0
  -30.2750  -21.9628   19.7703 H   0  0  0  0  0  0
  -35.3335  -18.6457   23.4582 H   0  0  0  0  0  0
  -33.9422  -17.5970   23.7122 H   0  0  0  0  0  0
  -33.7517  -19.3495   23.7750 H   0  0  0  0  0  0
  -33.2931  -22.4181   20.0306 H   0  0  0  0  0  0
  -32.2268  -21.3406   19.1351 H   0  0  0  0  0  0
  -33.7665  -20.7597   19.7072 H   0  0  0  0  0  0
  -34.4307  -19.4531   21.3199 H   0  0  0  0  0  0
  -34.5094  -17.7346   21.2752 H   0  0  0  0  0  0
  -33.0166  -21.0034   22.0978 H   0  0  0  0  0  0
  -31.5474  -21.7100   21.6337 H   0  0  0  0  0  0
  -28.0781  -24.2153   18.8196 H   0  0  0  0  0  0
  -29.6732  -24.2221   19.5320 H   0  0  0  0  0  0
  -28.8155  -25.2908   21.5892 H   0  0  0  0  0  0
  -27.1766  -25.1655   21.0611 H   0  0  0  0  0  0
  -29.1169  -15.4211   21.2852 H   0  0  0  0  0  0
  1 25  1  0  0  0
  1 30  2  0  0  0
  1 86  1  0  0  0
  2  3  1  0  0  0
  2 25  1  0  0  0
  2 88  1  0  0  0
  2 89  1  0  0  0
  3  4  1  0  0  0
  3 90  1  0  0  0
  3 91  1  0  0  0
  4  5  1  0  0  0
  4 92  1  0  0  0
  4 93  1  0  0  0
  5  6  1  0  0  0
  5 26  1  0  0  0
  5 94  1  0  0  0
  6 25  1  0  0  0
  6 95  1  0  0  0
  6 96  1  0  0  0
  7  8  2  0  0  0
  7 26  1  0  0  0
  7 29  1  0  0  0
  8  9  1  0  0  0
  8 22  1  0  0  0
  9 10  1  0  0  0
  9 27  2  0  0  0
 10 11  2  0  0  0
 10 15  1  0  0  0
 11 12  1  0  0  0
 11 97  1  0  0  0
 12 13  2  0  0  0
 12 98  1  0  0  0
 13 14  1  0  0  0
 13 31  1  0  0  0
 14 15  2  0  0  0
 14 99  1  0  0  0
 15100  1  0  0  0
 16 17  2  0  0  0
 16 21  1  0  0  0
 16 31  1  0  0  0
 17 18  1  0  0  0
 17101  1  0  0  0
 18 19  2  0  0  0
 18102  1  0  0  0
 19 20  1  0  0  0
 19 24  1  0  0  0
 20 21  2  0  0  0
 20103  1  0  0  0
 21 23  1  0  0  0
 22 28  1  0  0  0
 22 32  2  0  0  0
 26 27  1  0  0  0
 28104  1  0  0  0
 28105  1  0  0  0
 29106  1  0  0  0
 29107  1  0  0  0
 33 34  1  0  0  0
 33 66  1  0  0  0
 33 70  2  0  0  0
 34 36  1  0  0  0
 34 59  1  0  0  0
 34108  1  0  0  0
 35 44  2  0  0  0
 35 45  1  0  0  0
 35 68  1  0  0  0
 36 56  1  0  0  0
 36109  1  0  0  0
 37 39  1  0  0  0
 37 47  1  0  0  0
 37 66  1  0  0  0
 37110  1  0  0  0
 38 43  2  0  0  0
 38 46  1  0  0  0
 38 47  1  0  0  0
 39 64  1  0  0  0
 39 67  2  0  0  0
 40 52  1  0  0  0
 40 53  2  0  0  0
 40 58  1  0  0  0
 41111  1  0  0  0
 41112  1  0  0  0
 41113  1  0  0  0
 41 48  1  0  0  0
 42 43  1  0  0  0
 42 66  1  0  0  0
 42114  1  0  0  0
 42115  1  0  0  0
 43 44  1  0  0  0
 44116  1  0  0  0
 45 46  2  0  0  0
 45117  1  0  0  0
 46118  1  0  0  0
 47119  1  0  0  0
 47120  1  0  0  0
 48 56  1  0  0  0
 48 65  1  0  0  0
 48121  1  0  0  0
 49 50  1  0  0  0
 49 53  1  0  0  0
 49 64  1  0  0  0
 49122  1  0  0  0
 50 51  1  0  0  0
 50123  1  0  0  0
 50124  1  0  0  0
 51 52  1  0  0  0
 51125  1  0  0  0
 51126  1  0  0  0
 52127  1  0  0  0
 52128  1  0  0  0
 53 54  1  0  0  0
 54 55  2  0  0  0
 54129  1  0  0  0
 55 57  1  0  0  0
 55130  1  0  0  0
 56 69  2  0  0  0
 57 58  2  0  0  0
 57131  1  0  0  0
 58132  1  0  0  0
 59 60  1  0  0  0
 59 61  1  0  0  0
 59 62  1  0  0  0
 60133  1  0  0  0
 60134  1  0  0  0
 60135  1  0  0  0
 61136  1  0  0  0
 61137  1  0  0  0
 61138  1  0  0  0
 62139  1  0  0  0
 62140  1  0  0  0
 62141  1  0  0  0
 63 65  1  0  0  0
 63142  1  0  0  0
 63143  1  0  0  0
 63144  1  0  0  0
 64145  1  0  0  0
 65146  1  0  0  0
 68 85  1  0  0  0
 71 73  2  0  0  0
 71 76  1  0  0  0
 71147  1  0  0  0
 72 74  1  0  0  0
 72 76  2  0  0  0
 72148  1  0  0  0
 73 75  1  0  0  0
 73 77  1  0  0  0
 74 75  2  0  0  0
 74 82  1  0  0  0
 75 83  1  0  0  0
 76 86  1  0  0  0
 77 78  2  0  0  0
 77149  1  0  0  0
 78 79  1  0  0  0
 78150  1  0  0  0
 79 84  1  0  0  0
 79 87  2  0  0  0
 80 82  1  0  0  0
 80151  1  0  0  0
 80152  1  0  0  0
 80153  1  0  0  0
 81 83  1  0  0  0
 81154  1  0  0  0
 81155  1  0  0  0
 81156  1  0  0  0
 82157  1  0  0  0
 82158  1  0  0  0
 83159  1  0  0  0
 83160  1  0  0  0
 84 85  1  0  0  0
 84161  1  0  0  0
 84162  1  0  0  0
 85163  1  0  0  0
 85164  1  0  0  0
 86165  1  0  0  0
M  ISO  4   1 100  68 101  85 101  86 100
M  END
> <chiral flag>
0

> <version>
0

> <s_m_source_file>
/data/baiqing/PycharmProjects/Reinvent-master-3.2/result/LINK_invent/BTK/process_docking_weight1_custom_product_contain_oxygen_bond_distance_aromatic_linkinvent_7_9_3/rearranged_h_0130.sdf

> <i_m_source_file_index>
85

> <r_mmod_Potential_Energy-OPLS-2005>
-32.6702308654785

> <r_mmod_Stretch_Energy-OPLS-2005>
47.4712448120117

> <r_mmod_Bend_Energy-OPLS-2005>
104.097633361816

> <r_mmod_Torsional_Energy-OPLS-2005>
247.172210693359

> <r_mmod_Improper_Torsional_Energy-OPLS-2005>
4.04543256759644

> <r_mmod_Van_der_Waal_Energy-OPLS-2005>
168.3857421875

> <r_mmod_Electrostatic_Energy-OPLS-2005>
-407.416473388672

> <r_mmod_Solvation_Energy-OPLS-2005>
-213.786254882812

> <b_mmod_Minimization_Converged-OPLS-2005>
0

> <r_mmod_RMS_Derivative-OPLS-2005>
1.5916223526001

$$$$
85
                    3D
 Structure written by MMmdl.
155163  0  0  1  0            999 V2000
  -30.6899  -14.5801   20.4820 C   0  0  0  0  0  0
  -30.4201  -12.3477   19.4590 C   0  0  0  0  0  0
  -29.5032  -12.4894   18.2246 C   0  0  0  0  0  0
  -28.0239  -12.3418   18.6308 C   0  0  0  0  0  0
  -27.6503  -13.2192   19.8552 C   0  0  2  0  0  0
  -28.6933  -13.0896   20.9873 C   0  0  0  0  0  0
  -25.2559  -13.8184   20.5682 C   0  0  0  0  0  0
  -24.1829  -13.0447   20.9192 C   0  0  0  0  0  0
  -24.6399  -11.6919   20.8735 C   0  0  0  0  0  0
  -23.9065  -10.4304   21.0401 C   0  0  0  0  0  0
  -24.3621   -9.4223   21.9180 C   0  0  0  0  0  0
  -23.6302   -8.2256   22.0753 C   0  0  0  0  0  0
  -22.4280   -8.0292   21.3547 C   0  0  0  0  0  0
  -21.9911   -9.0262   20.4644 C   0  0  0  0  0  0
  -22.7235  -10.2146   20.3052 C   0  0  0  0  0  0
  -21.6858   -6.0747   22.5282 C   0  0  0  0  0  0
  -21.4016   -6.5648   23.8216 C   0  0  0  0  0  0
  -21.3657   -5.6798   24.9176 C   0  0  0  0  0  0
  -21.6042   -4.3060   24.7223 C   0  0  0  0  0  0
  -21.8820   -3.8156   23.4342 C   0  0  0  0  0  0
  -21.9196   -4.6976   22.3402 C   0  0  0  0  0  0
  -22.7852  -13.5243   21.1860 C   0  0  0  0  0  0
  -22.1666   -4.2163   21.0978 F   0  0  0  0  0  0
  -21.5627   -3.4539   25.7733 F   0  0  0  0  0  0
  -30.0182  -13.3881   20.4263 N   0  0  0  0  0  0
  -26.2979  -12.9369   20.3289 N   0  0  0  0  0  0
  -25.9325  -11.6522   20.5743 N   0  0  0  0  0  0
  -22.0496  -12.8228   22.0415 N   0  0  0  0  0  0
  -25.4275  -15.1902   20.4100 N   0  0  0  0  0  0
  -31.8762  -14.6390   20.1499 O   0  0  0  0  0  0
  -21.6644   -6.8888   21.4243 O   0  0  0  0  0  0
  -22.3532  -14.5551   20.6716 O   0  0  0  0  0  0
  -24.6235  -31.8653   23.2095 C   0  0  0  0  0  0
  -25.9100  -32.4807   23.8404 C   0  0  1  0  0  0
  -27.2102  -27.3546   20.0984 C   0  0  0  0  0  0
  -25.5937  -33.8610   24.2322 N   0  0  0  0  0  0
  -23.4135  -30.4959   21.5522 C   0  0  2  0  0  0
  -24.8551  -28.9671   20.1094 C   0  0  0  0  0  0
  -22.7465  -29.4672   22.4953 C   0  0  0  0  0  0
  -18.0309  -28.1369   22.8484 C   0  0  0  0  0  0
  -24.1488  -36.7307   23.2638 C   0  0  0  0  0  0
  -25.9554  -30.8053   21.3792 C   0  0  0  0  0  0
  -26.0261  -29.4394   20.7156 C   0  0  0  0  0  0
  -27.2074  -28.6432   20.7073 C   0  0  0  0  0  0
  -26.0160  -26.9457   19.4515 C   0  0  0  0  0  0
  -24.8499  -27.7225   19.4710 C   0  0  0  0  0  0
  -23.6237  -29.8430   20.1634 C   0  0  0  0  0  0
  -25.4110  -36.3100   24.0333 C   0  0  1  0  0  0
  -20.5901  -28.3691   23.1288 C   0  0  2  0  0  0
  -20.6806  -26.9426   22.5397 C   0  0  0  0  0  0
  -19.5784  -26.6403   21.5199 C   0  0  0  0  0  0
  -18.1969  -26.7913   22.1622 C   0  0  0  0  0  0
  -19.1552  -28.8845   23.2882 C   0  0  0  0  0  0
  -18.9467  -30.1446   23.8898 C   0  0  0  0  0  0
  -17.6465  -30.6571   24.0559 C   0  0  0  0  0  0
  -25.9046  -34.9468   23.5120 C   0  0  0  0  0  0
  -16.5367  -29.9063   23.6317 C   0  0  0  0  0  0
  -16.7295  -28.6480   23.0344 C   0  0  0  0  0  0
  -26.4494  -31.6597   25.0756 C   0  0  0  0  0  0
  -25.3738  -31.3721   26.1487 C   0  0  0  0  0  0
  -27.0330  -30.3024   24.6188 C   0  0  0  0  0  0
  -27.6060  -32.4326   25.7523 C   0  0  0  0  0  0
  -27.5578  -37.1813   24.8467 C   0  0  0  0  0  0
  -21.4181  -29.3067   22.3699 N   0  0  0  0  0  0
  -26.4294  -37.3786   23.9403 N   0  0  0  0  0  0
  -24.6828  -31.0705   22.1037 N   0  0  0  0  0  0
  -23.4211  -28.8193   23.2999 O   0  0  0  0  0  0
  -28.3142  -26.4920   20.1630 O   0  0  0  0  0  0
  -26.5607  -34.8926   22.4684 O   0  0  0  0  0  0
  -23.5405  -32.1443   23.7438 O   0  0  0  0  0  0
  -30.6936  -19.5778   20.6673 C   0  0  0  0  0  0
  -30.1642  -20.8961   20.5989 C   0  0  0  0  0  0
  -28.4764  -18.6487   20.5256 C   0  0  0  0  0  0
  -29.8675  -18.4241   20.6114 C   0  0  0  0  0  0
  -28.7737  -21.1155   20.4670 C   0  0  0  0  0  0
  -27.9361  -19.9604   20.4409 C   0  0  0  0  0  0
  -30.4793  -17.0502   20.5919 C   0  0  0  0  0  0
  -29.8957  -15.8167   20.6901 C   0  0  0  0  0  0
  -26.4280  -20.0976   20.2921 C   0  0  0  0  0  0
  -28.1345  -22.5278   20.3116 C   0  0  0  0  0  0
  -28.9407  -23.8804   20.3945 C   0  0  0  0  0  0
  -27.9946  -25.0690   19.9832 C   0  0  0  0  0  0
  -31.4672  -12.4266   19.1628 H   0  0  0  0  0  0
  -30.3143  -11.3575   19.9053 H   0  0  0  0  0  0
  -29.7601  -11.7389   17.4756 H   0  0  0  0  0  0
  -29.6628  -13.4607   17.7534 H   0  0  0  0  0  0
  -27.8517  -11.2898   18.8630 H   0  0  0  0  0  0
  -27.3741  -12.5750   17.7863 H   0  0  0  0  0  0
  -27.6644  -14.2505   19.5036 H   0  0  0  0  0  0
  -28.6851  -12.0795   21.3992 H   0  0  0  0  0  0
  -28.4533  -13.7509   21.8207 H   0  0  0  0  0  0
  -25.2768   -9.5708   22.4747 H   0  0  0  0  0  0
  -24.0022   -7.4647   22.7466 H   0  0  0  0  0  0
  -21.0847   -8.8774   19.8944 H   0  0  0  0  0  0
  -22.3690  -10.9685   19.6160 H   0  0  0  0  0  0
  -21.2006   -7.6153   23.9725 H   0  0  0  0  0  0
  -21.1473   -6.0523   25.9079 H   0  0  0  0  0  0
  -22.0598   -2.7618   23.2835 H   0  0  0  0  0  0
  -22.4117  -11.9890   22.4798 H   0  0  0  0  0  0
  -21.1110  -13.1244   22.2621 H   0  0  0  0  0  0
  -24.6616  -15.8460   20.5193 H   0  0  0  0  0  0
  -26.2798  -15.6263   20.0839 H   0  0  0  0  0  0
  -26.7172  -32.5479   23.1158 H   0  0  0  0  0  0
  -25.0086  -33.9769   25.0466 H   0  0  0  0  0  0
  -22.7047  -31.3155   21.4172 H   0  0  0  0  0  0
  -23.3745  -35.9647   23.3314 H   0  0  0  0  0  0
  -24.3579  -36.8910   22.2050 H   0  0  0  0  0  0
  -23.7246  -37.6520   23.6644 H   0  0  0  0  0  0
  -26.0873  -31.5722   20.6148 H   0  0  0  0  0  0
  -26.8368  -30.8464   22.0076 H   0  0  0  0  0  0
  -28.1019  -28.9966   21.2002 H   0  0  0  0  0  0
  -25.9332  -26.0064   18.9271 H   0  0  0  0  0  0
  -23.9550  -27.3570   18.9865 H   0  0  0  0  0  0
  -23.7413  -30.6251   19.4125 H   0  0  0  0  0  0
  -22.7429  -29.2743   19.8590 H   0  0  0  0  0  0
  -25.1285  -36.1966   25.0825 H   0  0  0  0  0  0
  -20.9994  -28.3254   24.1411 H   0  0  0  0  0  0
  -20.5724  -26.2303   23.3589 H   0  0  0  0  0  0
  -21.6676  -26.7475   22.1189 H   0  0  0  0  0  0
  -19.6970  -25.6327   21.1204 H   0  0  0  0  0  0
  -19.6705  -27.3240   20.6749 H   0  0  0  0  0  0
  -17.4234  -26.6640   21.4030 H   0  0  0  0  0  0
  -18.0405  -26.0047   22.9018 H   0  0  0  0  0  0
  -19.7937  -30.7266   24.2274 H   0  0  0  0  0  0
  -17.5012  -31.6249   24.5161 H   0  0  0  0  0  0
  -15.5366  -30.2964   23.7629 H   0  0  0  0  0  0
  -15.8700  -28.0801   22.7057 H   0  0  0  0  0  0
  -24.5913  -30.7068   25.7821 H   0  0  0  0  0  0
  -24.8934  -32.2883   26.4929 H   0  0  0  0  0  0
  -25.8077  -30.8891   27.0251 H   0  0  0  0  0  0
  -26.2900  -29.6787   24.1205 H   0  0  0  0  0  0
  -27.4029  -29.7260   25.4678 H   0  0  0  0  0  0
  -27.8772  -30.4319   23.9410 H   0  0  0  0  0  0
  -27.2671  -33.3617   26.2119 H   0  0  0  0  0  0
  -28.3863  -32.6901   25.0350 H   0  0  0  0  0  0
  -28.0740  -31.8443   26.5427 H   0  0  0  0  0  0
  -28.2607  -38.0100   24.7500 H   0  0  0  0  0  0
  -28.1063  -36.2631   24.6307 H   0  0  0  0  0  0
  -27.2300  -37.1485   25.8873 H   0  0  0  0  0  0
  -20.9340  -29.8813   21.6943 H   0  0  0  0  0  0
  -26.0181  -38.2866   24.1389 H   0  0  0  0  0  0
  -31.7653  -19.4566   20.7415 H   0  0  0  0  0  0
  -30.8427  -21.7374   20.6255 H   0  0  0  0  0  0
  -27.8100  -17.7989   20.4800 H   0  0  0  0  0  0
  -31.5482  -17.0720   20.4280 H   0  0  0  0  0  0
  -28.8363  -15.7575   20.8768 H   0  0  0  0  0  0
  -25.9405  -19.1239   20.2333 H   0  0  0  0  0  0
  -26.1749  -20.6406   19.3815 H   0  0  0  0  0  0
  -26.0005  -20.6266   21.1435 H   0  0  0  0  0  0
  -27.3384  -22.5897   21.0544 H   0  0  0  0  0  0
  -27.6300  -22.5149   19.3446 H   0  0  0  0  0  0
  -29.8031  -23.8523   19.7283 H   0  0  0  0  0  0
  -29.3198  -24.0253   21.4063 H   0  0  0  0  0  0
  -27.0693  -24.8787   20.5310 H   0  0  0  0  0  0
  -27.7740  -24.9214   18.9248 H   0  0  0  0  0  0
  1 25  1  0  0  0
  1 30  2  0  0  0
  1 78  1  0  0  0
  2  3  1  0  0  0
  2 25  1  0  0  0
  2 83  1  0  0  0
  2 84  1  0  0  0
  3  4  1  0  0  0
  3 85  1  0  0  0
  3 86  1  0  0  0
  4  5  1  0  0  0
  4 87  1  0  0  0
  4 88  1  0  0  0
  5  6  1  0  0  0
  5 26  1  0  0  0
  5 89  1  0  0  0
  6 25  1  0  0  0
  6 90  1  0  0  0
  6 91  1  0  0  0
  7  8  2  0  0  0
  7 26  1  0  0  0
  7 29  1  0  0  0
  8  9  1  0  0  0
  8 22  1  0  0  0
  9 10  1  0  0  0
  9 27  2  0  0  0
 10 11  2  0  0  0
 10 15  1  0  0  0
 11 12  1  0  0  0
 11 92  1  0  0  0
 12 13  2  0  0  0
 12 93  1  0  0  0
 13 14  1  0  0  0
 13 31  1  0  0  0
 14 15  2  0  0  0
 14 94  1  0  0  0
 15 95  1  0  0  0
 16 17  2  0  0  0
 16 21  1  0  0  0
 16 31  1  0  0  0
 17 18  1  0  0  0
 17 96  1  0  0  0
 18 19  2  0  0  0
 18 97  1  0  0  0
 19 20  1  0  0  0
 19 24  1  0  0  0
 20 21  2  0  0  0
 20 98  1  0  0  0
 21 23  1  0  0  0
 22 28  1  0  0  0
 22 32  2  0  0  0
 26 27  1  0  0  0
 28 99  1  0  0  0
 28100  1  0  0  0
 29101  1  0  0  0
 29102  1  0  0  0
 33 34  1  0  0  0
 33 66  1  0  0  0
 33 70  2  0  0  0
 34 36  1  0  0  0
 34 59  1  0  0  0
 34103  1  0  0  0
 35 44  2  0  0  0
 35 45  1  0  0  0
 35 68  1  0  0  0
 36 56  1  0  0  0
 36104  1  0  0  0
 37 39  1  0  0  0
 37 47  1  0  0  0
 37 66  1  0  0  0
 37105  1  0  0  0
 38 43  2  0  0  0
 38 46  1  0  0  0
 38 47  1  0  0  0
 39 64  1  0  0  0
 39 67  2  0  0  0
 40 52  1  0  0  0
 40 53  2  0  0  0
 40 58  1  0  0  0
 41106  1  0  0  0
 41107  1  0  0  0
 41108  1  0  0  0
 41 48  1  0  0  0
 42 43  1  0  0  0
 42 66  1  0  0  0
 42109  1  0  0  0
 42110  1  0  0  0
 43 44  1  0  0  0
 44111  1  0  0  0
 45 46  2  0  0  0
 45112  1  0  0  0
 46113  1  0  0  0
 47114  1  0  0  0
 47115  1  0  0  0
 48 56  1  0  0  0
 48 65  1  0  0  0
 48116  1  0  0  0
 49 50  1  0  0  0
 49 53  1  0  0  0
 49 64  1  0  0  0
 49117  1  0  0  0
 50 51  1  0  0  0
 50118  1  0  0  0
 50119  1  0  0  0
 51 52  1  0  0  0
 51120  1  0  0  0
 51121  1  0  0  0
 52122  1  0  0  0
 52123  1  0  0  0
 53 54  1  0  0  0
 54 55  2  0  0  0
 54124  1  0  0  0
 55 57  1  0  0  0
 55125  1  0  0  0
 56 69  2  0  0  0
 57 58  2  0  0  0
 57126  1  0  0  0
 58127  1  0  0  0
 59 60  1  0  0  0
 59 61  1  0  0  0
 59 62  1  0  0  0
 60128  1  0  0  0
 60129  1  0  0  0
 60130  1  0  0  0
 61131  1  0  0  0
 61132  1  0  0  0
 61133  1  0  0  0
 62134  1  0  0  0
 62135  1  0  0  0
 62136  1  0  0  0
 63 65  1  0  0  0
 63137  1  0  0  0
 63138  1  0  0  0
 63139  1  0  0  0
 64140  1  0  0  0
 65141  1  0  0  0
 68 82  1  0  0  0
 71 72  2  0  0  0
 71 74  1  0  0  0
 71142  1  0  0  0
 72 75  1  0  0  0
 72143  1  0  0  0
 73 74  2  0  0  0
 73 76  1  0  0  0
 73144  1  0  0  0
 74 77  1  0  0  0
 75 76  2  0  0  0
 75 80  1  0  0  0
 76 79  1  0  0  0
 77 78  2  0  0  0
 77145  1  0  0  0
 78146  1  0  0  0
 79147  1  0  0  0
 79148  1  0  0  0
 79149  1  0  0  0
 80 81  1  0  0  0
 80150  1  0  0  0
 80151  1  0  0  0
 81 82  1  0  0  0
 81152  1  0  0  0
 81153  1  0  0  0
 82154  1  0  0  0
 82155  1  0  0  0
M  ISO  4   1 100  68 101  78 100  82 101
M  END
> <chiral flag>
0

> <version>
0

> <s_m_source_file>
/data/baiqing/PycharmProjects/Reinvent-master-3.2/result/LINK_invent/BTK/process_docking_weight1_custom_product_contain_oxygen_bond_distance_aromatic_linkinvent_7_9_3/rearranged_h_0130.sdf

> <i_m_source_file_index>
86

> <r_mmod_Potential_Energy-OPLS-2005>
49.376838684082

> <r_mmod_Stretch_Energy-OPLS-2005>
60.0876159667969

> <r_mmod_Bend_Energy-OPLS-2005>
133.052154541016

> <r_mmod_Torsional_Energy-OPLS-2005>
182.946060180664

> <r_mmod_Improper_Torsional_Energy-OPLS-2005>
6.33643960952759

> <r_mmod_Van_der_Waal_Energy-OPLS-2005>
163.196655273438

> <r_mmod_Electrostatic_Energy-OPLS-2005>
-343.220031738281

> <r_mmod_Solvation_Energy-OPLS-2005>
-193.130340576172

> <b_mmod_Minimization_Converged-OPLS-2005>
0

> <r_mmod_RMS_Derivative-OPLS-2005>
0.869730591773987

$$$$
86
                    3D
 Structure written by MMmdl.
166175  0  0  1  0            999 V2000
  -30.7569  -14.3587   20.6507 C   0  0  0  0  0  0
  -30.4048  -12.2653   19.4051 C   0  0  0  0  0  0
  -29.4816  -12.5058   18.1950 C   0  0  0  0  0  0
  -28.0043  -12.3639   18.6083 C   0  0  0  0  0  0
  -27.6599  -13.1972   19.8714 C   0  0  2  0  0  0
  -28.6934  -12.9385   20.9911 C   0  0  0  0  0  0
  -25.2563  -13.8127   20.5633 C   0  0  0  0  0  0
  -24.1815  -13.0420   20.9181 C   0  0  0  0  0  0
  -24.6351  -11.6892   20.8723 C   0  0  0  0  0  0
  -23.9023  -10.4290   21.0396 C   0  0  0  0  0  0
  -24.3595   -9.4216   21.9172 C   0  0  0  0  0  0
  -23.6291   -8.2238   22.0740 C   0  0  0  0  0  0
  -22.4266   -8.0271   21.3542 C   0  0  0  0  0  0
  -21.9891   -9.0230   20.4636 C   0  0  0  0  0  0
  -22.7202  -10.2119   20.3045 C   0  0  0  0  0  0
  -21.6844   -6.0743   22.5297 C   0  0  0  0  0  0
  -21.4002   -6.5644   23.8233 C   0  0  0  0  0  0
  -21.3661   -5.6795   24.9191 C   0  0  0  0  0  0
  -21.6038   -4.3057   24.7232 C   0  0  0  0  0  0
  -21.8826   -3.8154   23.4350 C   0  0  0  0  0  0
  -21.9189   -4.6973   22.3413 C   0  0  0  0  0  0
  -22.7857  -13.5240   21.1864 C   0  0  0  0  0  0
  -22.1663   -4.2162   21.0991 F   0  0  0  0  0  0
  -21.5631   -3.4536   25.7739 F   0  0  0  0  0  0
  -30.0401  -13.2218   20.4605 N   0  0  0  0  0  0
  -26.2986  -12.9291   20.3313 N   0  0  0  0  0  0
  -25.9265  -11.6459   20.5720 N   0  0  0  0  0  0
  -22.0478  -12.8244   22.0413 N   0  0  0  0  0  0
  -25.4248  -15.1835   20.4014 N   0  0  0  0  0  0
  -31.7977  -14.5965   20.0280 O   0  0  0  0  0  0
  -21.6632   -6.8866   21.4252 O   0  0  0  0  0  0
  -22.3545  -14.5556   20.6715 O   0  0  0  0  0  0
  -24.6075  -31.8742   23.2134 C   0  0  0  0  0  0
  -25.9001  -32.4864   23.8399 C   0  0  1  0  0  0
  -27.2144  -27.4964   20.0767 C   0  0  0  0  0  0
  -25.5899  -33.8662   24.2348 N   0  0  0  0  0  0
  -23.3902  -30.5022   21.5529 C   0  0  2  0  0  0
  -24.8333  -28.9815   20.1036 C   0  0  0  0  0  0
  -22.7369  -29.4706   22.4991 C   0  0  0  0  0  0
  -18.0277  -28.1390   22.8513 C   0  0  0  0  0  0
  -24.1498  -36.7310   23.2629 C   0  0  0  0  0  0
  -25.9123  -30.8608   21.3517 C   0  0  0  0  0  0
  -25.9910  -29.5020   20.6964 C   0  0  0  0  0  0
  -27.1914  -28.7653   20.6819 C   0  0  0  0  0  0
  -26.0517  -26.9763   19.4731 C   0  0  0  0  0  0
  -24.8560  -27.7163   19.4874 C   0  0  0  0  0  0
  -23.5929  -29.8391   20.1642 C   0  0  0  0  0  0
  -25.4117  -36.3134   24.0346 C   0  0  1  0  0  0
  -20.5870  -28.3656   23.1334 C   0  0  2  0  0  0
  -20.6770  -26.9392   22.5433 C   0  0  0  0  0  0
  -19.5757  -26.6391   21.5219 C   0  0  0  0  0  0
  -18.1928  -26.7952   22.1609 C   0  0  0  0  0  0
  -19.1533  -28.8829   23.2930 C   0  0  0  0  0  0
  -18.9466  -30.1454   23.8920 C   0  0  0  0  0  0
  -17.6472  -30.6601   24.0585 C   0  0  0  0  0  0
  -25.9030  -34.9511   23.5137 C   0  0  0  0  0  0
  -16.5357  -29.9123   23.6339 C   0  0  0  0  0  0
  -16.7262  -28.6536   23.0347 C   0  0  0  0  0  0
  -26.4443  -31.6617   25.0701 C   0  0  0  0  0  0
  -25.3724  -31.3762   26.1462 C   0  0  0  0  0  0
  -27.0209  -30.3066   24.5999 C   0  0  0  0  0  0
  -27.6018  -32.4329   25.7469 C   0  0  0  0  0  0
  -27.5605  -37.1802   24.8463 C   0  0  0  0  0  0
  -21.4113  -29.3037   22.3740 N   0  0  0  0  0  0
  -26.4305  -37.3814   23.9426 N   0  0  0  0  0  0
  -24.6559  -31.0907   22.0998 N   0  0  0  0  0  0
  -23.4183  -28.8211   23.2979 O   0  0  0  0  0  0
  -28.3445  -26.7345   20.1223 O   0  0  0  0  0  0
  -26.5570  -34.8958   22.4693 O   0  0  0  0  0  0
  -23.5282  -32.1446   23.7614 O   0  0  0  0  0  0
  -32.3895  -18.2871   21.7395 C   0  0  0  0  0  0
  -32.0032  -16.9394   21.7572 C   0  0  0  0  0  0
  -30.0581  -18.9493   21.6195 C   0  0  0  0  0  0
  -31.4254  -19.3144   21.6561 C   0  0  0  0  0  0
  -29.6606  -17.5935   21.6168 C   0  0  0  0  0  0
  -30.6429  -16.5784   21.6507 C   0  0  0  0  0  0
  -29.5017  -23.7415   21.9646 C   0  0  0  0  0  0
  -29.3150  -24.7443   21.1011 C   0  0  0  0  0  0
  -30.5286  -22.8766   21.4471 C   0  0  0  0  0  0
  -33.0649  -21.1100   21.2307 C   0  0  0  0  0  0
  -30.8794  -21.7377   22.0757 C   0  0  0  0  0  0
  -31.8355  -20.7385   21.6357 C   0  0  0  0  0  0
  -30.2482  -24.6971   19.9099 C   0  0  0  0  0  0
  -31.0484  -23.3977   20.1189 C   0  0  0  0  0  0
  -28.1814  -17.2572   21.5480 C   0  0  0  0  0  0
  -28.7179  -23.5035   23.2434 C   0  0  0  0  0  0
  -28.2768  -25.8303   21.2176 C   0  0  0  0  0  0
  -30.2669  -15.2127   21.5614 N   0  0  0  0  0  0
  -31.4520  -12.3438   19.1078 H   0  0  0  0  0  0
  -30.2840  -11.2458   19.7764 H   0  0  0  0  0  0
  -29.7155  -11.7996   17.3972 H   0  0  0  0  0  0
  -29.6557  -13.5009   17.7831 H   0  0  0  0  0  0
  -27.8149  -11.3062   18.8004 H   0  0  0  0  0  0
  -27.3513  -12.6377   17.7777 H   0  0  0  0  0  0
  -27.7184  -14.2481   19.5882 H   0  0  0  0  0  0
  -28.6476  -11.8913   21.2952 H   0  0  0  0  0  0
  -28.4460  -13.5067   21.8870 H   0  0  0  0  0  0
  -25.2735   -9.5711   22.4737 H   0  0  0  0  0  0
  -24.0021   -7.4628   22.7444 H   0  0  0  0  0  0
  -21.0828   -8.8731   19.8931 H   0  0  0  0  0  0
  -22.3647  -10.9653   19.6153 H   0  0  0  0  0  0
  -21.1977   -7.6144   23.9742 H   0  0  0  0  0  0
  -21.1476   -6.0513   25.9095 H   0  0  0  0  0  0
  -22.0590   -2.7614   23.2846 H   0  0  0  0  0  0
  -22.4099  -11.9923   22.4845 H   0  0  0  0  0  0
  -21.1083  -13.1266   22.2573 H   0  0  0  0  0  0
  -24.6481  -15.8303   20.4911 H   0  0  0  0  0  0
  -26.2642  -15.6169   20.0411 H   0  0  0  0  0  0
  -26.7064  -32.5575   23.1152 H   0  0  0  0  0  0
  -25.0147  -33.9825   25.0560 H   0  0  0  0  0  0
  -22.6762  -31.3192   21.4208 H   0  0  0  0  0  0
  -23.3780  -35.9615   23.3305 H   0  0  0  0  0  0
  -24.3590  -36.8890   22.2032 H   0  0  0  0  0  0
  -23.7217  -37.6516   23.6617 H   0  0  0  0  0  0
  -26.0158  -31.6319   20.5862 H   0  0  0  0  0  0
  -26.8019  -30.9093   21.9668 H   0  0  0  0  0  0
  -28.0860  -29.1625   21.1435 H   0  0  0  0  0  0
  -26.0682  -26.0007   19.0066 H   0  0  0  0  0  0
  -23.9622  -27.3183   19.0270 H   0  0  0  0  0  0
  -23.6887  -30.6160   19.4048 H   0  0  0  0  0  0
  -22.7157  -29.2571   19.8744 H   0  0  0  0  0  0
  -25.1293  -36.1992   25.0831 H   0  0  0  0  0  0
  -20.9973  -28.3214   24.1454 H   0  0  0  0  0  0
  -20.5669  -26.2251   23.3613 H   0  0  0  0  0  0
  -21.6638  -26.7447   22.1216 H   0  0  0  0  0  0
  -19.6928  -25.6307   21.1229 H   0  0  0  0  0  0
  -19.6741  -27.3210   20.6764 H   0  0  0  0  0  0
  -17.4226  -26.6741   21.3989 H   0  0  0  0  0  0
  -18.0306  -26.0076   22.8976 H   0  0  0  0  0  0
  -19.7939  -30.7292   24.2259 H   0  0  0  0  0  0
  -17.5027  -31.6271   24.5217 H   0  0  0  0  0  0
  -15.5352  -30.3044   23.7650 H   0  0  0  0  0  0
  -15.8658  -28.0885   22.7012 H   0  0  0  0  0  0
  -24.5937  -30.7037   25.7861 H   0  0  0  0  0  0
  -24.8870  -32.2935   26.4815 H   0  0  0  0  0  0
  -25.8103  -30.9055   27.0273 H   0  0  0  0  0  0
  -26.2715  -29.6915   24.1013 H   0  0  0  0  0  0
  -27.3945  -29.7216   25.4406 H   0  0  0  0  0  0
  -27.8574  -30.4386   23.9136 H   0  0  0  0  0  0
  -27.2618  -33.3633   26.2043 H   0  0  0  0  0  0
  -28.3832  -32.6880   25.0297 H   0  0  0  0  0  0
  -28.0661  -31.8456   26.5390 H   0  0  0  0  0  0
  -28.2604  -38.0127   24.7540 H   0  0  0  0  0  0
  -28.1113  -36.2653   24.6225 H   0  0  0  0  0  0
  -27.2337  -37.1361   25.8872 H   0  0  0  0  0  0
  -20.9238  -29.8786   21.7013 H   0  0  0  0  0  0
  -26.0212  -38.2891   24.1458 H   0  0  0  0  0  0
  -33.4440  -18.5068   21.8080 H   0  0  0  0  0  0
  -32.7733  -16.1865   21.8266 H   0  0  0  0  0  0
  -29.2952  -19.7121   21.5532 H   0  0  0  0  0  0
  -33.7899  -20.3966   20.8719 H   0  0  0  0  0  0
  -33.3760  -22.1439   21.2392 H   0  0  0  0  0  0
  -30.3906  -21.5249   23.0153 H   0  0  0  0  0  0
  -30.8971  -25.5748   19.9324 H   0  0  0  0  0  0
  -29.6988  -24.6984   18.9681 H   0  0  0  0  0  0
  -30.8705  -22.6824   19.3139 H   0  0  0  0  0  0
  -32.1142  -23.6155   20.1589 H   0  0  0  0  0  0
  -27.5858  -18.1287   21.2759 H   0  0  0  0  0  0
  -27.8335  -16.9053   22.5190 H   0  0  0  0  0  0
  -27.9846  -16.4839   20.8062 H   0  0  0  0  0  0
  -28.0724  -22.6326   23.1268 H   0  0  0  0  0  0
  -28.0908  -24.3493   23.5222 H   0  0  0  0  0  0
  -29.4001  -23.3139   24.0718 H   0  0  0  0  0  0
  -28.4093  -26.3652   22.1597 H   0  0  0  0  0  0
  -27.3014  -25.3379   21.2677 H   0  0  0  0  0  0
  -29.4033  -14.9375   22.0036 H   0  0  0  0  0  0
  1 25  1  0  0  0
  1 30  2  0  0  0
  1 88  1  0  0  0
  2  3  1  0  0  0
  2 25  1  0  0  0
  2 89  1  0  0  0
  2 90  1  0  0  0
  3  4  1  0  0  0
  3 91  1  0  0  0
  3 92  1  0  0  0
  4  5  1  0  0  0
  4 93  1  0  0  0
  4 94  1  0  0  0
  5  6  1  0  0  0
  5 26  1  0  0  0
  5 95  1  0  0  0
  6 25  1  0  0  0
  6 96  1  0  0  0
  6 97  1  0  0  0
  7  8  2  0  0  0
  7 26  1  0  0  0
  7 29  1  0  0  0
  8  9  1  0  0  0
  8 22  1  0  0  0
  9 10  1  0  0  0
  9 27  2  0  0  0
 10 11  2  0  0  0
 10 15  1  0  0  0
 11 12  1  0  0  0
 11 98  1  0  0  0
 12 13  2  0  0  0
 12 99  1  0  0  0
 13 14  1  0  0  0
 13 31  1  0  0  0
 14 15  2  0  0  0
 14100  1  0  0  0
 15101  1  0  0  0
 16 17  2  0  0  0
 16 21  1  0  0  0
 16 31  1  0  0  0
 17 18  1  0  0  0
 17102  1  0  0  0
 18 19  2  0  0  0
 18103  1  0  0  0
 19 20  1  0  0  0
 19 24  1  0  0  0
 20 21  2  0  0  0
 20104  1  0  0  0
 21 23  1  0  0  0
 22 28  1  0  0  0
 22 32  2  0  0  0
 26 27  1  0  0  0
 28105  1  0  0  0
 28106  1  0  0  0
 29107  1  0  0  0
 29108  1  0  0  0
 33 34  1  0  0  0
 33 66  1  0  0  0
 33 70  2  0  0  0
 34 36  1  0  0  0
 34 59  1  0  0  0
 34109  1  0  0  0
 35 44  2  0  0  0
 35 45  1  0  0  0
 35 68  1  0  0  0
 36 56  1  0  0  0
 36110  1  0  0  0
 37 39  1  0  0  0
 37 47  1  0  0  0
 37 66  1  0  0  0
 37111  1  0  0  0
 38 43  2  0  0  0
 38 46  1  0  0  0
 38 47  1  0  0  0
 39 64  1  0  0  0
 39 67  2  0  0  0
 40 52  1  0  0  0
 40 53  2  0  0  0
 40 58  1  0  0  0
 41112  1  0  0  0
 41113  1  0  0  0
 41114  1  0  0  0
 41 48  1  0  0  0
 42 43  1  0  0  0
 42 66  1  0  0  0
 42115  1  0  0  0
 42116  1  0  0  0
 43 44  1  0  0  0
 44117  1  0  0  0
 45 46  2  0  0  0
 45118  1  0  0  0
 46119  1  0  0  0
 47120  1  0  0  0
 47121  1  0  0  0
 48 56  1  0  0  0
 48 65  1  0  0  0
 48122  1  0  0  0
 49 50  1  0  0  0
 49 53  1  0  0  0
 49 64  1  0  0  0
 49123  1  0  0  0
 50 51  1  0  0  0
 50124  1  0  0  0
 50125  1  0  0  0
 51 52  1  0  0  0
 51126  1  0  0  0
 51127  1  0  0  0
 52128  1  0  0  0
 52129  1  0  0  0
 53 54  1  0  0  0
 54 55  2  0  0  0
 54130  1  0  0  0
 55 57  1  0  0  0
 55131  1  0  0  0
 56 69  2  0  0  0
 57 58  2  0  0  0
 57132  1  0  0  0
 58133  1  0  0  0
 59 60  1  0  0  0
 59 61  1  0  0  0
 59 62  1  0  0  0
 60134  1  0  0  0
 60135  1  0  0  0
 60136  1  0  0  0
 61137  1  0  0  0
 61138  1  0  0  0
 61139  1  0  0  0
 62140  1  0  0  0
 62141  1  0  0  0
 62142  1  0  0  0
 63 65  1  0  0  0
 63143  1  0  0  0
 63144  1  0  0  0
 63145  1  0  0  0
 64146  1  0  0  0
 65147  1  0  0  0
 68 87  1  0  0  0
 71 72  2  0  0  0
 71 74  1  0  0  0
 71148  1  0  0  0
 72 76  1  0  0  0
 72149  1  0  0  0
 73 74  2  0  0  0
 73 75  1  0  0  0
 73150  1  0  0  0
 74 82  1  0  0  0
 75 76  2  0  0  0
 75 85  1  0  0  0
 76 88  1  0  0  0
 77 78  2  0  0  0
 77 79  1  0  0  0
 77 86  1  0  0  0
 78 83  1  0  0  0
 78 87  1  0  0  0
 79 81  2  0  0  0
 79 84  1  0  0  0
 80 82  2  0  0  0
 80151  1  0  0  0
 80152  1  0  0  0
 81 82  1  0  0  0
 81153  1  0  0  0
 83 84  1  0  0  0
 83154  1  0  0  0
 83155  1  0  0  0
 84156  1  0  0  0
 84157  1  0  0  0
 85158  1  0  0  0
 85159  1  0  0  0
 85160  1  0  0  0
 86161  1  0  0  0
 86162  1  0  0  0
 86163  1  0  0  0
 87164  1  0  0  0
 87165  1  0  0  0
 88166  1  0  0  0
M  ISO  4   1 100  68 101  87 101  88 100
M  END
> <chiral flag>
0

> <version>
0

> <s_m_source_file>
/data/baiqing/PycharmProjects/Reinvent-master-3.2/result/LINK_invent/BTK/process_docking_weight1_custom_product_contain_oxygen_bond_distance_aromatic_linkinvent_7_9_3/rearranged_h_0130.sdf

> <i_m_source_file_index>
87

> <r_mmod_Potential_Energy-OPLS-2005>
39.1275253295898

> <r_mmod_Stretch_Energy-OPLS-2005>
31.376802444458

> <r_mmod_Bend_Energy-OPLS-2005>
147.149108886719

> <r_mmod_Torsional_Energy-OPLS-2005>
277.284912109375

> <r_mmod_Improper_Torsional_Energy-OPLS-2005>
3.11760139465332

> <r_mmod_Van_der_Waal_Energy-OPLS-2005>
166.417556762695

> <r_mmod_Electrostatic_Energy-OPLS-2005>
-402.981384277344

> <r_mmod_Solvation_Energy-OPLS-2005>
-192.520050048828

> <b_mmod_Minimization_Converged-OPLS-2005>
0

> <r_mmod_RMS_Derivative-OPLS-2005>
4.03544235229492

$$$$
87
                    3D
 Structure written by MMmdl.
157165  0  0  1  0            999 V2000
  -30.6548  -14.5525   20.5536 C   0  0  0  0  0  0
  -30.4341  -12.3566   19.4227 C   0  0  0  0  0  0
  -29.4952  -12.5022   18.2061 C   0  0  0  0  0  0
  -28.0208  -12.3414   18.6285 C   0  0  0  0  0  0
  -27.6556  -13.2047   19.8650 C   0  0  2  0  0  0
  -28.7003  -13.0214   20.9869 C   0  0  0  0  0  0
  -25.2573  -13.8145   20.5666 C   0  0  0  0  0  0
  -24.1827  -13.0423   20.9176 C   0  0  0  0  0  0
  -24.6378  -11.6890   20.8737 C   0  0  0  0  0  0
  -23.9047  -10.4283   21.0410 C   0  0  0  0  0  0
  -24.3602   -9.4199   21.9184 C   0  0  0  0  0  0
  -23.6279   -8.2234   22.0757 C   0  0  0  0  0  0
  -22.4265   -8.0269   21.3544 C   0  0  0  0  0  0
  -21.9896   -9.0243   20.4648 C   0  0  0  0  0  0
  -22.7220  -10.2124   20.3055 C   0  0  0  0  0  0
  -21.6852   -6.0718   22.5273 C   0  0  0  0  0  0
  -21.4012   -6.5628   23.8201 C   0  0  0  0  0  0
  -21.3659   -5.6786   24.9170 C   0  0  0  0  0  0
  -21.6046   -4.3049   24.7228 C   0  0  0  0  0  0
  -21.8821   -3.8136   23.4351 C   0  0  0  0  0  0
  -21.9193   -4.6946   22.3405 C   0  0  0  0  0  0
  -22.7855  -13.5227   21.1844 C   0  0  0  0  0  0
  -22.1660   -4.2128   21.0980 F   0  0  0  0  0  0
  -21.5634   -3.4537   25.7745 F   0  0  0  0  0  0
  -30.0179  -13.3541   20.4221 N   0  0  0  0  0  0
  -26.2999  -12.9307   20.3336 N   0  0  0  0  0  0
  -25.9306  -11.6476   20.5763 N   0  0  0  0  0  0
  -22.0506  -12.8214   22.0409 N   0  0  0  0  0  0
  -25.4307  -15.1857   20.4050 N   0  0  0  0  0  0
  -31.8137  -14.7333   20.1692 O   0  0  0  0  0  0
  -21.6637   -6.8857   21.4232 O   0  0  0  0  0  0
  -22.3546  -14.5542   20.6706 O   0  0  0  0  0  0
  -24.6199  -31.8640   23.2067 C   0  0  0  0  0  0
  -25.9074  -32.4793   23.8370 C   0  0  1  0  0  0
  -27.2324  -27.3907   20.1089 C   0  0  0  0  0  0
  -25.5916  -33.8592   24.2297 N   0  0  0  0  0  0
  -23.4087  -30.4869   21.5484 C   0  0  2  0  0  0
  -24.8561  -28.9441   20.1160 C   0  0  0  0  0  0
  -22.7424  -29.4647   22.4986 C   0  0  0  0  0  0
  -18.0265  -28.1366   22.8483 C   0  0  0  0  0  0
  -24.1497  -36.7311   23.2630 C   0  0  0  0  0  0
  -25.9403  -30.8193   21.3615 C   0  0  0  0  0  0
  -26.0203  -29.4487   20.7097 C   0  0  0  0  0  0
  -27.2151  -28.6830   20.6954 C   0  0  0  0  0  0
  -26.0513  -26.9089   19.5089 C   0  0  0  0  0  0
  -24.8689  -27.6754   19.5088 C   0  0  0  0  0  0
  -23.6190  -29.8163   20.1645 C   0  0  0  0  0  0
  -25.4113  -36.3093   24.0328 C   0  0  1  0  0  0
  -20.5864  -28.3656   23.1312 C   0  0  2  0  0  0
  -20.6769  -26.9394   22.5415 C   0  0  0  0  0  0
  -19.5742  -26.6379   21.5216 C   0  0  0  0  0  0
  -18.1911  -26.7909   22.1618 C   0  0  0  0  0  0
  -19.1521  -28.8827   23.2890 C   0  0  0  0  0  0
  -18.9452  -30.1428   23.8906 C   0  0  0  0  0  0
  -17.6461  -30.6581   24.0557 C   0  0  0  0  0  0
  -25.9051  -34.9453   23.5113 C   0  0  0  0  0  0
  -16.5347  -29.9077   23.6332 C   0  0  0  0  0  0
  -16.7261  -28.6492   23.0355 C   0  0  0  0  0  0
  -26.4488  -31.6571   25.0705 C   0  0  0  0  0  0
  -25.3735  -31.3688   26.1448 C   0  0  0  0  0  0
  -27.0313  -30.3003   24.6093 C   0  0  0  0  0  0
  -27.6079  -32.4276   25.7456 C   0  0  0  0  0  0
  -27.5577  -37.1806   24.8458 C   0  0  0  0  0  0
  -21.4149  -29.3031   22.3729 N   0  0  0  0  0  0
  -26.4291  -37.3783   23.9406 N   0  0  0  0  0  0
  -24.6749  -31.0715   22.0976 N   0  0  0  0  0  0
  -23.4177  -28.8186   23.3042 O   0  0  0  0  0  0
  -28.3790  -26.6142   20.0792 O   0  0  0  0  0  0
  -26.5621  -34.8904   22.4671 O   0  0  0  0  0  0
  -23.5388  -32.1409   23.7456 O   0  0  0  0  0  0
  -30.6633  -18.0942   19.2149 C   0  0  0  0  0  0
  -30.6213  -19.2259   18.3778 C   0  0  0  0  0  0
  -29.4010  -19.3194   20.8889 C   0  0  0  0  0  0
  -30.0714  -18.1234   20.4894 C   0  0  0  0  0  0
  -29.9822  -20.4269   18.7854 C   0  0  0  0  0  0
  -29.3547  -20.4794   20.0571 C   0  0  0  0  0  0
  -28.4794  -24.0745   19.9779 C   0  0  0  0  0  0
  -30.5884  -21.5348   16.7334 C   0  0  0  0  0  0
  -30.2729  -16.9286   21.4502 C   0  0  0  0  0  0
  -28.3400  -25.3702   20.8351 C   0  0  0  0  0  0
  -29.3112  -22.8838   20.5514 C   0  0  0  0  0  0
  -29.8816  -15.5714   21.0016 N   0  0  0  0  0  0
  -27.9371  -23.9901   18.8694 O   0  0  0  0  0  0
  -29.9129  -21.5505   17.9865 O   0  0  0  0  0  0
  -28.6333  -21.6027   20.4597 O   0  0  0  0  0  0
  -31.4740  -12.4847   19.1167 H   0  0  0  0  0  0
  -30.3678  -11.3528   19.8441 H   0  0  0  0  0  0
  -29.7471  -11.7610   17.4463 H   0  0  0  0  0  0
  -29.6395  -13.4788   17.7408 H   0  0  0  0  0  0
  -27.8595  -11.2876   18.8581 H   0  0  0  0  0  0
  -27.3582  -12.5760   17.7945 H   0  0  0  0  0  0
  -27.6861  -14.2450   19.5416 H   0  0  0  0  0  0
  -28.7020  -11.9912   21.3457 H   0  0  0  0  0  0
  -28.4553  -13.6330   21.8571 H   0  0  0  0  0  0
  -25.2747   -9.5673   22.4757 H   0  0  0  0  0  0
  -23.9984   -7.4625   22.7484 H   0  0  0  0  0  0
  -21.0823   -8.8754   19.8961 H   0  0  0  0  0  0
  -22.3676  -10.9655   19.6165 H   0  0  0  0  0  0
  -21.2004   -7.6135   23.9695 H   0  0  0  0  0  0
  -21.1482   -6.0523   25.9065 H   0  0  0  0  0  0
  -22.0606   -2.7597   23.2862 H   0  0  0  0  0  0
  -22.4124  -11.9855   22.4754 H   0  0  0  0  0  0
  -21.1138  -13.1249   22.2656 H   0  0  0  0  0  0
  -24.6640  -15.8419   20.5033 H   0  0  0  0  0  0
  -26.2779  -15.6204   20.0609 H   0  0  0  0  0  0
  -26.7129  -32.5510   23.1120 H   0  0  0  0  0  0
  -25.0099  -33.9736   25.0468 H   0  0  0  0  0  0
  -22.7010  -31.3062   21.4061 H   0  0  0  0  0  0
  -23.3745  -35.9657   23.3311 H   0  0  0  0  0  0
  -24.3599  -36.8925   22.2043 H   0  0  0  0  0  0
  -23.7271  -37.6520   23.6653 H   0  0  0  0  0  0
  -26.0535  -31.5845   20.5920 H   0  0  0  0  0  0
  -26.8260  -30.8756   21.9814 H   0  0  0  0  0  0
  -28.1151  -29.0735   21.1484 H   0  0  0  0  0  0
  -26.0442  -25.9397   19.0318 H   0  0  0  0  0  0
  -23.9766  -27.2841   19.0400 H   0  0  0  0  0  0
  -23.7251  -30.5899   19.4029 H   0  0  0  0  0  0
  -22.7417  -29.2376   19.8717 H   0  0  0  0  0  0
  -25.1287  -36.1951   25.0824 H   0  0  0  0  0  0
  -20.9950  -28.3237   24.1437 H   0  0  0  0  0  0
  -20.5692  -26.2264   23.3604 H   0  0  0  0  0  0
  -21.6634  -26.7459   22.1194 H   0  0  0  0  0  0
  -19.6920  -25.6295   21.1229 H   0  0  0  0  0  0
  -19.6688  -27.3207   20.6757 H   0  0  0  0  0  0
  -17.4194  -26.6670   21.4005 H   0  0  0  0  0  0
  -18.0299  -26.0041   22.9006 H   0  0  0  0  0  0
  -19.7938  -30.7220   24.2297 H   0  0  0  0  0  0
  -17.5023  -31.6269   24.5137 H   0  0  0  0  0  0
  -15.5348  -30.2978   23.7652 H   0  0  0  0  0  0
  -15.8664  -28.0807   22.7081 H   0  0  0  0  0  0
  -24.5954  -30.6979   25.7801 H   0  0  0  0  0  0
  -24.8855  -32.2823   26.4854 H   0  0  0  0  0  0
  -25.8073  -30.8915   27.0240 H   0  0  0  0  0  0
  -26.2845  -29.6754   24.1180 H   0  0  0  0  0  0
  -27.4112  -29.7258   25.4553 H   0  0  0  0  0  0
  -27.8675  -30.4311   23.9217 H   0  0  0  0  0  0
  -27.2753  -33.3618   26.1988 H   0  0  0  0  0  0
  -28.3908  -32.6753   25.0274 H   0  0  0  0  0  0
  -28.0694  -31.8389   26.5394 H   0  0  0  0  0  0
  -28.2597  -38.0101   24.7520 H   0  0  0  0  0  0
  -28.1066  -36.2639   24.6271 H   0  0  0  0  0  0
  -27.2293  -37.1449   25.8856 H   0  0  0  0  0  0
  -20.9319  -29.8768   21.6960 H   0  0  0  0  0  0
  -26.0184  -38.2860   24.1405 H   0  0  0  0  0  0
  -31.1883  -17.2071   18.8870 H   0  0  0  0  0  0
  -31.1041  -19.1413   17.4160 H   0  0  0  0  0  0
  -28.9297  -19.3602   21.8609 H   0  0  0  0  0  0
  -30.4829  -22.5074   16.2528 H   0  0  0  0  0  0
  -30.1656  -20.7891   16.0586 H   0  0  0  0  0  0
  -31.6561  -21.3449   16.8528 H   0  0  0  0  0  0
  -29.7252  -17.1303   22.3714 H   0  0  0  0  0  0
  -31.3241  -16.9161   21.7421 H   0  0  0  0  0  0
  -29.1459  -25.3933   21.5686 H   0  0  0  0  0  0
  -27.4107  -25.3027   21.4011 H   0  0  0  0  0  0
  -29.5214  -23.0824   21.6023 H   0  0  0  0  0  0
  -30.2777  -22.8555   20.0470 H   0  0  0  0  0  0
  -28.9267  -15.3162   21.1989 H   0  0  0  0  0  0
  1 25  1  0  0  0
  1 30  2  0  0  0
  1 82  1  0  0  0
  2  3  1  0  0  0
  2 25  1  0  0  0
  2 86  1  0  0  0
  2 87  1  0  0  0
  3  4  1  0  0  0
  3 88  1  0  0  0
  3 89  1  0  0  0
  4  5  1  0  0  0
  4 90  1  0  0  0
  4 91  1  0  0  0
  5  6  1  0  0  0
  5 26  1  0  0  0
  5 92  1  0  0  0
  6 25  1  0  0  0
  6 93  1  0  0  0
  6 94  1  0  0  0
  7  8  2  0  0  0
  7 26  1  0  0  0
  7 29  1  0  0  0
  8  9  1  0  0  0
  8 22  1  0  0  0
  9 10  1  0  0  0
  9 27  2  0  0  0
 10 11  2  0  0  0
 10 15  1  0  0  0
 11 12  1  0  0  0
 11 95  1  0  0  0
 12 13  2  0  0  0
 12 96  1  0  0  0
 13 14  1  0  0  0
 13 31  1  0  0  0
 14 15  2  0  0  0
 14 97  1  0  0  0
 15 98  1  0  0  0
 16 17  2  0  0  0
 16 21  1  0  0  0
 16 31  1  0  0  0
 17 18  1  0  0  0
 17 99  1  0  0  0
 18 19  2  0  0  0
 18100  1  0  0  0
 19 20  1  0  0  0
 19 24  1  0  0  0
 20 21  2  0  0  0
 20101  1  0  0  0
 21 23  1  0  0  0
 22 28  1  0  0  0
 22 32  2  0  0  0
 26 27  1  0  0  0
 28102  1  0  0  0
 28103  1  0  0  0
 29104  1  0  0  0
 29105  1  0  0  0
 33 34  1  0  0  0
 33 66  1  0  0  0
 33 70  2  0  0  0
 34 36  1  0  0  0
 34 59  1  0  0  0
 34106  1  0  0  0
 35 44  2  0  0  0
 35 45  1  0  0  0
 35 68  1  0  0  0
 36 56  1  0  0  0
 36107  1  0  0  0
 37 39  1  0  0  0
 37 47  1  0  0  0
 37 66  1  0  0  0
 37108  1  0  0  0
 38 43  2  0  0  0
 38 46  1  0  0  0
 38 47  1  0  0  0
 39 64  1  0  0  0
 39 67  2  0  0  0
 40 52  1  0  0  0
 40 53  2  0  0  0
 40 58  1  0  0  0
 41109  1  0  0  0
 41110  1  0  0  0
 41111  1  0  0  0
 41 48  1  0  0  0
 42 43  1  0  0  0
 42 66  1  0  0  0
 42112  1  0  0  0
 42113  1  0  0  0
 43 44  1  0  0  0
 44114  1  0  0  0
 45 46  2  0  0  0
 45115  1  0  0  0
 46116  1  0  0  0
 47117  1  0  0  0
 47118  1  0  0  0
 48 56  1  0  0  0
 48 65  1  0  0  0
 48119  1  0  0  0
 49 50  1  0  0  0
 49 53  1  0  0  0
 49 64  1  0  0  0
 49120  1  0  0  0
 50 51  1  0  0  0
 50121  1  0  0  0
 50122  1  0  0  0
 51 52  1  0  0  0
 51123  1  0  0  0
 51124  1  0  0  0
 52125  1  0  0  0
 52126  1  0  0  0
 53 54  1  0  0  0
 54 55  2  0  0  0
 54127  1  0  0  0
 55 57  1  0  0  0
 55128  1  0  0  0
 56 69  2  0  0  0
 57 58  2  0  0  0
 57129  1  0  0  0
 58130  1  0  0  0
 59 60  1  0  0  0
 59 61  1  0  0  0
 59 62  1  0  0  0
 60131  1  0  0  0
 60132  1  0  0  0
 60133  1  0  0  0
 61134  1  0  0  0
 61135  1  0  0  0
 61136  1  0  0  0
 62137  1  0  0  0
 62138  1  0  0  0
 62139  1  0  0  0
 63 65  1  0  0  0
 63140  1  0  0  0
 63141  1  0  0  0
 63142  1  0  0  0
 64143  1  0  0  0
 65144  1  0  0  0
 68 80  1  0  0  0
 71 72  2  0  0  0
 71 74  1  0  0  0
 71145  1  0  0  0
 72 75  1  0  0  0
 72146  1  0  0  0
 73 74  2  0  0  0
 73 76  1  0  0  0
 73147  1  0  0  0
 74 79  1  0  0  0
 75 76  2  0  0  0
 75 84  1  0  0  0
 76 85  1  0  0  0
 77 80  1  0  0  0
 77 81  1  0  0  0
 77 83  2  0  0  0
 78 84  1  0  0  0
 78148  1  0  0  0
 78149  1  0  0  0
 78150  1  0  0  0
 79 82  1  0  0  0
 79151  1  0  0  0
 79152  1  0  0  0
 80153  1  0  0  0
 80154  1  0  0  0
 81 85  1  0  0  0
 81155  1  0  0  0
 81156  1  0  0  0
 82157  1  0  0  0
M  ISO  4   1 100  68 101  80 101  82 100
M  END
> <chiral flag>
0

> <version>
0

> <s_m_source_file>
/data/baiqing/PycharmProjects/Reinvent-master-3.2/result/LINK_invent/BTK/process_docking_weight1_custom_product_contain_oxygen_bond_distance_aromatic_linkinvent_7_9_3/rearranged_h_0130.sdf

> <i_m_source_file_index>
88

> <r_mmod_Potential_Energy-OPLS-2005>
-27.1000289916992

> <r_mmod_Stretch_Energy-OPLS-2005>
52.1170845031738

> <r_mmod_Bend_Energy-OPLS-2005>
114.441596984863

> <r_mmod_Torsional_Energy-OPLS-2005>
255.20149230957

> <r_mmod_Improper_Torsional_Energy-OPLS-2005>
3.99627447128296

> <r_mmod_Van_der_Waal_Energy-OPLS-2005>
143.534118652344

> <r_mmod_Electrostatic_Energy-OPLS-2005>
-379.718963623047

> <r_mmod_Solvation_Energy-OPLS-2005>
-240.365264892578

> <b_mmod_Minimization_Converged-OPLS-2005>
0

> <r_mmod_RMS_Derivative-OPLS-2005>
1.83094811439514

$$$$
88
                    3D
 Structure written by MMmdl.
152160  0  0  1  0            999 V2000
  -30.6502  -14.6487   20.4853 C   0  0  0  0  0  0
  -30.4293  -12.3930   19.4686 C   0  0  0  0  0  0
  -29.5099  -12.5115   18.2323 C   0  0  0  0  0  0
  -28.0305  -12.3543   18.6362 C   0  0  0  0  0  0
  -27.6521  -13.2266   19.8636 C   0  0  2  0  0  0
  -28.6948  -13.0909   20.9944 C   0  0  0  0  0  0
  -25.2557  -13.8199   20.5709 C   0  0  0  0  0  0
  -24.1828  -13.0446   20.9190 C   0  0  0  0  0  0
  -24.6408  -11.6921   20.8730 C   0  0  0  0  0  0
  -23.9079  -10.4297   21.0396 C   0  0  0  0  0  0
  -24.3628   -9.4214   21.9178 C   0  0  0  0  0  0
  -23.6301   -8.2248   22.0751 C   0  0  0  0  0  0
  -22.4281   -8.0286   21.3542 C   0  0  0  0  0  0
  -21.9918   -9.0260   20.4644 C   0  0  0  0  0  0
  -22.7248  -10.2138   20.3050 C   0  0  0  0  0  0
  -21.6854   -6.0743   22.5282 C   0  0  0  0  0  0
  -21.4013   -6.5644   23.8216 C   0  0  0  0  0  0
  -21.3660   -5.6795   24.9178 C   0  0  0  0  0  0
  -21.6044   -4.3058   24.7225 C   0  0  0  0  0  0
  -21.8819   -3.8152   23.4345 C   0  0  0  0  0  0
  -21.9193   -4.6970   22.3403 C   0  0  0  0  0  0
  -22.7849  -13.5230   21.1856 C   0  0  0  0  0  0
  -22.1662   -4.2156   21.0980 F   0  0  0  0  0  0
  -21.5628   -3.4540   25.7737 F   0  0  0  0  0  0
  -30.0115  -13.4317   20.4366 N   0  0  0  0  0  0
  -26.2991  -12.9399   20.3329 N   0  0  0  0  0  0
  -25.9340  -11.6540   20.5749 N   0  0  0  0  0  0
  -22.0495  -12.8215   22.0411 N   0  0  0  0  0  0
  -25.4270  -15.1923   20.4158 N   0  0  0  0  0  0
  -31.8169  -14.7386   20.0920 O   0  0  0  0  0  0
  -21.6640   -6.8886   21.4244 O   0  0  0  0  0  0
  -22.3528  -14.5533   20.6708 O   0  0  0  0  0  0
  -24.6270  -31.8606   23.2045 C   0  0  0  0  0  0
  -25.9119  -32.4781   23.8370 C   0  0  1  0  0  0
  -27.2151  -27.3099   20.1121 C   0  0  0  0  0  0
  -25.5930  -33.8583   24.2289 N   0  0  0  0  0  0
  -23.4204  -30.4877   21.5471 C   0  0  2  0  0  0
  -24.8653  -28.9499   20.1062 C   0  0  0  0  0  0
  -22.7480  -29.4635   22.4927 C   0  0  0  0  0  0
  -18.0302  -28.1370   22.8486 C   0  0  0  0  0  0
  -24.1490  -36.7296   23.2639 C   0  0  0  0  0  0
  -25.9643  -30.7869   21.3806 C   0  0  0  0  0  0
  -26.0354  -29.4161   20.7188 C   0  0  0  0  0  0
  -27.2121  -28.6069   20.7162 C   0  0  0  0  0  0
  -26.0247  -26.9164   19.4524 C   0  0  0  0  0  0
  -24.8628  -27.7056   19.4639 C   0  0  0  0  0  0
  -23.6343  -29.8300   20.1597 C   0  0  0  0  0  0
  -25.4116  -36.3083   24.0328 C   0  0  1  0  0  0
  -20.5906  -28.3689   23.1278 C   0  0  2  0  0  0
  -20.6803  -26.9405   22.5421 C   0  0  0  0  0  0
  -19.5768  -26.6353   21.5242 C   0  0  0  0  0  0
  -18.1949  -26.7896   22.1661 C   0  0  0  0  0  0
  -19.1554  -28.8851   23.2868 C   0  0  0  0  0  0
  -18.9471  -30.1459   23.8868 C   0  0  0  0  0  0
  -17.6469  -30.6585   24.0534 C   0  0  0  0  0  0
  -25.9052  -34.9451   23.5107 C   0  0  0  0  0  0
  -16.5363  -29.9073   23.6314 C   0  0  0  0  0  0
  -16.7287  -28.6486   23.0345 C   0  0  0  0  0  0
  -26.4493  -31.6590   25.0743 C   0  0  0  0  0  0
  -25.3724  -31.3733   26.1466 C   0  0  0  0  0  0
  -27.0336  -30.3007   24.6215 C   0  0  0  0  0  0
  -27.6048  -32.4327   25.7520 C   0  0  0  0  0  0
  -27.5580  -37.1804   24.8465 C   0  0  0  0  0  0
  -21.4199  -29.3038   22.3658 N   0  0  0  0  0  0
  -26.4293  -37.3777   23.9406 N   0  0  0  0  0  0
  -24.6894  -31.0617   22.1004 N   0  0  0  0  0  0
  -23.4199  -28.8175   23.3009 O   0  0  0  0  0  0
  -28.3130  -26.4291   20.1901 O   0  0  0  0  0  0
  -26.5618  -34.8915   22.4671 O   0  0  0  0  0  0
  -23.5433  -32.1410   23.7368 O   0  0  0  0  0  0
  -28.3922  -20.3399   21.4783 C   0  0  0  0  0  0
  -28.7457  -18.9426   21.6278 C   0  0  0  0  0  0
  -29.6352  -18.4867   20.6743 C   0  0  0  0  0  0
  -28.9532  -20.9918   20.4026 C   0  0  0  0  0  0
  -30.1902  -17.1343   20.4419 C   0  0  0  0  0  0
  -29.8625  -15.8632   20.8649 C   0  0  0  0  0  0
  -28.1741  -18.0877   22.7187 C   0  0  0  0  0  0
  -28.5527  -22.3747   19.8119 C   0  0  0  0  0  0
  -28.9712  -23.7904   20.4192 C   0  0  0  0  0  0
  -28.0671  -24.9940   19.8887 C   0  0  0  0  0  0
  -30.0379  -19.8432   19.5960 S   0  0  0  0  0  0
  -31.4744  -12.4908   19.1703 H   0  0  0  0  0  0
  -30.3446  -11.4013   19.9159 H   0  0  0  0  0  0
  -29.7770  -11.7596   17.4884 H   0  0  0  0  0  0
  -29.6597  -13.4814   17.7544 H   0  0  0  0  0  0
  -27.8629  -11.3016   18.8663 H   0  0  0  0  0  0
  -27.3804  -12.5877   17.7920 H   0  0  0  0  0  0
  -27.6691  -14.2626   19.5238 H   0  0  0  0  0  0
  -28.7069  -12.0697   21.3779 H   0  0  0  0  0  0
  -28.4367  -13.7149   21.8493 H   0  0  0  0  0  0
  -25.2774   -9.5689   22.4754 H   0  0  0  0  0  0
  -24.0011   -7.4638   22.7469 H   0  0  0  0  0  0
  -21.0849   -8.8780   19.8949 H   0  0  0  0  0  0
  -22.3707  -10.9679   19.6159 H   0  0  0  0  0  0
  -21.2004   -7.6152   23.9724 H   0  0  0  0  0  0
  -21.1482   -6.0523   25.9082 H   0  0  0  0  0  0
  -22.0596   -2.7614   23.2843 H   0  0  0  0  0  0
  -22.4113  -11.9875   22.4797 H   0  0  0  0  0  0
  -21.1111  -13.1236   22.2614 H   0  0  0  0  0  0
  -24.6626  -15.8490   20.5285 H   0  0  0  0  0  0
  -26.2855  -15.6327   20.1088 H   0  0  0  0  0  0
  -26.7193  -32.5440   23.1123 H   0  0  0  0  0  0
  -25.0071  -33.9735   25.0428 H   0  0  0  0  0  0
  -22.7154  -31.3099   21.4077 H   0  0  0  0  0  0
  -23.3747  -35.9632   23.3305 H   0  0  0  0  0  0
  -24.3579  -36.8913   22.2053 H   0  0  0  0  0  0
  -23.7250  -37.6502   23.6659 H   0  0  0  0  0  0
  -26.1018  -31.5528   20.6158 H   0  0  0  0  0  0
  -26.8425  -30.8294   22.0131 H   0  0  0  0  0  0
  -28.1048  -28.9569   21.2157 H   0  0  0  0  0  0
  -25.9500  -25.9775   18.9248 H   0  0  0  0  0  0
  -23.9699  -27.3491   18.9687 H   0  0  0  0  0  0
  -23.7537  -30.6104   19.4072 H   0  0  0  0  0  0
  -22.7532  -29.2622   19.8551 H   0  0  0  0  0  0
  -25.1297  -36.1934   25.0822 H   0  0  0  0  0  0
  -21.0007  -28.3286   24.1399 H   0  0  0  0  0  0
  -21.6675  -26.7432   22.1213 H   0  0  0  0  0  0
  -20.5714  -26.2303   23.3634 H   0  0  0  0  0  0
  -19.6928  -25.6255   21.1295 H   0  0  0  0  0  0
  -19.6690  -27.3135   20.6750 H   0  0  0  0  0  0
  -17.4211  -26.6601   21.4078 H   0  0  0  0  0  0
  -18.0366  -26.0060   22.9092 H   0  0  0  0  0  0
  -19.7945  -30.7288   24.2215 H   0  0  0  0  0  0
  -17.5017  -31.6274   24.5112 H   0  0  0  0  0  0
  -15.5358  -30.2965   23.7641 H   0  0  0  0  0  0
  -15.8688  -28.0797   22.7072 H   0  0  0  0  0  0
  -24.5897  -30.7083   25.7797 H   0  0  0  0  0  0
  -24.8917  -32.2903   26.4888 H   0  0  0  0  0  0
  -25.8043  -30.8914   27.0246 H   0  0  0  0  0  0
  -26.2919  -29.6765   24.1216 H   0  0  0  0  0  0
  -27.3995  -29.7255   25.4731 H   0  0  0  0  0  0
  -27.8807  -30.4282   23.9471 H   0  0  0  0  0  0
  -27.2650  -33.3625   26.2096 H   0  0  0  0  0  0
  -28.3861  -32.6894   25.0353 H   0  0  0  0  0  0
  -28.0711  -31.8454   26.5442 H   0  0  0  0  0  0
  -28.2598  -38.0100   24.7503 H   0  0  0  0  0  0
  -28.1074  -36.2629   24.6300 H   0  0  0  0  0  0
  -27.2294  -37.1463   25.8867 H   0  0  0  0  0  0
  -20.9375  -29.8732   21.6846 H   0  0  0  0  0  0
  -26.0171  -38.2850   24.1406 H   0  0  0  0  0  0
  -27.6736  -20.8035   22.1403 H   0  0  0  0  0  0
  -31.0596  -17.1766   19.7994 H   0  0  0  0  0  0
  -29.0010  -15.7501   21.5008 H   0  0  0  0  0  0
  -27.6583  -18.6851   23.4705 H   0  0  0  0  0  0
  -28.9539  -17.5259   23.2333 H   0  0  0  0  0  0
  -27.4534  -17.3725   22.3226 H   0  0  0  0  0  0
  -27.4628  -22.3741   19.7700 H   0  0  0  0  0  0
  -28.8493  -22.3819   18.7624 H   0  0  0  0  0  0
  -30.0221  -23.9836   20.2024 H   0  0  0  0  0  0
  -28.8834  -23.7538   21.5051 H   0  0  0  0  0  0
  -27.0755  -24.7354   20.2611 H   0  0  0  0  0  0
  -28.0200  -24.9117   18.8020 H   0  0  0  0  0  0
  1 25  1  0  0  0
  1 30  2  0  0  0
  1 76  1  0  0  0
  2  3  1  0  0  0
  2 25  1  0  0  0
  2 82  1  0  0  0
  2 83  1  0  0  0
  3  4  1  0  0  0
  3 84  1  0  0  0
  3 85  1  0  0  0
  4  5  1  0  0  0
  4 86  1  0  0  0
  4 87  1  0  0  0
  5  6  1  0  0  0
  5 26  1  0  0  0
  5 88  1  0  0  0
  6 25  1  0  0  0
  6 89  1  0  0  0
  6 90  1  0  0  0
  7  8  2  0  0  0
  7 26  1  0  0  0
  7 29  1  0  0  0
  8  9  1  0  0  0
  8 22  1  0  0  0
  9 10  1  0  0  0
  9 27  2  0  0  0
 10 11  2  0  0  0
 10 15  1  0  0  0
 11 12  1  0  0  0
 11 91  1  0  0  0
 12 13  2  0  0  0
 12 92  1  0  0  0
 13 14  1  0  0  0
 13 31  1  0  0  0
 14 15  2  0  0  0
 14 93  1  0  0  0
 15 94  1  0  0  0
 16 17  2  0  0  0
 16 21  1  0  0  0
 16 31  1  0  0  0
 17 18  1  0  0  0
 17 95  1  0  0  0
 18 19  2  0  0  0
 18 96  1  0  0  0
 19 20  1  0  0  0
 19 24  1  0  0  0
 20 21  2  0  0  0
 20 97  1  0  0  0
 21 23  1  0  0  0
 22 28  1  0  0  0
 22 32  2  0  0  0
 26 27  1  0  0  0
 28 98  1  0  0  0
 28 99  1  0  0  0
 29100  1  0  0  0
 29101  1  0  0  0
 33 34  1  0  0  0
 33 66  1  0  0  0
 33 70  2  0  0  0
 34 36  1  0  0  0
 34 59  1  0  0  0
 34102  1  0  0  0
 35 44  2  0  0  0
 35 45  1  0  0  0
 35 68  1  0  0  0
 36 56  1  0  0  0
 36103  1  0  0  0
 37 39  1  0  0  0
 37 47  1  0  0  0
 37 66  1  0  0  0
 37104  1  0  0  0
 38 43  2  0  0  0
 38 46  1  0  0  0
 38 47  1  0  0  0
 39 64  1  0  0  0
 39 67  2  0  0  0
 40 52  1  0  0  0
 40 53  2  0  0  0
 40 58  1  0  0  0
 41105  1  0  0  0
 41106  1  0  0  0
 41107  1  0  0  0
 41 48  1  0  0  0
 42 43  1  0  0  0
 42 66  1  0  0  0
 42108  1  0  0  0
 42109  1  0  0  0
 43 44  1  0  0  0
 44110  1  0  0  0
 45 46  2  0  0  0
 45111  1  0  0  0
 46112  1  0  0  0
 47113  1  0  0  0
 47114  1  0  0  0
 48 56  1  0  0  0
 48 65  1  0  0  0
 48115  1  0  0  0
 49 50  1  0  0  0
 49 53  1  0  0  0
 49 64  1  0  0  0
 49116  1  0  0  0
 50 51  1  0  0  0
 50117  1  0  0  0
 50118  1  0  0  0
 51 52  1  0  0  0
 51119  1  0  0  0
 51120  1  0  0  0
 52121  1  0  0  0
 52122  1  0  0  0
 53 54  1  0  0  0
 54 55  2  0  0  0
 54123  1  0  0  0
 55 57  1  0  0  0
 55124  1  0  0  0
 56 69  2  0  0  0
 57 58  2  0  0  0
 57125  1  0  0  0
 58126  1  0  0  0
 59 60  1  0  0  0
 59 61  1  0  0  0
 59 62  1  0  0  0
 60127  1  0  0  0
 60128  1  0  0  0
 60129  1  0  0  0
 61130  1  0  0  0
 61131  1  0  0  0
 61132  1  0  0  0
 62133  1  0  0  0
 62134  1  0  0  0
 62135  1  0  0  0
 63 65  1  0  0  0
 63136  1  0  0  0
 63137  1  0  0  0
 63138  1  0  0  0
 64139  1  0  0  0
 65140  1  0  0  0
 68 80  1  0  0  0
 71 72  1  0  0  0
 71 74  2  0  0  0
 71141  1  0  0  0
 72 73  2  0  0  0
 72 77  1  0  0  0
 73 75  1  0  0  0
 73 81  1  0  0  0
 74 78  1  0  0  0
 74 81  1  0  0  0
 75 76  2  0  0  0
 75142  1  0  0  0
 76143  1  0  0  0
 77144  1  0  0  0
 77145  1  0  0  0
 77146  1  0  0  0
 78 79  1  0  0  0
 78147  1  0  0  0
 78148  1  0  0  0
 79 80  1  0  0  0
 79149  1  0  0  0
 79150  1  0  0  0
 80151  1  0  0  0
 80152  1  0  0  0
M  ISO  4   1 100  68 101  76 100  80 101
M  END
> <chiral flag>
0

> <version>
0

> <s_m_source_file>
/data/baiqing/PycharmProjects/Reinvent-master-3.2/result/LINK_invent/BTK/process_docking_weight1_custom_product_contain_oxygen_bond_distance_aromatic_linkinvent_7_9_3/rearranged_h_0130.sdf

> <i_m_source_file_index>
89

> <r_mmod_Potential_Energy-OPLS-2005>
74.3488693237305

> <r_mmod_Stretch_Energy-OPLS-2005>
80.1665802001953

> <r_mmod_Bend_Energy-OPLS-2005>
149.537643432617

> <r_mmod_Torsional_Energy-OPLS-2005>
176.925201416016

> <r_mmod_Improper_Torsional_Energy-OPLS-2005>
4.42522001266479

> <r_mmod_Van_der_Waal_Energy-OPLS-2005>
129.300521850586

> <r_mmod_Electrostatic_Energy-OPLS-2005>
-327.157653808594

> <r_mmod_Solvation_Energy-OPLS-2005>
-192.832962036133

> <b_mmod_Minimization_Converged-OPLS-2005>
0

> <r_mmod_RMS_Derivative-OPLS-2005>
0.753489434719086

$$$$
89
                    3D
 Structure written by MMmdl.
169177  0  0  1  0            999 V2000
  -30.7234  -14.4696   20.4604 C   0  0  0  0  0  0
  -30.4134  -12.2800   19.4381 C   0  0  0  0  0  0
  -29.5008  -12.4817   18.2122 C   0  0  0  0  0  0
  -28.0189  -12.3558   18.6178 C   0  0  0  0  0  0
  -27.6556  -13.2129   19.8603 C   0  0  2  0  0  0
  -28.7012  -13.0596   20.9905 C   0  0  0  0  0  0
  -25.2566  -13.8130   20.5652 C   0  0  0  0  0  0
  -24.1837  -13.0422   20.9205 C   0  0  0  0  0  0
  -24.6407  -11.6899   20.8748 C   0  0  0  0  0  0
  -23.9075  -10.4286   21.0407 C   0  0  0  0  0  0
  -24.3626   -9.4197   21.9168 C   0  0  0  0  0  0
  -23.6300   -8.2237   22.0738 C   0  0  0  0  0  0
  -22.4265   -8.0284   21.3534 C   0  0  0  0  0  0
  -21.9908   -9.0266   20.4649 C   0  0  0  0  0  0
  -22.7247  -10.2137   20.3051 C   0  0  0  0  0  0
  -21.6861   -6.0743   22.5284 C   0  0  0  0  0  0
  -21.4037   -6.5638   23.8217 C   0  0  0  0  0  0
  -21.3644   -5.6795   24.9178 C   0  0  0  0  0  0
  -21.6028   -4.3055   24.7220 C   0  0  0  0  0  0
  -21.8819   -3.8147   23.4342 C   0  0  0  0  0  0
  -21.9203   -4.6975   22.3401 C   0  0  0  0  0  0
  -22.7855  -13.5230   21.1842 C   0  0  0  0  0  0
  -22.1659   -4.2176   21.0969 F   0  0  0  0  0  0
  -21.5607   -3.4533   25.7736 F   0  0  0  0  0  0
  -30.0332  -13.3005   20.4231 N   0  0  0  0  0  0
  -26.3014  -12.9330   20.3327 N   0  0  0  0  0  0
  -25.9339  -11.6491   20.5762 N   0  0  0  0  0  0
  -22.0490  -12.8249   22.0412 N   0  0  0  0  0  0
  -25.4253  -15.1817   20.3956 N   0  0  0  0  0  0
  -31.9337  -14.5428   20.2577 O   0  0  0  0  0  0
  -21.6608   -6.8886   21.4242 O   0  0  0  0  0  0
  -22.3543  -14.5518   20.6663 O   0  0  0  0  0  0
  -24.6099  -31.8689   23.2114 C   0  0  0  0  0  0
  -25.9008  -32.4835   23.8408 C   0  0  1  0  0  0
  -27.2669  -27.4821   20.0881 C   0  0  0  0  0  0
  -25.5865  -33.8623   24.2337 N   0  0  0  0  0  0
  -23.3997  -30.4870   21.5514 C   0  0  2  0  0  0
  -24.8549  -28.9554   20.1197 C   0  0  0  0  0  0
  -22.7405  -29.4629   22.5020 C   0  0  0  0  0  0
  -18.0267  -28.1384   22.8494 C   0  0  0  0  0  0
  -24.1495  -36.7307   23.2634 C   0  0  0  0  0  0
  -25.9220  -30.8490   21.3594 C   0  0  0  0  0  0
  -26.0068  -29.4863   20.7095 C   0  0  0  0  0  0
  -27.2147  -28.7574   20.6981 C   0  0  0  0  0  0
  -26.0920  -26.9479   19.5194 C   0  0  0  0  0  0
  -24.8882  -27.6821   19.5245 C   0  0  0  0  0  0
  -23.6099  -29.8137   20.1682 C   0  0  0  0  0  0
  -25.4098  -36.3106   24.0353 C   0  0  1  0  0  0
  -20.5865  -28.3640   23.1341 C   0  0  2  0  0  0
  -20.6769  -26.9373   22.5409 C   0  0  0  0  0  0
  -19.5737  -26.6376   21.5217 C   0  0  0  0  0  0
  -18.1916  -26.7931   22.1626 C   0  0  0  0  0  0
  -19.1531  -28.8830   23.2911 C   0  0  0  0  0  0
  -18.9437  -30.1451   23.8916 C   0  0  0  0  0  0
  -17.6436  -30.6574   24.0581 C   0  0  0  0  0  0
  -25.9010  -34.9476   23.5143 C   0  0  0  0  0  0
  -16.5325  -29.9079   23.6340 C   0  0  0  0  0  0
  -16.7265  -28.6507   23.0339 C   0  0  0  0  0  0
  -26.4448  -31.6620   25.0725 C   0  0  0  0  0  0
  -25.3748  -31.3759   26.1515 C   0  0  0  0  0  0
  -27.0231  -30.3053   24.6054 C   0  0  0  0  0  0
  -27.6088  -32.4312   25.7410 C   0  0  0  0  0  0
  -27.5585  -37.1799   24.8452 C   0  0  0  0  0  0
  -21.4135  -29.3004   22.3752 N   0  0  0  0  0  0
  -26.4288  -37.3776   23.9408 N   0  0  0  0  0  0
  -24.6616  -31.0812   22.1003 N   0  0  0  0  0  0
  -23.4179  -28.8187   23.3058 O   0  0  0  0  0  0
  -28.4065  -26.7111   20.0353 O   0  0  0  0  0  0
  -26.5573  -34.8921   22.4704 O   0  0  0  0  0  0
  -23.5297  -32.1408   23.7528 O   0  0  0  0  0  0
  -31.0432  -17.2771   17.1930 C   0  0  0  0  0  0
  -30.5414  -18.5690   17.3779 C   0  0  0  0  0  0
  -30.8396  -16.3095   18.1839 C   0  0  0  0  0  0
  -29.8376  -18.9103   18.5500 C   0  0  0  0  0  0
  -29.6570  -17.9389   19.5818 C   0  0  0  0  0  0
  -30.1686  -16.6170   19.3970 C   0  0  0  0  0  0
  -30.3049  -23.9298   19.3347 C   0  0  0  0  0  0
  -30.5883  -25.1827   18.9122 C   0  0  0  0  0  0
  -30.1007  -22.7764   18.4364 C   0  0  0  0  0  0
  -26.6780  -18.3582   22.0834 C   0  0  0  0  0  0
  -29.2881  -20.3346   18.6040 C   0  0  0  0  0  0
  -28.9297  -18.3132   20.8708 C   0  0  0  0  0  0
  -30.8102  -26.3722   19.8331 C   0  0  0  0  0  0
  -30.3640  -21.3713   18.9899 C   0  0  0  0  0  0
  -27.4036  -18.1960   20.7438 C   0  0  0  0  0  0
  -29.6497  -27.3832   19.8417 C   0  0  0  0  0  0
  -29.9653  -15.5809   20.3760 N   0  0  0  0  0  0
  -29.7802  -22.9073   17.2498 O   0  0  0  0  0  0
  -30.7436  -25.5474   17.6274 O   0  0  0  0  0  0
  -31.4625  -12.3570   19.1445 H   0  0  0  0  0  0
  -30.2845  -11.2825   19.8608 H   0  0  0  0  0  0
  -29.7438  -11.7574   17.4339 H   0  0  0  0  0  0
  -29.6758  -13.4660   17.7758 H   0  0  0  0  0  0
  -27.8213  -11.3018   18.8196 H   0  0  0  0  0  0
  -27.3815  -12.6309   17.7775 H   0  0  0  0  0  0
  -27.6785  -14.2496   19.5256 H   0  0  0  0  0  0
  -28.6662  -12.0590   21.4226 H   0  0  0  0  0  0
  -28.4926  -13.7539   21.8063 H   0  0  0  0  0  0
  -25.2780   -9.5663   22.4737 H   0  0  0  0  0  0
  -24.0031   -7.4610   22.7423 H   0  0  0  0  0  0
  -21.0840   -8.8774   19.8943 H   0  0  0  0  0  0
  -22.3707  -10.9669   19.6151 H   0  0  0  0  0  0
  -21.2024   -7.6138   23.9727 H   0  0  0  0  0  0
  -21.1457   -6.0512   25.9085 H   0  0  0  0  0  0
  -22.0609   -2.7614   23.2825 H   0  0  0  0  0  0
  -22.4104  -11.9923   22.4832 H   0  0  0  0  0  0
  -21.1112  -13.1281   22.2574 H   0  0  0  0  0  0
  -24.6592  -15.8404   20.4755 H   0  0  0  0  0  0
  -26.2686  -15.6022   20.0307 H   0  0  0  0  0  0
  -26.7095  -32.5576   23.1200 H   0  0  0  0  0  0
  -25.0073  -33.9810   25.0527 H   0  0  0  0  0  0
  -22.6841  -31.2998   21.4108 H   0  0  0  0  0  0
  -23.3755  -35.9644   23.3307 H   0  0  0  0  0  0
  -24.3594  -36.8895   22.2046 H   0  0  0  0  0  0
  -23.7269  -37.6528   23.6627 H   0  0  0  0  0  0
  -26.0257  -31.6183   20.5938 H   0  0  0  0  0  0
  -26.8107  -30.9107   21.9744 H   0  0  0  0  0  0
  -28.0886  -29.1817   21.1682 H   0  0  0  0  0  0
  -26.1169  -25.9691   19.0595 H   0  0  0  0  0  0
  -24.0010  -27.2629   19.0717 H   0  0  0  0  0  0
  -23.7073  -30.5845   19.4017 H   0  0  0  0  0  0
  -22.7390  -29.2220   19.8835 H   0  0  0  0  0  0
  -25.1282  -36.1980   25.0849 H   0  0  0  0  0  0
  -20.9930  -28.3196   24.1477 H   0  0  0  0  0  0
  -20.5672  -26.2224   23.3584 H   0  0  0  0  0  0
  -21.6647  -26.7439   22.1205 H   0  0  0  0  0  0
  -19.6886  -25.6291   21.1225 H   0  0  0  0  0  0
  -19.6667  -27.3197   20.6755 H   0  0  0  0  0  0
  -17.4173  -26.6679   21.4042 H   0  0  0  0  0  0
  -18.0301  -26.0071   22.9024 H   0  0  0  0  0  0
  -19.7905  -30.7290   24.2256 H   0  0  0  0  0  0
  -17.4977  -31.6265   24.5163 H   0  0  0  0  0  0
  -15.5319  -30.2972   23.7649 H   0  0  0  0  0  0
  -15.8668  -28.0823   22.7026 H   0  0  0  0  0  0
  -24.5763  -30.7297   25.7853 H   0  0  0  0  0  0
  -24.9141  -32.2957   26.5146 H   0  0  0  0  0  0
  -25.8080  -30.8726   27.0169 H   0  0  0  0  0  0
  -26.2720  -29.6829   24.1169 H   0  0  0  0  0  0
  -27.4087  -29.7284   25.4470 H   0  0  0  0  0  0
  -27.8534  -30.4378   23.9119 H   0  0  0  0  0  0
  -27.2780  -33.3645   26.1996 H   0  0  0  0  0  0
  -28.3849  -32.6817   25.0164 H   0  0  0  0  0  0
  -28.0796  -31.8427   26.5300 H   0  0  0  0  0  0
  -28.2604  -38.0095   24.7532 H   0  0  0  0  0  0
  -28.1093  -36.2652   24.6228 H   0  0  0  0  0  0
  -27.2326  -37.1422   25.8859 H   0  0  0  0  0  0
  -20.9273  -29.8713   21.6986 H   0  0  0  0  0  0
  -26.0194  -38.2852   24.1412 H   0  0  0  0  0  0
  -31.5749  -17.0152   16.2889 H   0  0  0  0  0  0
  -30.6925  -19.3033   16.5993 H   0  0  0  0  0  0
  -31.2148  -15.3165   17.9803 H   0  0  0  0  0  0
  -30.2195  -23.7430   20.3961 H   0  0  0  0  0  0
  -25.6007  -18.2535   21.9510 H   0  0  0  0  0  0
  -26.8602  -19.3408   22.5191 H   0  0  0  0  0  0
  -26.9945  -17.5993   22.8018 H   0  0  0  0  0  0
  -28.4421  -20.4193   19.2809 H   0  0  0  0  0  0
  -28.8782  -20.5541   17.6152 H   0  0  0  0  0  0
  -29.2051  -19.3256   21.1672 H   0  0  0  0  0  0
  -29.2818  -17.6834   21.6872 H   0  0  0  0  0  0
  -31.7371  -26.8781   19.5522 H   0  0  0  0  0  0
  -30.9674  -26.0017   20.8471 H   0  0  0  0  0  0
  -30.5019  -21.3958   20.0705 H   0  0  0  0  0  0
  -31.3194  -21.0678   18.5650 H   0  0  0  0  0  0
  -27.0182  -18.9287   20.0347 H   0  0  0  0  0  0
  -27.1581  -17.2244   20.3195 H   0  0  0  0  0  0
  -29.6219  -27.9418   18.9049 H   0  0  0  0  0  0
  -29.8504  -28.0938   20.6429 H   0  0  0  0  0  0
  -29.0407  -15.5248   20.7724 H   0  0  0  0  0  0
  -30.5535  -24.7841   17.0912 H   0  0  0  0  0  0
  1 25  1  0  0  0
  1 30  2  0  0  0
  1 87  1  0  0  0
  2  3  1  0  0  0
  2 25  1  0  0  0
  2 90  1  0  0  0
  2 91  1  0  0  0
  3  4  1  0  0  0
  3 92  1  0  0  0
  3 93  1  0  0  0
  4  5  1  0  0  0
  4 94  1  0  0  0
  4 95  1  0  0  0
  5  6  1  0  0  0
  5 26  1  0  0  0
  5 96  1  0  0  0
  6 25  1  0  0  0
  6 97  1  0  0  0
  6 98  1  0  0  0
  7  8  2  0  0  0
  7 26  1  0  0  0
  7 29  1  0  0  0
  8  9  1  0  0  0
  8 22  1  0  0  0
  9 10  1  0  0  0
  9 27  2  0  0  0
 10 11  2  0  0  0
 10 15  1  0  0  0
 11 12  1  0  0  0
 11 99  1  0  0  0
 12 13  2  0  0  0
 12100  1  0  0  0
 13 14  1  0  0  0
 13 31  1  0  0  0
 14 15  2  0  0  0
 14101  1  0  0  0
 15102  1  0  0  0
 16 17  2  0  0  0
 16 21  1  0  0  0
 16 31  1  0  0  0
 17 18  1  0  0  0
 17103  1  0  0  0
 18 19  2  0  0  0
 18104  1  0  0  0
 19 20  1  0  0  0
 19 24  1  0  0  0
 20 21  2  0  0  0
 20105  1  0  0  0
 21 23  1  0  0  0
 22 28  1  0  0  0
 22 32  2  0  0  0
 26 27  1  0  0  0
 28106  1  0  0  0
 28107  1  0  0  0
 29108  1  0  0  0
 29109  1  0  0  0
 33 34  1  0  0  0
 33 66  1  0  0  0
 33 70  2  0  0  0
 34 36  1  0  0  0
 34 59  1  0  0  0
 34110  1  0  0  0
 35 44  2  0  0  0
 35 45  1  0  0  0
 35 68  1  0  0  0
 36 56  1  0  0  0
 36111  1  0  0  0
 37 39  1  0  0  0
 37 47  1  0  0  0
 37 66  1  0  0  0
 37112  1  0  0  0
 38 43  2  0  0  0
 38 46  1  0  0  0
 38 47  1  0  0  0
 39 64  1  0  0  0
 39 67  2  0  0  0
 40 52  1  0  0  0
 40 53  2  0  0  0
 40 58  1  0  0  0
 41113  1  0  0  0
 41114  1  0  0  0
 41115  1  0  0  0
 41 48  1  0  0  0
 42 43  1  0  0  0
 42 66  1  0  0  0
 42116  1  0  0  0
 42117  1  0  0  0
 43 44  1  0  0  0
 44118  1  0  0  0
 45 46  2  0  0  0
 45119  1  0  0  0
 46120  1  0  0  0
 47121  1  0  0  0
 47122  1  0  0  0
 48 56  1  0  0  0
 48 65  1  0  0  0
 48123  1  0  0  0
 49 50  1  0  0  0
 49 53  1  0  0  0
 49 64  1  0  0  0
 49124  1  0  0  0
 50 51  1  0  0  0
 50125  1  0  0  0
 50126  1  0  0  0
 51 52  1  0  0  0
 51127  1  0  0  0
 51128  1  0  0  0
 52129  1  0  0  0
 52130  1  0  0  0
 53 54  1  0  0  0
 54 55  2  0  0  0
 54131  1  0  0  0
 55 57  1  0  0  0
 55132  1  0  0  0
 56 69  2  0  0  0
 57 58  2  0  0  0
 57133  1  0  0  0
 58134  1  0  0  0
 59 60  1  0  0  0
 59 61  1  0  0  0
 59 62  1  0  0  0
 60135  1  0  0  0
 60136  1  0  0  0
 60137  1  0  0  0
 61138  1  0  0  0
 61139  1  0  0  0
 61140  1  0  0  0
 62141  1  0  0  0
 62142  1  0  0  0
 62143  1  0  0  0
 63 65  1  0  0  0
 63144  1  0  0  0
 63145  1  0  0  0
 63146  1  0  0  0
 64147  1  0  0  0
 65148  1  0  0  0
 68 86  1  0  0  0
 71 72  2  0  0  0
 71 73  1  0  0  0
 71149  1  0  0  0
 72 74  1  0  0  0
 72150  1  0  0  0
 73 76  2  0  0  0
 73151  1  0  0  0
 74 75  2  0  0  0
 74 81  1  0  0  0
 75 76  1  0  0  0
 75 82  1  0  0  0
 76 87  1  0  0  0
 77 78  2  0  0  0
 77 79  1  0  0  0
 77152  1  0  0  0
 78 83  1  0  0  0
 78 89  1  0  0  0
 79 84  1  0  0  0
 79 88  2  0  0  0
 80 85  1  0  0  0
 80153  1  0  0  0
 80154  1  0  0  0
 80155  1  0  0  0
 81 84  1  0  0  0
 81156  1  0  0  0
 81157  1  0  0  0
 82 85  1  0  0  0
 82158  1  0  0  0
 82159  1  0  0  0
 83 86  1  0  0  0
 83160  1  0  0  0
 83161  1  0  0  0
 84162  1  0  0  0
 84163  1  0  0  0
 85164  1  0  0  0
 85165  1  0  0  0
 86166  1  0  0  0
 86167  1  0  0  0
 87168  1  0  0  0
 89169  1  0  0  0
M  ISO  4   1 100  68 101  86 101  87 100
M  END
> <chiral flag>
0

> <version>
0

> <s_m_source_file>
/data/baiqing/PycharmProjects/Reinvent-master-3.2/result/LINK_invent/BTK/process_docking_weight1_custom_product_contain_oxygen_bond_distance_aromatic_linkinvent_7_9_3/rearranged_h_0130.sdf

> <i_m_source_file_index>
90

> <r_mmod_Potential_Energy-OPLS-2005>
3.62240362167358

> <r_mmod_Stretch_Energy-OPLS-2005>
37.5900421142578

> <r_mmod_Bend_Energy-OPLS-2005>
97.4060134887695

> <r_mmod_Torsional_Energy-OPLS-2005>
256.579925537109

> <r_mmod_Improper_Torsional_Energy-OPLS-2005>
11.0595998764038

> <r_mmod_Van_der_Waal_Energy-OPLS-2005>
158.283096313477

> <r_mmod_Electrostatic_Energy-OPLS-2005>
-366.617279052734

> <r_mmod_Solvation_Energy-OPLS-2005>
-213.050643920898

> <b_mmod_Minimization_Converged-OPLS-2005>
0

> <r_mmod_RMS_Derivative-OPLS-2005>
4.03507709503174

$$$$
90
                    3D
 Structure written by MMmdl.
162171  0  0  1  0            999 V2000
  -30.6562  -14.5957   20.6103 C   0  0  0  0  0  0
  -30.4424  -12.4041   19.4284 C   0  0  0  0  0  0
  -29.5034  -12.5478   18.2103 C   0  0  0  0  0  0
  -28.0242  -12.3812   18.6143 C   0  0  0  0  0  0
  -27.6612  -13.2128   19.8717 C   0  0  2  0  0  0
  -28.7043  -12.9960   20.9876 C   0  0  0  0  0  0
  -25.2571  -13.8178   20.5668 C   0  0  0  0  0  0
  -24.1810  -13.0455   20.9150 C   0  0  0  0  0  0
  -24.6377  -11.6922   20.8724 C   0  0  0  0  0  0
  -23.9048  -10.4304   21.0414 C   0  0  0  0  0  0
  -24.3605   -9.4208   21.9184 C   0  0  0  0  0  0
  -23.6298   -8.2231   22.0743 C   0  0  0  0  0  0
  -22.4285   -8.0270   21.3548 C   0  0  0  0  0  0
  -21.9921   -9.0239   20.4646 C   0  0  0  0  0  0
  -22.7224  -10.2130   20.3055 C   0  0  0  0  0  0
  -21.6847   -6.0746   22.5268 C   0  0  0  0  0  0
  -21.4002   -6.5648   23.8204 C   0  0  0  0  0  0
  -21.3661   -5.6793   24.9169 C   0  0  0  0  0  0
  -21.6051   -4.3055   24.7212 C   0  0  0  0  0  0
  -21.8819   -3.8153   23.4326 C   0  0  0  0  0  0
  -21.9183   -4.6976   22.3381 C   0  0  0  0  0  0
  -22.7826  -13.5245   21.1834 C   0  0  0  0  0  0
  -22.1644   -4.2169   21.0958 F   0  0  0  0  0  0
  -21.5650   -3.4532   25.7721 F   0  0  0  0  0  0
  -30.0248  -13.3838   20.4529 N   0  0  0  0  0  0
  -26.3020  -12.9348   20.3336 N   0  0  0  0  0  0
  -25.9309  -11.6510   20.5728 N   0  0  0  0  0  0
  -22.0454  -12.8246   22.0400 N   0  0  0  0  0  0
  -25.4328  -15.1891   20.4085 N   0  0  0  0  0  0
  -31.7381  -14.8186   20.0547 O   0  0  0  0  0  0
  -21.6636   -6.8884   21.4238 O   0  0  0  0  0  0
  -22.3503  -14.5543   20.6666 O   0  0  0  0  0  0
  -24.6238  -31.8616   23.2032 C   0  0  0  0  0  0
  -25.9095  -32.4779   23.8387 C   0  0  1  0  0  0
  -27.2346  -27.3596   20.1154 C   0  0  0  0  0  0
  -25.5918  -33.8580   24.2308 N   0  0  0  0  0  0
  -23.4197  -30.4811   21.5429 C   0  0  2  0  0  0
  -24.8730  -28.9391   20.1101 C   0  0  0  0  0  0
  -22.7483  -29.4620   22.4931 C   0  0  0  0  0  0
  -18.0289  -28.1384   22.8470 C   0  0  0  0  0  0
  -24.1493  -36.7291   23.2642 C   0  0  0  0  0  0
  -25.9568  -30.8016   21.3745 C   0  0  0  0  0  0
  -26.0365  -29.4325   20.7158 C   0  0  0  0  0  0
  -27.2251  -28.6509   20.7144 C   0  0  0  0  0  0
  -26.0590  -26.9048   19.4897 C   0  0  0  0  0  0
  -24.8815  -27.6773   19.4904 C   0  0  0  0  0  0
  -23.6369  -29.8126   20.1592 C   0  0  0  0  0  0
  -25.4113  -36.3080   24.0337 C   0  0  1  0  0  0
  -20.5893  -28.3690   23.1292 C   0  0  2  0  0  0
  -20.6778  -26.9418   22.5407 C   0  0  0  0  0  0
  -19.5752  -26.6378   21.5210 C   0  0  0  0  0  0
  -18.1928  -26.7925   22.1608 C   0  0  0  0  0  0
  -19.1539  -28.8849   23.2871 C   0  0  0  0  0  0
  -18.9461  -30.1454   23.8883 C   0  0  0  0  0  0
  -17.6459  -30.6582   24.0550 C   0  0  0  0  0  0
  -25.9042  -34.9451   23.5115 C   0  0  0  0  0  0
  -16.5359  -29.9067   23.6327 C   0  0  0  0  0  0
  -16.7287  -28.6498   23.0341 C   0  0  0  0  0  0
  -26.4486  -31.6574   25.0753 C   0  0  0  0  0  0
  -25.3732  -31.3715   26.1495 C   0  0  0  0  0  0
  -27.0322  -30.3003   24.6182 C   0  0  0  0  0  0
  -27.6061  -32.4295   25.7511 C   0  0  0  0  0  0
  -27.5587  -37.1802   24.8462 C   0  0  0  0  0  0
  -21.4203  -29.3043   22.3701 N   0  0  0  0  0  0
  -26.4287  -37.3777   23.9422 N   0  0  0  0  0  0
  -24.6844  -31.0649   22.0973 N   0  0  0  0  0  0
  -23.4222  -28.8147   23.2996 O   0  0  0  0  0  0
  -28.3105  -26.4823   20.1727 O   0  0  0  0  0  0
  -26.5593  -34.8918   22.4679 O   0  0  0  0  0  0
  -23.5416  -32.1394   23.7385 O   0  0  0  0  0  0
  -30.9721  -18.0944   19.5399 C   0  0  0  0  0  0
  -31.2896  -19.2878   18.8608 C   0  0  0  0  0  0
  -29.5604  -19.3992   21.0044 C   0  0  0  0  0  0
  -30.1183  -18.1266   20.6532 C   0  0  0  0  0  0
  -30.7871  -20.5566   19.2602 C   0  0  0  0  0  0
  -29.8557  -20.6437   20.3438 C   0  0  0  0  0  0
  -28.4952  -24.1761   21.1883 C   0  0  0  0  0  0
  -29.7924  -16.9205   21.4970 C   0  0  0  0  0  0
  -28.1964  -25.5134   21.1680 C   0  0  0  0  0  0
  -29.9841  -15.5578   21.5141 C   0  0  0  0  0  0
  -28.2485  -23.3639   22.4372 C   0  0  0  0  0  0
  -29.0769  -23.2050   20.1470 C   0  0  0  0  0  0
  -28.8238  -21.9622   22.2075 C   0  0  0  0  0  0
  -32.5064  -21.6187   17.6024 C   0  0  0  0  0  0
  -31.3321  -21.8142   18.5775 C   0  0  0  0  0  0
  -29.2767  -21.8821   20.8199 N   0  0  0  0  0  0
  -31.4809  -12.5462   19.1234 H   0  0  0  0  0  0
  -30.3883  -11.3931   19.8353 H   0  0  0  0  0  0
  -29.7664  -11.8238   17.4366 H   0  0  0  0  0  0
  -29.6392  -13.5348   17.7646 H   0  0  0  0  0  0
  -27.8452  -11.3211   18.7987 H   0  0  0  0  0  0
  -27.3742  -12.6576   17.7835 H   0  0  0  0  0  0
  -27.7026  -14.2645   19.5822 H   0  0  0  0  0  0
  -28.7251  -11.9454   21.2813 H   0  0  0  0  0  0
  -28.4041  -13.5241   21.8875 H   0  0  0  0  0  0
  -25.2756   -9.5713   22.4748 H   0  0  0  0  0  0
  -24.0033   -7.4636   22.7450 H   0  0  0  0  0  0
  -21.0858   -8.8748   19.8942 H   0  0  0  0  0  0
  -22.3685  -10.9660   19.6159 H   0  0  0  0  0  0
  -21.1980   -7.6154   23.9719 H   0  0  0  0  0  0
  -21.1493   -6.0516   25.9081 H   0  0  0  0  0  0
  -22.0605   -2.7622   23.2790 H   0  0  0  0  0  0
  -22.4053  -11.9910   22.4812 H   0  0  0  0  0  0
  -21.1073  -13.1282   22.2629 H   0  0  0  0  0  0
  -24.6781  -15.8537   20.5363 H   0  0  0  0  0  0
  -26.3062  -15.6259   20.1396 H   0  0  0  0  0  0
  -26.7179  -32.5468   23.1165 H   0  0  0  0  0  0
  -25.0112  -33.9730   25.0481 H   0  0  0  0  0  0
  -22.7123  -31.2987   21.3962 H   0  0  0  0  0  0
  -23.3751  -35.9619   23.3274 H   0  0  0  0  0  0
  -24.3595  -36.8938   22.2063 H   0  0  0  0  0  0
  -23.7234  -37.6489   23.6670 H   0  0  0  0  0  0
  -26.0912  -31.5690   20.6112 H   0  0  0  0  0  0
  -26.8386  -30.8478   22.0023 H   0  0  0  0  0  0
  -28.1190  -29.0098   21.2035 H   0  0  0  0  0  0
  -26.0497  -25.9267   19.0281 H   0  0  0  0  0  0
  -23.9877  -27.2890   19.0226 H   0  0  0  0  0  0
  -23.7559  -30.5856   19.3992 H   0  0  0  0  0  0
  -22.7608  -29.2352   19.8586 H   0  0  0  0  0  0
  -25.1277  -36.1935   25.0822 H   0  0  0  0  0  0
  -20.9972  -28.3239   24.1419 H   0  0  0  0  0  0
  -20.5684  -26.2291   23.3598 H   0  0  0  0  0  0
  -21.6649  -26.7444   22.1211 H   0  0  0  0  0  0
  -19.6916  -25.6276   21.1259 H   0  0  0  0  0  0
  -19.6688  -27.3170   20.6722 H   0  0  0  0  0  0
  -17.4206  -26.6685   21.3999 H   0  0  0  0  0  0
  -18.0304  -26.0078   22.9012 H   0  0  0  0  0  0
  -19.7948  -30.7271   24.2249 H   0  0  0  0  0  0
  -17.5022  -31.6271   24.5139 H   0  0  0  0  0  0
  -15.5353  -30.2962   23.7667 H   0  0  0  0  0  0
  -15.8684  -28.0817   22.7038 H   0  0  0  0  0  0
  -24.5857  -30.7117   25.7837 H   0  0  0  0  0  0
  -24.8979  -32.2885   26.4992 H   0  0  0  0  0  0
  -25.8071  -30.8838   27.0233 H   0  0  0  0  0  0
  -26.2896  -29.6761   24.1201 H   0  0  0  0  0  0
  -27.4028  -29.7245   25.4673 H   0  0  0  0  0  0
  -27.8760  -30.4300   23.9400 H   0  0  0  0  0  0
  -27.2692  -33.3597   26.2103 H   0  0  0  0  0  0
  -28.3870  -32.6855   25.0333 H   0  0  0  0  0  0
  -28.0728  -31.8403   26.5419 H   0  0  0  0  0  0
  -28.2585  -38.0125   24.7529 H   0  0  0  0  0  0
  -28.1096  -36.2648   24.6227 H   0  0  0  0  0  0
  -27.2314  -37.1398   25.8870 H   0  0  0  0  0  0
  -20.9371  -29.8788   21.6935 H   0  0  0  0  0  0
  -26.0159  -38.2855   24.1398 H   0  0  0  0  0  0
  -31.4308  -17.1727   19.2194 H   0  0  0  0  0  0
  -31.9824  -19.1970   18.0382 H   0  0  0  0  0  0
  -28.8787  -19.3963   21.8399 H   0  0  0  0  0  0
  -29.2437  -17.2291   22.3753 H   0  0  0  0  0  0
  -27.7805  -25.9551   22.0650 H   0  0  0  0  0  0
  -29.5709  -15.1149   22.4055 H   0  0  0  0  0  0
  -27.1723  -23.2971   22.6100 H   0  0  0  0  0  0
  -28.6935  -23.8402   23.3135 H   0  0  0  0  0  0
  -29.9952  -23.6530   19.7781 H   0  0  0  0  0  0
  -28.3818  -23.1067   19.3115 H   0  0  0  0  0  0
  -28.0504  -21.2264   22.4341 H   0  0  0  0  0  0
  -29.6611  -21.7821   22.8850 H   0  0  0  0  0  0
  -32.9287  -22.5787   17.3055 H   0  0  0  0  0  0
  -32.1960  -21.1047   16.6907 H   0  0  0  0  0  0
  -33.3143  -21.0529   18.0661 H   0  0  0  0  0  0
  -31.6878  -22.4726   19.3710 H   0  0  0  0  0  0
  -30.5159  -22.3194   18.0596 H   0  0  0  0  0  0
  1 25  1  0  0  0
  1 30  2  0  0  0
  1 80  1  0  0  0
  2  3  1  0  0  0
  2 25  1  0  0  0
  2 87  1  0  0  0
  2 88  1  0  0  0
  3  4  1  0  0  0
  3 89  1  0  0  0
  3 90  1  0  0  0
  4  5  1  0  0  0
  4 91  1  0  0  0
  4 92  1  0  0  0
  5  6  1  0  0  0
  5 26  1  0  0  0
  5 93  1  0  0  0
  6 25  1  0  0  0
  6 94  1  0  0  0
  6 95  1  0  0  0
  7  8  2  0  0  0
  7 26  1  0  0  0
  7 29  1  0  0  0
  8  9  1  0  0  0
  8 22  1  0  0  0
  9 10  1  0  0  0
  9 27  2  0  0  0
 10 11  2  0  0  0
 10 15  1  0  0  0
 11 12  1  0  0  0
 11 96  1  0  0  0
 12 13  2  0  0  0
 12 97  1  0  0  0
 13 14  1  0  0  0
 13 31  1  0  0  0
 14 15  2  0  0  0
 14 98  1  0  0  0
 15 99  1  0  0  0
 16 17  2  0  0  0
 16 21  1  0  0  0
 16 31  1  0  0  0
 17 18  1  0  0  0
 17100  1  0  0  0
 18 19  2  0  0  0
 18101  1  0  0  0
 19 20  1  0  0  0
 19 24  1  0  0  0
 20 21  2  0  0  0
 20102  1  0  0  0
 21 23  1  0  0  0
 22 28  1  0  0  0
 22 32  2  0  0  0
 26 27  1  0  0  0
 28103  1  0  0  0
 28104  1  0  0  0
 29105  1  0  0  0
 29106  1  0  0  0
 33 34  1  0  0  0
 33 66  1  0  0  0
 33 70  2  0  0  0
 34 36  1  0  0  0
 34 59  1  0  0  0
 34107  1  0  0  0
 35 44  2  0  0  0
 35 45  1  0  0  0
 35 68  1  0  0  0
 36 56  1  0  0  0
 36108  1  0  0  0
 37 39  1  0  0  0
 37 47  1  0  0  0
 37 66  1  0  0  0
 37109  1  0  0  0
 38 43  2  0  0  0
 38 46  1  0  0  0
 38 47  1  0  0  0
 39 64  1  0  0  0
 39 67  2  0  0  0
 40 52  1  0  0  0
 40 53  2  0  0  0
 40 58  1  0  0  0
 41110  1  0  0  0
 41111  1  0  0  0
 41112  1  0  0  0
 41 48  1  0  0  0
 42 43  1  0  0  0
 42 66  1  0  0  0
 42113  1  0  0  0
 42114  1  0  0  0
 43 44  1  0  0  0
 44115  1  0  0  0
 45 46  2  0  0  0
 45116  1  0  0  0
 46117  1  0  0  0
 47118  1  0  0  0
 47119  1  0  0  0
 48 56  1  0  0  0
 48 65  1  0  0  0
 48120  1  0  0  0
 49 50  1  0  0  0
 49 53  1  0  0  0
 49 64  1  0  0  0
 49121  1  0  0  0
 50 51  1  0  0  0
 50122  1  0  0  0
 50123  1  0  0  0
 51 52  1  0  0  0
 51124  1  0  0  0
 51125  1  0  0  0
 52126  1  0  0  0
 52127  1  0  0  0
 53 54  1  0  0  0
 54 55  2  0  0  0
 54128  1  0  0  0
 55 57  1  0  0  0
 55129  1  0  0  0
 56 69  2  0  0  0
 57 58  2  0  0  0
 57130  1  0  0  0
 58131  1  0  0  0
 59 60  1  0  0  0
 59 61  1  0  0  0
 59 62  1  0  0  0
 60132  1  0  0  0
 60133  1  0  0  0
 60134  1  0  0  0
 61135  1  0  0  0
 61136  1  0  0  0
 61137  1  0  0  0
 62138  1  0  0  0
 62139  1  0  0  0
 62140  1  0  0  0
 63 65  1  0  0  0
 63141  1  0  0  0
 63142  1  0  0  0
 63143  1  0  0  0
 64144  1  0  0  0
 65145  1  0  0  0
 68 79  1  0  0  0
 71 72  2  0  0  0
 71 74  1  0  0  0
 71146  1  0  0  0
 72 75  1  0  0  0
 72147  1  0  0  0
 73 74  2  0  0  0
 73 76  1  0  0  0
 73148  1  0  0  0
 74 78  1  0  0  0
 75 76  2  0  0  0
 75 85  1  0  0  0
 76 86  1  0  0  0
 77 79  2  0  0  0
 77 81  1  0  0  0
 77 82  1  0  0  0
 78 80  2  0  0  0
 78149  1  0  0  0
 79150  1  0  0  0
 80151  1  0  0  0
 81 83  1  0  0  0
 81152  1  0  0  0
 81153  1  0  0  0
 82 86  1  0  0  0
 82154  1  0  0  0
 82155  1  0  0  0
 83 86  1  0  0  0
 83156  1  0  0  0
 83157  1  0  0  0
 84 85  1  0  0  0
 84158  1  0  0  0
 84159  1  0  0  0
 84160  1  0  0  0
 85161  1  0  0  0
 85162  1  0  0  0
M  ISO  4   1 100  68 101  79 101  80 100
M  END
> <chiral flag>
0

> <version>
0

> <s_m_source_file>
/data/baiqing/PycharmProjects/Reinvent-master-3.2/result/LINK_invent/BTK/process_docking_weight1_custom_product_contain_oxygen_bond_distance_aromatic_linkinvent_7_9_3/rearranged_h_0130.sdf

> <i_m_source_file_index>
91

> <r_mmod_Potential_Energy-OPLS-2005>
170.583557128906

> <r_mmod_Stretch_Energy-OPLS-2005>
68.3567352294922

> <r_mmod_Bend_Energy-OPLS-2005>
230.873321533203

> <r_mmod_Torsional_Energy-OPLS-2005>
217.134170532227

> <r_mmod_Improper_Torsional_Energy-OPLS-2005>
2.46375250816345

> <r_mmod_Van_der_Waal_Energy-OPLS-2005>
156.907775878906

> <r_mmod_Electrostatic_Energy-OPLS-2005>
-335.254974365234

> <r_mmod_Solvation_Energy-OPLS-2005>
-207.357330322266

> <b_mmod_Minimization_Converged-OPLS-2005>
0

> <r_mmod_RMS_Derivative-OPLS-2005>
3.67693543434143

$$$$
91
                    3D
 Structure written by MMmdl.
151159  0  0  1  0            999 V2000
  -30.6776  -14.5977   20.4784 C   0  0  0  0  0  0
  -30.4188  -12.3571   19.4666 C   0  0  0  0  0  0
  -29.5069  -12.5026   18.2281 C   0  0  0  0  0  0
  -28.0242  -12.3653   18.6259 C   0  0  0  0  0  0
  -27.6515  -13.2292   19.8614 C   0  0  2  0  0  0
  -28.6922  -13.0892   20.9937 C   0  0  0  0  0  0
  -25.2543  -13.8203   20.5681 C   0  0  0  0  0  0
  -24.1820  -13.0452   20.9183 C   0  0  0  0  0  0
  -24.6403  -11.6926   20.8729 C   0  0  0  0  0  0
  -23.9078  -10.4297   21.0396 C   0  0  0  0  0  0
  -24.3628   -9.4216   21.9177 C   0  0  0  0  0  0
  -23.6300   -8.2252   22.0749 C   0  0  0  0  0  0
  -22.4283   -8.0285   21.3532 C   0  0  0  0  0  0
  -21.9922   -9.0262   20.4634 C   0  0  0  0  0  0
  -22.7255  -10.2142   20.3040 C   0  0  0  0  0  0
  -21.6858   -6.0739   22.5280 C   0  0  0  0  0  0
  -21.4016   -6.5643   23.8210 C   0  0  0  0  0  0
  -21.3656   -5.6792   24.9167 C   0  0  0  0  0  0
  -21.6043   -4.3052   24.7216 C   0  0  0  0  0  0
  -21.8818   -3.8143   23.4337 C   0  0  0  0  0  0
  -21.9198   -4.6966   22.3400 C   0  0  0  0  0  0
  -22.7838  -13.5231   21.1849 C   0  0  0  0  0  0
  -22.1665   -4.2149   21.0981 F   0  0  0  0  0  0
  -21.5629   -3.4536   25.7731 F   0  0  0  0  0  0
  -30.0158  -13.3976   20.4356 N   0  0  0  0  0  0
  -26.2985  -12.9410   20.3308 N   0  0  0  0  0  0
  -25.9335  -11.6552   20.5740 N   0  0  0  0  0  0
  -22.0486  -12.8206   22.0399 N   0  0  0  0  0  0
  -25.4261  -15.1918   20.4099 N   0  0  0  0  0  0
  -31.8533  -14.6620   20.1090 O   0  0  0  0  0  0
  -21.6645   -6.8884   21.4240 O   0  0  0  0  0  0
  -22.3516  -14.5543   20.6706 O   0  0  0  0  0  0
  -24.6238  -31.8607   23.2063 C   0  0  0  0  0  0
  -25.9106  -32.4775   23.8373 C   0  0  1  0  0  0
  -27.2249  -27.3652   20.1112 C   0  0  0  0  0  0
  -25.5947  -33.8576   24.2306 N   0  0  0  0  0  0
  -23.4145  -30.4856   21.5466 C   0  0  2  0  0  0
  -24.8612  -28.9442   20.1118 C   0  0  0  0  0  0
  -22.7449  -29.4642   22.4957 C   0  0  0  0  0  0
  -18.0274  -28.1393   22.8482 C   0  0  0  0  0  0
  -24.1483  -36.7285   23.2633 C   0  0  0  0  0  0
  -25.9504  -30.8072   21.3679 C   0  0  0  0  0  0
  -26.0276  -29.4385   20.7110 C   0  0  0  0  0  0
  -27.2180  -28.6597   20.7007 C   0  0  0  0  0  0
  -26.0426  -26.9088   19.4915 C   0  0  0  0  0  0
  -24.8678  -27.6829   19.4937 C   0  0  0  0  0  0
  -23.6264  -29.8180   20.1617 C   0  0  0  0  0  0
  -25.4101  -36.3075   24.0334 C   0  0  1  0  0  0
  -20.5873  -28.3689   23.1296 C   0  0  2  0  0  0
  -20.6765  -26.9412   22.5421 C   0  0  0  0  0  0
  -19.5751  -26.6388   21.5212 C   0  0  0  0  0  0
  -18.1923  -26.7938   22.1606 C   0  0  0  0  0  0
  -19.1527  -28.8861   23.2881 C   0  0  0  0  0  0
  -18.9448  -30.1461   23.8900 C   0  0  0  0  0  0
  -17.6449  -30.6595   24.0575 C   0  0  0  0  0  0
  -25.9047  -34.9448   23.5113 C   0  0  0  0  0  0
  -16.5341  -29.9091   23.6344 C   0  0  0  0  0  0
  -16.7257  -28.6511   23.0354 C   0  0  0  0  0  0
  -26.4511  -31.6570   25.0724 C   0  0  0  0  0  0
  -25.3767  -31.3685   26.1467 C   0  0  0  0  0  0
  -27.0339  -30.2992   24.6145 C   0  0  0  0  0  0
  -27.6081  -32.4298   25.7486 C   0  0  0  0  0  0
  -27.5587  -37.1777   24.8444 C   0  0  0  0  0  0
  -21.4167  -29.3044   22.3694 N   0  0  0  0  0  0
  -26.4262  -37.3788   23.9442 N   0  0  0  0  0  0
  -24.6816  -31.0661   22.0984 N   0  0  0  0  0  0
  -23.4185  -28.8184   23.3034 O   0  0  0  0  0  0
  -28.3296  -26.5217   20.1377 O   0  0  0  0  0  0
  -26.5597  -34.8917   22.4667 O   0  0  0  0  0  0
  -23.5417  -32.1386   23.7423 O   0  0  0  0  0  0
  -28.7585  -18.7943   21.3926 C   0  0  0  0  0  0
  -30.2982  -19.5038   19.6870 C   0  0  0  0  0  0
  -28.2903  -20.1332   21.4967 C   0  0  0  0  0  0
  -29.8222  -20.8439   19.7813 C   0  0  0  0  0  0
  -29.7887  -18.4460   20.4895 C   0  0  0  0  0  0
  -28.8022  -21.1940   20.7011 C   0  0  0  0  0  0
  -30.3422  -17.0502   20.3303 C   0  0  0  0  0  0
  -29.9055  -15.8327   20.7848 C   0  0  0  0  0  0
  -28.7021  -23.9583   20.2730 C   0  0  0  0  0  0
  -28.1659  -22.6170   20.8874 C   0  0  0  0  0  0
  -28.0972  -25.2744   20.8746 C   0  0  0  0  0  0
  -29.5336  -23.9890   19.3592 O   0  0  0  0  0  0
  -31.4676  -12.4332   19.1737 H   0  0  0  0  0  0
  -30.3102  -11.3654   19.9089 H   0  0  0  0  0  0
  -29.7625  -11.7521   17.4788 H   0  0  0  0  0  0
  -29.6743  -13.4734   17.7581 H   0  0  0  0  0  0
  -27.8357  -11.3127   18.8362 H   0  0  0  0  0  0
  -27.3829  -12.6242   17.7823 H   0  0  0  0  0  0
  -27.6695  -14.2673   19.5288 H   0  0  0  0  0  0
  -28.6847  -12.0745   21.3927 H   0  0  0  0  0  0
  -28.4460  -13.7362   21.8362 H   0  0  0  0  0  0
  -25.2772   -9.5697   22.4761 H   0  0  0  0  0  0
  -24.0004   -7.4646   22.7472 H   0  0  0  0  0  0
  -21.0855   -8.8777   19.8942 H   0  0  0  0  0  0
  -22.3708  -10.9679   19.6149 H   0  0  0  0  0  0
  -21.2002   -7.6151   23.9719 H   0  0  0  0  0  0
  -21.1481   -6.0517   25.9076 H   0  0  0  0  0  0
  -22.0601   -2.7607   23.2832 H   0  0  0  0  0  0
  -22.4098  -11.9850   22.4751 H   0  0  0  0  0  0
  -21.1101  -13.1218   22.2608 H   0  0  0  0  0  0
  -24.6633  -15.8515   20.5184 H   0  0  0  0  0  0
  -26.2825  -15.6288   20.0929 H   0  0  0  0  0  0
  -26.7179  -32.5460   23.1136 H   0  0  0  0  0  0
  -25.0167  -33.9721   25.0502 H   0  0  0  0  0  0
  -22.7079  -31.3059   21.4037 H   0  0  0  0  0  0
  -23.3765  -35.9591   23.3218 H   0  0  0  0  0  0
  -24.3603  -36.8980   22.2066 H   0  0  0  0  0  0
  -23.7194  -37.6446   23.6702 H   0  0  0  0  0  0
  -26.0715  -31.5709   20.5994 H   0  0  0  0  0  0
  -26.8356  -30.8585   21.9897 H   0  0  0  0  0  0
  -28.1162  -29.0326   21.1730 H   0  0  0  0  0  0
  -26.0210  -25.9367   19.0187 H   0  0  0  0  0  0
  -23.9724  -27.2995   19.0225 H   0  0  0  0  0  0
  -23.7426  -30.5922   19.4031 H   0  0  0  0  0  0
  -22.7490  -29.2425   19.8610 H   0  0  0  0  0  0
  -25.1269  -36.1910   25.0822 H   0  0  0  0  0  0
  -20.9947  -28.3253   24.1428 H   0  0  0  0  0  0
  -20.5658  -26.2295   23.3620 H   0  0  0  0  0  0
  -21.6636  -26.7459   22.1217 H   0  0  0  0  0  0
  -19.6910  -25.6294   21.1250 H   0  0  0  0  0  0
  -19.6702  -27.3198   20.6744 H   0  0  0  0  0  0
  -17.4203  -26.6710   21.3992 H   0  0  0  0  0  0
  -18.0296  -26.0067   22.8985 H   0  0  0  0  0  0
  -19.7925  -30.7279   24.2263 H   0  0  0  0  0  0
  -17.5004  -31.6276   24.5170 H   0  0  0  0  0  0
  -15.5344  -30.3000   23.7674 H   0  0  0  0  0  0
  -15.8644  -28.0840   22.7075 H   0  0  0  0  0  0
  -24.6003  -30.6943   25.7833 H   0  0  0  0  0  0
  -24.8886  -32.2826   26.4849 H   0  0  0  0  0  0
  -25.8138  -30.8943   27.0263 H   0  0  0  0  0  0
  -26.2889  -29.6741   24.1205 H   0  0  0  0  0  0
  -27.4076  -29.7249   25.4633 H   0  0  0  0  0  0
  -27.8744  -30.4270   23.9321 H   0  0  0  0  0  0
  -27.2710  -33.3622   26.2025 H   0  0  0  0  0  0
  -28.3917  -32.6809   25.0323 H   0  0  0  0  0  0
  -28.0712  -31.8432   26.5434 H   0  0  0  0  0  0
  -28.2522  -38.0156   24.7617 H   0  0  0  0  0  0
  -28.1169  -36.2703   24.6096 H   0  0  0  0  0  0
  -27.2339  -37.1198   25.8846 H   0  0  0  0  0  0
  -20.9343  -29.8750   21.6889 H   0  0  0  0  0  0
  -26.0128  -38.2833   24.1542 H   0  0  0  0  0  0
  -28.3239  -18.0361   22.0279 H   0  0  0  0  0  0
  -31.0762  -19.2902   18.9667 H   0  0  0  0  0  0
  -27.5042  -20.3450   22.2086 H   0  0  0  0  0  0
  -30.2508  -21.5896   19.1279 H   0  0  0  0  0  0
  -31.2574  -17.0404   19.7534 H   0  0  0  0  0  0
  -28.9966  -15.7854   21.3630 H   0  0  0  0  0  0
  -28.1020  -22.7885   21.9617 H   0  0  0  0  0  0
  -27.1319  -22.5346   20.5530 H   0  0  0  0  0  0
  -28.5184  -25.4035   21.8719 H   0  0  0  0  0  0
  -27.0315  -25.1011   21.0268 H   0  0  0  0  0  0
  1 25  1  0  0  0
  1 30  2  0  0  0
  1 78  1  0  0  0
  2  3  1  0  0  0
  2 25  1  0  0  0
  2 83  1  0  0  0
  2 84  1  0  0  0
  3  4  1  0  0  0
  3 85  1  0  0  0
  3 86  1  0  0  0
  4  5  1  0  0  0
  4 87  1  0  0  0
  4 88  1  0  0  0
  5  6  1  0  0  0
  5 26  1  0  0  0
  5 89  1  0  0  0
  6 25  1  0  0  0
  6 90  1  0  0  0
  6 91  1  0  0  0
  7  8  2  0  0  0
  7 26  1  0  0  0
  7 29  1  0  0  0
  8  9  1  0  0  0
  8 22  1  0  0  0
  9 10  1  0  0  0
  9 27  2  0  0  0
 10 11  2  0  0  0
 10 15  1  0  0  0
 11 12  1  0  0  0
 11 92  1  0  0  0
 12 13  2  0  0  0
 12 93  1  0  0  0
 13 14  1  0  0  0
 13 31  1  0  0  0
 14 15  2  0  0  0
 14 94  1  0  0  0
 15 95  1  0  0  0
 16 17  2  0  0  0
 16 21  1  0  0  0
 16 31  1  0  0  0
 17 18  1  0  0  0
 17 96  1  0  0  0
 18 19  2  0  0  0
 18 97  1  0  0  0
 19 20  1  0  0  0
 19 24  1  0  0  0
 20 21  2  0  0  0
 20 98  1  0  0  0
 21 23  1  0  0  0
 22 28  1  0  0  0
 22 32  2  0  0  0
 26 27  1  0  0  0
 28 99  1  0  0  0
 28100  1  0  0  0
 29101  1  0  0  0
 29102  1  0  0  0
 33 34  1  0  0  0
 33 66  1  0  0  0
 33 70  2  0  0  0
 34 36  1  0  0  0
 34 59  1  0  0  0
 34103  1  0  0  0
 35 44  2  0  0  0
 35 45  1  0  0  0
 35 68  1  0  0  0
 36 56  1  0  0  0
 36104  1  0  0  0
 37 39  1  0  0  0
 37 47  1  0  0  0
 37 66  1  0  0  0
 37105  1  0  0  0
 38 43  2  0  0  0
 38 46  1  0  0  0
 38 47  1  0  0  0
 39 64  1  0  0  0
 39 67  2  0  0  0
 40 52  1  0  0  0
 40 53  2  0  0  0
 40 58  1  0  0  0
 41106  1  0  0  0
 41107  1  0  0  0
 41108  1  0  0  0
 41 48  1  0  0  0
 42 43  1  0  0  0
 42 66  1  0  0  0
 42109  1  0  0  0
 42110  1  0  0  0
 43 44  1  0  0  0
 44111  1  0  0  0
 45 46  2  0  0  0
 45112  1  0  0  0
 46113  1  0  0  0
 47114  1  0  0  0
 47115  1  0  0  0
 48 56  1  0  0  0
 48 65  1  0  0  0
 48116  1  0  0  0
 49 50  1  0  0  0
 49 53  1  0  0  0
 49 64  1  0  0  0
 49117  1  0  0  0
 50 51  1  0  0  0
 50118  1  0  0  0
 50119  1  0  0  0
 51 52  1  0  0  0
 51120  1  0  0  0
 51121  1  0  0  0
 52122  1  0  0  0
 52123  1  0  0  0
 53 54  1  0  0  0
 54 55  2  0  0  0
 54124  1  0  0  0
 55 57  1  0  0  0
 55125  1  0  0  0
 56 69  2  0  0  0
 57 58  2  0  0  0
 57126  1  0  0  0
 58127  1  0  0  0
 59 60  1  0  0  0
 59 61  1  0  0  0
 59 62  1  0  0  0
 60128  1  0  0  0
 60129  1  0  0  0
 60130  1  0  0  0
 61131  1  0  0  0
 61132  1  0  0  0
 61133  1  0  0  0
 62134  1  0  0  0
 62135  1  0  0  0
 62136  1  0  0  0
 63 65  1  0  0  0
 63137  1  0  0  0
 63138  1  0  0  0
 63139  1  0  0  0
 64140  1  0  0  0
 65141  1  0  0  0
 68 81  1  0  0  0
 71 73  2  0  0  0
 71 75  1  0  0  0
 71142  1  0  0  0
 72 74  1  0  0  0
 72 75  2  0  0  0
 72143  1  0  0  0
 73 76  1  0  0  0
 73144  1  0  0  0
 74 76  2  0  0  0
 74145  1  0  0  0
 75 77  1  0  0  0
 76 80  1  0  0  0
 77 78  2  0  0  0
 77146  1  0  0  0
 78147  1  0  0  0
 79 80  1  0  0  0
 79 81  1  0  0  0
 79 82  2  0  0  0
 80148  1  0  0  0
 80149  1  0  0  0
 81150  1  0  0  0
 81151  1  0  0  0
M  ISO  4   1 100  68 101  78 100  81 101
M  END
> <chiral flag>
0

> <version>
0

> <s_m_source_file>
/data/baiqing/PycharmProjects/Reinvent-master-3.2/result/LINK_invent/BTK/process_docking_weight1_custom_product_contain_oxygen_bond_distance_aromatic_linkinvent_7_9_3/rearranged_h_0130.sdf

> <i_m_source_file_index>
92

> <r_mmod_Potential_Energy-OPLS-2005>
78.8974151611328

> <r_mmod_Stretch_Energy-OPLS-2005>
63.2524566650391

> <r_mmod_Bend_Energy-OPLS-2005>
138.137329101562

> <r_mmod_Torsional_Energy-OPLS-2005>
202.542022705078

> <r_mmod_Improper_Torsional_Energy-OPLS-2005>
4.10047054290771

> <r_mmod_Van_der_Waal_Energy-OPLS-2005>
145.777618408203

> <r_mmod_Electrostatic_Energy-OPLS-2005>
-295.375579833984

> <r_mmod_Solvation_Energy-OPLS-2005>
-216.028305053711

> <b_mmod_Minimization_Converged-OPLS-2005>
0

> <r_mmod_RMS_Derivative-OPLS-2005>
1.55594766139984

$$$$
92
                    3D
 Structure written by MMmdl.
160168  0  0  1  0            999 V2000
  -30.7531  -14.5159   20.5464 C   0  0  0  0  0  0
  -30.4077  -12.3421   19.4301 C   0  0  0  0  0  0
  -29.4801  -12.4944   18.2091 C   0  0  0  0  0  0
  -28.0048  -12.3543   18.6230 C   0  0  0  0  0  0
  -27.6504  -13.2161   19.8650 C   0  0  2  0  0  0
  -28.7027  -13.0528   20.9900 C   0  0  0  0  0  0
  -25.2534  -13.8173   20.5735 C   0  0  0  0  0  0
  -24.1809  -13.0425   20.9278 C   0  0  0  0  0  0
  -24.6399  -11.6907   20.8783 C   0  0  0  0  0  0
  -23.9061  -10.4273   21.0396 C   0  0  0  0  0  0
  -24.3589   -9.4190   21.9181 C   0  0  0  0  0  0
  -23.6268   -8.2222   22.0737 C   0  0  0  0  0  0
  -22.4248   -8.0258   21.3532 C   0  0  0  0  0  0
  -21.9890   -9.0238   20.4637 C   0  0  0  0  0  0
  -22.7226  -10.2122   20.3057 C   0  0  0  0  0  0
  -21.6854   -6.0702   22.5277 C   0  0  0  0  0  0
  -21.4018   -6.5614   23.8212 C   0  0  0  0  0  0
  -21.3662   -5.6780   24.9182 C   0  0  0  0  0  0
  -21.6043   -4.3045   24.7244 C   0  0  0  0  0  0
  -21.8823   -3.8117   23.4376 C   0  0  0  0  0  0
  -21.9194   -4.6922   22.3414 C   0  0  0  0  0  0
  -22.7825  -13.5229   21.1912 C   0  0  0  0  0  0
  -22.1669   -4.2099   21.0999 F   0  0  0  0  0  0
  -21.5612   -3.4530   25.7760 F   0  0  0  0  0  0
  -30.0154  -13.3713   20.4140 N   0  0  0  0  0  0
  -26.2970  -12.9369   20.3368 N   0  0  0  0  0  0
  -25.9320  -11.6511   20.5814 N   0  0  0  0  0  0
  -22.0462  -12.8204   22.0469 N   0  0  0  0  0  0
  -25.4161  -15.1899   20.4119 N   0  0  0  0  0  0
  -31.9146  -14.5797   20.1475 O   0  0  0  0  0  0
  -21.6650   -6.8830   21.4230 O   0  0  0  0  0  0
  -22.3485  -14.5519   20.6777 O   0  0  0  0  0  0
  -24.6180  -31.8649   23.2056 C   0  0  0  0  0  0
  -25.9070  -32.4796   23.8344 C   0  0  1  0  0  0
  -27.2240  -27.3918   20.1230 C   0  0  0  0  0  0
  -25.5910  -33.8595   24.2276 N   0  0  0  0  0  0
  -23.4053  -30.4975   21.5437 C   0  0  2  0  0  0
  -24.8540  -28.9608   20.1086 C   0  0  0  0  0  0
  -22.7366  -29.4711   22.4884 C   0  0  0  0  0  0
  -18.0321  -28.1407   22.8486 C   0  0  0  0  0  0
  -24.1501  -36.7297   23.2640 C   0  0  0  0  0  0
  -25.9392  -30.8255   21.3612 C   0  0  0  0  0  0
  -26.0184  -29.4609   20.7046 C   0  0  0  0  0  0
  -27.2089  -28.6908   20.6981 C   0  0  0  0  0  0
  -26.0413  -26.9211   19.5072 C   0  0  0  0  0  0
  -24.8670  -27.6960   19.4998 C   0  0  0  0  0  0
  -23.6126  -29.8251   20.1595 C   0  0  0  0  0  0
  -25.4129  -36.3087   24.0325 C   0  0  1  0  0  0
  -20.5889  -28.3705   23.1230 C   0  0  2  0  0  0
  -20.6831  -26.9434   22.5387 C   0  0  0  0  0  0
  -19.5794  -26.6406   21.5206 C   0  0  0  0  0  0
  -18.1997  -26.7955   22.1641 C   0  0  0  0  0  0
  -19.1562  -28.8881   23.2849 C   0  0  0  0  0  0
  -18.9523  -30.1504   23.8833 C   0  0  0  0  0  0
  -17.6533  -30.6621   24.0573 C   0  0  0  0  0  0
  -25.9054  -34.9458   23.5091 C   0  0  0  0  0  0
  -16.5405  -29.9132   23.6370 C   0  0  0  0  0  0
  -16.7298  -28.6583   23.0318 C   0  0  0  0  0  0
  -26.4470  -31.6590   25.0700 C   0  0  0  0  0  0
  -25.3712  -31.3721   26.1422 C   0  0  0  0  0  0
  -27.0312  -30.3032   24.6115 C   0  0  0  0  0  0
  -27.6032  -32.4317   25.7479 C   0  0  0  0  0  0
  -27.5583  -37.1802   24.8467 C   0  0  0  0  0  0
  -21.4123  -29.3051   22.3579 N   0  0  0  0  0  0
  -26.4308  -37.3778   23.9399 N   0  0  0  0  0  0
  -24.6725  -31.0740   22.0978 N   0  0  0  0  0  0
  -23.4068  -28.8248   23.2999 O   0  0  0  0  0  0
  -28.3626  -26.6024   20.2009 O   0  0  0  0  0  0
  -26.5612  -34.8909   22.4669 O   0  0  0  0  0  0
  -23.5353  -32.1430   23.7406 O   0  0  0  0  0  0
  -29.0178  -19.9280   22.6959 C   0  0  0  0  0  0
  -29.1634  -18.5172   22.6691 C   0  0  0  0  0  0
  -28.4568  -19.9023   20.3428 C   0  0  0  0  0  0
  -28.6385  -20.6379   21.5324 C   0  0  0  0  0  0
  -28.9336  -17.7719   21.4852 C   0  0  0  0  0  0
  -28.5995  -18.4849   20.2971 C   0  0  0  0  0  0
  -29.4518  -23.1384   21.2898 C   0  0  0  0  0  0
  -29.3793  -24.4024   20.7934 C   0  0  0  0  0  0
  -27.8833  -18.5836   17.7885 C   0  0  0  0  0  0
  -28.3116  -22.1494   21.5649 C   0  0  0  0  0  0
  -28.3779  -17.7342   18.9786 C   0  0  0  0  0  0
  -29.0270  -16.2250   21.5262 C   0  0  0  0  0  0
  -28.1401  -25.1750   20.3440 C   0  0  0  0  0  0
  -30.1667  -15.7149   20.7602 N   0  0  0  0  0  0
  -31.4496  -12.4218   19.1169 H   0  0  0  0  0  0
  -30.3093  -11.3444   19.8591 H   0  0  0  0  0  0
  -29.7268  -11.7523   17.4494 H   0  0  0  0  0  0
  -29.6345  -13.4698   17.7483 H   0  0  0  0  0  0
  -27.8274  -11.2998   18.8351 H   0  0  0  0  0  0
  -27.3490  -12.6090   17.7894 H   0  0  0  0  0  0
  -27.6745  -14.2534   19.5285 H   0  0  0  0  0  0
  -28.6996  -12.0268   21.3632 H   0  0  0  0  0  0
  -28.4749  -13.6698   21.8567 H   0  0  0  0  0  0
  -25.2708   -9.5678   22.4788 H   0  0  0  0  0  0
  -23.9987   -7.4606   22.7439 H   0  0  0  0  0  0
  -21.0816   -8.8745   19.8924 H   0  0  0  0  0  0
  -22.3653  -10.9665   19.6178 H   0  0  0  0  0  0
  -21.2021   -7.6121   23.9710 H   0  0  0  0  0  0
  -21.1483   -6.0507   25.9090 H   0  0  0  0  0  0
  -22.0605   -2.7574   23.2904 H   0  0  0  0  0  0
  -22.4113  -11.9889   22.4846 H   0  0  0  0  0  0
  -21.1057  -13.1169   22.2619 H   0  0  0  0  0  0
  -24.6336  -15.8288   20.5148 H   0  0  0  0  0  0
  -26.2481  -15.6395   20.0556 H   0  0  0  0  0  0
  -26.7145  -32.5500   23.1090 H   0  0  0  0  0  0
  -25.0046  -33.9765   25.0397 H   0  0  0  0  0  0
  -22.6985  -31.3191   21.4006 H   0  0  0  0  0  0
  -23.3746  -35.9643   23.3316 H   0  0  0  0  0  0
  -24.3578  -36.8898   22.2047 H   0  0  0  0  0  0
  -23.7259  -37.6514   23.6652 H   0  0  0  0  0  0
  -26.0608  -31.5948   20.5974 H   0  0  0  0  0  0
  -26.8241  -30.8714   21.9816 H   0  0  0  0  0  0
  -28.1063  -29.0715   21.1681 H   0  0  0  0  0  0
  -26.0012  -25.9487   19.0379 H   0  0  0  0  0  0
  -23.9754  -27.3038   19.0353 H   0  0  0  0  0  0
  -23.7013  -30.5965   19.3918 H   0  0  0  0  0  0
  -22.7357  -29.2333   19.8810 H   0  0  0  0  0  0
  -25.1308  -36.1934   25.0815 H   0  0  0  0  0  0
  -20.9978  -28.3288   24.1338 H   0  0  0  0  0  0
  -20.5748  -26.2316   23.3568 H   0  0  0  0  0  0
  -21.6702  -26.7547   22.1094 H   0  0  0  0  0  0
  -19.6982  -25.6324   21.1250 H   0  0  0  0  0  0
  -19.6696  -27.3207   20.6731 H   0  0  0  0  0  0
  -17.4301  -26.6685   21.4018 H   0  0  0  0  0  0
  -18.0461  -26.0128   22.9096 H   0  0  0  0  0  0
  -19.8060  -30.7282   24.2147 H   0  0  0  0  0  0
  -17.5136  -31.6302   24.5192 H   0  0  0  0  0  0
  -15.5433  -30.3064   23.7820 H   0  0  0  0  0  0
  -15.8691  -28.0943   22.7007 H   0  0  0  0  0  0
  -24.5877  -30.7100   25.7725 H   0  0  0  0  0  0
  -24.8920  -32.2897   26.4858 H   0  0  0  0  0  0
  -25.8018  -30.8862   27.0184 H   0  0  0  0  0  0
  -26.2886  -29.6780   24.1151 H   0  0  0  0  0  0
  -27.4059  -29.7290   25.4595 H   0  0  0  0  0  0
  -27.8721  -30.4338   23.9300 H   0  0  0  0  0  0
  -27.2649  -33.3594   26.2100 H   0  0  0  0  0  0
  -28.3830  -32.6904   25.0311 H   0  0  0  0  0  0
  -28.0719  -31.8418   26.5355 H   0  0  0  0  0  0
  -28.2614  -38.0086   24.7509 H   0  0  0  0  0  0
  -28.1066  -36.2621   24.6305 H   0  0  0  0  0  0
  -27.2307  -37.1465   25.8873 H   0  0  0  0  0  0
  -20.9318  -29.8526   21.6594 H   0  0  0  0  0  0
  -26.0180  -38.2864   24.1356 H   0  0  0  0  0  0
  -29.1619  -20.4608   23.6269 H   0  0  0  0  0  0
  -29.4156  -17.9951   23.5835 H   0  0  0  0  0  0
  -28.1724  -20.4516   19.4584 H   0  0  0  0  0  0
  -30.4311  -22.7703   21.5644 H   0  0  0  0  0  0
  -30.3001  -24.9548   20.6797 H   0  0  0  0  0  0
  -28.6025  -19.3598   17.5268 H   0  0  0  0  0  0
  -26.9253  -19.0636   17.9942 H   0  0  0  0  0  0
  -27.7416  -17.9656   16.9007 H   0  0  0  0  0  0
  -27.9307  -22.3638   22.5652 H   0  0  0  0  0  0
  -27.4860  -22.3650   20.8857 H   0  0  0  0  0  0
  -27.6725  -16.9205   19.1399 H   0  0  0  0  0  0
  -29.3191  -17.2630   18.6926 H   0  0  0  0  0  0
  -29.0853  -15.8701   22.5581 H   0  0  0  0  0  0
  -28.1025  -15.8273   21.1168 H   0  0  0  0  0  0
  -27.3491  -24.9873   21.0727 H   0  0  0  0  0  0
  -27.8274  -24.7491   19.3876 H   0  0  0  0  0  0
  -30.8076  -16.4616   20.5364 H   0  0  0  0  0  0
  1 25  1  0  0  0
  1 30  2  0  0  0
  1 84  1  0  0  0
  2  3  1  0  0  0
  2 25  1  0  0  0
  2 85  1  0  0  0
  2 86  1  0  0  0
  3  4  1  0  0  0
  3 87  1  0  0  0
  3 88  1  0  0  0
  4  5  1  0  0  0
  4 89  1  0  0  0
  4 90  1  0  0  0
  5  6  1  0  0  0
  5 26  1  0  0  0
  5 91  1  0  0  0
  6 25  1  0  0  0
  6 92  1  0  0  0
  6 93  1  0  0  0
  7  8  2  0  0  0
  7 26  1  0  0  0
  7 29  1  0  0  0
  8  9  1  0  0  0
  8 22  1  0  0  0
  9 10  1  0  0  0
  9 27  2  0  0  0
 10 11  2  0  0  0
 10 15  1  0  0  0
 11 12  1  0  0  0
 11 94  1  0  0  0
 12 13  2  0  0  0
 12 95  1  0  0  0
 13 14  1  0  0  0
 13 31  1  0  0  0
 14 15  2  0  0  0
 14 96  1  0  0  0
 15 97  1  0  0  0
 16 17  2  0  0  0
 16 21  1  0  0  0
 16 31  1  0  0  0
 17 18  1  0  0  0
 17 98  1  0  0  0
 18 19  2  0  0  0
 18 99  1  0  0  0
 19 20  1  0  0  0
 19 24  1  0  0  0
 20 21  2  0  0  0
 20100  1  0  0  0
 21 23  1  0  0  0
 22 28  1  0  0  0
 22 32  2  0  0  0
 26 27  1  0  0  0
 28101  1  0  0  0
 28102  1  0  0  0
 29103  1  0  0  0
 29104  1  0  0  0
 33 34  1  0  0  0
 33 66  1  0  0  0
 33 70  2  0  0  0
 34 36  1  0  0  0
 34 59  1  0  0  0
 34105  1  0  0  0
 35 44  2  0  0  0
 35 45  1  0  0  0
 35 68  1  0  0  0
 36 56  1  0  0  0
 36106  1  0  0  0
 37 39  1  0  0  0
 37 47  1  0  0  0
 37 66  1  0  0  0
 37107  1  0  0  0
 38 43  2  0  0  0
 38 46  1  0  0  0
 38 47  1  0  0  0
 39 64  1  0  0  0
 39 67  2  0  0  0
 40 52  1  0  0  0
 40 53  2  0  0  0
 40 58  1  0  0  0
 41108  1  0  0  0
 41109  1  0  0  0
 41110  1  0  0  0
 41 48  1  0  0  0
 42 43  1  0  0  0
 42 66  1  0  0  0
 42111  1  0  0  0
 42112  1  0  0  0
 43 44  1  0  0  0
 44113  1  0  0  0
 45 46  2  0  0  0
 45114  1  0  0  0
 46115  1  0  0  0
 47116  1  0  0  0
 47117  1  0  0  0
 48 56  1  0  0  0
 48 65  1  0  0  0
 48118  1  0  0  0
 49 50  1  0  0  0
 49 53  1  0  0  0
 49 64  1  0  0  0
 49119  1  0  0  0
 50 51  1  0  0  0
 50120  1  0  0  0
 50121  1  0  0  0
 51 52  1  0  0  0
 51122  1  0  0  0
 51123  1  0  0  0
 52124  1  0  0  0
 52125  1  0  0  0
 53 54  1  0  0  0
 54 55  2  0  0  0
 54126  1  0  0  0
 55 57  1  0  0  0
 55127  1  0  0  0
 56 69  2  0  0  0
 57 58  2  0  0  0
 57128  1  0  0  0
 58129  1  0  0  0
 59 60  1  0  0  0
 59 61  1  0  0  0
 59 62  1  0  0  0
 60130  1  0  0  0
 60131  1  0  0  0
 60132  1  0  0  0
 61133  1  0  0  0
 61134  1  0  0  0
 61135  1  0  0  0
 62136  1  0  0  0
 62137  1  0  0  0
 62138  1  0  0  0
 63 65  1  0  0  0
 63139  1  0  0  0
 63140  1  0  0  0
 63141  1  0  0  0
 64142  1  0  0  0
 65143  1  0  0  0
 68 83  1  0  0  0
 71 72  2  0  0  0
 71 74  1  0  0  0
 71144  1  0  0  0
 72 75  1  0  0  0
 72145  1  0  0  0
 73 74  2  0  0  0
 73 76  1  0  0  0
 73146  1  0  0  0
 74 80  1  0  0  0
 75 76  2  0  0  0
 75 82  1  0  0  0
 76 81  1  0  0  0
 77 78  2  0  0  0
 77 80  1  0  0  0
 77147  1  0  0  0
 78 83  1  0  0  0
 78148  1  0  0  0
 79 81  1  0  0  0
 79149  1  0  0  0
 79150  1  0  0  0
 79151  1  0  0  0
 80152  1  0  0  0
 80153  1  0  0  0
 81154  1  0  0  0
 81155  1  0  0  0
 82 84  1  0  0  0
 82156  1  0  0  0
 82157  1  0  0  0
 83158  1  0  0  0
 83159  1  0  0  0
 84160  1  0  0  0
M  ISO  4   1 100  68 101  83 101  84 100
M  END
> <chiral flag>
0

> <version>
0

> <s_m_source_file>
/data/baiqing/PycharmProjects/Reinvent-master-3.2/result/LINK_invent/BTK/process_docking_weight1_custom_product_contain_oxygen_bond_distance_aromatic_linkinvent_7_9_3/rearranged_h_0130.sdf

> <i_m_source_file_index>
93

> <r_mmod_Potential_Energy-OPLS-2005>
6.29073429107666

> <r_mmod_Stretch_Energy-OPLS-2005>
46.8849830627441

> <r_mmod_Bend_Energy-OPLS-2005>
134.471130371094

> <r_mmod_Torsional_Energy-OPLS-2005>
258.400177001953

> <r_mmod_Improper_Torsional_Energy-OPLS-2005>
11.2977161407471

> <r_mmod_Van_der_Waal_Energy-OPLS-2005>
142.987533569336

> <r_mmod_Electrostatic_Energy-OPLS-2005>
-422.065246582031

> <r_mmod_Solvation_Energy-OPLS-2005>
-193.126419067383

> <b_mmod_Minimization_Converged-OPLS-2005>
0

> <r_mmod_RMS_Derivative-OPLS-2005>
5.45117330551147

$$$$
