0
                    3D
 Structure written by MMmdl.
155164  0  0  1  0            999 V2000
  -30.7024  -14.5419   20.4686 C   0  0  0  0  0  0
  -30.4145  -12.3246   19.4395 C   0  0  0  0  0  0
  -29.4918  -12.4619   18.2111 C   0  0  0  0  0  0
  -28.0139  -12.3350   18.6284 C   0  0  0  0  0  0
  -27.6481  -13.2165   19.8538 C   0  0  2  0  0  0
  -28.6965  -13.0894   20.9809 C   0  0  0  0  0  0
  -25.2549  -13.8183   20.5691 C   0  0  0  0  0  0
  -24.1819  -13.0447   20.9205 C   0  0  0  0  0  0
  -24.6387  -11.6919   20.8756 C   0  0  0  0  0  0
  -23.9060  -10.4298   21.0414 C   0  0  0  0  0  0
  -24.3615   -9.4211   21.9187 C   0  0  0  0  0  0
  -23.6293   -8.2244   22.0753 C   0  0  0  0  0  0
  -22.4275   -8.0282   21.3545 C   0  0  0  0  0  0
  -21.9909   -9.0256   20.4648 C   0  0  0  0  0  0
  -22.7236  -10.2137   20.3060 C   0  0  0  0  0  0
  -21.6854   -6.0737   22.5280 C   0  0  0  0  0  0
  -21.4014   -6.5641   23.8213 C   0  0  0  0  0  0
  -21.3659   -5.6794   24.9175 C   0  0  0  0  0  0
  -21.6044   -4.3057   24.7226 C   0  0  0  0  0  0
  -21.8819   -3.8148   23.4348 C   0  0  0  0  0  0
  -21.9192   -4.6964   22.3404 C   0  0  0  0  0  0
  -22.7841  -13.5237   21.1863 C   0  0  0  0  0  0
  -22.1661   -4.2150   21.0982 F   0  0  0  0  0  0
  -21.5629   -3.4541   25.7739 F   0  0  0  0  0  0
  -30.0120  -13.3682   20.3950 N   0  0  0  0  0  0
  -26.2970  -12.9366   20.3313 N   0  0  0  0  0  0
  -25.9314  -11.6523   20.5780 N   0  0  0  0  0  0
  -22.0482  -12.8227   22.0416 N   0  0  0  0  0  0
  -25.4267  -15.1901   20.4088 N   0  0  0  0  0  0
  -31.9137  -14.5869   20.2362 O   0  0  0  0  0  0
  -21.6642   -6.8878   21.4240 O   0  0  0  0  0  0
  -22.3527  -14.5542   20.6706 O   0  0  0  0  0  0
  -24.6189  -31.8665   23.2092 C   0  0  0  0  0  0
  -25.9070  -32.4813   23.8392 C   0  0  1  0  0  0
  -27.2247  -27.3977   20.0897 C   0  0  0  0  0  0
  -25.5915  -33.8612   24.2322 N   0  0  0  0  0  0
  -23.4074  -30.4931   21.5513 C   0  0  2  0  0  0
  -24.8504  -28.9605   20.1127 C   0  0  0  0  0  0
  -22.7431  -29.4658   22.4973 C   0  0  0  0  0  0
  -18.0278  -28.1378   22.8491 C   0  0  0  0  0  0
  -24.1489  -36.7310   23.2637 C   0  0  0  0  0  0
  -25.9426  -30.8207   21.3686 C   0  0  0  0  0  0
  -26.0170  -29.4549   20.7096 C   0  0  0  0  0  0
  -27.2066  -28.6815   20.6954 C   0  0  0  0  0  0
  -26.0260  -26.9257   19.5006 C   0  0  0  0  0  0
  -24.8516  -27.6963   19.5055 C   0  0  0  0  0  0
  -23.6163  -29.8326   20.1643 C   0  0  0  0  0  0
  -25.4111  -36.3106   24.0336 C   0  0  1  0  0  0
  -20.5873  -28.3671   23.1306 C   0  0  2  0  0  0
  -20.6769  -26.9404   22.5412 C   0  0  0  0  0  0
  -19.5746  -26.6384   21.5211 C   0  0  0  0  0  0
  -18.1926  -26.7923   22.1626 C   0  0  0  0  0  0
  -19.1529  -28.8841   23.2896 C   0  0  0  0  0  0
  -18.9454  -30.1446   23.8907 C   0  0  0  0  0  0
  -17.6456  -30.6583   24.0564 C   0  0  0  0  0  0
  -25.9040  -34.9471   23.5125 C   0  0  0  0  0  0
  -16.5348  -29.9084   23.6326 C   0  0  0  0  0  0
  -16.7267  -28.6501   23.0348 C   0  0  0  0  0  0
  -26.4482  -31.6596   25.0730 C   0  0  0  0  0  0
  -25.3740  -31.3710   26.1472 C   0  0  0  0  0  0
  -27.0311  -30.3033   24.6126 C   0  0  0  0  0  0
  -27.6056  -32.4316   25.7493 C   0  0  0  0  0  0
  -27.5581  -37.1813   24.8466 C   0  0  0  0  0  0
  -21.4155  -29.3038   22.3710 N   0  0  0  0  0  0
  -26.4298  -37.3790   23.9405 N   0  0  0  0  0  0
  -24.6750  -31.0743   22.1009 N   0  0  0  0  0  0
  -23.4191  -28.8193   23.3021 O   0  0  0  0  0  0
  -28.3669  -26.6051   20.1250 O   0  0  0  0  0  0
  -26.5599  -34.8923   22.4685 O   0  0  0  0  0  0
  -23.5373  -32.1431   23.7467 O   0  0  0  0  0  0
  -28.5187  -18.4927   19.9290 C   0  0  0  0  0  0
  -30.0867  -19.0221   21.6731 C   0  0  0  0  0  0
  -28.4002  -19.8743   19.6348 C   0  0  0  0  0  0
  -29.9319  -20.4034   21.3903 C   0  0  0  0  0  0
  -29.4175  -18.0283   20.9194 C   0  0  0  0  0  0
  -29.1163  -20.8815   20.3338 C   0  0  0  0  0  0
  -28.6755  -24.2108   19.6592 C   0  0  0  0  0  0
  -28.6421  -23.0167   18.8522 C   0  0  0  0  0  0
  -28.4234  -25.4961   19.2980 C   0  0  0  0  0  0
  -29.6527  -16.5444   21.2256 C   0  0  0  0  0  0
  -29.0006  -23.3935   20.9074 C   0  0  0  0  0  0
  -30.1010  -16.1526   18.8235 C   0  0  0  0  0  0
  -29.0528  -22.2672   19.9538 N   0  0  0  0  0  0
  -29.9786  -15.6721   20.2185 N   0  0  0  0  0  0
  -28.2973  -22.8191   17.7053 O   0  0  0  0  0  0
  -29.6090  -16.2029   22.4139 O   0  0  0  0  0  0
  -31.4599  -12.4084   19.1364 H   0  0  0  0  0  0
  -30.3113  -11.3372   19.8926 H   0  0  0  0  0  0
  -29.7355  -11.6973   17.4722 H   0  0  0  0  0  0
  -29.6546  -13.4204   17.7186 H   0  0  0  0  0  0
  -27.8324  -11.2855   18.8623 H   0  0  0  0  0  0
  -27.3627  -12.5725   17.7865 H   0  0  0  0  0  0
  -27.6623  -14.2480   19.5031 H   0  0  0  0  0  0
  -28.6836  -12.0876   21.4126 H   0  0  0  0  0  0
  -28.4722  -13.7785   21.7962 H   0  0  0  0  0  0
  -25.2760   -9.5688   22.4762 H   0  0  0  0  0  0
  -24.0007   -7.4634   22.7469 H   0  0  0  0  0  0
  -21.0843   -8.8772   19.8951 H   0  0  0  0  0  0
  -22.3693  -10.9676   19.6172 H   0  0  0  0  0  0
  -21.2007   -7.6149   23.9718 H   0  0  0  0  0  0
  -21.1480   -6.0524   25.9078 H   0  0  0  0  0  0
  -22.0598   -2.7610   23.2850 H   0  0  0  0  0  0
  -22.4099  -11.9891   22.4809 H   0  0  0  0  0  0
  -21.1098  -13.1250   22.2617 H   0  0  0  0  0  0
  -24.6593  -15.8447   20.5147 H   0  0  0  0  0  0
  -26.2747  -15.6250   20.0712 H   0  0  0  0  0  0
  -26.7141  -32.5509   23.1150 H   0  0  0  0  0  0
  -25.0072  -33.9769   25.0472 H   0  0  0  0  0  0
  -22.6977  -31.3117   21.4147 H   0  0  0  0  0  0
  -23.3746  -35.9650   23.3314 H   0  0  0  0  0  0
  -24.3582  -36.8909   22.2049 H   0  0  0  0  0  0
  -23.7247  -37.6522   23.6643 H   0  0  0  0  0  0
  -26.0637  -31.5887   20.6032 H   0  0  0  0  0  0
  -26.8274  -30.8680   21.9917 H   0  0  0  0  0  0
  -28.1058  -29.0569   21.1636 H   0  0  0  0  0  0
  -25.9672  -25.9485   19.0445 H   0  0  0  0  0  0
  -23.9519  -27.3053   19.0502 H   0  0  0  0  0  0
  -23.7294  -30.6110   19.4088 H   0  0  0  0  0  0
  -22.7377  -29.2587   19.8640 H   0  0  0  0  0  0
  -25.1289  -36.1973   25.0829 H   0  0  0  0  0  0
  -20.9966  -28.3239   24.1426 H   0  0  0  0  0  0
  -20.5677  -26.2278   23.3600 H   0  0  0  0  0  0
  -21.6639  -26.7448   22.1201 H   0  0  0  0  0  0
  -19.6907  -25.6298   21.1231 H   0  0  0  0  0  0
  -19.6683  -27.3203   20.6748 H   0  0  0  0  0  0
  -17.4195  -26.6671   21.4030 H   0  0  0  0  0  0
  -18.0331  -26.0064   22.9022 H   0  0  0  0  0  0
  -19.7931  -30.7260   24.2281 H   0  0  0  0  0  0
  -17.5011  -31.6266   24.5163 H   0  0  0  0  0  0
  -15.5348  -30.2989   23.7643 H   0  0  0  0  0  0
  -15.8667  -28.0822   22.7057 H   0  0  0  0  0  0
  -24.5908  -30.7064   25.7806 H   0  0  0  0  0  0
  -24.8938  -32.2868   26.4929 H   0  0  0  0  0  0
  -25.8085  -30.8868   27.0226 H   0  0  0  0  0  0
  -26.2862  -29.6798   24.1167 H   0  0  0  0  0  0
  -27.4055  -29.7267   25.4595 H   0  0  0  0  0  0
  -27.8712  -30.4341   23.9300 H   0  0  0  0  0  0
  -27.2676  -33.3607   26.2097 H   0  0  0  0  0  0
  -28.3851  -32.6892   25.0311 H   0  0  0  0  0  0
  -28.0740  -31.8424   26.5386 H   0  0  0  0  0  0
  -28.2611  -38.0099   24.7502 H   0  0  0  0  0  0
  -28.1066  -36.2631   24.6310 H   0  0  0  0  0  0
  -27.2296  -37.1483   25.8869 H   0  0  0  0  0  0
  -20.9315  -29.8770   21.6941 H   0  0  0  0  0  0
  -26.0187  -38.2871   24.1396 H   0  0  0  0  0  0
  -27.9251  -17.7918   19.3611 H   0  0  0  0  0  0
  -30.7552  -18.7229   22.4689 H   0  0  0  0  0  0
  -27.7369  -20.1639   18.8312 H   0  0  0  0  0  0
  -30.5002  -21.1105   21.9785 H   0  0  0  0  0  0
  -28.1973  -25.7550   18.2720 H   0  0  0  0  0  0
  -28.2059  -23.2699   21.6451 H   0  0  0  0  0  0
  -29.9606  -23.5656   21.3958 H   0  0  0  0  0  0
  -29.1182  -16.2586   18.3664 H   0  0  0  0  0  0
  -30.6509  -15.4701   18.1719 H   0  0  0  0  0  0
  -30.6298  -17.1049   18.7585 H   0  0  0  0  0  0
  1 25  1  0  0  0
  1 30  2  0  0  0
  1 84  1  0  0  0
  2  3  1  0  0  0
  2 25  1  0  0  0
  2 87  1  0  0  0
  2 88  1  0  0  0
  3  4  1  0  0  0
  3 89  1  0  0  0
  3 90  1  0  0  0
  4  5  1  0  0  0
  4 91  1  0  0  0
  4 92  1  0  0  0
  5  6  1  0  0  0
  5 26  1  0  0  0
  5 93  1  0  0  0
  6 25  1  0  0  0
  6 94  1  0  0  0
  6 95  1  0  0  0
  7  8  2  0  0  0
  7 26  1  0  0  0
  7 29  1  0  0  0
  8  9  1  0  0  0
  8 22  1  0  0  0
  9 10  1  0  0  0
  9 27  2  0  0  0
 10 11  2  0  0  0
 10 15  1  0  0  0
 11 12  1  0  0  0
 11 96  1  0  0  0
 12 13  2  0  0  0
 12 97  1  0  0  0
 13 14  1  0  0  0
 13 31  1  0  0  0
 14 15  2  0  0  0
 14 98  1  0  0  0
 15 99  1  0  0  0
 16 17  2  0  0  0
 16 21  1  0  0  0
 16 31  1  0  0  0
 17 18  1  0  0  0
 17100  1  0  0  0
 18 19  2  0  0  0
 18101  1  0  0  0
 19 20  1  0  0  0
 19 24  1  0  0  0
 20 21  2  0  0  0
 20102  1  0  0  0
 21 23  1  0  0  0
 22 28  1  0  0  0
 22 32  2  0  0  0
 26 27  1  0  0  0
 28103  1  0  0  0
 28104  1  0  0  0
 29105  1  0  0  0
 29106  1  0  0  0
 33 34  1  0  0  0
 33 66  1  0  0  0
 33 70  2  0  0  0
 34 36  1  0  0  0
 34 59  1  0  0  0
 34107  1  0  0  0
 35 44  2  0  0  0
 35 45  1  0  0  0
 35 68  1  0  0  0
 36 56  1  0  0  0
 36108  1  0  0  0
 37 39  1  0  0  0
 37 47  1  0  0  0
 37 66  1  0  0  0
 37109  1  0  0  0
 38 43  2  0  0  0
 38 46  1  0  0  0
 38 47  1  0  0  0
 39 64  1  0  0  0
 39 67  2  0  0  0
 40 52  1  0  0  0
 40 53  2  0  0  0
 40 58  1  0  0  0
 41110  1  0  0  0
 41111  1  0  0  0
 41112  1  0  0  0
 41 48  1  0  0  0
 42 43  1  0  0  0
 42 66  1  0  0  0
 42113  1  0  0  0
 42114  1  0  0  0
 43 44  1  0  0  0
 44115  1  0  0  0
 45 46  2  0  0  0
 45116  1  0  0  0
 46117  1  0  0  0
 47118  1  0  0  0
 47119  1  0  0  0
 48 56  1  0  0  0
 48 65  1  0  0  0
 48120  1  0  0  0
 49 50  1  0  0  0
 49 53  1  0  0  0
 49 64  1  0  0  0
 49121  1  0  0  0
 50 51  1  0  0  0
 50122  1  0  0  0
 50123  1  0  0  0
 51 52  1  0  0  0
 51124  1  0  0  0
 51125  1  0  0  0
 52126  1  0  0  0
 52127  1  0  0  0
 53 54  1  0  0  0
 54 55  2  0  0  0
 54128  1  0  0  0
 55 57  1  0  0  0
 55129  1  0  0  0
 56 69  2  0  0  0
 57 58  2  0  0  0
 57130  1  0  0  0
 58131  1  0  0  0
 59 60  1  0  0  0
 59 61  1  0  0  0
 59 62  1  0  0  0
 60132  1  0  0  0
 60133  1  0  0  0
 60134  1  0  0  0
 61135  1  0  0  0
 61136  1  0  0  0
 61137  1  0  0  0
 62138  1  0  0  0
 62139  1  0  0  0
 62140  1  0  0  0
 63 65  1  0  0  0
 63141  1  0  0  0
 63142  1  0  0  0
 63143  1  0  0  0
 64144  1  0  0  0
 65145  1  0  0  0
 68 79  1  0  0  0
 71 73  2  0  0  0
 71 75  1  0  0  0
 71146  1  0  0  0
 72 74  1  0  0  0
 72 75  2  0  0  0
 72147  1  0  0  0
 73 76  1  0  0  0
 73148  1  0  0  0
 74 76  2  0  0  0
 74149  1  0  0  0
 75 80  1  0  0  0
 76 83  1  0  0  0
 77 78  1  0  0  0
 77 79  2  0  0  0
 77 81  1  0  0  0
 78 83  1  0  0  0
 78 85  2  0  0  0
 79150  1  0  0  0
 80 84  1  0  0  0
 80 86  2  0  0  0
 81 83  1  0  0  0
 81151  1  0  0  0
 81152  1  0  0  0
 82 84  1  0  0  0
 82153  1  0  0  0
 82154  1  0  0  0
 82155  1  0  0  0
M  ISO  4   1 100  68 101  79 101  84 100
M  END
> <chiral flag>
0

> <version>
0

> <s_m_source_file>
/data/baiqing/PycharmProjects/Reinvent-master-3.2/result/LINK_invent/BTK/process_docking_weight1_custom_product_contain_oxygen_bond_distance_aromatic_linkinvent_7_9_3/rearranged_h_0081.sdf

> <i_m_source_file_index>
1

> <r_mmod_Potential_Energy-OPLS-2005>
254.418533325195

> <r_mmod_Stretch_Energy-OPLS-2005>
49.5534820556641

> <r_mmod_Bend_Energy-OPLS-2005>
187.671051025391

> <r_mmod_Torsional_Energy-OPLS-2005>
339.450622558594

> <r_mmod_Improper_Torsional_Energy-OPLS-2005>
23.2709655761719

> <r_mmod_Van_der_Waal_Energy-OPLS-2005>
158.940856933594

> <r_mmod_Electrostatic_Energy-OPLS-2005>
-332.068267822266

> <r_mmod_Solvation_Energy-OPLS-2005>
-204.921905517578

> <b_mmod_Minimization_Converged-OPLS-2005>
0

> <r_mmod_RMS_Derivative-OPLS-2005>
0.367790728807449

$$$$
1
                    3D
 Structure written by MMmdl.
150159  0  0  1  0            999 V2000
  -29.9088  -16.6430   20.2627 C   0  0  0  0  0  0
  -30.3240  -13.8377   19.5699 C   0  0  0  0  0  0
  -29.5946  -12.9877   18.4412 C   0  0  0  0  0  0
  -28.2581  -12.4074   18.9105 C   0  0  0  0  0  0
  -27.5756  -13.4467   19.8112 C   0  0  2  0  0  0
  -28.4938  -14.1739   20.8644 C   0  0  0  0  0  0
  -25.2177  -13.8518   20.5927 C   0  0  0  0  0  0
  -24.1698  -13.0478   20.9315 C   0  0  0  0  0  0
  -24.6587  -11.7053   20.8694 C   0  0  0  0  0  0
  -23.9296  -10.4334   21.0314 C   0  0  0  0  0  0
  -24.3771   -9.4234   21.9125 C   0  0  0  0  0  0
  -23.6380   -8.2297   22.0739 C   0  0  0  0  0  0
  -22.4354   -8.0336   21.3541 C   0  0  0  0  0  0
  -22.0034   -9.0317   20.4631 C   0  0  0  0  0  0
  -22.7427  -10.2165   20.2999 C   0  0  0  0  0  0
  -21.6881   -6.0771   22.5281 C   0  0  0  0  0  0
  -21.4029   -6.5657   23.8218 C   0  0  0  0  0  0
  -21.3670   -5.6800   24.9173 C   0  0  0  0  0  0
  -21.6045   -4.3064   24.7217 C   0  0  0  0  0  0
  -21.8817   -3.8166   23.4334 C   0  0  0  0  0  0
  -21.9201   -4.6992   22.3396 C   0  0  0  0  0  0
  -22.7673  -13.5088   21.1931 C   0  0  0  0  0  0
  -22.1663   -4.2170   21.0974 F   0  0  0  0  0  0
  -21.5631   -3.4549   25.7730 F   0  0  0  0  0  0
  -29.5271  -15.0895   20.1962 N   0  0  0  0  0  0
  -26.2826  -13.0145   20.3394 N   0  0  0  0  0  0
  -25.9598  -11.7051   20.5584 N   0  0  0  0  0  0
  -22.0385  -12.8026   22.0484 N   0  0  0  0  0  0
  -25.3520  -15.2293   20.4437 N   0  0  0  0  0  0
  -31.1600  -16.4309   20.1716 O   0  0  0  0  0  0
  -21.6685   -6.8942   21.4254 O   0  0  0  0  0  0
  -22.3287  -14.5363   20.6767 O   0  0  0  0  0  0
  -24.7488  -31.7169   23.0986 C   0  0  0  0  0  0
  -25.9726  -32.4074   23.7786 C   0  0  1  0  0  0
  -27.2784  -26.0107   20.2847 C   0  0  0  0  0  0
  -25.6015  -33.7940   24.1584 N   0  0  0  0  0  0
  -23.6115  -30.2837   21.4682 C   0  0  2  0  0  0
  -25.0877  -28.4801   20.1549 C   0  0  0  0  0  0
  -22.8067  -29.3853   22.4532 C   0  0  0  0  0  0
  -18.0383  -28.1457   22.8415 C   0  0  0  0  0  0
  -24.1489  -36.6966   23.2672 C   0  0  0  0  0  0
  -26.2149  -30.2158   21.4820 C   0  0  0  0  0  0
  -26.2810  -28.7002   20.8531 C   0  0  0  0  0  0
  -27.3252  -27.5159   20.8799 C   0  0  0  0  0  0
  -26.0595  -26.1968   19.5142 C   0  0  0  0  0  0
  -25.0555  -27.2542   19.4616 C   0  0  0  0  0  0
  -23.9109  -29.5117   20.1401 C   0  0  0  0  0  0
  -25.4164  -36.2660   24.0237 C   0  0  1  0  0  0
  -20.6050  -28.3843   23.1009 C   0  0  2  0  0  0
  -20.6810  -26.9437   22.5413 C   0  0  0  0  0  0
  -19.5796  -26.6340   21.5222 C   0  0  0  0  0  0
  -18.1981  -26.7967   22.1609 C   0  0  0  0  0  0
  -19.1668  -28.8990   23.2668 C   0  0  0  0  0  0
  -18.9565  -30.1558   23.8743 C   0  0  0  0  0  0
  -17.6548  -30.6624   24.0531 C   0  0  0  0  0  0
  -25.9182  -34.9068   23.4796 C   0  0  0  0  0  0
  -16.5431  -29.9089   23.6373 C   0  0  0  0  0  0
  -16.7358  -28.6513   23.0388 C   0  0  0  0  0  0
  -26.4699  -31.6406   25.0686 C   0  0  0  0  0  0
  -25.3593  -31.3922   26.1177 C   0  0  0  0  0  0
  -27.0760  -30.2673   24.7116 C   0  0  0  0  0  0
  -27.6003  -32.4442   25.7545 C   0  0  0  0  0  0
  -27.5536  -37.1625   24.8463 C   0  0  0  0  0  0
  -21.4657  -29.2943   22.3249 N   0  0  0  0  0  0
  -26.4227  -37.3499   23.9417 N   0  0  0  0  0  0
  -24.8903  -30.7892   22.0670 N   0  0  0  0  0  0
  -23.4161  -28.7563   23.3203 O   0  0  0  0  0  0
  -28.0483  -24.4017   20.1962 O   0  0  0  0  0  0
  -26.5926  -34.8775   22.4487 O   0  0  0  0  0  0
  -23.6354  -32.0575   23.5461 O   0  0  0  0  0  0
  -29.8407  -22.3097   20.2129 C   0  0  0  0  0  0
  -30.0183  -23.8577   20.9974 C   0  0  0  0  0  0
  -27.3815  -21.9724   20.7854 C   0  0  0  0  0  0
  -28.7654  -20.9940   20.3756 C   0  0  0  0  0  0
  -27.1952  -23.3975   21.8702 C   0  0  0  0  0  0
  -28.7715  -24.4759   22.1405 C   0  0  0  0  0  0
  -28.3274  -23.0164   23.5102 C   0  0  0  0  0  0
  -28.9115  -18.7682   20.3131 C   0  0  0  0  0  0
  -29.7417  -24.8709   24.4693 C   0  0  0  0  0  0
  -27.0151  -23.0609   23.2091 N   0  0  0  0  0  0
  -27.6811  -18.4741   20.3345 N   0  0  0  0  0  0
  -28.8458  -24.2598   23.5042 N   0  0  0  0  0  0
  -28.9794  -22.4092   22.4357 N   0  0  0  0  0  0
  -31.2385  -14.2182   19.1149 H   0  0  0  0  0  0
  -30.6939  -13.1788   20.3576 H   0  0  0  0  0  0
  -30.2483  -12.1905   18.0852 H   0  0  0  0  0  0
  -29.4198  -13.6390   17.5826 H   0  0  0  0  0  0
  -28.4513  -11.5023   19.4870 H   0  0  0  0  0  0
  -27.6288  -12.1216   18.0652 H   0  0  0  0  0  0
  -27.3190  -14.2338   19.0992 H   0  0  0  0  0  0
  -28.9326  -13.4715   21.5756 H   0  0  0  0  0  0
  -27.8776  -14.8301   21.4790 H   0  0  0  0  0  0
  -25.2914   -9.5686   22.4711 H   0  0  0  0  0  0
  -24.0064   -7.4694   22.7482 H   0  0  0  0  0  0
  -21.0957   -8.8861   19.8944 H   0  0  0  0  0  0
  -22.3887  -10.9693   19.6096 H   0  0  0  0  0  0
  -21.2020   -7.6166   23.9724 H   0  0  0  0  0  0
  -21.1492   -6.0530   25.9076 H   0  0  0  0  0  0
  -22.0583   -2.7628   23.2833 H   0  0  0  0  0  0
  -22.4093  -11.9745   22.4906 H   0  0  0  0  0  0
  -21.0954  -13.0934   22.2650 H   0  0  0  0  0  0
  -24.5734  -15.8647   20.5781 H   0  0  0  0  0  0
  -26.2081  -15.7066   20.1875 H   0  0  0  0  0  0
  -26.7893  -32.4425   23.0562 H   0  0  0  0  0  0
  -24.9960  -33.8871   24.9605 H   0  0  0  0  0  0
  -22.9788  -31.1360   21.2107 H   0  0  0  0  0  0
  -23.3800  -35.9240   23.3208 H   0  0  0  0  0  0
  -24.3536  -36.8801   22.2112 H   0  0  0  0  0  0
  -23.7203  -37.6059   23.6894 H   0  0  0  0  0  0
  -26.4871  -30.8880   20.6675 H   0  0  0  0  0  0
  -27.0429  -30.3145   22.1700 H   0  0  0  0  0  0
  -28.2039  -27.7215   21.4749 H   0  0  0  0  0  0
  -25.7942  -25.3301   18.9262 H   0  0  0  0  0  0
  -24.1827  -27.0567   18.8543 H   0  0  0  0  0  0
  -24.1402  -30.2374   19.3593 H   0  0  0  0  0  0
  -23.0090  -29.0000   19.7991 H   0  0  0  0  0  0
  -25.1407  -36.1318   25.0723 H   0  0  0  0  0  0
  -21.0111  -28.3520   24.1143 H   0  0  0  0  0  0
  -20.5610  -26.2484   23.3734 H   0  0  0  0  0  0
  -21.6663  -26.7260   22.1270 H   0  0  0  0  0  0
  -19.6940  -25.6210   21.1342 H   0  0  0  0  0  0
  -19.6765  -27.3073   20.6694 H   0  0  0  0  0  0
  -17.4250  -26.6709   21.4013 H   0  0  0  0  0  0
  -18.0351  -26.0150   22.9044 H   0  0  0  0  0  0
  -19.8049  -30.7410   24.2039 H   0  0  0  0  0  0
  -17.5105  -31.6295   24.5161 H   0  0  0  0  0  0
  -15.5430  -30.2952   23.7793 H   0  0  0  0  0  0
  -15.8754  -28.0789   22.7195 H   0  0  0  0  0  0
  -24.5807  -30.7264   25.7441 H   0  0  0  0  0  0
  -24.8775  -32.3215   26.4220 H   0  0  0  0  0  0
  -25.7607  -30.9304   27.0207 H   0  0  0  0  0  0
  -26.3603  -29.6029   24.2275 H   0  0  0  0  0  0
  -27.4059  -29.7452   25.6110 H   0  0  0  0  0  0
  -27.9628  -30.3646   24.0860 H   0  0  0  0  0  0
  -27.2433  -33.3875   26.1692 H   0  0  0  0  0  0
  -28.4027  -32.6796   25.0543 H   0  0  0  0  0  0
  -28.0441  -31.8885   26.5815 H   0  0  0  0  0  0
  -28.2462  -38.0002   24.7544 H   0  0  0  0  0  0
  -28.1119  -36.2513   24.6250 H   0  0  0  0  0  0
  -27.2250  -37.1198   25.8862 H   0  0  0  0  0  0
  -21.0133  -29.8471   21.6105 H   0  0  0  0  0  0
  -25.9987  -38.2501   24.1492 H   0  0  0  0  0  0
  -30.7610  -22.0143   19.7282 H   0  0  0  0  0  0
  -30.9518  -24.3978   20.9008 H   0  0  0  0  0  0
  -26.5033  -21.3516   20.8663 H   0  0  0  0  0  0
  -29.5130  -25.9327   24.5589 H   0  0  0  0  0  0
  -30.7775  -24.7578   24.1453 H   0  0  0  0  0  0
  -29.6245  -24.3967   25.4447 H   0  0  0  0  0  0
  -27.1126  -19.3115   20.3656 H   0  0  0  0  0  0
  -29.9915  -22.4862   22.4363 H   0  0  0  0  0  0
  1 25  1  0  0  0
  1 30  2  0  0  0
  1 78  1  0  0  0
  2  3  1  0  0  0
  2 25  1  0  0  0
  2 84  1  0  0  0
  2 85  1  0  0  0
  3  4  1  0  0  0
  3 86  1  0  0  0
  3 87  1  0  0  0
  4  5  1  0  0  0
  4 88  1  0  0  0
  4 89  1  0  0  0
  5  6  1  0  0  0
  5 26  1  0  0  0
  5 90  1  0  0  0
  6 25  1  0  0  0
  6 91  1  0  0  0
  6 92  1  0  0  0
  7  8  2  0  0  0
  7 26  1  0  0  0
  7 29  1  0  0  0
  8  9  1  0  0  0
  8 22  1  0  0  0
  9 10  1  0  0  0
  9 27  2  0  0  0
 10 11  2  0  0  0
 10 15  1  0  0  0
 11 12  1  0  0  0
 11 93  1  0  0  0
 12 13  2  0  0  0
 12 94  1  0  0  0
 13 14  1  0  0  0
 13 31  1  0  0  0
 14 15  2  0  0  0
 14 95  1  0  0  0
 15 96  1  0  0  0
 16 17  2  0  0  0
 16 21  1  0  0  0
 16 31  1  0  0  0
 17 18  1  0  0  0
 17 97  1  0  0  0
 18 19  2  0  0  0
 18 98  1  0  0  0
 19 20  1  0  0  0
 19 24  1  0  0  0
 20 21  2  0  0  0
 20 99  1  0  0  0
 21 23  1  0  0  0
 22 28  1  0  0  0
 22 32  2  0  0  0
 26 27  1  0  0  0
 28100  1  0  0  0
 28101  1  0  0  0
 29102  1  0  0  0
 29103  1  0  0  0
 33 34  1  0  0  0
 33 66  1  0  0  0
 33 70  2  0  0  0
 34 36  1  0  0  0
 34 59  1  0  0  0
 34104  1  0  0  0
 35 44  2  0  0  0
 35 45  1  0  0  0
 35 68  1  0  0  0
 36 56  1  0  0  0
 36105  1  0  0  0
 37 39  1  0  0  0
 37 47  1  0  0  0
 37 66  1  0  0  0
 37106  1  0  0  0
 38 43  2  0  0  0
 38 46  1  0  0  0
 38 47  1  0  0  0
 39 64  1  0  0  0
 39 67  2  0  0  0
 40 52  1  0  0  0
 40 53  2  0  0  0
 40 58  1  0  0  0
 41107  1  0  0  0
 41108  1  0  0  0
 41109  1  0  0  0
 41 48  1  0  0  0
 42 43  1  0  0  0
 42 66  1  0  0  0
 42110  1  0  0  0
 42111  1  0  0  0
 43 44  1  0  0  0
 44112  1  0  0  0
 45 46  2  0  0  0
 45113  1  0  0  0
 46114  1  0  0  0
 47115  1  0  0  0
 47116  1  0  0  0
 48 56  1  0  0  0
 48 65  1  0  0  0
 48117  1  0  0  0
 49 50  1  0  0  0
 49 53  1  0  0  0
 49 64  1  0  0  0
 49118  1  0  0  0
 50 51  1  0  0  0
 50119  1  0  0  0
 50120  1  0  0  0
 51 52  1  0  0  0
 51121  1  0  0  0
 51122  1  0  0  0
 52123  1  0  0  0
 52124  1  0  0  0
 53 54  1  0  0  0
 54 55  2  0  0  0
 54125  1  0  0  0
 55 57  1  0  0  0
 55126  1  0  0  0
 56 69  2  0  0  0
 57 58  2  0  0  0
 57127  1  0  0  0
 58128  1  0  0  0
 59 60  1  0  0  0
 59 61  1  0  0  0
 59 62  1  0  0  0
 60129  1  0  0  0
 60130  1  0  0  0
 60131  1  0  0  0
 61132  1  0  0  0
 61133  1  0  0  0
 61134  1  0  0  0
 62135  1  0  0  0
 62136  1  0  0  0
 62137  1  0  0  0
 63 65  1  0  0  0
 63138  1  0  0  0
 63139  1  0  0  0
 63140  1  0  0  0
 64141  1  0  0  0
 65142  1  0  0  0
 68 83  1  0  0  0
 71 72  2  0  0  0
 71 74  1  0  0  0
 71143  1  0  0  0
 72 76  1  0  0  0
 72144  1  0  0  0
 73 74  2  0  0  0
 73 75  1  0  0  0
 73145  1  0  0  0
 74 78  1  0  0  0
 75 76  2  0  0  0
 75 80  1  0  0  0
 76 82  1  0  0  0
 77 80  2  0  0  0
 77 82  1  0  0  0
 77 83  1  0  0  0
 78 81  2  0  0  0
 79 82  1  0  0  0
 79146  1  0  0  0
 79147  1  0  0  0
 79148  1  0  0  0
 81149  1  0  0  0
 83150  1  0  0  0
M  ISO  4   1 100  68 101  78 100  83 101
M  END
> <chiral flag>
0

> <version>
0

> <s_m_source_file>
/data/baiqing/PycharmProjects/Reinvent-master-3.2/result/LINK_invent/BTK/process_docking_weight1_custom_product_contain_oxygen_bond_distance_aromatic_linkinvent_7_9_3/rearranged_h_0081.sdf

> <i_m_source_file_index>
2

> <r_mmod_Potential_Energy-OPLS-2005>
14181.91015625

> <r_mmod_Stretch_Energy-OPLS-2005>
7799.03173828125

> <r_mmod_Bend_Energy-OPLS-2005>
1197.78991699219

> <r_mmod_Torsional_Energy-OPLS-2005>
650.476806640625

> <r_mmod_Improper_Torsional_Energy-OPLS-2005>
102.705894470215

> <r_mmod_Van_der_Waal_Energy-OPLS-2005>
1909.74060058594

> <r_mmod_Electrostatic_Energy-OPLS-2005>
-320.394256591797

> <r_mmod_Solvation_Energy-OPLS-2005>
-228.688873291016

> <b_mmod_Minimization_Converged-OPLS-2005>
0

> <r_mmod_RMS_Derivative-OPLS-2005>
2.90742921829224

$$$$
2
                    3D
 Structure written by MMmdl.
152161  0  0  1  0            999 V2000
  -30.6130  -14.6499   20.5056 C   0  0  0  0  0  0
  -30.4430  -12.3996   19.4520 C   0  0  0  0  0  0
  -29.5094  -12.5124   18.2252 C   0  0  0  0  0  0
  -28.0314  -12.3486   18.6349 C   0  0  0  0  0  0
  -27.6545  -13.2158   19.8655 C   0  0  2  0  0  0
  -28.6994  -13.0623   20.9935 C   0  0  0  0  0  0
  -25.2560  -13.8173   20.5692 C   0  0  0  0  0  0
  -24.1822  -13.0441   20.9192 C   0  0  0  0  0  0
  -24.6388  -11.6913   20.8747 C   0  0  0  0  0  0
  -23.9059  -10.4293   21.0407 C   0  0  0  0  0  0
  -24.3613   -9.4208   21.9180 C   0  0  0  0  0  0
  -23.6294   -8.2245   22.0746 C   0  0  0  0  0  0
  -22.4275   -8.0281   21.3541 C   0  0  0  0  0  0
  -21.9908   -9.0253   20.4641 C   0  0  0  0  0  0
  -22.7235  -10.2134   20.3052 C   0  0  0  0  0  0
  -21.6851   -6.0742   22.5285 C   0  0  0  0  0  0
  -21.4012   -6.5643   23.8220 C   0  0  0  0  0  0
  -21.3659   -5.6792   24.9181 C   0  0  0  0  0  0
  -21.6044   -4.3055   24.7226 C   0  0  0  0  0  0
  -21.8817   -3.8151   23.4345 C   0  0  0  0  0  0
  -21.9189   -4.6971   22.3406 C   0  0  0  0  0  0
  -22.7843  -13.5239   21.1856 C   0  0  0  0  0  0
  -22.1658   -4.2160   21.0981 F   0  0  0  0  0  0
  -21.5627   -3.4535   25.7735 F   0  0  0  0  0  0
  -30.0156  -13.4158   20.4357 N   0  0  0  0  0  0
  -26.2993  -12.9352   20.3326 N   0  0  0  0  0  0
  -25.9315  -11.6509   20.5756 N   0  0  0  0  0  0
  -22.0474  -12.8239   22.0411 N   0  0  0  0  0  0
  -25.4279  -15.1896   20.4115 N   0  0  0  0  0  0
  -31.7676  -14.8244   20.1043 O   0  0  0  0  0  0
  -21.6637   -6.8882   21.4244 O   0  0  0  0  0  0
  -22.3534  -14.5552   20.6710 O   0  0  0  0  0  0
  -24.6299  -31.8600   23.2056 C   0  0  0  0  0  0
  -25.9146  -32.4778   23.8379 C   0  0  1  0  0  0
  -27.2169  -27.2994   20.1109 C   0  0  0  0  0  0
  -25.5966  -33.8578   24.2312 N   0  0  0  0  0  0
  -23.4252  -30.4906   21.5456 C   0  0  2  0  0  0
  -24.8710  -28.9531   20.1073 C   0  0  0  0  0  0
  -22.7501  -29.4653   22.4886 C   0  0  0  0  0  0
  -18.0307  -28.1400   22.8487 C   0  0  0  0  0  0
  -24.1493  -36.7275   23.2635 C   0  0  0  0  0  0
  -25.9716  -30.7843   21.3838 C   0  0  0  0  0  0
  -26.0433  -29.4129   20.7207 C   0  0  0  0  0  0
  -27.2191  -28.5977   20.7168 C   0  0  0  0  0  0
  -26.0185  -26.9159   19.4563 C   0  0  0  0  0  0
  -24.8621  -27.7106   19.4652 C   0  0  0  0  0  0
  -23.6434  -29.8375   20.1575 C   0  0  0  0  0  0
  -25.4111  -36.3077   24.0341 C   0  0  1  0  0  0
  -20.5913  -28.3725   23.1253 C   0  0  2  0  0  0
  -20.6803  -26.9442   22.5393 C   0  0  0  0  0  0
  -19.5776  -26.6394   21.5210 C   0  0  0  0  0  0
  -18.1956  -26.7946   22.1622 C   0  0  0  0  0  0
  -19.1558  -28.8874   23.2873 C   0  0  0  0  0  0
  -18.9480  -30.1468   23.8903 C   0  0  0  0  0  0
  -17.6479  -30.6598   24.0574 C   0  0  0  0  0  0
  -25.9054  -34.9449   23.5116 C   0  0  0  0  0  0
  -16.5370  -29.9101   23.6331 C   0  0  0  0  0  0
  -16.7292  -28.6518   23.0353 C   0  0  0  0  0  0
  -26.4522  -31.6571   25.0735 C   0  0  0  0  0  0
  -25.3753  -31.3714   26.1456 C   0  0  0  0  0  0
  -27.0354  -30.2991   24.6186 C   0  0  0  0  0  0
  -27.6108  -32.4273   25.7488 C   0  0  0  0  0  0
  -27.5590  -37.1785   24.8463 C   0  0  0  0  0  0
  -21.4209  -29.3078   22.3633 N   0  0  0  0  0  0
  -26.4282  -37.3780   23.9433 N   0  0  0  0  0  0
  -24.6945  -31.0610   22.1017 N   0  0  0  0  0  0
  -23.4217  -28.8171   23.2956 O   0  0  0  0  0  0
  -28.3037  -26.3973   20.1762 O   0  0  0  0  0  0
  -26.5598  -34.8920   22.4667 O   0  0  0  0  0  0
  -23.5451  -32.1401   23.7367 O   0  0  0  0  0  0
  -30.8040  -19.3318   20.0734 C   0  0  0  0  0  0
  -28.6562  -19.3138   21.1394 C   0  0  0  0  0  0
  -30.8774  -17.9043   20.1691 C   0  0  0  0  0  0
  -28.7304  -17.8927   21.2391 C   0  0  0  0  0  0
  -29.6951  -20.0937   20.5589 C   0  0  0  0  0  0
  -29.8379  -17.1388   20.7641 C   0  0  0  0  0  0
  -30.2284  -23.7745   20.6108 C   0  0  0  0  0  0
  -28.9380  -23.7751   20.2762 C   0  0  0  0  0  0
  -30.6865  -22.4012   20.7552 C   0  0  0  0  0  0
  -28.5469  -22.3545   20.2089 C   0  0  0  0  0  0
  -27.9677  -24.9628   19.9418 C   0  0  0  0  0  0
  -29.6382  -21.5789   20.4974 N   0  0  0  0  0  0
  -29.7994  -15.6782   20.9094 N   0  0  0  0  0  0
  -31.8284  -22.0433   21.0673 O   0  0  0  0  0  0
  -27.4252  -21.9192   19.9225 O   0  0  0  0  0  0
  -31.4822  -12.5350   19.1474 H   0  0  0  0  0  0
  -30.3891  -11.4014   19.8893 H   0  0  0  0  0  0
  -29.7753  -11.7617   17.4796 H   0  0  0  0  0  0
  -29.6485  -13.4822   17.7448 H   0  0  0  0  0  0
  -27.8665  -11.2947   18.8608 H   0  0  0  0  0  0
  -27.3787  -12.5830   17.7931 H   0  0  0  0  0  0
  -27.6733  -14.2527   19.5298 H   0  0  0  0  0  0
  -28.7115  -12.0355   21.3621 H   0  0  0  0  0  0
  -28.4402  -13.6796   21.8545 H   0  0  0  0  0  0
  -25.2757   -9.5691   22.4757 H   0  0  0  0  0  0
  -24.0006   -7.4632   22.7459 H   0  0  0  0  0  0
  -21.0843   -8.8774   19.8942 H   0  0  0  0  0  0
  -22.3695  -10.9677   19.6166 H   0  0  0  0  0  0
  -21.2005   -7.6150   23.9733 H   0  0  0  0  0  0
  -21.1482   -6.0516   25.9086 H   0  0  0  0  0  0
  -22.0596   -2.7615   23.2838 H   0  0  0  0  0  0
  -22.4080  -11.9901   22.4815 H   0  0  0  0  0  0
  -21.1093  -13.1270   22.2603 H   0  0  0  0  0  0
  -24.6589  -15.8430   20.5148 H   0  0  0  0  0  0
  -26.2767  -15.6301   20.0809 H   0  0  0  0  0  0
  -26.7212  -32.5449   23.1125 H   0  0  0  0  0  0
  -25.0184  -33.9726   25.0507 H   0  0  0  0  0  0
  -22.7216  -31.3136   21.4046 H   0  0  0  0  0  0
  -23.3779  -35.9580   23.3250 H   0  0  0  0  0  0
  -24.3615  -36.8922   22.2061 H   0  0  0  0  0  0
  -23.7201  -37.6452   23.6666 H   0  0  0  0  0  0
  -26.1093  -31.5509   20.6201 H   0  0  0  0  0  0
  -26.8501  -30.8279   22.0155 H   0  0  0  0  0  0
  -28.1127  -28.9422   21.2188 H   0  0  0  0  0  0
  -25.9243  -25.9789   18.9308 H   0  0  0  0  0  0
  -23.9681  -27.3581   18.9691 H   0  0  0  0  0  0
  -23.7744  -30.6211   19.4100 H   0  0  0  0  0  0
  -22.7618  -29.2758   19.8437 H   0  0  0  0  0  0
  -25.1278  -36.1923   25.0830 H   0  0  0  0  0  0
  -21.0020  -28.3312   24.1368 H   0  0  0  0  0  0
  -20.5731  -26.2340   23.3602 H   0  0  0  0  0  0
  -21.6670  -26.7488   22.1168 H   0  0  0  0  0  0
  -19.6949  -25.6301   21.1252 H   0  0  0  0  0  0
  -19.6716  -27.3196   20.6736 H   0  0  0  0  0  0
  -17.4229  -26.6701   21.4017 H   0  0  0  0  0  0
  -18.0356  -26.0081   22.9012 H   0  0  0  0  0  0
  -19.7955  -30.7281   24.2277 H   0  0  0  0  0  0
  -17.5039  -31.6280   24.5172 H   0  0  0  0  0  0
  -15.5375  -30.3015   23.7647 H   0  0  0  0  0  0
  -15.8693  -28.0841   22.7063 H   0  0  0  0  0  0
  -24.5963  -30.7019   25.7789 H   0  0  0  0  0  0
  -24.8907  -32.2876   26.4839 H   0  0  0  0  0  0
  -25.8079  -30.8936   27.0253 H   0  0  0  0  0  0
  -26.2926  -29.6729   24.1230 H   0  0  0  0  0  0
  -27.4076  -29.7247   25.4678 H   0  0  0  0  0  0
  -27.8791  -30.4267   23.9402 H   0  0  0  0  0  0
  -27.2779  -33.3604   26.2041 H   0  0  0  0  0  0
  -28.3942  -32.6756   25.0315 H   0  0  0  0  0  0
  -28.0746  -31.8389   26.5413 H   0  0  0  0  0  0
  -28.2557  -38.0132   24.7572 H   0  0  0  0  0  0
  -28.1130  -36.2664   24.6189 H   0  0  0  0  0  0
  -27.2328  -37.1311   25.8868 H   0  0  0  0  0  0
  -20.9380  -29.8822   21.6862 H   0  0  0  0  0  0
  -26.0155  -38.2838   24.1486 H   0  0  0  0  0  0
  -31.6365  -19.8435   19.6110 H   0  0  0  0  0  0
  -27.7791  -19.8035   21.5391 H   0  0  0  0  0  0
  -31.7534  -17.4080   19.7761 H   0  0  0  0  0  0
  -27.9011  -17.3765   21.7024 H   0  0  0  0  0  0
  -30.8483  -24.6484   20.7322 H   0  0  0  0  0  0
  -27.0538  -24.7343   20.4940 H   0  0  0  0  0  0
  -27.7419  -24.8423   18.8815 H   0  0  0  0  0  0
  -28.9289  -15.3308   21.2808 H   0  0  0  0  0  0
  1 25  1  0  0  0
  1 30  2  0  0  0
  1 83  1  0  0  0
  2  3  1  0  0  0
  2 25  1  0  0  0
  2 86  1  0  0  0
  2 87  1  0  0  0
  3  4  1  0  0  0
  3 88  1  0  0  0
  3 89  1  0  0  0
  4  5  1  0  0  0
  4 90  1  0  0  0
  4 91  1  0  0  0
  5  6  1  0  0  0
  5 26  1  0  0  0
  5 92  1  0  0  0
  6 25  1  0  0  0
  6 93  1  0  0  0
  6 94  1  0  0  0
  7  8  2  0  0  0
  7 26  1  0  0  0
  7 29  1  0  0  0
  8  9  1  0  0  0
  8 22  1  0  0  0
  9 10  1  0  0  0
  9 27  2  0  0  0
 10 11  2  0  0  0
 10 15  1  0  0  0
 11 12  1  0  0  0
 11 95  1  0  0  0
 12 13  2  0  0  0
 12 96  1  0  0  0
 13 14  1  0  0  0
 13 31  1  0  0  0
 14 15  2  0  0  0
 14 97  1  0  0  0
 15 98  1  0  0  0
 16 17  2  0  0  0
 16 21  1  0  0  0
 16 31  1  0  0  0
 17 18  1  0  0  0
 17 99  1  0  0  0
 18 19  2  0  0  0
 18100  1  0  0  0
 19 20  1  0  0  0
 19 24  1  0  0  0
 20 21  2  0  0  0
 20101  1  0  0  0
 21 23  1  0  0  0
 22 28  1  0  0  0
 22 32  2  0  0  0
 26 27  1  0  0  0
 28102  1  0  0  0
 28103  1  0  0  0
 29104  1  0  0  0
 29105  1  0  0  0
 33 34  1  0  0  0
 33 66  1  0  0  0
 33 70  2  0  0  0
 34 36  1  0  0  0
 34 59  1  0  0  0
 34106  1  0  0  0
 35 44  2  0  0  0
 35 45  1  0  0  0
 35 68  1  0  0  0
 36 56  1  0  0  0
 36107  1  0  0  0
 37 39  1  0  0  0
 37 47  1  0  0  0
 37 66  1  0  0  0
 37108  1  0  0  0
 38 43  2  0  0  0
 38 46  1  0  0  0
 38 47  1  0  0  0
 39 64  1  0  0  0
 39 67  2  0  0  0
 40 52  1  0  0  0
 40 53  2  0  0  0
 40 58  1  0  0  0
 41109  1  0  0  0
 41110  1  0  0  0
 41111  1  0  0  0
 41 48  1  0  0  0
 42 43  1  0  0  0
 42 66  1  0  0  0
 42112  1  0  0  0
 42113  1  0  0  0
 43 44  1  0  0  0
 44114  1  0  0  0
 45 46  2  0  0  0
 45115  1  0  0  0
 46116  1  0  0  0
 47117  1  0  0  0
 47118  1  0  0  0
 48 56  1  0  0  0
 48 65  1  0  0  0
 48119  1  0  0  0
 49 50  1  0  0  0
 49 53  1  0  0  0
 49 64  1  0  0  0
 49120  1  0  0  0
 50 51  1  0  0  0
 50121  1  0  0  0
 50122  1  0  0  0
 51 52  1  0  0  0
 51123  1  0  0  0
 51124  1  0  0  0
 52125  1  0  0  0
 52126  1  0  0  0
 53 54  1  0  0  0
 54 55  2  0  0  0
 54127  1  0  0  0
 55 57  1  0  0  0
 55128  1  0  0  0
 56 69  2  0  0  0
 57 58  2  0  0  0
 57129  1  0  0  0
 58130  1  0  0  0
 59 60  1  0  0  0
 59 61  1  0  0  0
 59 62  1  0  0  0
 60131  1  0  0  0
 60132  1  0  0  0
 60133  1  0  0  0
 61134  1  0  0  0
 61135  1  0  0  0
 61136  1  0  0  0
 62137  1  0  0  0
 62138  1  0  0  0
 62139  1  0  0  0
 63 65  1  0  0  0
 63140  1  0  0  0
 63141  1  0  0  0
 63142  1  0  0  0
 64143  1  0  0  0
 65144  1  0  0  0
 68 81  1  0  0  0
 71 73  2  0  0  0
 71 75  1  0  0  0
 71145  1  0  0  0
 72 74  1  0  0  0
 72 75  2  0  0  0
 72146  1  0  0  0
 73 76  1  0  0  0
 73147  1  0  0  0
 74 76  2  0  0  0
 74148  1  0  0  0
 75 82  1  0  0  0
 76 83  1  0  0  0
 77 78  2  0  0  0
 77 79  1  0  0  0
 77149  1  0  0  0
 78 80  1  0  0  0
 78 81  1  0  0  0
 79 82  1  0  0  0
 79 84  2  0  0  0
 80 82  1  0  0  0
 80 85  2  0  0  0
 81150  1  0  0  0
 81151  1  0  0  0
 83152  1  0  0  0
M  ISO  4   1 100  68 101  81 101  83 100
M  END
> <chiral flag>
0

> <version>
0

> <s_m_source_file>
/data/baiqing/PycharmProjects/Reinvent-master-3.2/result/LINK_invent/BTK/process_docking_weight1_custom_product_contain_oxygen_bond_distance_aromatic_linkinvent_7_9_3/rearranged_h_0081.sdf

> <i_m_source_file_index>
3

> <r_mmod_Potential_Energy-OPLS-2005>
82.7786254882812

> <r_mmod_Stretch_Energy-OPLS-2005>
87.6945190429688

> <r_mmod_Bend_Energy-OPLS-2005>
189.800857543945

> <r_mmod_Torsional_Energy-OPLS-2005>
235.467269897461

> <r_mmod_Improper_Torsional_Energy-OPLS-2005>
3.68464469909668

> <r_mmod_Van_der_Waal_Energy-OPLS-2005>
148.999633789062

> <r_mmod_Electrostatic_Energy-OPLS-2005>
-403.608795166016

> <r_mmod_Solvation_Energy-OPLS-2005>
-237.189315795898

> <b_mmod_Minimization_Converged-OPLS-2005>
0

> <r_mmod_RMS_Derivative-OPLS-2005>
1.06836152076721

$$$$
3
                    3D
 Structure written by MMmdl.
150158  0  0  1  0            999 V2000
  -30.5914  -14.7860   20.4477 C   0  0  0  0  0  0
  -30.4349  -12.4799   19.4689 C   0  0  0  0  0  0
  -29.5103  -12.5029   18.2318 C   0  0  0  0  0  0
  -28.0365  -12.3239   18.6492 C   0  0  0  0  0  0
  -27.6355  -13.2325   19.8419 C   0  0  2  0  0  0
  -28.6826  -13.1873   20.9748 C   0  0  0  0  0  0
  -25.2483  -13.8198   20.5705 C   0  0  0  0  0  0
  -24.1789  -13.0432   20.9221 C   0  0  0  0  0  0
  -24.6385  -11.6913   20.8746 C   0  0  0  0  0  0
  -23.9062  -10.4291   21.0410 C   0  0  0  0  0  0
  -24.3612   -9.4204   21.9182 C   0  0  0  0  0  0
  -23.6288   -8.2236   22.0746 C   0  0  0  0  0  0
  -22.4270   -8.0276   21.3537 C   0  0  0  0  0  0
  -21.9904   -9.0255   20.4643 C   0  0  0  0  0  0
  -22.7233  -10.2133   20.3059 C   0  0  0  0  0  0
  -21.6854   -6.0730   22.5279 C   0  0  0  0  0  0
  -21.4020   -6.5633   23.8213 C   0  0  0  0  0  0
  -21.3662   -5.6786   24.9171 C   0  0  0  0  0  0
  -21.6045   -4.3047   24.7226 C   0  0  0  0  0  0
  -21.8814   -3.8138   23.4346 C   0  0  0  0  0  0
  -21.9190   -4.6958   22.3402 C   0  0  0  0  0  0
  -22.7806  -13.5210   21.1885 C   0  0  0  0  0  0
  -22.1661   -4.2141   21.0974 F   0  0  0  0  0  0
  -21.5628   -3.4532   25.7740 F   0  0  0  0  0  0
  -29.9746  -13.5528   20.3818 N   0  0  0  0  0  0
  -26.2900  -12.9405   20.3243 N   0  0  0  0  0  0
  -25.9308  -11.6543   20.5723 N   0  0  0  0  0  0
  -22.0464  -12.8203   22.0455 N   0  0  0  0  0  0
  -25.4141  -15.1926   20.4131 N   0  0  0  0  0  0
  -31.7953  -14.8681   20.1881 O   0  0  0  0  0  0
  -21.6635   -6.8875   21.4240 O   0  0  0  0  0  0
  -22.3486  -14.5518   20.6735 O   0  0  0  0  0  0
  -24.6332  -31.8527   23.1938 C   0  0  0  0  0  0
  -25.9145  -32.4737   23.8305 C   0  0  1  0  0  0
  -27.2244  -27.2426   20.1384 C   0  0  0  0  0  0
  -25.5922  -33.8540   24.2226 N   0  0  0  0  0  0
  -23.4314  -30.4716   21.5388 C   0  0  2  0  0  0
  -24.8794  -28.9069   20.1159 C   0  0  0  0  0  0
  -22.7512  -29.4588   22.4914 C   0  0  0  0  0  0
  -18.0292  -28.1385   22.8484 C   0  0  0  0  0  0
  -24.1488  -36.7281   23.2639 C   0  0  0  0  0  0
  -25.9782  -30.7589   21.3759 C   0  0  0  0  0  0
  -26.0526  -29.3783   20.7205 C   0  0  0  0  0  0
  -27.2311  -28.5613   20.7124 C   0  0  0  0  0  0
  -26.0284  -26.8338   19.5162 C   0  0  0  0  0  0
  -24.8729  -27.6431   19.5023 C   0  0  0  0  0  0
  -23.6512  -29.7977   20.1585 C   0  0  0  0  0  0
  -25.4114  -36.3058   24.0324 C   0  0  1  0  0  0
  -20.5898  -28.3695   23.1268 C   0  0  2  0  0  0
  -20.6777  -26.9410   22.5409 C   0  0  0  0  0  0
  -19.5752  -26.6378   21.5214 C   0  0  0  0  0  0
  -18.1936  -26.7921   22.1633 C   0  0  0  0  0  0
  -19.1545  -28.8858   23.2870 C   0  0  0  0  0  0
  -18.9466  -30.1458   23.8890 C   0  0  0  0  0  0
  -17.6466  -30.6584   24.0564 C   0  0  0  0  0  0
  -25.9060  -34.9431   23.5083 C   0  0  0  0  0  0
  -16.5359  -29.9083   23.6329 C   0  0  0  0  0  0
  -16.7279  -28.6502   23.0349 C   0  0  0  0  0  0
  -26.4491  -31.6574   25.0712 C   0  0  0  0  0  0
  -25.3701  -31.3750   26.1426 C   0  0  0  0  0  0
  -27.0340  -30.2981   24.6233 C   0  0  0  0  0  0
  -27.6036  -32.4323   25.7488 C   0  0  0  0  0  0
  -27.5585  -37.1782   24.8455 C   0  0  0  0  0  0
  -21.4217  -29.3036   22.3657 N   0  0  0  0  0  0
  -26.4284  -37.3765   23.9417 N   0  0  0  0  0  0
  -24.7001  -31.0469   22.0924 N   0  0  0  0  0  0
  -23.4197  -28.8142   23.3035 O   0  0  0  0  0  0
  -28.3225  -26.3505   20.1217 O   0  0  0  0  0  0
  -26.5649  -34.8917   22.4661 O   0  0  0  0  0  0
  -23.5476  -32.1364   23.7218 O   0  0  0  0  0  0
  -31.6330  -19.1043   21.5879 C   0  0  0  0  0  0
  -30.8108  -20.1648   21.1487 C   0  0  0  0  0  0
  -31.2989  -17.7519   21.3570 C   0  0  0  0  0  0
  -29.2799  -18.5052   20.2405 C   0  0  0  0  0  0
  -29.6080  -19.9204   20.4520 C   0  0  0  0  0  0
  -30.1144  -17.3834   20.6806 C   0  0  0  0  0  0
  -28.8312  -21.1365   19.8306 C   0  0  0  0  0  0
  -28.4477  -23.6515   19.8368 C   0  0  0  0  0  0
  -28.1917  -24.9693   20.7322 C   0  0  0  0  0  0
  -29.7886  -15.9290   20.5323 N   0  0  0  0  0  0
  -28.8451  -22.4213   20.3838 N   0  0  0  0  0  0
  -28.1871  -20.8880   18.8058 O   0  0  0  0  0  0
  -28.2536  -23.7815   18.6220 O   0  0  0  0  0  0
  -31.4735  -12.6176   19.1627 H   0  0  0  0  0  0
  -30.3929  -11.5088   19.9645 H   0  0  0  0  0  0
  -29.7975  -11.7176   17.5305 H   0  0  0  0  0  0
  -29.6307  -13.4476   17.6992 H   0  0  0  0  0  0
  -27.8984  -11.2774   18.9221 H   0  0  0  0  0  0
  -27.3769  -12.5050   17.8001 H   0  0  0  0  0  0
  -27.6215  -14.2482   19.4476 H   0  0  0  0  0  0
  -28.7307  -12.1943   21.4241 H   0  0  0  0  0  0
  -28.4142  -13.8757   21.7783 H   0  0  0  0  0  0
  -25.2765   -9.5680   22.4749 H   0  0  0  0  0  0
  -24.0006   -7.4623   22.7459 H   0  0  0  0  0  0
  -21.0837   -8.8768   19.8954 H   0  0  0  0  0  0
  -22.3692  -10.9663   19.6166 H   0  0  0  0  0  0
  -21.2022   -7.6138   23.9712 H   0  0  0  0  0  0
  -21.1495   -6.0513   25.9069 H   0  0  0  0  0  0
  -22.0596   -2.7600   23.2840 H   0  0  0  0  0  0
  -22.4090  -11.9868   22.4844 H   0  0  0  0  0  0
  -21.1082  -13.1213   22.2670 H   0  0  0  0  0  0
  -24.6395  -15.8379   20.5255 H   0  0  0  0  0  0
  -26.2498  -15.6398   20.0605 H   0  0  0  0  0  0
  -26.7216  -32.5372   23.1048 H   0  0  0  0  0  0
  -25.0021  -33.9666   25.0339 H   0  0  0  0  0  0
  -22.7285  -31.2937   21.3879 H   0  0  0  0  0  0
  -23.3757  -35.9606   23.3279 H   0  0  0  0  0  0
  -24.3591  -36.8931   22.2060 H   0  0  0  0  0  0
  -23.7237  -37.6472   23.6685 H   0  0  0  0  0  0
  -26.1218  -31.5178   20.6056 H   0  0  0  0  0  0
  -26.8537  -30.8075   22.0123 H   0  0  0  0  0  0
  -28.1356  -28.9241   21.1802 H   0  0  0  0  0  0
  -25.9846  -25.8632   19.0421 H   0  0  0  0  0  0
  -23.9746  -27.2754   19.0251 H   0  0  0  0  0  0
  -23.7779  -30.5697   19.3986 H   0  0  0  0  0  0
  -22.7685  -29.2313   19.8557 H   0  0  0  0  0  0
  -25.1293  -36.1894   25.0818 H   0  0  0  0  0  0
  -20.9987  -28.3274   24.1392 H   0  0  0  0  0  0
  -20.5676  -26.2305   23.3618 H   0  0  0  0  0  0
  -21.6647  -26.7431   22.1208 H   0  0  0  0  0  0
  -19.6914  -25.6287   21.1251 H   0  0  0  0  0  0
  -19.6683  -27.3185   20.6742 H   0  0  0  0  0  0
  -17.4199  -26.6655   21.4046 H   0  0  0  0  0  0
  -18.0347  -26.0073   22.9041 H   0  0  0  0  0  0
  -19.7942  -30.7275   24.2258 H   0  0  0  0  0  0
  -17.5019  -31.6260   24.5169 H   0  0  0  0  0  0
  -15.5357  -30.2982   23.7653 H   0  0  0  0  0  0
  -15.8681  -28.0820   22.7063 H   0  0  0  0  0  0
  -24.5825  -30.7167   25.7740 H   0  0  0  0  0  0
  -24.8953  -32.2936   26.4883 H   0  0  0  0  0  0
  -25.7983  -30.8872   27.0190 H   0  0  0  0  0  0
  -26.2934  -29.6719   24.1242 H   0  0  0  0  0  0
  -27.3982  -29.7257   25.4775 H   0  0  0  0  0  0
  -27.8829  -30.4236   23.9509 H   0  0  0  0  0  0
  -27.2628  -33.3613   26.2072 H   0  0  0  0  0  0
  -28.3838  -32.6905   25.0316 H   0  0  0  0  0  0
  -28.0718  -31.8453   26.5398 H   0  0  0  0  0  0
  -28.2564  -38.0116   24.7553 H   0  0  0  0  0  0
  -28.1117  -36.2651   24.6207 H   0  0  0  0  0  0
  -27.2317  -37.1343   25.8859 H   0  0  0  0  0  0
  -20.9412  -29.8740   21.6842 H   0  0  0  0  0  0
  -26.0156  -38.2832   24.1441 H   0  0  0  0  0  0
  -32.5535  -19.3344   22.1072 H   0  0  0  0  0  0
  -31.1415  -21.1795   21.3208 H   0  0  0  0  0  0
  -31.9735  -16.9928   21.7253 H   0  0  0  0  0  0
  -28.3716  -18.2812   19.6990 H   0  0  0  0  0  0
  -28.8886  -24.9280   21.5682 H   0  0  0  0  0  0
  -27.2020  -24.8639   21.1768 H   0  0  0  0  0  0
  -28.8027  -15.7207   20.5043 H   0  0  0  0  0  0
  -29.1810  -22.4641   21.3326 H   0  0  0  0  0  0
  1 25  1  0  0  0
  1 30  2  0  0  0
  1 80  1  0  0  0
  2  3  1  0  0  0
  2 25  1  0  0  0
  2 84  1  0  0  0
  2 85  1  0  0  0
  3  4  1  0  0  0
  3 86  1  0  0  0
  3 87  1  0  0  0
  4  5  1  0  0  0
  4 88  1  0  0  0
  4 89  1  0  0  0
  5  6  1  0  0  0
  5 26  1  0  0  0
  5 90  1  0  0  0
  6 25  1  0  0  0
  6 91  1  0  0  0
  6 92  1  0  0  0
  7  8  2  0  0  0
  7 26  1  0  0  0
  7 29  1  0  0  0
  8  9  1  0  0  0
  8 22  1  0  0  0
  9 10  1  0  0  0
  9 27  2  0  0  0
 10 11  2  0  0  0
 10 15  1  0  0  0
 11 12  1  0  0  0
 11 93  1  0  0  0
 12 13  2  0  0  0
 12 94  1  0  0  0
 13 14  1  0  0  0
 13 31  1  0  0  0
 14 15  2  0  0  0
 14 95  1  0  0  0
 15 96  1  0  0  0
 16 17  2  0  0  0
 16 21  1  0  0  0
 16 31  1  0  0  0
 17 18  1  0  0  0
 17 97  1  0  0  0
 18 19  2  0  0  0
 18 98  1  0  0  0
 19 20  1  0  0  0
 19 24  1  0  0  0
 20 21  2  0  0  0
 20 99  1  0  0  0
 21 23  1  0  0  0
 22 28  1  0  0  0
 22 32  2  0  0  0
 26 27  1  0  0  0
 28100  1  0  0  0
 28101  1  0  0  0
 29102  1  0  0  0
 29103  1  0  0  0
 33 34  1  0  0  0
 33 66  1  0  0  0
 33 70  2  0  0  0
 34 36  1  0  0  0
 34 59  1  0  0  0
 34104  1  0  0  0
 35 44  2  0  0  0
 35 45  1  0  0  0
 35 68  1  0  0  0
 36 56  1  0  0  0
 36105  1  0  0  0
 37 39  1  0  0  0
 37 47  1  0  0  0
 37 66  1  0  0  0
 37106  1  0  0  0
 38 43  2  0  0  0
 38 46  1  0  0  0
 38 47  1  0  0  0
 39 64  1  0  0  0
 39 67  2  0  0  0
 40 52  1  0  0  0
 40 53  2  0  0  0
 40 58  1  0  0  0
 41107  1  0  0  0
 41108  1  0  0  0
 41109  1  0  0  0
 41 48  1  0  0  0
 42 43  1  0  0  0
 42 66  1  0  0  0
 42110  1  0  0  0
 42111  1  0  0  0
 43 44  1  0  0  0
 44112  1  0  0  0
 45 46  2  0  0  0
 45113  1  0  0  0
 46114  1  0  0  0
 47115  1  0  0  0
 47116  1  0  0  0
 48 56  1  0  0  0
 48 65  1  0  0  0
 48117  1  0  0  0
 49 50  1  0  0  0
 49 53  1  0  0  0
 49 64  1  0  0  0
 49118  1  0  0  0
 50 51  1  0  0  0
 50119  1  0  0  0
 50120  1  0  0  0
 51 52  1  0  0  0
 51121  1  0  0  0
 51122  1  0  0  0
 52123  1  0  0  0
 52124  1  0  0  0
 53 54  1  0  0  0
 54 55  2  0  0  0
 54125  1  0  0  0
 55 57  1  0  0  0
 55126  1  0  0  0
 56 69  2  0  0  0
 57 58  2  0  0  0
 57127  1  0  0  0
 58128  1  0  0  0
 59 60  1  0  0  0
 59 61  1  0  0  0
 59 62  1  0  0  0
 60129  1  0  0  0
 60130  1  0  0  0
 60131  1  0  0  0
 61132  1  0  0  0
 61133  1  0  0  0
 61134  1  0  0  0
 62135  1  0  0  0
 62136  1  0  0  0
 62137  1  0  0  0
 63 65  1  0  0  0
 63138  1  0  0  0
 63139  1  0  0  0
 63140  1  0  0  0
 64141  1  0  0  0
 65142  1  0  0  0
 68 79  1  0  0  0
 71 72  2  0  0  0
 71 73  1  0  0  0
 71143  1  0  0  0
 72 75  1  0  0  0
 72144  1  0  0  0
 73 76  2  0  0  0
 73145  1  0  0  0
 74 75  2  0  0  0
 74 76  1  0  0  0
 74146  1  0  0  0
 75 77  1  0  0  0
 76 80  1  0  0  0
 77 81  1  0  0  0
 77 82  2  0  0  0
 78 79  1  0  0  0
 78 81  1  0  0  0
 78 83  2  0  0  0
 79147  1  0  0  0
 79148  1  0  0  0
 80149  1  0  0  0
 81150  1  0  0  0
M  ISO  4   1 100  68 101  79 101  80 100
M  END
> <chiral flag>
0

> <version>
0

> <s_m_source_file>
/data/baiqing/PycharmProjects/Reinvent-master-3.2/result/LINK_invent/BTK/process_docking_weight1_custom_product_contain_oxygen_bond_distance_aromatic_linkinvent_7_9_3/rearranged_h_0081.sdf

> <i_m_source_file_index>
4

> <r_mmod_Potential_Energy-OPLS-2005>
52.3647346496582

> <r_mmod_Stretch_Energy-OPLS-2005>
140.091857910156

> <r_mmod_Bend_Energy-OPLS-2005>
167.388031005859

> <r_mmod_Torsional_Energy-OPLS-2005>
257.554473876953

> <r_mmod_Improper_Torsional_Energy-OPLS-2005>
7.16265296936035

> <r_mmod_Van_der_Waal_Energy-OPLS-2005>
134.887222290039

> <r_mmod_Electrostatic_Energy-OPLS-2005>
-471.244171142578

> <r_mmod_Solvation_Energy-OPLS-2005>
-283.080017089844

> <b_mmod_Minimization_Converged-OPLS-2005>
0

> <r_mmod_RMS_Derivative-OPLS-2005>
1.41116499900818

$$$$
4
                    3D
 Structure written by MMmdl.
149157  0  0  1  0            999 V2000
  -30.6158  -14.8229   20.4272 C   0  0  0  0  0  0
  -30.4281  -12.5010   19.4972 C   0  0  0  0  0  0
  -29.5148  -12.5084   18.2519 C   0  0  0  0  0  0
  -28.0436  -12.3219   18.6651 C   0  0  0  0  0  0
  -27.6359  -13.2439   19.8457 C   0  0  2  0  0  0
  -28.6793  -13.2364   20.9846 C   0  0  0  0  0  0
  -25.2479  -13.8219   20.5709 C   0  0  0  0  0  0
  -24.1783  -13.0446   20.9213 C   0  0  0  0  0  0
  -24.6390  -11.6928   20.8747 C   0  0  0  0  0  0
  -23.9071  -10.4295   21.0395 C   0  0  0  0  0  0
  -24.3620   -9.4212   21.9179 C   0  0  0  0  0  0
  -23.6291   -8.2247   22.0752 C   0  0  0  0  0  0
  -22.4274   -8.0279   21.3541 C   0  0  0  0  0  0
  -21.9911   -9.0253   20.4645 C   0  0  0  0  0  0
  -22.7239  -10.2131   20.3049 C   0  0  0  0  0  0
  -21.6858   -6.0728   22.5274 C   0  0  0  0  0  0
  -21.4025   -6.5634   23.8209 C   0  0  0  0  0  0
  -21.3667   -5.6790   24.9175 C   0  0  0  0  0  0
  -21.6044   -4.3051   24.7228 C   0  0  0  0  0  0
  -21.8817   -3.8136   23.4349 C   0  0  0  0  0  0
  -21.9193   -4.6952   22.3403 C   0  0  0  0  0  0
  -22.7809  -13.5218   21.1867 C   0  0  0  0  0  0
  -22.1658   -4.2132   21.0982 F   0  0  0  0  0  0
  -21.5631   -3.4537   25.7743 F   0  0  0  0  0  0
  -29.9734  -13.5964   20.3932 N   0  0  0  0  0  0
  -26.2915  -12.9448   20.3284 N   0  0  0  0  0  0
  -25.9330  -11.6579   20.5761 N   0  0  0  0  0  0
  -22.0459  -12.8205   22.0424 N   0  0  0  0  0  0
  -25.4147  -15.1947   20.4132 N   0  0  0  0  0  0
  -31.8181  -14.8392   20.1541 O   0  0  0  0  0  0
  -21.6648   -6.8869   21.4234 O   0  0  0  0  0  0
  -22.3485  -14.5522   20.6711 O   0  0  0  0  0  0
  -24.6372  -31.8515   23.1957 C   0  0  0  0  0  0
  -25.9176  -32.4733   23.8326 C   0  0  1  0  0  0
  -27.2137  -27.2131   20.1412 C   0  0  0  0  0  0
  -25.5962  -33.8541   24.2247 N   0  0  0  0  0  0
  -23.4384  -30.4724   21.5390 C   0  0  2  0  0  0
  -24.8898  -28.9181   20.1056 C   0  0  0  0  0  0
  -22.7539  -29.4577   22.4881 C   0  0  0  0  0  0
  -18.0303  -28.1388   22.8483 C   0  0  0  0  0  0
  -24.1501  -36.7280   23.2638 C   0  0  0  0  0  0
  -25.9892  -30.7476   21.3875 C   0  0  0  0  0  0
  -26.0639  -29.3674   20.7264 C   0  0  0  0  0  0
  -27.2321  -28.5264   20.7366 C   0  0  0  0  0  0
  -26.0244  -26.8528   19.4741 C   0  0  0  0  0  0
  -24.8777  -27.6707   19.4652 C   0  0  0  0  0  0
  -23.6619  -29.8098   20.1546 C   0  0  0  0  0  0
  -25.4125  -36.3059   24.0318 C   0  0  1  0  0  0
  -20.5908  -28.3712   23.1240 C   0  0  2  0  0  0
  -20.6786  -26.9424   22.5392 C   0  0  0  0  0  0
  -19.5758  -26.6382   21.5202 C   0  0  0  0  0  0
  -18.1944  -26.7926   22.1625 C   0  0  0  0  0  0
  -19.1557  -28.8867   23.2856 C   0  0  0  0  0  0
  -18.9480  -30.1467   23.8876 C   0  0  0  0  0  0
  -17.6473  -30.6590   24.0554 C   0  0  0  0  0  0
  -25.9064  -34.9428   23.5079 C   0  0  0  0  0  0
  -16.5361  -29.9079   23.6329 C   0  0  0  0  0  0
  -16.7288  -28.6495   23.0354 C   0  0  0  0  0  0
  -26.4526  -31.6568   25.0735 C   0  0  0  0  0  0
  -25.3742  -31.3739   26.1449 C   0  0  0  0  0  0
  -27.0366  -30.2968   24.6273 C   0  0  0  0  0  0
  -27.6088  -32.4304   25.7504 C   0  0  0  0  0  0
  -27.5581  -37.1797   24.8469 C   0  0  0  0  0  0
  -21.4241  -29.3054   22.3621 N   0  0  0  0  0  0
  -26.4303  -37.3755   23.9397 N   0  0  0  0  0  0
  -24.7073  -31.0423   22.0969 N   0  0  0  0  0  0
  -23.4209  -28.8117   23.3001 O   0  0  0  0  0  0
  -28.2195  -26.2048   20.2165 O   0  0  0  0  0  0
  -26.5638  -34.8910   22.4651 O   0  0  0  0  0  0
  -23.5507  -32.1363   23.7214 O   0  0  0  0  0  0
  -31.7663  -19.0560   19.1697 C   0  0  0  0  0  0
  -30.9738  -20.1698   19.5022 C   0  0  0  0  0  0
  -31.4014  -17.7444   19.5277 C   0  0  0  0  0  0
  -29.7583  -20.0357   20.2104 C   0  0  0  0  0  0
  -30.2214  -17.4594   20.2573 C   0  0  0  0  0  0
  -29.4091  -18.6484   20.5828 C   0  0  0  0  0  0
  -28.1205  -23.5960   20.8491 C   0  0  0  0  0  0
  -27.8138  -24.9727   20.8393 C   0  0  0  0  0  0
  -29.0817  -22.6406   20.1828 C   0  0  0  0  0  0
  -28.9669  -21.2793   20.5433 N   0  0  0  0  0  0
  -29.8860  -16.0168   20.5850 N   0  0  0  0  0  0
  -29.9098  -23.0283   19.3575 O   0  0  0  0  0  0
  -28.2588  -18.4509   21.2713 F   0  0  0  0  0  0
  -31.4703  -12.6142   19.1947 H   0  0  0  0  0  0
  -30.3750  -11.5413   20.0132 H   0  0  0  0  0  0
  -29.8132  -11.7201   17.5596 H   0  0  0  0  0  0
  -29.6295  -13.4511   17.7141 H   0  0  0  0  0  0
  -27.9163  -11.2771   18.9516 H   0  0  0  0  0  0
  -27.3852  -12.4842   17.8110 H   0  0  0  0  0  0
  -27.6125  -14.2544   19.4369 H   0  0  0  0  0  0
  -28.7325  -12.2568   21.4620 H   0  0  0  0  0  0
  -28.4024  -13.9453   21.7666 H   0  0  0  0  0  0
  -25.2758   -9.5696   22.4760 H   0  0  0  0  0  0
  -23.9998   -7.4643   22.7477 H   0  0  0  0  0  0
  -21.0843   -8.8772   19.8951 H   0  0  0  0  0  0
  -22.3691  -10.9672   19.6161 H   0  0  0  0  0  0
  -21.2024   -7.6143   23.9708 H   0  0  0  0  0  0
  -21.1496   -6.0524   25.9079 H   0  0  0  0  0  0
  -22.0591   -2.7594   23.2859 H   0  0  0  0  0  0
  -22.4090  -11.9875   22.4819 H   0  0  0  0  0  0
  -21.1071  -13.1217   22.2621 H   0  0  0  0  0  0
  -24.6464  -15.8466   20.5298 H   0  0  0  0  0  0
  -26.2621  -15.6396   20.0847 H   0  0  0  0  0  0
  -26.7241  -32.5365   23.1065 H   0  0  0  0  0  0
  -25.0119  -33.9673   25.0399 H   0  0  0  0  0  0
  -22.7375  -31.2966   21.3899 H   0  0  0  0  0  0
  -23.3757  -35.9623   23.3324 H   0  0  0  0  0  0
  -24.3587  -36.8884   22.2050 H   0  0  0  0  0  0
  -23.7268  -37.6494   23.6647 H   0  0  0  0  0  0
  -26.1353  -31.5088   20.6197 H   0  0  0  0  0  0
  -26.8628  -30.7964   22.0256 H   0  0  0  0  0  0
  -28.1226  -28.8545   21.2539 H   0  0  0  0  0  0
  -25.9654  -25.8868   18.9923 H   0  0  0  0  0  0
  -23.9815  -27.3214   18.9708 H   0  0  0  0  0  0
  -23.7923  -30.5897   19.4028 H   0  0  0  0  0  0
  -22.7785  -29.2491   19.8440 H   0  0  0  0  0  0
  -25.1308  -36.1911   25.0809 H   0  0  0  0  0  0
  -20.9998  -28.3302   24.1362 H   0  0  0  0  0  0
  -20.5680  -26.2336   23.3610 H   0  0  0  0  0  0
  -21.6651  -26.7433   22.1185 H   0  0  0  0  0  0
  -19.6927  -25.6291   21.1240 H   0  0  0  0  0  0
  -19.6684  -27.3185   20.6722 H   0  0  0  0  0  0
  -17.4200  -26.6668   21.4043 H   0  0  0  0  0  0
  -18.0366  -26.0073   22.9030 H   0  0  0  0  0  0
  -19.7954  -30.7291   24.2243 H   0  0  0  0  0  0
  -17.5021  -31.6267   24.5162 H   0  0  0  0  0  0
  -15.5360  -30.2971   23.7659 H   0  0  0  0  0  0
  -15.8694  -28.0798   22.7077 H   0  0  0  0  0  0
  -24.5907  -30.7102   25.7776 H   0  0  0  0  0  0
  -24.8951  -32.2916   26.4873 H   0  0  0  0  0  0
  -25.8051  -30.8908   27.0229 H   0  0  0  0  0  0
  -26.2958  -29.6709   24.1285 H   0  0  0  0  0  0
  -27.3998  -29.7247   25.4824 H   0  0  0  0  0  0
  -27.8868  -30.4212   23.9561 H   0  0  0  0  0  0
  -27.2712  -33.3626   26.2046 H   0  0  0  0  0  0
  -28.3917  -32.6823   25.0335 H   0  0  0  0  0  0
  -28.0733  -31.8445   26.5445 H   0  0  0  0  0  0
  -28.2603  -38.0088   24.7484 H   0  0  0  0  0  0
  -28.1071  -36.2615   24.6335 H   0  0  0  0  0  0
  -27.2294  -37.1486   25.8873 H   0  0  0  0  0  0
  -20.9446  -29.8781   21.6821 H   0  0  0  0  0  0
  -26.0189  -38.2837   24.1378 H   0  0  0  0  0  0
  -32.6839  -19.2119   18.6192 H   0  0  0  0  0  0
  -31.3409  -21.1360   19.1960 H   0  0  0  0  0  0
  -32.0698  -16.9638   19.2035 H   0  0  0  0  0  0
  -27.4739  -23.0739   21.5394 H   0  0  0  0  0  0
  -27.0087  -25.2206   21.5195 H   0  0  0  0  0  0
  -28.1983  -21.0973   21.1737 H   0  0  0  0  0  0
  -28.9374  -15.8774   20.8980 H   0  0  0  0  0  0
  1 25  1  0  0  0
  1 30  2  0  0  0
  1 81  1  0  0  0
  2  3  1  0  0  0
  2 25  1  0  0  0
  2 84  1  0  0  0
  2 85  1  0  0  0
  3  4  1  0  0  0
  3 86  1  0  0  0
  3 87  1  0  0  0
  4  5  1  0  0  0
  4 88  1  0  0  0
  4 89  1  0  0  0
  5  6  1  0  0  0
  5 26  1  0  0  0
  5 90  1  0  0  0
  6 25  1  0  0  0
  6 91  1  0  0  0
  6 92  1  0  0  0
  7  8  2  0  0  0
  7 26  1  0  0  0
  7 29  1  0  0  0
  8  9  1  0  0  0
  8 22  1  0  0  0
  9 10  1  0  0  0
  9 27  2  0  0  0
 10 11  2  0  0  0
 10 15  1  0  0  0
 11 12  1  0  0  0
 11 93  1  0  0  0
 12 13  2  0  0  0
 12 94  1  0  0  0
 13 14  1  0  0  0
 13 31  1  0  0  0
 14 15  2  0  0  0
 14 95  1  0  0  0
 15 96  1  0  0  0
 16 17  2  0  0  0
 16 21  1  0  0  0
 16 31  1  0  0  0
 17 18  1  0  0  0
 17 97  1  0  0  0
 18 19  2  0  0  0
 18 98  1  0  0  0
 19 20  1  0  0  0
 19 24  1  0  0  0
 20 21  2  0  0  0
 20 99  1  0  0  0
 21 23  1  0  0  0
 22 28  1  0  0  0
 22 32  2  0  0  0
 26 27  1  0  0  0
 28100  1  0  0  0
 28101  1  0  0  0
 29102  1  0  0  0
 29103  1  0  0  0
 33 34  1  0  0  0
 33 66  1  0  0  0
 33 70  2  0  0  0
 34 36  1  0  0  0
 34 59  1  0  0  0
 34104  1  0  0  0
 35 44  2  0  0  0
 35 45  1  0  0  0
 35 68  1  0  0  0
 36 56  1  0  0  0
 36105  1  0  0  0
 37 39  1  0  0  0
 37 47  1  0  0  0
 37 66  1  0  0  0
 37106  1  0  0  0
 38 43  2  0  0  0
 38 46  1  0  0  0
 38 47  1  0  0  0
 39 64  1  0  0  0
 39 67  2  0  0  0
 40 52  1  0  0  0
 40 53  2  0  0  0
 40 58  1  0  0  0
 41107  1  0  0  0
 41108  1  0  0  0
 41109  1  0  0  0
 41 48  1  0  0  0
 42 43  1  0  0  0
 42 66  1  0  0  0
 42110  1  0  0  0
 42111  1  0  0  0
 43 44  1  0  0  0
 44112  1  0  0  0
 45 46  2  0  0  0
 45113  1  0  0  0
 46114  1  0  0  0
 47115  1  0  0  0
 47116  1  0  0  0
 48 56  1  0  0  0
 48 65  1  0  0  0
 48117  1  0  0  0
 49 50  1  0  0  0
 49 53  1  0  0  0
 49 64  1  0  0  0
 49118  1  0  0  0
 50 51  1  0  0  0
 50119  1  0  0  0
 50120  1  0  0  0
 51 52  1  0  0  0
 51121  1  0  0  0
 51122  1  0  0  0
 52123  1  0  0  0
 52124  1  0  0  0
 53 54  1  0  0  0
 54 55  2  0  0  0
 54125  1  0  0  0
 55 57  1  0  0  0
 55126  1  0  0  0
 56 69  2  0  0  0
 57 58  2  0  0  0
 57127  1  0  0  0
 58128  1  0  0  0
 59 60  1  0  0  0
 59 61  1  0  0  0
 59 62  1  0  0  0
 60129  1  0  0  0
 60130  1  0  0  0
 60131  1  0  0  0
 61132  1  0  0  0
 61133  1  0  0  0
 61134  1  0  0  0
 62135  1  0  0  0
 62136  1  0  0  0
 62137  1  0  0  0
 63 65  1  0  0  0
 63138  1  0  0  0
 63139  1  0  0  0
 63140  1  0  0  0
 64141  1  0  0  0
 65142  1  0  0  0
 68 78  1  0  0  0
 71 72  2  0  0  0
 71 73  1  0  0  0
 71143  1  0  0  0
 72 74  1  0  0  0
 72144  1  0  0  0
 73 75  2  0  0  0
 73145  1  0  0  0
 74 76  2  0  0  0
 74 80  1  0  0  0
 75 76  1  0  0  0
 75 81  1  0  0  0
 76 83  1  0  0  0
 77 78  2  0  0  0
 77 79  1  0  0  0
 77146  1  0  0  0
 78147  1  0  0  0
 79 80  1  0  0  0
 79 82  2  0  0  0
 80148  1  0  0  0
 81149  1  0  0  0
M  ISO  4   1 100  68 101  78 101  81 100
M  END
> <chiral flag>
0

> <version>
0

> <s_m_source_file>
/data/baiqing/PycharmProjects/Reinvent-master-3.2/result/LINK_invent/BTK/process_docking_weight1_custom_product_contain_oxygen_bond_distance_aromatic_linkinvent_7_9_3/rearranged_h_0081.sdf

> <i_m_source_file_index>
5

> <r_mmod_Potential_Energy-OPLS-2005>
267.473724365234

> <r_mmod_Stretch_Energy-OPLS-2005>
164.477188110352

> <r_mmod_Bend_Energy-OPLS-2005>
243.644012451172

> <r_mmod_Torsional_Energy-OPLS-2005>
228.155899047852

> <r_mmod_Improper_Torsional_Energy-OPLS-2005>
4.10193920135498

> <r_mmod_Van_der_Waal_Energy-OPLS-2005>
146.459579467773

> <r_mmod_Electrostatic_Energy-OPLS-2005>
-427.460296630859

> <r_mmod_Solvation_Energy-OPLS-2005>
-224.05729675293

> <b_mmod_Minimization_Converged-OPLS-2005>
0

> <r_mmod_RMS_Derivative-OPLS-2005>
1.28998219966888

$$$$
5
                    3D
 Structure written by MMmdl.
154163  0  0  1  0            999 V2000
  -30.6018  -14.6495   20.4794 C   0  0  0  0  0  0
  -30.4427  -12.3982   19.4395 C   0  0  0  0  0  0
  -29.5049  -12.5115   18.2160 C   0  0  0  0  0  0
  -28.0287  -12.3411   18.6309 C   0  0  0  0  0  0
  -27.6502  -13.2099   19.8601 C   0  0  2  0  0  0
  -28.6991  -13.0600   20.9841 C   0  0  0  0  0  0
  -25.2568  -13.8160   20.5753 C   0  0  0  0  0  0
  -24.1822  -13.0421   20.9198 C   0  0  0  0  0  0
  -24.6375  -11.6890   20.8723 C   0  0  0  0  0  0
  -23.9043  -10.4276   21.0394 C   0  0  0  0  0  0
  -24.3599   -9.4197   21.9177 C   0  0  0  0  0  0
  -23.6277   -8.2232   22.0746 C   0  0  0  0  0  0
  -22.4261   -8.0270   21.3540 C   0  0  0  0  0  0
  -21.9889   -9.0235   20.4643 C   0  0  0  0  0  0
  -22.7207  -10.2119   20.3054 C   0  0  0  0  0  0
  -21.6851   -6.0733   22.5287 C   0  0  0  0  0  0
  -21.4016   -6.5634   23.8219 C   0  0  0  0  0  0
  -21.3659   -5.6785   24.9177 C   0  0  0  0  0  0
  -21.6044   -4.3047   24.7227 C   0  0  0  0  0  0
  -21.8820   -3.8144   23.4345 C   0  0  0  0  0  0
  -21.9189   -4.6964   22.3406 C   0  0  0  0  0  0
  -22.7852  -13.5234   21.1852 C   0  0  0  0  0  0
  -22.1660   -4.2153   21.0984 F   0  0  0  0  0  0
  -21.5623   -3.4530   25.7740 F   0  0  0  0  0  0
  -30.0105  -13.4147   20.4163 N   0  0  0  0  0  0
  -26.2974  -12.9323   20.3313 N   0  0  0  0  0  0
  -25.9302  -11.6475   20.5722 N   0  0  0  0  0  0
  -22.0485  -12.8213   22.0392 N   0  0  0  0  0  0
  -25.4223  -15.1910   20.4351 N   0  0  0  0  0  0
  -31.7823  -14.8188   20.1583 O   0  0  0  0  0  0
  -21.6633   -6.8868   21.4245 O   0  0  0  0  0  0
  -22.3530  -14.5543   20.6707 O   0  0  0  0  0  0
  -24.6293  -31.8604   23.2035 C   0  0  0  0  0  0
  -25.9132  -32.4801   23.8349 C   0  0  1  0  0  0
  -27.2097  -27.3014   20.1048 C   0  0  0  0  0  0
  -25.5957  -33.8590   24.2288 N   0  0  0  0  0  0
  -23.4217  -30.4894   21.5479 C   0  0  2  0  0  0
  -24.8641  -28.9545   20.1110 C   0  0  0  0  0  0
  -22.7484  -29.4629   22.4910 C   0  0  0  0  0  0
  -18.0287  -28.1358   22.8478 C   0  0  0  0  0  0
  -24.1500  -36.7279   23.2632 C   0  0  0  0  0  0
  -25.9677  -30.7892   21.3755 C   0  0  0  0  0  0
  -26.0410  -29.4168   20.7146 C   0  0  0  0  0  0
  -27.2183  -28.6047   20.7018 C   0  0  0  0  0  0
  -26.0010  -26.9097   19.4754 C   0  0  0  0  0  0
  -24.8477  -27.7061   19.4838 C   0  0  0  0  0  0
  -23.6363  -29.8373   20.1610 C   0  0  0  0  0  0
  -25.4119  -36.3082   24.0331 C   0  0  1  0  0  0
  -20.5889  -28.3668   23.1269 C   0  0  2  0  0  0
  -20.6779  -26.9392   22.5391 C   0  0  0  0  0  0
  -19.5760  -26.6347   21.5196 C   0  0  0  0  0  0
  -18.1933  -26.7900   22.1604 C   0  0  0  0  0  0
  -19.1540  -28.8824   23.2877 C   0  0  0  0  0  0
  -18.9475  -30.1423   23.8903 C   0  0  0  0  0  0
  -17.6478  -30.6569   24.0557 C   0  0  0  0  0  0
  -25.9052  -34.9465   23.5099 C   0  0  0  0  0  0
  -16.5369  -29.9060   23.6328 C   0  0  0  0  0  0
  -16.7273  -28.6471   23.0355 C   0  0  0  0  0  0
  -26.4498  -31.6592   25.0705 C   0  0  0  0  0  0
  -25.3702  -31.3761   26.1415 C   0  0  0  0  0  0
  -27.0305  -30.3008   24.6120 C   0  0  0  0  0  0
  -27.6087  -32.4277   25.7468 C   0  0  0  0  0  0
  -27.5596  -37.1782   24.8454 C   0  0  0  0  0  0
  -21.4188  -29.3046   22.3675 N   0  0  0  0  0  0
  -26.4286  -37.3785   23.9430 N   0  0  0  0  0  0
  -24.6933  -31.0608   22.1004 N   0  0  0  0  0  0
  -23.4217  -28.8132   23.2951 O   0  0  0  0  0  0
  -28.2992  -26.4013   20.1536 O   0  0  0  0  0  0
  -26.5601  -34.8949   22.4651 O   0  0  0  0  0  0
  -23.5450  -32.1392   23.7351 O   0  0  0  0  0  0
  -30.8317  -19.3761   20.9666 C   0  0  0  0  0  0
  -30.8915  -17.9486   21.0366 C   0  0  0  0  0  0
  -28.7104  -19.2530   19.8565 C   0  0  0  0  0  0
  -29.7382  -20.0924   20.3810 C   0  0  0  0  0  0
  -29.8470  -17.1366   20.5281 C   0  0  0  0  0  0
  -28.7609  -17.8265   19.9277 C   0  0  0  0  0  0
  -30.2873  -23.7756   20.1342 C   0  0  0  0  0  0
  -28.9561  -23.7836   20.1771 C   0  0  0  0  0  0
  -30.7606  -22.4025   20.2060 C   0  0  0  0  0  0
  -28.5555  -22.3707   20.3017 C   0  0  0  0  0  0
  -27.9445  -24.9636   19.9750 C   0  0  0  0  0  0
  -29.6796  -21.5840   20.3065 N   0  0  0  0  0  0
  -27.7242  -17.0797   19.3655 N   0  0  0  0  0  0
  -29.7419  -15.6890   20.6996 N   0  0  0  0  0  0
  -31.9430  -22.0467   20.1459 O   0  0  0  0  0  0
  -27.3943  -21.9555   20.3977 O   0  0  0  0  0  0
  -31.4822  -12.5364   19.1343 H   0  0  0  0  0  0
  -30.3879  -11.3997   19.8763 H   0  0  0  0  0  0
  -29.7703  -11.7634   17.4682 H   0  0  0  0  0  0
  -29.6361  -13.4839   17.7373 H   0  0  0  0  0  0
  -27.8733  -11.2868   18.8607 H   0  0  0  0  0  0
  -27.3697  -12.5679   17.7915 H   0  0  0  0  0  0
  -27.6621  -14.2434   19.5177 H   0  0  0  0  0  0
  -28.7127  -12.0343   21.3539 H   0  0  0  0  0  0
  -28.4493  -13.6833   21.8447 H   0  0  0  0  0  0
  -25.2752   -9.5688   22.4740 H   0  0  0  0  0  0
  -24.0001   -7.4637   22.7472 H   0  0  0  0  0  0
  -21.0817   -8.8744   19.8955 H   0  0  0  0  0  0
  -22.3657  -10.9656   19.6172 H   0  0  0  0  0  0
  -21.2015   -7.6144   23.9738 H   0  0  0  0  0  0
  -21.1476   -6.0506   25.9086 H   0  0  0  0  0  0
  -22.0599   -2.7609   23.2846 H   0  0  0  0  0  0
  -22.4094  -11.9853   22.4738 H   0  0  0  0  0  0
  -21.1119  -13.1243   22.2620 H   0  0  0  0  0  0
  -24.6556  -15.8297   20.6119 H   0  0  0  0  0  0
  -26.2696  -15.6813   20.1531 H   0  0  0  0  0  0
  -26.7205  -32.5491   23.1103 H   0  0  0  0  0  0
  -25.0190  -33.9746   25.0494 H   0  0  0  0  0  0
  -22.7161  -31.3107   21.4080 H   0  0  0  0  0  0
  -23.3796  -35.9571   23.3222 H   0  0  0  0  0  0
  -24.3623  -36.8940   22.2062 H   0  0  0  0  0  0
  -23.7196  -37.6441   23.6686 H   0  0  0  0  0  0
  -26.0911  -31.5539   20.6077 H   0  0  0  0  0  0
  -26.8542  -30.8424   21.9966 H   0  0  0  0  0  0
  -28.1189  -28.9561   21.1856 H   0  0  0  0  0  0
  -25.8858  -25.9645   18.9720 H   0  0  0  0  0  0
  -23.9468  -27.3434   19.0086 H   0  0  0  0  0  0
  -23.7631  -30.6212   19.4128 H   0  0  0  0  0  0
  -22.7546  -29.2729   19.8513 H   0  0  0  0  0  0
  -25.1285  -36.1935   25.0814 H   0  0  0  0  0  0
  -20.9986  -28.3235   24.1394 H   0  0  0  0  0  0
  -20.5649  -26.2283   23.3584 H   0  0  0  0  0  0
  -21.6649  -26.7391   22.1212 H   0  0  0  0  0  0
  -19.6932  -25.6247   21.1242 H   0  0  0  0  0  0
  -19.6732  -27.3147   20.6723 H   0  0  0  0  0  0
  -17.4212  -26.6651   21.4006 H   0  0  0  0  0  0
  -18.0347  -26.0027   22.8983 H   0  0  0  0  0  0
  -19.7960  -30.7221   24.2290 H   0  0  0  0  0  0
  -17.5041  -31.6270   24.5112 H   0  0  0  0  0  0
  -15.5374  -30.2979   23.7629 H   0  0  0  0  0  0
  -15.8667  -28.0791   22.7082 H   0  0  0  0  0  0
  -24.5935  -30.7036   25.7761 H   0  0  0  0  0  0
  -24.8842  -32.2947   26.4719 H   0  0  0  0  0  0
  -25.7993  -30.9051   27.0266 H   0  0  0  0  0  0
  -26.2867  -29.6782   24.1139 H   0  0  0  0  0  0
  -27.4023  -29.7231   25.4593 H   0  0  0  0  0  0
  -27.8731  -30.4302   23.9314 H   0  0  0  0  0  0
  -27.2767  -33.3623   26.2002 H   0  0  0  0  0  0
  -28.3941  -32.6721   25.0299 H   0  0  0  0  0  0
  -28.0693  -31.8390   26.5411 H   0  0  0  0  0  0
  -28.2548  -38.0147   24.7582 H   0  0  0  0  0  0
  -28.1151  -36.2674   24.6159 H   0  0  0  0  0  0
  -27.2332  -37.1279   25.8859 H   0  0  0  0  0  0
  -20.9331  -29.8860   21.6994 H   0  0  0  0  0  0
  -26.0158  -38.2836   24.1510 H   0  0  0  0  0  0
  -31.6586  -19.9191   21.4015 H   0  0  0  0  0  0
  -31.7388  -17.4826   21.5208 H   0  0  0  0  0  0
  -27.8580  -19.7078   19.3727 H   0  0  0  0  0  0
  -30.9151  -24.6405   19.9932 H   0  0  0  0  0  0
  -27.0938  -24.7431   20.6218 H   0  0  0  0  0  0
  -27.6156  -24.8205   18.9459 H   0  0  0  0  0  0
  -27.0829  -17.6158   18.7885 H   0  0  0  0  0  0
  -28.0503  -16.2731   18.8470 H   0  0  0  0  0  0
  -28.7851  -15.3847   20.7980 H   0  0  0  0  0  0
  1 25  1  0  0  0
  1 30  2  0  0  0
  1 84  1  0  0  0
  2  3  1  0  0  0
  2 25  1  0  0  0
  2 87  1  0  0  0
  2 88  1  0  0  0
  3  4  1  0  0  0
  3 89  1  0  0  0
  3 90  1  0  0  0
  4  5  1  0  0  0
  4 91  1  0  0  0
  4 92  1  0  0  0
  5  6  1  0  0  0
  5 26  1  0  0  0
  5 93  1  0  0  0
  6 25  1  0  0  0
  6 94  1  0  0  0
  6 95  1  0  0  0
  7  8  2  0  0  0
  7 26  1  0  0  0
  7 29  1  0  0  0
  8  9  1  0  0  0
  8 22  1  0  0  0
  9 10  1  0  0  0
  9 27  2  0  0  0
 10 11  2  0  0  0
 10 15  1  0  0  0
 11 12  1  0  0  0
 11 96  1  0  0  0
 12 13  2  0  0  0
 12 97  1  0  0  0
 13 14  1  0  0  0
 13 31  1  0  0  0
 14 15  2  0  0  0
 14 98  1  0  0  0
 15 99  1  0  0  0
 16 17  2  0  0  0
 16 21  1  0  0  0
 16 31  1  0  0  0
 17 18  1  0  0  0
 17100  1  0  0  0
 18 19  2  0  0  0
 18101  1  0  0  0
 19 20  1  0  0  0
 19 24  1  0  0  0
 20 21  2  0  0  0
 20102  1  0  0  0
 21 23  1  0  0  0
 22 28  1  0  0  0
 22 32  2  0  0  0
 26 27  1  0  0  0
 28103  1  0  0  0
 28104  1  0  0  0
 29105  1  0  0  0
 29106  1  0  0  0
 33 34  1  0  0  0
 33 66  1  0  0  0
 33 70  2  0  0  0
 34 36  1  0  0  0
 34 59  1  0  0  0
 34107  1  0  0  0
 35 44  2  0  0  0
 35 45  1  0  0  0
 35 68  1  0  0  0
 36 56  1  0  0  0
 36108  1  0  0  0
 37 39  1  0  0  0
 37 47  1  0  0  0
 37 66  1  0  0  0
 37109  1  0  0  0
 38 43  2  0  0  0
 38 46  1  0  0  0
 38 47  1  0  0  0
 39 64  1  0  0  0
 39 67  2  0  0  0
 40 52  1  0  0  0
 40 53  2  0  0  0
 40 58  1  0  0  0
 41110  1  0  0  0
 41111  1  0  0  0
 41112  1  0  0  0
 41 48  1  0  0  0
 42 43  1  0  0  0
 42 66  1  0  0  0
 42113  1  0  0  0
 42114  1  0  0  0
 43 44  1  0  0  0
 44115  1  0  0  0
 45 46  2  0  0  0
 45116  1  0  0  0
 46117  1  0  0  0
 47118  1  0  0  0
 47119  1  0  0  0
 48 56  1  0  0  0
 48 65  1  0  0  0
 48120  1  0  0  0
 49 50  1  0  0  0
 49 53  1  0  0  0
 49 64  1  0  0  0
 49121  1  0  0  0
 50 51  1  0  0  0
 50122  1  0  0  0
 50123  1  0  0  0
 51 52  1  0  0  0
 51124  1  0  0  0
 51125  1  0  0  0
 52126  1  0  0  0
 52127  1  0  0  0
 53 54  1  0  0  0
 54 55  2  0  0  0
 54128  1  0  0  0
 55 57  1  0  0  0
 55129  1  0  0  0
 56 69  2  0  0  0
 57 58  2  0  0  0
 57130  1  0  0  0
 58131  1  0  0  0
 59 60  1  0  0  0
 59 61  1  0  0  0
 59 62  1  0  0  0
 60132  1  0  0  0
 60133  1  0  0  0
 60134  1  0  0  0
 61135  1  0  0  0
 61136  1  0  0  0
 61137  1  0  0  0
 62138  1  0  0  0
 62139  1  0  0  0
 62140  1  0  0  0
 63 65  1  0  0  0
 63141  1  0  0  0
 63142  1  0  0  0
 63143  1  0  0  0
 64144  1  0  0  0
 65145  1  0  0  0
 68 81  1  0  0  0
 71 72  2  0  0  0
 71 74  1  0  0  0
 71146  1  0  0  0
 72 75  1  0  0  0
 72147  1  0  0  0
 73 74  2  0  0  0
 73 76  1  0  0  0
 73148  1  0  0  0
 74 82  1  0  0  0
 75 76  2  0  0  0
 75 84  1  0  0  0
 76 83  1  0  0  0
 77 78  2  0  0  0
 77 79  1  0  0  0
 77149  1  0  0  0
 78 80  1  0  0  0
 78 81  1  0  0  0
 79 82  1  0  0  0
 79 85  2  0  0  0
 80 82  1  0  0  0
 80 86  2  0  0  0
 81150  1  0  0  0
 81151  1  0  0  0
 83152  1  0  0  0
 83153  1  0  0  0
 84154  1  0  0  0
M  ISO  4   1 100  68 101  81 101  84 100
M  END
> <chiral flag>
0

> <version>
0

> <s_m_source_file>
/data/baiqing/PycharmProjects/Reinvent-master-3.2/result/LINK_invent/BTK/process_docking_weight1_custom_product_contain_oxygen_bond_distance_aromatic_linkinvent_7_9_3/rearranged_h_0081.sdf

> <i_m_source_file_index>
6

> <r_mmod_Potential_Energy-OPLS-2005>
4.27423620223999

> <r_mmod_Stretch_Energy-OPLS-2005>
87.2745895385742

> <r_mmod_Bend_Energy-OPLS-2005>
188.670684814453

> <r_mmod_Torsional_Energy-OPLS-2005>
256.870788574219

> <r_mmod_Improper_Torsional_Energy-OPLS-2005>
11.846996307373

> <r_mmod_Van_der_Waal_Energy-OPLS-2005>
155.035400390625

> <r_mmod_Electrostatic_Energy-OPLS-2005>
-518.645629882812

> <r_mmod_Solvation_Energy-OPLS-2005>
-235.068984985352

> <b_mmod_Minimization_Converged-OPLS-2005>
0

> <r_mmod_RMS_Derivative-OPLS-2005>
2.3071711063385

$$$$
6
                    3D
 Structure written by MMmdl.
154163  0  0  1  0            999 V2000
  -30.5951  -14.8076   20.4343 C   0  0  0  0  0  0
  -30.4320  -12.4896   19.4979 C   0  0  0  0  0  0
  -29.5167  -12.5201   18.2531 C   0  0  0  0  0  0
  -28.0423  -12.3390   18.6606 C   0  0  0  0  0  0
  -27.6417  -13.2429   19.8555 C   0  0  2  0  0  0
  -28.6838  -13.2024   20.9961 C   0  0  0  0  0  0
  -25.2504  -13.8228   20.5720 C   0  0  0  0  0  0
  -24.1802  -13.0455   20.9205 C   0  0  0  0  0  0
  -24.6404  -11.6937   20.8740 C   0  0  0  0  0  0
  -23.9068  -10.4316   21.0395 C   0  0  0  0  0  0
  -24.3614   -9.4232   21.9181 C   0  0  0  0  0  0
  -23.6288   -8.2263   22.0735 C   0  0  0  0  0  0
  -22.4282   -8.0283   21.3521 C   0  0  0  0  0  0
  -21.9908   -9.0257   20.4634 C   0  0  0  0  0  0
  -22.7225  -10.2148   20.3039 C   0  0  0  0  0  0
  -21.6858   -6.0731   22.5278 C   0  0  0  0  0  0
  -21.4007   -6.5634   23.8206 C   0  0  0  0  0  0
  -21.3666   -5.6792   24.9176 C   0  0  0  0  0  0
  -21.6052   -4.3054   24.7221 C   0  0  0  0  0  0
  -21.8821   -3.8132   23.4348 C   0  0  0  0  0  0
  -21.9185   -4.6950   22.3402 C   0  0  0  0  0  0
  -22.7813  -13.5234   21.1847 C   0  0  0  0  0  0
  -22.1652   -4.2136   21.0975 F   0  0  0  0  0  0
  -21.5640   -3.4533   25.7729 F   0  0  0  0  0  0
  -29.9845  -13.5655   20.4210 N   0  0  0  0  0  0
  -26.2946  -12.9460   20.3317 N   0  0  0  0  0  0
  -25.9349  -11.6590   20.5753 N   0  0  0  0  0  0
  -22.0455  -12.8232   22.0400 N   0  0  0  0  0  0
  -25.4195  -15.1957   20.4126 N   0  0  0  0  0  0
  -31.7691  -14.8960   20.0620 O   0  0  0  0  0  0
  -21.6641   -6.8880   21.4240 O   0  0  0  0  0  0
  -22.3497  -14.5526   20.6677 O   0  0  0  0  0  0
  -24.6360  -31.8511   23.1975 C   0  0  0  0  0  0
  -25.9176  -32.4722   23.8327 C   0  0  1  0  0  0
  -27.2075  -27.1944   20.1375 C   0  0  0  0  0  0
  -25.5970  -33.8530   24.2236 N   0  0  0  0  0  0
  -23.4350  -30.4757   21.5418 C   0  0  2  0  0  0
  -24.8827  -28.9197   20.1106 C   0  0  0  0  0  0
  -22.7523  -29.4575   22.4890 C   0  0  0  0  0  0
  -18.0304  -28.1389   22.8484 C   0  0  0  0  0  0
  -24.1504  -36.7257   23.2643 C   0  0  0  0  0  0
  -25.9886  -30.7395   21.3936 C   0  0  0  0  0  0
  -26.0565  -29.3560   20.7385 C   0  0  0  0  0  0
  -27.2154  -28.5021   20.7534 C   0  0  0  0  0  0
  -26.0193  -26.8730   19.4353 C   0  0  0  0  0  0
  -24.8729  -27.6865   19.4496 C   0  0  0  0  0  0
  -23.6572  -29.8136   20.1579 C   0  0  0  0  0  0
  -25.4131  -36.3035   24.0319 C   0  0  1  0  0  0
  -20.5909  -28.3695   23.1246 C   0  0  2  0  0  0
  -20.6778  -26.9406   22.5399 C   0  0  0  0  0  0
  -19.5757  -26.6374   21.5202 C   0  0  0  0  0  0
  -18.1940  -26.7935   22.1616 C   0  0  0  0  0  0
  -19.1560  -28.8855   23.2868 C   0  0  0  0  0  0
  -18.9475  -30.1453   23.8884 C   0  0  0  0  0  0
  -17.6472  -30.6584   24.0550 C   0  0  0  0  0  0
  -25.9078  -34.9414   23.5068 C   0  0  0  0  0  0
  -16.5358  -29.9079   23.6337 C   0  0  0  0  0  0
  -16.7288  -28.6502   23.0355 C   0  0  0  0  0  0
  -26.4528  -31.6563   25.0731 C   0  0  0  0  0  0
  -25.3742  -31.3733   26.1442 C   0  0  0  0  0  0
  -27.0364  -30.2958   24.6274 C   0  0  0  0  0  0
  -27.6096  -32.4298   25.7489 C   0  0  0  0  0  0
  -27.5578  -37.1781   24.8463 C   0  0  0  0  0  0
  -21.4225  -29.3041   22.3630 N   0  0  0  0  0  0
  -26.4286  -37.3744   23.9413 N   0  0  0  0  0  0
  -24.7060  -31.0428   22.0988 N   0  0  0  0  0  0
  -23.4200  -28.8122   23.3013 O   0  0  0  0  0  0
  -28.2656  -26.2323   20.2164 O   0  0  0  0  0  0
  -26.5656  -34.8888   22.4640 O   0  0  0  0  0  0
  -23.5489  -32.1359   23.7219 O   0  0  0  0  0  0
  -29.5994  -18.6240   20.6805 C   0  0  0  0  0  0
  -29.6696  -19.7541   18.5261 C   0  0  0  0  0  0
  -30.0270  -17.3255   18.6616 C   0  0  0  0  0  0
  -29.4988  -19.8835   19.9233 C   0  0  0  0  0  0
  -29.8621  -17.3097   20.0660 C   0  0  0  0  0  0
  -29.9310  -18.5143   17.9108 C   0  0  0  0  0  0
  -28.7836  -23.6552   20.3592 C   0  0  0  0  0  0
  -30.1063  -23.5040   20.9042 C   0  0  0  0  0  0
  -28.3633  -22.2346   20.0708 C   0  0  0  0  0  0
  -30.9033  -24.5143   21.2895 C   0  0  0  0  0  0
  -28.0166  -24.8042   20.1030 C   0  0  0  0  0  0
  -30.4802  -22.0261   20.9966 C   0  0  0  0  0  0
  -29.3363  -21.2949   20.4244 N   0  0  0  0  0  0
  -29.8574  -15.9599   20.7307 N   0  0  0  0  0  0
  -27.2749  -21.9094   19.5863 O   0  0  0  0  0  0
  -30.0887  -18.4631   16.5670 F   0  0  0  0  0  0
  -31.4720  -12.6145   19.1905 H   0  0  0  0  0  0
  -30.3884  -11.5178   19.9915 H   0  0  0  0  0  0
  -29.8087  -11.7423   17.5480 H   0  0  0  0  0  0
  -29.6425  -13.4700   17.7289 H   0  0  0  0  0  0
  -27.9047  -11.2896   18.9250 H   0  0  0  0  0  0
  -27.3875  -12.5253   17.8105 H   0  0  0  0  0  0
  -27.6302  -14.2628   19.4717 H   0  0  0  0  0  0
  -28.7292  -12.2122   21.4521 H   0  0  0  0  0  0
  -28.4048  -13.8942   21.7935 H   0  0  0  0  0  0
  -25.2756   -9.5697   22.4765 H   0  0  0  0  0  0
  -23.9988   -7.4646   22.7457 H   0  0  0  0  0  0
  -21.0833   -8.8747   19.8958 H   0  0  0  0  0  0
  -22.3652  -10.9669   19.6126 H   0  0  0  0  0  0
  -21.1994   -7.6137   23.9708 H   0  0  0  0  0  0
  -21.1491   -6.0523   25.9087 H   0  0  0  0  0  0
  -22.0595   -2.7590   23.2848 H   0  0  0  0  0  0
  -22.4055  -11.9893   22.4797 H   0  0  0  0  0  0
  -21.1050  -13.1234   22.2567 H   0  0  0  0  0  0
  -24.6557  -15.8533   20.5282 H   0  0  0  0  0  0
  -26.2695  -15.6331   20.0816 H   0  0  0  0  0  0
  -26.7250  -32.5330   23.1071 H   0  0  0  0  0  0
  -25.0120  -33.9685   25.0379 H   0  0  0  0  0  0
  -22.7349  -31.3009   21.3936 H   0  0  0  0  0  0
  -23.3769  -35.9580   23.3263 H   0  0  0  0  0  0
  -24.3614  -36.8913   22.2065 H   0  0  0  0  0  0
  -23.7228  -37.6435   23.6697 H   0  0  0  0  0  0
  -26.1398  -31.4924   20.6198 H   0  0  0  0  0  0
  -26.8627  -30.7882   22.0306 H   0  0  0  0  0  0
  -28.1036  -28.8252   21.2786 H   0  0  0  0  0  0
  -25.9195  -25.9653   18.8647 H   0  0  0  0  0  0
  -23.9812  -27.3532   18.9349 H   0  0  0  0  0  0
  -23.7871  -30.5898   19.4042 H   0  0  0  0  0  0
  -22.7740  -29.2516   19.8478 H   0  0  0  0  0  0
  -25.1308  -36.1867   25.0804 H   0  0  0  0  0  0
  -21.0009  -28.3266   24.1364 H   0  0  0  0  0  0
  -20.5634  -26.2316   23.3621 H   0  0  0  0  0  0
  -21.6640  -26.7405   22.1190 H   0  0  0  0  0  0
  -19.6904  -25.6277   21.1243 H   0  0  0  0  0  0
  -19.6689  -27.3178   20.6732 H   0  0  0  0  0  0
  -17.4203  -26.6679   21.4030 H   0  0  0  0  0  0
  -18.0345  -26.0073   22.9005 H   0  0  0  0  0  0
  -19.7944  -30.7276   24.2230 H   0  0  0  0  0  0
  -17.5023  -31.6274   24.5145 H   0  0  0  0  0  0
  -15.5349  -30.2970   23.7675 H   0  0  0  0  0  0
  -15.8693  -28.0806   22.7082 H   0  0  0  0  0  0
  -24.5948  -30.7055   25.7764 H   0  0  0  0  0  0
  -24.8920  -32.2900   26.4837 H   0  0  0  0  0  0
  -25.8046  -30.8924   27.0235 H   0  0  0  0  0  0
  -26.2949  -29.6713   24.1281 H   0  0  0  0  0  0
  -27.3987  -29.7229   25.4824 H   0  0  0  0  0  0
  -27.8863  -30.4205   23.9565 H   0  0  0  0  0  0
  -27.2751  -33.3642   26.2012 H   0  0  0  0  0  0
  -28.3934  -32.6770   25.0317 H   0  0  0  0  0  0
  -28.0740  -31.8446   26.5440 H   0  0  0  0  0  0
  -28.2564  -38.0116   24.7530 H   0  0  0  0  0  0
  -28.1105  -36.2634   24.6247 H   0  0  0  0  0  0
  -27.2310  -37.1352   25.8874 H   0  0  0  0  0  0
  -20.9425  -29.8782   21.6840 H   0  0  0  0  0  0
  -26.0143  -38.2796   24.1453 H   0  0  0  0  0  0
  -29.4806  -18.6712   21.7537 H   0  0  0  0  0  0
  -29.6240  -20.6314   17.8961 H   0  0  0  0  0  0
  -30.2036  -16.4057   18.1227 H   0  0  0  0  0  0
  -30.5914  -25.5447   21.2039 H   0  0  0  0  0  0
  -31.8859  -24.3242   21.6977 H   0  0  0  0  0  0
  -27.0307  -24.5961   19.7316 H   0  0  0  0  0  0
  -30.6423  -21.7338   22.0341 H   0  0  0  0  0  0
  -31.3899  -21.8206   20.4297 H   0  0  0  0  0  0
  -29.0395  -15.7790   21.2951 H   0  0  0  0  0  0
  1 25  1  0  0  0
  1 30  2  0  0  0
  1 84  1  0  0  0
  2  3  1  0  0  0
  2 25  1  0  0  0
  2 87  1  0  0  0
  2 88  1  0  0  0
  3  4  1  0  0  0
  3 89  1  0  0  0
  3 90  1  0  0  0
  4  5  1  0  0  0
  4 91  1  0  0  0
  4 92  1  0  0  0
  5  6  1  0  0  0
  5 26  1  0  0  0
  5 93  1  0  0  0
  6 25  1  0  0  0
  6 94  1  0  0  0
  6 95  1  0  0  0
  7  8  2  0  0  0
  7 26  1  0  0  0
  7 29  1  0  0  0
  8  9  1  0  0  0
  8 22  1  0  0  0
  9 10  1  0  0  0
  9 27  2  0  0  0
 10 11  2  0  0  0
 10 15  1  0  0  0
 11 12  1  0  0  0
 11 96  1  0  0  0
 12 13  2  0  0  0
 12 97  1  0  0  0
 13 14  1  0  0  0
 13 31  1  0  0  0
 14 15  2  0  0  0
 14 98  1  0  0  0
 15 99  1  0  0  0
 16 17  2  0  0  0
 16 21  1  0  0  0
 16 31  1  0  0  0
 17 18  1  0  0  0
 17100  1  0  0  0
 18 19  2  0  0  0
 18101  1  0  0  0
 19 20  1  0  0  0
 19 24  1  0  0  0
 20 21  2  0  0  0
 20102  1  0  0  0
 21 23  1  0  0  0
 22 28  1  0  0  0
 22 32  2  0  0  0
 26 27  1  0  0  0
 28103  1  0  0  0
 28104  1  0  0  0
 29105  1  0  0  0
 29106  1  0  0  0
 33 34  1  0  0  0
 33 66  1  0  0  0
 33 70  2  0  0  0
 34 36  1  0  0  0
 34 59  1  0  0  0
 34107  1  0  0  0
 35 44  2  0  0  0
 35 45  1  0  0  0
 35 68  1  0  0  0
 36 56  1  0  0  0
 36108  1  0  0  0
 37 39  1  0  0  0
 37 47  1  0  0  0
 37 66  1  0  0  0
 37109  1  0  0  0
 38 43  2  0  0  0
 38 46  1  0  0  0
 38 47  1  0  0  0
 39 64  1  0  0  0
 39 67  2  0  0  0
 40 52  1  0  0  0
 40 53  2  0  0  0
 40 58  1  0  0  0
 41110  1  0  0  0
 41111  1  0  0  0
 41112  1  0  0  0
 41 48  1  0  0  0
 42 43  1  0  0  0
 42 66  1  0  0  0
 42113  1  0  0  0
 42114  1  0  0  0
 43 44  1  0  0  0
 44115  1  0  0  0
 45 46  2  0  0  0
 45116  1  0  0  0
 46117  1  0  0  0
 47118  1  0  0  0
 47119  1  0  0  0
 48 56  1  0  0  0
 48 65  1  0  0  0
 48120  1  0  0  0
 49 50  1  0  0  0
 49 53  1  0  0  0
 49 64  1  0  0  0
 49121  1  0  0  0
 50 51  1  0  0  0
 50122  1  0  0  0
 50123  1  0  0  0
 51 52  1  0  0  0
 51124  1  0  0  0
 51125  1  0  0  0
 52126  1  0  0  0
 52127  1  0  0  0
 53 54  1  0  0  0
 54 55  2  0  0  0
 54128  1  0  0  0
 55 57  1  0  0  0
 55129  1  0  0  0
 56 69  2  0  0  0
 57 58  2  0  0  0
 57130  1  0  0  0
 58131  1  0  0  0
 59 60  1  0  0  0
 59 61  1  0  0  0
 59 62  1  0  0  0
 60132  1  0  0  0
 60133  1  0  0  0
 60134  1  0  0  0
 61135  1  0  0  0
 61136  1  0  0  0
 61137  1  0  0  0
 62138  1  0  0  0
 62139  1  0  0  0
 62140  1  0  0  0
 63 65  1  0  0  0
 63141  1  0  0  0
 63142  1  0  0  0
 63143  1  0  0  0
 64144  1  0  0  0
 65145  1  0  0  0
 68 81  1  0  0  0
 71 74  2  0  0  0
 71 75  1  0  0  0
 71146  1  0  0  0
 72 74  1  0  0  0
 72 76  2  0  0  0
 72147  1  0  0  0
 73 75  2  0  0  0
 73 76  1  0  0  0
 73148  1  0  0  0
 74 83  1  0  0  0
 75 84  1  0  0  0
 76 86  1  0  0  0
 77 78  1  0  0  0
 77 79  1  0  0  0
 77 81  2  0  0  0
 78 80  2  0  0  0
 78 82  1  0  0  0
 79 83  1  0  0  0
 79 85  2  0  0  0
 80149  1  0  0  0
 80150  1  0  0  0
 81151  1  0  0  0
 82 83  1  0  0  0
 82152  1  0  0  0
 82153  1  0  0  0
 84154  1  0  0  0
M  ISO  4   1 100  68 101  81 101  84 100
M  END
> <chiral flag>
0

> <version>
0

> <s_m_source_file>
/data/baiqing/PycharmProjects/Reinvent-master-3.2/result/LINK_invent/BTK/process_docking_weight1_custom_product_contain_oxygen_bond_distance_aromatic_linkinvent_7_9_3/rearranged_h_0081.sdf

> <i_m_source_file_index>
7

> <r_mmod_Potential_Energy-OPLS-2005>
454.202453613281

> <r_mmod_Stretch_Energy-OPLS-2005>
156.911712646484

> <r_mmod_Bend_Energy-OPLS-2005>
227.485366821289

> <r_mmod_Torsional_Energy-OPLS-2005>
313.438079833984

> <r_mmod_Improper_Torsional_Energy-OPLS-2005>
5.52565860748291

> <r_mmod_Van_der_Waal_Energy-OPLS-2005>
136.094940185547

> <r_mmod_Electrostatic_Energy-OPLS-2005>
-296.675872802734

> <r_mmod_Solvation_Energy-OPLS-2005>
-213.924789428711

> <b_mmod_Minimization_Converged-OPLS-2005>
0

> <r_mmod_RMS_Derivative-OPLS-2005>
2.97674179077148

$$$$
7
                    3D
 Structure written by MMmdl.
151159  0  0  1  0            999 V2000
  -30.5783  -14.7925   20.4433 C   0  0  0  0  0  0
  -30.4337  -12.4910   19.4561 C   0  0  0  0  0  0
  -29.5017  -12.5087   18.2235 C   0  0  0  0  0  0
  -28.0331  -12.3119   18.6476 C   0  0  0  0  0  0
  -27.6334  -13.2234   19.8375 C   0  0  2  0  0  0
  -28.6820  -13.1876   20.9694 C   0  0  0  0  0  0
  -25.2498  -13.8168   20.5665 C   0  0  0  0  0  0
  -24.1789  -13.0425   20.9211 C   0  0  0  0  0  0
  -24.6365  -11.6905   20.8748 C   0  0  0  0  0  0
  -23.9050  -10.4283   21.0403 C   0  0  0  0  0  0
  -24.3612   -9.4206   21.9175 C   0  0  0  0  0  0
  -23.6291   -8.2243   22.0747 C   0  0  0  0  0  0
  -22.4272   -8.0271   21.3535 C   0  0  0  0  0  0
  -21.9906   -9.0243   20.4641 C   0  0  0  0  0  0
  -22.7227  -10.2122   20.3048 C   0  0  0  0  0  0
  -21.6864   -6.0717   22.5271 C   0  0  0  0  0  0
  -21.4014   -6.5629   23.8201 C   0  0  0  0  0  0
  -21.3664   -5.6790   24.9172 C   0  0  0  0  0  0
  -21.6057   -4.3055   24.7231 C   0  0  0  0  0  0
  -21.8821   -3.8135   23.4358 C   0  0  0  0  0  0
  -21.9194   -4.6940   22.3406 C   0  0  0  0  0  0
  -22.7822  -13.5226   21.1899 C   0  0  0  0  0  0
  -22.1663   -4.2109   21.0989 F   0  0  0  0  0  0
  -21.5635   -3.4550   25.7758 F   0  0  0  0  0  0
  -29.9720  -13.5557   20.3718 N   0  0  0  0  0  0
  -26.2894  -12.9345   20.3222 N   0  0  0  0  0  0
  -25.9293  -11.6499   20.5736 N   0  0  0  0  0  0
  -22.0482  -12.8178   22.0445 N   0  0  0  0  0  0
  -25.4157  -15.1897   20.4033 N   0  0  0  0  0  0
  -31.7896  -14.8932   20.2284 O   0  0  0  0  0  0
  -21.6654   -6.8853   21.4228 O   0  0  0  0  0  0
  -22.3503  -14.5539   20.6777 O   0  0  0  0  0  0
  -24.6357  -31.8520   23.1951 C   0  0  0  0  0  0
  -25.9166  -32.4736   23.8317 C   0  0  1  0  0  0
  -27.2231  -27.2224   20.1218 C   0  0  0  0  0  0
  -25.5933  -33.8537   24.2228 N   0  0  0  0  0  0
  -23.4346  -30.4744   21.5385 C   0  0  2  0  0  0
  -24.8816  -28.9172   20.1065 C   0  0  0  0  0  0
  -22.7525  -29.4593   22.4885 C   0  0  0  0  0  0
  -18.0307  -28.1371   22.8471 C   0  0  0  0  0  0
  -24.1489  -36.7282   23.2639 C   0  0  0  0  0  0
  -25.9835  -30.7526   21.3804 C   0  0  0  0  0  0
  -26.0551  -29.3716   20.7187 C   0  0  0  0  0  0
  -27.2241  -28.5379   20.7156 C   0  0  0  0  0  0
  -26.0138  -26.8414   19.4947 C   0  0  0  0  0  0
  -24.8680  -27.6610   19.4862 C   0  0  0  0  0  0
  -23.6556  -29.8097   20.1540 C   0  0  0  0  0  0
  -25.4116  -36.3053   24.0317 C   0  0  1  0  0  0
  -20.5902  -28.3719   23.1262 C   0  0  2  0  0  0
  -20.6795  -26.9422   22.5406 C   0  0  0  0  0  0
  -19.5771  -26.6365   21.5198 C   0  0  0  0  0  0
  -18.1960  -26.7897   22.1628 C   0  0  0  0  0  0
  -19.1544  -28.8868   23.2857 C   0  0  0  0  0  0
  -18.9466  -30.1477   23.8867 C   0  0  0  0  0  0
  -17.6466  -30.6592   24.0551 C   0  0  0  0  0  0
  -25.9063  -34.9431   23.5079 C   0  0  0  0  0  0
  -16.5359  -29.9088   23.6321 C   0  0  0  0  0  0
  -16.7294  -28.6494   23.0344 C   0  0  0  0  0  0
  -26.4520  -31.6580   25.0737 C   0  0  0  0  0  0
  -25.3732  -31.3758   26.1453 C   0  0  0  0  0  0
  -27.0372  -30.2981   24.6273 C   0  0  0  0  0  0
  -27.6047  -32.4344   25.7534 C   0  0  0  0  0  0
  -27.5571  -37.1799   24.8459 C   0  0  0  0  0  0
  -21.4221  -29.3082   22.3647 N   0  0  0  0  0  0
  -26.4282  -37.3756   23.9406 N   0  0  0  0  0  0
  -24.7036  -31.0442   22.0946 N   0  0  0  0  0  0
  -23.4207  -28.8113   23.2986 O   0  0  0  0  0  0
  -28.3167  -26.3136   20.2241 O   0  0  0  0  0  0
  -26.5633  -34.8904   22.4656 O   0  0  0  0  0  0
  -23.5493  -32.1352   23.7226 O   0  0  0  0  0  0
  -30.8975  -19.1465   22.1430 C   0  0  0  0  0  0
  -30.2835  -20.1874   21.4012 C   0  0  0  0  0  0
  -30.7676  -17.7799   21.7863 C   0  0  0  0  0  0
  -29.3429  -18.4747   19.9584 C   0  0  0  0  0  0
  -29.5015  -19.9032   20.2661 C   0  0  0  0  0  0
  -29.9769  -17.3773   20.6866 C   0  0  0  0  0  0
  -28.7038  -23.5348   20.1130 C   0  0  0  0  0  0
  -28.9843  -21.0653   19.3439 C   0  0  0  0  0  0
  -28.4169  -25.0050   19.4636 C   0  0  0  0  0  0
  -28.7244  -22.4639   19.3330 N   0  0  0  0  0  0
  -29.7486  -15.9151   20.4407 N   0  0  0  0  0  0
  -28.7661  -20.6403   18.1437 N   0  3  0  0  0  0
  -31.4691  -12.6414   19.1495 H   0  0  0  0  0  0
  -30.3989  -11.5204   19.9534 H   0  0  0  0  0  0
  -29.7967  -11.7284   17.5209 H   0  0  0  0  0  0
  -29.6014  -13.4546   17.6876 H   0  0  0  0  0  0
  -27.9123  -11.2629   18.9247 H   0  0  0  0  0  0
  -27.3670  -12.4765   17.7987 H   0  0  0  0  0  0
  -27.6149  -14.2347   19.4348 H   0  0  0  0  0  0
  -28.7328  -12.1995   21.4291 H   0  0  0  0  0  0
  -28.4097  -13.8836   21.7643 H   0  0  0  0  0  0
  -25.2746   -9.5697   22.4756 H   0  0  0  0  0  0
  -24.0001   -7.4642   22.7473 H   0  0  0  0  0  0
  -21.0833   -8.8758   19.8955 H   0  0  0  0  0  0
  -22.3668  -10.9659   19.6169 H   0  0  0  0  0  0
  -21.2000   -7.6134   23.9684 H   0  0  0  0  0  0
  -21.1490   -6.0532   25.9068 H   0  0  0  0  0  0
  -22.0595   -2.7587   23.2886 H   0  0  0  0  0  0
  -22.4116  -11.9829   22.4788 H   0  0  0  0  0  0
  -21.1095  -13.1165   22.2687 H   0  0  0  0  0  0
  -24.6383  -15.8338   20.4985 H   0  0  0  0  0  0
  -26.2495  -15.6320   20.0406 H   0  0  0  0  0  0
  -26.7239  -32.5369   23.1059 H   0  0  0  0  0  0
  -25.0065  -33.9676   25.0359 H   0  0  0  0  0  0
  -22.7341  -31.2984   21.3909 H   0  0  0  0  0  0
  -23.3744  -35.9619   23.3297 H   0  0  0  0  0  0
  -24.3576  -36.8931   22.2055 H   0  0  0  0  0  0
  -23.7257  -37.6483   23.6682 H   0  0  0  0  0  0
  -26.1257  -31.5155   20.6123 H   0  0  0  0  0  0
  -26.8576  -30.7986   22.0187 H   0  0  0  0  0  0
  -28.1187  -28.8861   21.2104 H   0  0  0  0  0  0
  -25.8880  -25.8726   19.0421 H   0  0  0  0  0  0
  -23.9621  -27.3039   19.0163 H   0  0  0  0  0  0
  -23.7878  -30.5867   19.3999 H   0  0  0  0  0  0
  -22.7724  -29.2475   19.8444 H   0  0  0  0  0  0
  -25.1306  -36.1889   25.0804 H   0  0  0  0  0  0
  -21.0002  -28.3310   24.1390 H   0  0  0  0  0  0
  -20.5654  -26.2331   23.3616 H   0  0  0  0  0  0
  -21.6662  -26.7420   22.1208 H   0  0  0  0  0  0
  -19.6957  -25.6284   21.1215 H   0  0  0  0  0  0
  -19.6682  -27.3199   20.6744 H   0  0  0  0  0  0
  -17.4199  -26.6609   21.4065 H   0  0  0  0  0  0
  -18.0390  -26.0053   22.9053 H   0  0  0  0  0  0
  -19.7949  -30.7294   24.2215 H   0  0  0  0  0  0
  -17.5013  -31.6273   24.5146 H   0  0  0  0  0  0
  -15.5341  -30.2973   23.7643 H   0  0  0  0  0  0
  -15.8713  -28.0782   22.7079 H   0  0  0  0  0  0
  -24.5906  -30.7105   25.7790 H   0  0  0  0  0  0
  -24.8926  -32.2937   26.4839 H   0  0  0  0  0  0
  -25.8046  -30.8968   27.0251 H   0  0  0  0  0  0
  -26.2970  -29.6730   24.1261 H   0  0  0  0  0  0
  -27.3983  -29.7257   25.4828 H   0  0  0  0  0  0
  -27.8881  -30.4230   23.9576 H   0  0  0  0  0  0
  -27.2622  -33.3638   26.2093 H   0  0  0  0  0  0
  -28.3878  -32.6928   25.0396 H   0  0  0  0  0  0
  -28.0686  -31.8494   26.5484 H   0  0  0  0  0  0
  -28.2579  -38.0099   24.7491 H   0  0  0  0  0  0
  -28.1074  -36.2632   24.6296 H   0  0  0  0  0  0
  -27.2288  -37.1457   25.8859 H   0  0  0  0  0  0
  -20.9432  -29.8849   21.6872 H   0  0  0  0  0  0
  -26.0157  -38.2828   24.1405 H   0  0  0  0  0  0
  -31.4931  -19.4047   23.0065 H   0  0  0  0  0  0
  -30.4471  -21.2156   21.6834 H   0  0  0  0  0  0
  -31.2551  -17.0356   22.4018 H   0  0  0  0  0  0
  -28.7216  -18.2063   19.1199 H   0  0  0  0  0  0
  -28.8662  -23.5011   21.1932 H   0  0  0  0  0  0
  -27.6116  -24.8793   18.7483 H   0  0  0  0  0  0
  -29.2720  -25.1792   18.8103 H   0  0  0  0  0  0
  -28.7839  -15.6648   20.2922 H   0  0  0  0  0  0
  -28.9645  -19.6890   17.8471 H   0  0  0  0  0  0
  -28.4914  -21.2739   17.4002 H   0  0  0  0  0  0
  1 25  1  0  0  0
  1 30  2  0  0  0
  1 81  1  0  0  0
  2  3  1  0  0  0
  2 25  1  0  0  0
  2 83  1  0  0  0
  2 84  1  0  0  0
  3  4  1  0  0  0
  3 85  1  0  0  0
  3 86  1  0  0  0
  4  5  1  0  0  0
  4 87  1  0  0  0
  4 88  1  0  0  0
  5  6  1  0  0  0
  5 26  1  0  0  0
  5 89  1  0  0  0
  6 25  1  0  0  0
  6 90  1  0  0  0
  6 91  1  0  0  0
  7  8  2  0  0  0
  7 26  1  0  0  0
  7 29  1  0  0  0
  8  9  1  0  0  0
  8 22  1  0  0  0
  9 10  1  0  0  0
  9 27  2  0  0  0
 10 11  2  0  0  0
 10 15  1  0  0  0
 11 12  1  0  0  0
 11 92  1  0  0  0
 12 13  2  0  0  0
 12 93  1  0  0  0
 13 14  1  0  0  0
 13 31  1  0  0  0
 14 15  2  0  0  0
 14 94  1  0  0  0
 15 95  1  0  0  0
 16 17  2  0  0  0
 16 21  1  0  0  0
 16 31  1  0  0  0
 17 18  1  0  0  0
 17 96  1  0  0  0
 18 19  2  0  0  0
 18 97  1  0  0  0
 19 20  1  0  0  0
 19 24  1  0  0  0
 20 21  2  0  0  0
 20 98  1  0  0  0
 21 23  1  0  0  0
 22 28  1  0  0  0
 22 32  2  0  0  0
 26 27  1  0  0  0
 28 99  1  0  0  0
 28100  1  0  0  0
 29101  1  0  0  0
 29102  1  0  0  0
 33 34  1  0  0  0
 33 66  1  0  0  0
 33 70  2  0  0  0
 34 36  1  0  0  0
 34 59  1  0  0  0
 34103  1  0  0  0
 35 44  2  0  0  0
 35 45  1  0  0  0
 35 68  1  0  0  0
 36 56  1  0  0  0
 36104  1  0  0  0
 37 39  1  0  0  0
 37 47  1  0  0  0
 37 66  1  0  0  0
 37105  1  0  0  0
 38 43  2  0  0  0
 38 46  1  0  0  0
 38 47  1  0  0  0
 39 64  1  0  0  0
 39 67  2  0  0  0
 40 52  1  0  0  0
 40 53  2  0  0  0
 40 58  1  0  0  0
 41106  1  0  0  0
 41107  1  0  0  0
 41108  1  0  0  0
 41 48  1  0  0  0
 42 43  1  0  0  0
 42 66  1  0  0  0
 42109  1  0  0  0
 42110  1  0  0  0
 43 44  1  0  0  0
 44111  1  0  0  0
 45 46  2  0  0  0
 45112  1  0  0  0
 46113  1  0  0  0
 47114  1  0  0  0
 47115  1  0  0  0
 48 56  1  0  0  0
 48 65  1  0  0  0
 48116  1  0  0  0
 49 50  1  0  0  0
 49 53  1  0  0  0
 49 64  1  0  0  0
 49117  1  0  0  0
 50 51  1  0  0  0
 50118  1  0  0  0
 50119  1  0  0  0
 51 52  1  0  0  0
 51120  1  0  0  0
 51121  1  0  0  0
 52122  1  0  0  0
 52123  1  0  0  0
 53 54  1  0  0  0
 54 55  2  0  0  0
 54124  1  0  0  0
 55 57  1  0  0  0
 55125  1  0  0  0
 56 69  2  0  0  0
 57 58  2  0  0  0
 57126  1  0  0  0
 58127  1  0  0  0
 59 60  1  0  0  0
 59 61  1  0  0  0
 59 62  1  0  0  0
 60128  1  0  0  0
 60129  1  0  0  0
 60130  1  0  0  0
 61131  1  0  0  0
 61132  1  0  0  0
 61133  1  0  0  0
 62134  1  0  0  0
 62135  1  0  0  0
 62136  1  0  0  0
 63 65  1  0  0  0
 63137  1  0  0  0
 63138  1  0  0  0
 63139  1  0  0  0
 64140  1  0  0  0
 65141  1  0  0  0
 68 79  1  0  0  0
 71 72  2  0  0  0
 71 73  1  0  0  0
 71142  1  0  0  0
 72 75  1  0  0  0
 72143  1  0  0  0
 73 76  2  0  0  0
 73144  1  0  0  0
 74 75  2  0  0  0
 74 76  1  0  0  0
 74145  1  0  0  0
 75 78  1  0  0  0
 76 81  1  0  0  0
 77 79  1  0  0  0
 77 80  2  0  0  0
 77146  1  0  0  0
 78 80  1  0  0  0
 78 82  2  0  0  0
 79147  1  0  0  0
 79148  1  0  0  0
 81149  1  0  0  0
 82150  1  0  0  0
 82151  1  0  0  0
M  CHG  1  82   1
M  ISO  4   1 100  68 101  79 101  81 100
M  END
> <chiral flag>
0

> <version>
0

> <s_m_source_file>
/data/baiqing/PycharmProjects/Reinvent-master-3.2/result/LINK_invent/BTK/process_docking_weight1_custom_product_contain_oxygen_bond_distance_aromatic_linkinvent_7_9_3/rearranged_h_0081.sdf

> <i_m_source_file_index>
8

> <r_mmod_Potential_Energy-OPLS-2005>
367.610473632812

> <r_mmod_Stretch_Energy-OPLS-2005>
162.459564208984

> <r_mmod_Bend_Energy-OPLS-2005>
284.572265625

> <r_mmod_Torsional_Energy-OPLS-2005>
234.091201782227

> <r_mmod_Improper_Torsional_Energy-OPLS-2005>
9.6101770401001

> <r_mmod_Van_der_Waal_Energy-OPLS-2005>
136.492462158203

> <r_mmod_Electrostatic_Energy-OPLS-2005>
-90.492057800293

> <r_mmod_Solvation_Energy-OPLS-2005>
-482.077239990234

> <b_mmod_Minimization_Converged-OPLS-2005>
0

> <r_mmod_RMS_Derivative-OPLS-2005>
2.96497678756714

$$$$
8
                    3D
 Structure written by MMmdl.
156165  0  0  1  0            999 V2000
  -30.5830  -14.8060   20.4449 C   0  0  0  0  0  0
  -30.4291  -12.4882   19.4962 C   0  0  0  0  0  0
  -29.5139  -12.5259   18.2512 C   0  0  0  0  0  0
  -28.0396  -12.3422   18.6576 C   0  0  0  0  0  0
  -27.6408  -13.2418   19.8576 C   0  0  2  0  0  0
  -28.6812  -13.1944   20.9982 C   0  0  0  0  0  0
  -25.2499  -13.8229   20.5715 C   0  0  0  0  0  0
  -24.1788  -13.0462   20.9202 C   0  0  0  0  0  0
  -24.6392  -11.6937   20.8726 C   0  0  0  0  0  0
  -23.9049  -10.4318   21.0388 C   0  0  0  0  0  0
  -24.3605   -9.4235   21.9173 C   0  0  0  0  0  0
  -23.6295   -8.2257   22.0728 C   0  0  0  0  0  0
  -22.4276   -8.0282   21.3529 C   0  0  0  0  0  0
  -21.9913   -9.0248   20.4623 C   0  0  0  0  0  0
  -22.7218  -10.2143   20.3039 C   0  0  0  0  0  0
  -21.6857   -6.0736   22.5271 C   0  0  0  0  0  0
  -21.4017   -6.5635   23.8211 C   0  0  0  0  0  0
  -21.3663   -5.6786   24.9180 C   0  0  0  0  0  0
  -21.6053   -4.3052   24.7217 C   0  0  0  0  0  0
  -21.8813   -3.8144   23.4335 C   0  0  0  0  0  0
  -21.9196   -4.6966   22.3399 C   0  0  0  0  0  0
  -22.7814  -13.5241   21.1861 C   0  0  0  0  0  0
  -22.1647   -4.2157   21.0977 F   0  0  0  0  0  0
  -21.5643   -3.4521   25.7723 F   0  0  0  0  0  0
  -29.9827  -13.5593   20.4271 N   0  0  0  0  0  0
  -26.2928  -12.9447   20.3324 N   0  0  0  0  0  0
  -25.9327  -11.6575   20.5751 N   0  0  0  0  0  0
  -22.0448  -12.8232   22.0408 N   0  0  0  0  0  0
  -25.4228  -15.1955   20.4143 N   0  0  0  0  0  0
  -31.7459  -14.9106   20.0418 O   0  0  0  0  0  0
  -21.6638   -6.8877   21.4231 O   0  0  0  0  0  0
  -22.3498  -14.5551   20.6710 O   0  0  0  0  0  0
  -24.6356  -31.8516   23.1962 C   0  0  0  0  0  0
  -25.9175  -32.4729   23.8309 C   0  0  1  0  0  0
  -27.2095  -27.1931   20.1419 C   0  0  0  0  0  0
  -25.5971  -33.8533   24.2218 N   0  0  0  0  0  0
  -23.4362  -30.4740   21.5400 C   0  0  2  0  0  0
  -24.8855  -28.9166   20.1091 C   0  0  0  0  0  0
  -22.7525  -29.4582   22.4881 C   0  0  0  0  0  0
  -18.0296  -28.1398   22.8475 C   0  0  0  0  0  0
  -24.1499  -36.7254   23.2642 C   0  0  0  0  0  0
  -25.9893  -30.7379   21.3935 C   0  0  0  0  0  0
  -26.0577  -29.3543   20.7373 C   0  0  0  0  0  0
  -27.2186  -28.5023   20.7535 C   0  0  0  0  0  0
  -26.0248  -26.8688   19.4385 C   0  0  0  0  0  0
  -24.8781  -27.6821   19.4477 C   0  0  0  0  0  0
  -23.6597  -29.8091   20.1563 C   0  0  0  0  0  0
  -25.4134  -36.3035   24.0309 C   0  0  1  0  0  0
  -20.5903  -28.3712   23.1244 C   0  0  2  0  0  0
  -20.6777  -26.9421   22.5403 C   0  0  0  0  0  0
  -19.5753  -26.6384   21.5206 C   0  0  0  0  0  0
  -18.1937  -26.7940   22.1620 C   0  0  0  0  0  0
  -19.1555  -28.8865   23.2859 C   0  0  0  0  0  0
  -18.9471  -30.1461   23.8881 C   0  0  0  0  0  0
  -17.6472  -30.6595   24.0560 C   0  0  0  0  0  0
  -25.9080  -34.9416   23.5056 C   0  0  0  0  0  0
  -16.5359  -29.9094   23.6344 C   0  0  0  0  0  0
  -16.7279  -28.6513   23.0355 C   0  0  0  0  0  0
  -26.4532  -31.6569   25.0715 C   0  0  0  0  0  0
  -25.3721  -31.3742   26.1398 C   0  0  0  0  0  0
  -27.0392  -30.2966   24.6271 C   0  0  0  0  0  0
  -27.6092  -32.4319   25.7477 C   0  0  0  0  0  0
  -27.5585  -37.1783   24.8469 C   0  0  0  0  0  0
  -21.4227  -29.3053   22.3626 N   0  0  0  0  0  0
  -26.4302  -37.3743   23.9409 N   0  0  0  0  0  0
  -24.7057  -31.0409   22.0980 N   0  0  0  0  0  0
  -23.4195  -28.8114   23.3008 O   0  0  0  0  0  0
  -28.2626  -26.2239   20.2191 O   0  0  0  0  0  0
  -26.5663  -34.8911   22.4634 O   0  0  0  0  0  0
  -23.5495  -32.1376   23.7216 O   0  0  0  0  0  0
  -29.0036  -19.6196   18.5771 C   0  0  0  0  0  0
  -29.6299  -18.6104   20.7027 C   0  0  0  0  0  0
  -29.3801  -17.1913   18.7319 C   0  0  0  0  0  0
  -29.2880  -19.8275   19.9465 C   0  0  0  0  0  0
  -29.0454  -18.3399   17.9814 C   0  0  0  0  0  0
  -29.6785  -17.2600   20.1136 C   0  0  0  0  0  0
  -28.7548  -23.6408   20.3503 C   0  0  0  0  0  0
  -30.1493  -23.4673   20.6656 C   0  0  0  0  0  0
  -28.2634  -22.2242   20.1898 C   0  0  0  0  0  0
  -31.0286  -24.4675   20.8428 C   0  0  0  0  0  0
  -27.9759  -24.8006   20.1915 C   0  0  0  0  0  0
  -30.4992  -21.9802   20.7655 C   0  0  0  0  0  0
  -29.2637  -21.2690   20.3983 N   0  0  0  0  0  0
  -28.7424  -18.2100   16.6249 N   0  0  0  0  0  0
  -29.8523  -15.9414   20.8149 N   0  0  0  0  0  0
  -27.1014  -21.9149   19.9093 O   0  0  0  0  0  0
  -31.4688  -12.6116   19.1929 H   0  0  0  0  0  0
  -30.3763  -11.5137   19.9832 H   0  0  0  0  0  0
  -29.8029  -11.7498   17.5430 H   0  0  0  0  0  0
  -29.6402  -13.4757   17.7278 H   0  0  0  0  0  0
  -27.8997  -11.2915   18.9205 H   0  0  0  0  0  0
  -27.3829  -12.5317   17.8069 H   0  0  0  0  0  0
  -27.6322  -14.2636   19.4752 H   0  0  0  0  0  0
  -28.7249  -12.2010   21.4474 H   0  0  0  0  0  0
  -28.4010  -13.8800   21.7971 H   0  0  0  0  0  0
  -25.2744   -9.5720   22.4768 H   0  0  0  0  0  0
  -24.0001   -7.4655   22.7451 H   0  0  0  0  0  0
  -21.0837   -8.8732   19.8944 H   0  0  0  0  0  0
  -22.3641  -10.9664   19.6138 H   0  0  0  0  0  0
  -21.1991   -7.6132   23.9715 H   0  0  0  0  0  0
  -21.1500   -6.0510   25.9081 H   0  0  0  0  0  0
  -22.0595   -2.7597   23.2824 H   0  0  0  0  0  0
  -22.4030  -11.9865   22.4768 H   0  0  0  0  0  0
  -21.1066  -13.1258   22.2605 H   0  0  0  0  0  0
  -24.6617  -15.8563   20.5262 H   0  0  0  0  0  0
  -26.2817  -15.6326   20.1044 H   0  0  0  0  0  0
  -26.7231  -32.5340   23.1036 H   0  0  0  0  0  0
  -25.0113  -33.9677   25.0361 H   0  0  0  0  0  0
  -22.7364  -31.2994   21.3894 H   0  0  0  0  0  0
  -23.3777  -35.9566   23.3271 H   0  0  0  0  0  0
  -24.3597  -36.8920   22.2065 H   0  0  0  0  0  0
  -23.7240  -37.6439   23.6695 H   0  0  0  0  0  0
  -26.1454  -31.4925   20.6216 H   0  0  0  0  0  0
  -26.8622  -30.7833   22.0324 H   0  0  0  0  0  0
  -28.1079  -28.8269   21.2741 H   0  0  0  0  0  0
  -25.9433  -25.9523   18.8743 H   0  0  0  0  0  0
  -23.9882  -27.3500   18.9330 H   0  0  0  0  0  0
  -23.7906  -30.5858   19.4025 H   0  0  0  0  0  0
  -22.7764  -29.2473   19.8460 H   0  0  0  0  0  0
  -25.1322  -36.1859   25.0801 H   0  0  0  0  0  0
  -21.0003  -28.3287   24.1360 H   0  0  0  0  0  0
  -20.5660  -26.2324   23.3623 H   0  0  0  0  0  0
  -21.6642  -26.7429   22.1191 H   0  0  0  0  0  0
  -19.6916  -25.6286   21.1256 H   0  0  0  0  0  0
  -19.6699  -27.3178   20.6726 H   0  0  0  0  0  0
  -17.4209  -26.6685   21.4031 H   0  0  0  0  0  0
  -18.0341  -26.0082   22.9010 H   0  0  0  0  0  0
  -19.7951  -30.7292   24.2243 H   0  0  0  0  0  0
  -17.5027  -31.6281   24.5151 H   0  0  0  0  0  0
  -15.5362  -30.2989   23.7688 H   0  0  0  0  0  0
  -15.8678  -28.0831   22.7084 H   0  0  0  0  0  0
  -24.5915  -30.7085   25.7692 H   0  0  0  0  0  0
  -24.8900  -32.2915   26.4768 H   0  0  0  0  0  0
  -25.7989  -30.8933   27.0197 H   0  0  0  0  0  0
  -26.2988  -29.6690   24.1284 H   0  0  0  0  0  0
  -27.4029  -29.7258   25.4829 H   0  0  0  0  0  0
  -27.8886  -30.4221   23.9553 H   0  0  0  0  0  0
  -27.2717  -33.3651   26.1976 H   0  0  0  0  0  0
  -28.3915  -32.6809   25.0302 H   0  0  0  0  0  0
  -28.0712  -31.8478   26.5435 H   0  0  0  0  0  0
  -28.2575  -38.0107   24.7536 H   0  0  0  0  0  0
  -28.1109  -36.2638   24.6260 H   0  0  0  0  0  0
  -27.2303  -37.1369   25.8872 H   0  0  0  0  0  0
  -20.9420  -29.8776   21.6826 H   0  0  0  0  0  0
  -26.0156  -38.2801   24.1445 H   0  0  0  0  0  0
  -28.7589  -20.4727   17.9595 H   0  0  0  0  0  0
  -29.8483  -18.7141   21.7580 H   0  0  0  0  0  0
  -29.3747  -16.2269   18.2429 H   0  0  0  0  0  0
  -30.7352  -25.5032   20.7608 H   0  0  0  0  0  0
  -32.0639  -24.2636   21.0770 H   0  0  0  0  0  0
  -26.9317  -24.6147   20.0099 H   0  0  0  0  0  0
  -30.8055  -21.7230   21.7800 H   0  0  0  0  0  0
  -31.3070  -21.7273   20.0771 H   0  0  0  0  0  0
  -28.2705  -18.9708   16.1458 H   0  0  0  0  0  0
  -28.5130  -17.2952   16.2464 H   0  0  0  0  0  0
  -29.0843  -15.7161   21.4306 H   0  0  0  0  0  0
  1 25  1  0  0  0
  1 30  2  0  0  0
  1 85  1  0  0  0
  2  3  1  0  0  0
  2 25  1  0  0  0
  2 87  1  0  0  0
  2 88  1  0  0  0
  3  4  1  0  0  0
  3 89  1  0  0  0
  3 90  1  0  0  0
  4  5  1  0  0  0
  4 91  1  0  0  0
  4 92  1  0  0  0
  5  6  1  0  0  0
  5 26  1  0  0  0
  5 93  1  0  0  0
  6 25  1  0  0  0
  6 94  1  0  0  0
  6 95  1  0  0  0
  7  8  2  0  0  0
  7 26  1  0  0  0
  7 29  1  0  0  0
  8  9  1  0  0  0
  8 22  1  0  0  0
  9 10  1  0  0  0
  9 27  2  0  0  0
 10 11  2  0  0  0
 10 15  1  0  0  0
 11 12  1  0  0  0
 11 96  1  0  0  0
 12 13  2  0  0  0
 12 97  1  0  0  0
 13 14  1  0  0  0
 13 31  1  0  0  0
 14 15  2  0  0  0
 14 98  1  0  0  0
 15 99  1  0  0  0
 16 17  2  0  0  0
 16 21  1  0  0  0
 16 31  1  0  0  0
 17 18  1  0  0  0
 17100  1  0  0  0
 18 19  2  0  0  0
 18101  1  0  0  0
 19 20  1  0  0  0
 19 24  1  0  0  0
 20 21  2  0  0  0
 20102  1  0  0  0
 21 23  1  0  0  0
 22 28  1  0  0  0
 22 32  2  0  0  0
 26 27  1  0  0  0
 28103  1  0  0  0
 28104  1  0  0  0
 29105  1  0  0  0
 29106  1  0  0  0
 33 34  1  0  0  0
 33 66  1  0  0  0
 33 70  2  0  0  0
 34 36  1  0  0  0
 34 59  1  0  0  0
 34107  1  0  0  0
 35 44  2  0  0  0
 35 45  1  0  0  0
 35 68  1  0  0  0
 36 56  1  0  0  0
 36108  1  0  0  0
 37 39  1  0  0  0
 37 47  1  0  0  0
 37 66  1  0  0  0
 37109  1  0  0  0
 38 43  2  0  0  0
 38 46  1  0  0  0
 38 47  1  0  0  0
 39 64  1  0  0  0
 39 67  2  0  0  0
 40 52  1  0  0  0
 40 53  2  0  0  0
 40 58  1  0  0  0
 41110  1  0  0  0
 41111  1  0  0  0
 41112  1  0  0  0
 41 48  1  0  0  0
 42 43  1  0  0  0
 42 66  1  0  0  0
 42113  1  0  0  0
 42114  1  0  0  0
 43 44  1  0  0  0
 44115  1  0  0  0
 45 46  2  0  0  0
 45116  1  0  0  0
 46117  1  0  0  0
 47118  1  0  0  0
 47119  1  0  0  0
 48 56  1  0  0  0
 48 65  1  0  0  0
 48120  1  0  0  0
 49 50  1  0  0  0
 49 53  1  0  0  0
 49 64  1  0  0  0
 49121  1  0  0  0
 50 51  1  0  0  0
 50122  1  0  0  0
 50123  1  0  0  0
 51 52  1  0  0  0
 51124  1  0  0  0
 51125  1  0  0  0
 52126  1  0  0  0
 52127  1  0  0  0
 53 54  1  0  0  0
 54 55  2  0  0  0
 54128  1  0  0  0
 55 57  1  0  0  0
 55129  1  0  0  0
 56 69  2  0  0  0
 57 58  2  0  0  0
 57130  1  0  0  0
 58131  1  0  0  0
 59 60  1  0  0  0
 59 61  1  0  0  0
 59 62  1  0  0  0
 60132  1  0  0  0
 60133  1  0  0  0
 60134  1  0  0  0
 61135  1  0  0  0
 61136  1  0  0  0
 61137  1  0  0  0
 62138  1  0  0  0
 62139  1  0  0  0
 62140  1  0  0  0
 63 65  1  0  0  0
 63141  1  0  0  0
 63142  1  0  0  0
 63143  1  0  0  0
 64144  1  0  0  0
 65145  1  0  0  0
 68 81  1  0  0  0
 71 74  2  0  0  0
 71 75  1  0  0  0
 71146  1  0  0  0
 72 74  1  0  0  0
 72 76  2  0  0  0
 72147  1  0  0  0
 73 75  2  0  0  0
 73 76  1  0  0  0
 73148  1  0  0  0
 74 83  1  0  0  0
 75 84  1  0  0  0
 76 85  1  0  0  0
 77 78  1  0  0  0
 77 79  1  0  0  0
 77 81  2  0  0  0
 78 80  2  0  0  0
 78 82  1  0  0  0
 79 83  1  0  0  0
 79 86  2  0  0  0
 80149  1  0  0  0
 80150  1  0  0  0
 81151  1  0  0  0
 82 83  1  0  0  0
 82152  1  0  0  0
 82153  1  0  0  0
 84154  1  0  0  0
 84155  1  0  0  0
 85156  1  0  0  0
M  ISO  4   1 100  68 101  81 101  85 100
M  END
> <chiral flag>
0

> <version>
0

> <s_m_source_file>
/data/baiqing/PycharmProjects/Reinvent-master-3.2/result/LINK_invent/BTK/process_docking_weight1_custom_product_contain_oxygen_bond_distance_aromatic_linkinvent_7_9_3/rearranged_h_0081.sdf

> <i_m_source_file_index>
9

> <r_mmod_Potential_Energy-OPLS-2005>
457.926391601562

> <r_mmod_Stretch_Energy-OPLS-2005>
158.311141967773

> <r_mmod_Bend_Energy-OPLS-2005>
232.005767822266

> <r_mmod_Torsional_Energy-OPLS-2005>
320.142944335938

> <r_mmod_Improper_Torsional_Energy-OPLS-2005>
8.05356121063232

> <r_mmod_Van_der_Waal_Energy-OPLS-2005>
133.388580322266

> <r_mmod_Electrostatic_Energy-OPLS-2005>
-292.097900390625

> <r_mmod_Solvation_Energy-OPLS-2005>
-228.0302734375

> <b_mmod_Minimization_Converged-OPLS-2005>
0

> <r_mmod_RMS_Derivative-OPLS-2005>
2.72665619850159

$$$$
9
                    3D
 Structure written by MMmdl.
158167  0  0  1  0            999 V2000
  -30.6255  -14.5602   20.5484 C   0  0  0  0  0  0
  -30.4445  -12.3546   19.4287 C   0  0  0  0  0  0
  -29.5039  -12.5098   18.2118 C   0  0  0  0  0  0
  -28.0245  -12.3565   18.6234 C   0  0  0  0  0  0
  -27.6605  -13.2019   19.8720 C   0  0  2  0  0  0
  -28.7040  -12.9862   20.9923 C   0  0  0  0  0  0
  -25.2589  -13.8139   20.5658 C   0  0  0  0  0  0
  -24.1849  -13.0432   20.9206 C   0  0  0  0  0  0
  -24.6393  -11.6896   20.8757 C   0  0  0  0  0  0
  -23.9053  -10.4288   21.0419 C   0  0  0  0  0  0
  -24.3608   -9.4203   21.9191 C   0  0  0  0  0  0
  -23.6285   -8.2239   22.0750 C   0  0  0  0  0  0
  -22.4267   -8.0280   21.3540 C   0  0  0  0  0  0
  -21.9903   -9.0258   20.4645 C   0  0  0  0  0  0
  -22.7229  -10.2138   20.3063 C   0  0  0  0  0  0
  -21.6851   -6.0736   22.5278 C   0  0  0  0  0  0
  -21.4013   -6.5640   23.8215 C   0  0  0  0  0  0
  -21.3653   -5.6791   24.9174 C   0  0  0  0  0  0
  -21.6042   -4.3054   24.7220 C   0  0  0  0  0  0
  -21.8823   -3.8146   23.4343 C   0  0  0  0  0  0
  -21.9191   -4.6964   22.3400 C   0  0  0  0  0  0
  -22.7871  -13.5242   21.1860 C   0  0  0  0  0  0
  -22.1661   -4.2152   21.0974 F   0  0  0  0  0  0
  -21.5620   -3.4534   25.7732 F   0  0  0  0  0  0
  -30.0282  -13.3354   20.4458 N   0  0  0  0  0  0
  -26.3013  -12.9294   20.3332 N   0  0  0  0  0  0
  -25.9316  -11.6463   20.5772 N   0  0  0  0  0  0
  -22.0498  -12.8246   22.0415 N   0  0  0  0  0  0
  -25.4308  -15.1842   20.3971 N   0  0  0  0  0  0
  -31.7621  -14.7819   20.1187 O   0  0  0  0  0  0
  -21.6632   -6.8880   21.4242 O   0  0  0  0  0  0
  -22.3562  -14.5544   20.6695 O   0  0  0  0  0  0
  -24.6190  -31.8649   23.2066 C   0  0  0  0  0  0
  -25.9065  -32.4805   23.8380 C   0  0  1  0  0  0
  -27.2332  -27.3927   20.1087 C   0  0  0  0  0  0
  -25.5910  -33.8603   24.2312 N   0  0  0  0  0  0
  -23.4104  -30.4863   21.5472 C   0  0  2  0  0  0
  -24.8597  -28.9444   20.1158 C   0  0  0  0  0  0
  -22.7439  -29.4643   22.4967 C   0  0  0  0  0  0
  -18.0283  -28.1377   22.8490 C   0  0  0  0  0  0
  -24.1485  -36.7306   23.2639 C   0  0  0  0  0  0
  -25.9431  -30.8164   21.3675 C   0  0  0  0  0  0
  -26.0223  -29.4459   20.7176 C   0  0  0  0  0  0
  -27.2151  -28.6769   20.7132 C   0  0  0  0  0  0
  -26.0574  -26.9155   19.4985 C   0  0  0  0  0  0
  -24.8734  -27.6788   19.5036 C   0  0  0  0  0  0
  -23.6230  -29.8166   20.1630 C   0  0  0  0  0  0
  -25.4106  -36.3096   24.0334 C   0  0  1  0  0  0
  -20.5878  -28.3678   23.1301 C   0  0  2  0  0  0
  -20.6773  -26.9410   22.5409 C   0  0  0  0  0  0
  -19.5750  -26.6383   21.5209 C   0  0  0  0  0  0
  -18.1929  -26.7921   22.1623 C   0  0  0  0  0  0
  -19.1534  -28.8843   23.2889 C   0  0  0  0  0  0
  -18.9462  -30.1446   23.8906 C   0  0  0  0  0  0
  -17.6463  -30.6584   24.0565 C   0  0  0  0  0  0
  -25.9042  -34.9466   23.5121 C   0  0  0  0  0  0
  -16.5353  -29.9085   23.6324 C   0  0  0  0  0  0
  -16.7271  -28.6498   23.0351 C   0  0  0  0  0  0
  -26.4474  -31.6591   25.0720 C   0  0  0  0  0  0
  -25.3730  -31.3721   26.1467 C   0  0  0  0  0  0
  -27.0312  -30.3028   24.6125 C   0  0  0  0  0  0
  -27.6047  -32.4314   25.7482 C   0  0  0  0  0  0
  -27.5576  -37.1804   24.8463 C   0  0  0  0  0  0
  -21.4164  -29.3034   22.3699 N   0  0  0  0  0  0
  -26.4287  -37.3785   23.9410 N   0  0  0  0  0  0
  -24.6756  -31.0713   22.0985 N   0  0  0  0  0  0
  -23.4185  -28.8202   23.3045 O   0  0  0  0  0  0
  -28.3549  -26.5814   20.0870 O   0  0  0  0  0  0
  -26.5606  -34.8925   22.4685 O   0  0  0  0  0  0
  -23.5369  -32.1421   23.7432 O   0  0  0  0  0  0
  -30.7402  -19.2198   20.6590 C   0  0  0  0  0  0
  -30.8945  -17.8068   20.7355 C   0  0  0  0  0  0
  -28.4967  -17.5833   20.8848 C   0  0  0  0  0  0
  -28.3321  -18.9892   20.7901 C   0  0  0  0  0  0
  -29.4640  -19.8464   20.6838 C   0  0  0  0  0  0
  -29.7663  -16.9603   20.8601 C   0  0  0  0  0  0
  -28.4716  -23.4792   19.7759 C   0  0  0  0  0  0
  -28.8300  -24.1818   20.8773 C   0  0  0  0  0  0
  -29.5926  -23.4445   21.9228 C   0  0  0  0  0  0
  -26.9634  -19.5141   20.8645 C   0  0  0  0  0  0
  -28.7415  -21.9789   19.5283 C   0  0  0  0  0  0
  -30.1849  -22.0591   21.5724 C   0  0  0  0  0  0
  -28.4479  -25.6543   21.1965 C   0  0  0  0  0  0
  -29.3335  -21.2690   20.6772 N   0  0  0  0  0  0
  -29.8077  -15.5270   21.0400 N   0  0  0  0  0  0
  -29.7792  -23.8892   23.0585 O   0  0  0  0  0  0
  -26.5389  -19.9403   21.9331 O   0  0  0  0  0  0
  -26.1929  -19.5076   19.7628 F   0  0  0  0  0  0
  -31.4827  -12.4955   19.1229 H   0  0  0  0  0  0
  -30.3865  -11.3441   19.8356 H   0  0  0  0  0  0
  -29.7553  -11.7745   17.4459 H   0  0  0  0  0  0
  -29.6544  -13.4888   17.7551 H   0  0  0  0  0  0
  -27.8460  -11.3006   18.8285 H   0  0  0  0  0  0
  -27.3726  -12.6164   17.7888 H   0  0  0  0  0  0
  -27.6996  -14.2474   19.5664 H   0  0  0  0  0  0
  -28.7024  -11.9433   21.3130 H   0  0  0  0  0  0
  -28.4523  -13.5608   21.8845 H   0  0  0  0  0  0
  -25.2760   -9.5668   22.4761 H   0  0  0  0  0  0
  -23.9990   -7.4625   22.7465 H   0  0  0  0  0  0
  -21.0831   -8.8782   19.8953 H   0  0  0  0  0  0
  -22.3696  -10.9680   19.6166 H   0  0  0  0  0  0
  -21.2015   -7.6151   23.9724 H   0  0  0  0  0  0
  -21.1465   -6.0517   25.9077 H   0  0  0  0  0  0
  -22.0606   -2.7608   23.2848 H   0  0  0  0  0  0
  -22.4095  -11.9904   22.4812 H   0  0  0  0  0  0
  -21.1118  -13.1286   22.2608 H   0  0  0  0  0  0
  -24.6510  -15.8289   20.4695 H   0  0  0  0  0  0
  -26.2421  -15.5936   19.9536 H   0  0  0  0  0  0
  -26.7144  -32.5511   23.1149 H   0  0  0  0  0  0
  -25.0044  -33.9757   25.0446 H   0  0  0  0  0  0
  -22.7008  -31.3038   21.4044 H   0  0  0  0  0  0
  -23.3737  -35.9649   23.3306 H   0  0  0  0  0  0
  -24.3578  -36.8917   22.2053 H   0  0  0  0  0  0
  -23.7250  -37.6516   23.6654 H   0  0  0  0  0  0
  -26.0610  -31.5793   20.5965 H   0  0  0  0  0  0
  -26.8283  -30.8714   21.9893 H   0  0  0  0  0  0
  -28.1117  -29.0571   21.1828 H   0  0  0  0  0  0
  -26.0553  -25.9421   19.0283 H   0  0  0  0  0  0
  -23.9807  -27.2847   19.0374 H   0  0  0  0  0  0
  -23.7372  -30.5910   19.4036 H   0  0  0  0  0  0
  -22.7448  -29.2406   19.8652 H   0  0  0  0  0  0
  -25.1280  -36.1952   25.0826 H   0  0  0  0  0  0
  -20.9968  -28.3249   24.1423 H   0  0  0  0  0  0
  -20.5677  -26.2293   23.3602 H   0  0  0  0  0  0
  -21.6647  -26.7442   22.1210 H   0  0  0  0  0  0
  -19.6917  -25.6299   21.1228 H   0  0  0  0  0  0
  -19.6685  -27.3202   20.6744 H   0  0  0  0  0  0
  -17.4200  -26.6675   21.4022 H   0  0  0  0  0  0
  -18.0324  -26.0055   22.9012 H   0  0  0  0  0  0
  -19.7941  -30.7252   24.2284 H   0  0  0  0  0  0
  -17.5022  -31.6262   24.5170 H   0  0  0  0  0  0
  -15.5354  -30.2992   23.7639 H   0  0  0  0  0  0
  -15.8673  -28.0813   22.7069 H   0  0  0  0  0  0
  -24.5886  -30.7086   25.7805 H   0  0  0  0  0  0
  -24.8944  -32.2891   26.4917 H   0  0  0  0  0  0
  -25.8071  -30.8881   27.0224 H   0  0  0  0  0  0
  -26.2874  -29.6782   24.1163 H   0  0  0  0  0  0
  -27.4056  -29.7271   25.4599 H   0  0  0  0  0  0
  -27.8718  -30.4336   23.9304 H   0  0  0  0  0  0
  -27.2660  -33.3598   26.2094 H   0  0  0  0  0  0
  -28.3836  -32.6902   25.0297 H   0  0  0  0  0  0
  -28.0738  -31.8420   26.5368 H   0  0  0  0  0  0
  -28.2596  -38.0098   24.7502 H   0  0  0  0  0  0
  -28.1067  -36.2630   24.6284 H   0  0  0  0  0  0
  -27.2299  -37.1449   25.8867 H   0  0  0  0  0  0
  -20.9340  -29.8738   21.6895 H   0  0  0  0  0  0
  -26.0168  -38.2859   24.1411 H   0  0  0  0  0  0
  -31.6303  -19.8278   20.5872 H   0  0  0  0  0  0
  -31.8909  -17.3888   20.7299 H   0  0  0  0  0  0
  -27.6104  -16.9760   20.9955 H   0  0  0  0  0  0
  -27.9082  -23.9842   19.0039 H   0  0  0  0  0  0
  -29.4020  -21.8836   18.6647 H   0  0  0  0  0  0
  -27.7969  -21.5168   19.2423 H   0  0  0  0  0  0
  -30.3583  -21.5085   22.4982 H   0  0  0  0  0  0
  -31.1576  -22.2126   21.1048 H   0  0  0  0  0  0
  -29.1917  -26.0814   21.8704 H   0  0  0  0  0  0
  -27.5163  -25.6248   21.7657 H   0  0  0  0  0  0
  -28.9436  -15.1308   21.3762 H   0  0  0  0  0  0
  1 25  1  0  0  0
  1 30  2  0  0  0
  1 85  1  0  0  0
  2  3  1  0  0  0
  2 25  1  0  0  0
  2 89  1  0  0  0
  2 90  1  0  0  0
  3  4  1  0  0  0
  3 91  1  0  0  0
  3 92  1  0  0  0
  4  5  1  0  0  0
  4 93  1  0  0  0
  4 94  1  0  0  0
  5  6  1  0  0  0
  5 26  1  0  0  0
  5 95  1  0  0  0
  6 25  1  0  0  0
  6 96  1  0  0  0
  6 97  1  0  0  0
  7  8  2  0  0  0
  7 26  1  0  0  0
  7 29  1  0  0  0
  8  9  1  0  0  0
  8 22  1  0  0  0
  9 10  1  0  0  0
  9 27  2  0  0  0
 10 11  2  0  0  0
 10 15  1  0  0  0
 11 12  1  0  0  0
 11 98  1  0  0  0
 12 13  2  0  0  0
 12 99  1  0  0  0
 13 14  1  0  0  0
 13 31  1  0  0  0
 14 15  2  0  0  0
 14100  1  0  0  0
 15101  1  0  0  0
 16 17  2  0  0  0
 16 21  1  0  0  0
 16 31  1  0  0  0
 17 18  1  0  0  0
 17102  1  0  0  0
 18 19  2  0  0  0
 18103  1  0  0  0
 19 20  1  0  0  0
 19 24  1  0  0  0
 20 21  2  0  0  0
 20104  1  0  0  0
 21 23  1  0  0  0
 22 28  1  0  0  0
 22 32  2  0  0  0
 26 27  1  0  0  0
 28105  1  0  0  0
 28106  1  0  0  0
 29107  1  0  0  0
 29108  1  0  0  0
 33 34  1  0  0  0
 33 66  1  0  0  0
 33 70  2  0  0  0
 34 36  1  0  0  0
 34 59  1  0  0  0
 34109  1  0  0  0
 35 44  2  0  0  0
 35 45  1  0  0  0
 35 68  1  0  0  0
 36 56  1  0  0  0
 36110  1  0  0  0
 37 39  1  0  0  0
 37 47  1  0  0  0
 37 66  1  0  0  0
 37111  1  0  0  0
 38 43  2  0  0  0
 38 46  1  0  0  0
 38 47  1  0  0  0
 39 64  1  0  0  0
 39 67  2  0  0  0
 40 52  1  0  0  0
 40 53  2  0  0  0
 40 58  1  0  0  0
 41112  1  0  0  0
 41113  1  0  0  0
 41114  1  0  0  0
 41 48  1  0  0  0
 42 43  1  0  0  0
 42 66  1  0  0  0
 42115  1  0  0  0
 42116  1  0  0  0
 43 44  1  0  0  0
 44117  1  0  0  0
 45 46  2  0  0  0
 45118  1  0  0  0
 46119  1  0  0  0
 47120  1  0  0  0
 47121  1  0  0  0
 48 56  1  0  0  0
 48 65  1  0  0  0
 48122  1  0  0  0
 49 50  1  0  0  0
 49 53  1  0  0  0
 49 64  1  0  0  0
 49123  1  0  0  0
 50 51  1  0  0  0
 50124  1  0  0  0
 50125  1  0  0  0
 51 52  1  0  0  0
 51126  1  0  0  0
 51127  1  0  0  0
 52128  1  0  0  0
 52129  1  0  0  0
 53 54  1  0  0  0
 54 55  2  0  0  0
 54130  1  0  0  0
 55 57  1  0  0  0
 55131  1  0  0  0
 56 69  2  0  0  0
 57 58  2  0  0  0
 57132  1  0  0  0
 58133  1  0  0  0
 59 60  1  0  0  0
 59 61  1  0  0  0
 59 62  1  0  0  0
 60134  1  0  0  0
 60135  1  0  0  0
 60136  1  0  0  0
 61137  1  0  0  0
 61138  1  0  0  0
 61139  1  0  0  0
 62140  1  0  0  0
 62141  1  0  0  0
 62142  1  0  0  0
 63 65  1  0  0  0
 63143  1  0  0  0
 63144  1  0  0  0
 63145  1  0  0  0
 64146  1  0  0  0
 65147  1  0  0  0
 68 83  1  0  0  0
 71 72  2  0  0  0
 71 75  1  0  0  0
 71148  1  0  0  0
 72 76  1  0  0  0
 72149  1  0  0  0
 73 74  1  0  0  0
 73 76  2  0  0  0
 73150  1  0  0  0
 74 75  2  0  0  0
 74 80  1  0  0  0
 75 84  1  0  0  0
 76 85  1  0  0  0
 77 78  2  0  0  0
 77 81  1  0  0  0
 77151  1  0  0  0
 78 79  1  0  0  0
 78 83  1  0  0  0
 79 82  1  0  0  0
 79 86  2  0  0  0
 80 87  2  0  0  0
 80 88  1  0  0  0
 81 84  1  0  0  0
 81152  1  0  0  0
 81153  1  0  0  0
 82 84  1  0  0  0
 82154  1  0  0  0
 82155  1  0  0  0
 83156  1  0  0  0
 83157  1  0  0  0
 85158  1  0  0  0
M  ISO  4   1 100  68 101  83 101  85 100
M  END
> <chiral flag>
0

> <version>
0

> <s_m_source_file>
/data/baiqing/PycharmProjects/Reinvent-master-3.2/result/LINK_invent/BTK/process_docking_weight1_custom_product_contain_oxygen_bond_distance_aromatic_linkinvent_7_9_3/rearranged_h_0081.sdf

> <i_m_source_file_index>
10

> <r_mmod_Potential_Energy-OPLS-2005>
41.6221046447754

> <r_mmod_Stretch_Energy-OPLS-2005>
53.251823425293

> <r_mmod_Bend_Energy-OPLS-2005>
121.860343933105

> <r_mmod_Torsional_Energy-OPLS-2005>
243.234756469727

> <r_mmod_Improper_Torsional_Energy-OPLS-2005>
6.25198984146118

> <r_mmod_Van_der_Waal_Energy-OPLS-2005>
147.403686523438

> <r_mmod_Electrostatic_Energy-OPLS-2005>
-337.541320800781

> <r_mmod_Solvation_Energy-OPLS-2005>
-217.675003051758

> <b_mmod_Minimization_Converged-OPLS-2005>
0

> <r_mmod_RMS_Derivative-OPLS-2005>
1.02092802524567

$$$$
10
                    3D
 Structure written by MMmdl.
155163  0  0  1  0            999 V2000
  -30.7104  -14.5081   20.5886 C   0  0  0  0  0  0
  -30.4335  -12.3368   19.4254 C   0  0  0  0  0  0
  -29.5035  -12.5064   18.2063 C   0  0  0  0  0  0
  -28.0240  -12.3636   18.6151 C   0  0  0  0  0  0
  -27.6608  -13.2105   19.8639 C   0  0  2  0  0  0
  -28.7042  -13.0186   20.9863 C   0  0  0  0  0  0
  -25.2594  -13.8143   20.5678 C   0  0  0  0  0  0
  -24.1825  -13.0429   20.9159 C   0  0  0  0  0  0
  -24.6362  -11.6889   20.8687 C   0  0  0  0  0  0
  -23.9015  -10.4291   21.0374 C   0  0  0  0  0  0
  -24.3576   -9.4222   21.9162 C   0  0  0  0  0  0
  -23.6269   -8.2244   22.0735 C   0  0  0  0  0  0
  -22.4254   -8.0253   21.3531 C   0  0  0  0  0  0
  -21.9876   -9.0228   20.4633 C   0  0  0  0  0  0
  -22.7177  -10.2125   20.3036 C   0  0  0  0  0  0
  -21.6861   -6.0694   22.5265 C   0  0  0  0  0  0
  -21.4026   -6.5613   23.8185 C   0  0  0  0  0  0
  -21.3667   -5.6773   24.9151 C   0  0  0  0  0  0
  -21.6051   -4.3036   24.7207 C   0  0  0  0  0  0
  -21.8828   -3.8110   23.4339 C   0  0  0  0  0  0
  -21.9203   -4.6924   22.3392 C   0  0  0  0  0  0
  -22.7850  -13.5236   21.1815 C   0  0  0  0  0  0
  -22.1672   -4.2120   21.0961 F   0  0  0  0  0  0
  -21.5636   -3.4511   25.7718 F   0  0  0  0  0  0
  -30.0326  -13.3349   20.4318 N   0  0  0  0  0  0
  -26.3020  -12.9316   20.3281 N   0  0  0  0  0  0
  -25.9298  -11.6485   20.5702 N   0  0  0  0  0  0
  -22.0473  -12.8267   22.0390 N   0  0  0  0  0  0
  -25.4319  -15.1875   20.4173 N   0  0  0  0  0  0
  -31.8544  -14.6732   20.1550 O   0  0  0  0  0  0
  -21.6624   -6.8845   21.4227 O   0  0  0  0  0  0
  -22.3550  -14.5532   20.6621 O   0  0  0  0  0  0
  -24.6199  -31.8631   23.2061 C   0  0  0  0  0  0
  -25.9057  -32.4812   23.8377 C   0  0  1  0  0  0
  -27.2262  -27.3846   20.1243 C   0  0  0  0  0  0
  -25.5908  -33.8615   24.2323 N   0  0  0  0  0  0
  -23.4136  -30.4880   21.5446 C   0  0  2  0  0  0
  -24.8638  -28.9567   20.1066 C   0  0  0  0  0  0
  -22.7468  -29.4637   22.4932 C   0  0  0  0  0  0
  -18.0281  -28.1387   22.8493 C   0  0  0  0  0  0
  -24.1498  -36.7317   23.2629 C   0  0  0  0  0  0
  -25.9471  -30.8185   21.3666 C   0  0  0  0  0  0
  -26.0267  -29.4503   20.7139 C   0  0  0  0  0  0
  -27.2157  -28.6738   20.7176 C   0  0  0  0  0  0
  -26.0540  -26.9343   19.4769 C   0  0  0  0  0  0
  -24.8743  -27.7011   19.4767 C   0  0  0  0  0  0
  -23.6263  -29.8237   20.1584 C   0  0  0  0  0  0
  -25.4108  -36.3110   24.0341 C   0  0  1  0  0  0
  -20.5887  -28.3694   23.1298 C   0  0  2  0  0  0
  -20.6780  -26.9422   22.5413 C   0  0  0  0  0  0
  -19.5757  -26.6390   21.5210 C   0  0  0  0  0  0
  -18.1935  -26.7928   22.1626 C   0  0  0  0  0  0
  -19.1537  -28.8851   23.2907 C   0  0  0  0  0  0
  -18.9455  -30.1450   23.8929 C   0  0  0  0  0  0
  -17.6455  -30.6593   24.0571 C   0  0  0  0  0  0
  -25.9044  -34.9472   23.5132 C   0  0  0  0  0  0
  -16.5346  -29.9095   23.6330 C   0  0  0  0  0  0
  -16.7271  -28.6512   23.0361 C   0  0  0  0  0  0
  -26.4472  -31.6601   25.0707 C   0  0  0  0  0  0
  -25.3731  -31.3707   26.1454 C   0  0  0  0  0  0
  -27.0279  -30.3023   24.6104 C   0  0  0  0  0  0
  -27.6081  -32.4290   25.7464 C   0  0  0  0  0  0
  -27.5585  -37.1815   24.8454 C   0  0  0  0  0  0
  -21.4176  -29.3049   22.3694 N   0  0  0  0  0  0
  -26.4290  -37.3789   23.9408 N   0  0  0  0  0  0
  -24.6781  -31.0715   22.0970 N   0  0  0  0  0  0
  -23.4208  -28.8149   23.2981 O   0  0  0  0  0  0
  -28.3113  -26.5201   20.1690 O   0  0  0  0  0  0
  -26.5607  -34.8910   22.4688 O   0  0  0  0  0  0
  -23.5367  -32.1410   23.7419 O   0  0  0  0  0  0
  -31.7839  -18.3641   22.7946 C   0  0  0  0  0  0
  -31.2128  -19.4921   22.1670 C   0  0  0  0  0  0
  -31.4071  -17.0600   22.4137 C   0  0  0  0  0  0
  -29.8734  -18.0039   20.7728 C   0  0  0  0  0  0
  -30.2553  -19.3287   21.1403 C   0  0  0  0  0  0
  -30.4456  -16.8635   21.3987 C   0  0  0  0  0  0
  -29.6896  -20.5302   20.4073 C   0  0  0  0  0  0
  -29.0604  -24.1336   20.6039 C   0  0  0  0  0  0
  -28.1937  -25.3971   21.0016 C   0  0  0  0  0  0
  -27.3617  -22.3950   19.6737 C   0  0  0  0  0  0
  -28.3818  -22.7246   20.7867 C   0  0  1  0  0  0
  -29.9879  -15.5413   21.0789 N   0  0  0  0  0  0
  -29.2628  -21.5718   21.1551 N   0  0  0  0  0  0
  -29.5687  -20.4842   19.1824 O   0  0  0  0  0  0
  -30.2109  -24.2730   20.1719 O   0  0  0  0  0  0
  -27.4094  -25.3241   21.9583 O   0  0  0  0  0  0
  -31.4766  -12.4482   19.1206 H   0  0  0  0  0  0
  -30.3529  -11.3299   19.8360 H   0  0  0  0  0  0
  -29.7519  -11.7672   17.4417 H   0  0  0  0  0  0
  -29.6712  -13.4838   17.7495 H   0  0  0  0  0  0
  -27.8433  -11.3068   18.8156 H   0  0  0  0  0  0
  -27.3728  -12.6307   17.7821 H   0  0  0  0  0  0
  -27.6968  -14.2536   19.5465 H   0  0  0  0  0  0
  -28.6889  -11.9856   21.3383 H   0  0  0  0  0  0
  -28.4616  -13.6303   21.8566 H   0  0  0  0  0  0
  -25.2738   -9.5718   22.4717 H   0  0  0  0  0  0
  -23.9988   -7.4648   22.7458 H   0  0  0  0  0  0
  -21.0788   -8.8712   19.8960 H   0  0  0  0  0  0
  -22.3600  -10.9636   19.6122 H   0  0  0  0  0  0
  -21.2016   -7.6119   23.9694 H   0  0  0  0  0  0
  -21.1490   -6.0485   25.9062 H   0  0  0  0  0  0
  -22.0608   -2.7573   23.2820 H   0  0  0  0  0  0
  -22.4084  -11.9980   22.4881 H   0  0  0  0  0  0
  -21.1081  -13.1295   22.2520 H   0  0  0  0  0  0
  -24.6636  -15.8393   20.5438 H   0  0  0  0  0  0
  -26.2810  -15.6383   20.1005 H   0  0  0  0  0  0
  -26.7132  -32.5499   23.1144 H   0  0  0  0  0  0
  -25.0072  -33.9774   25.0478 H   0  0  0  0  0  0
  -22.7038  -31.3047   21.4028 H   0  0  0  0  0  0
  -23.3766  -35.9645   23.3277 H   0  0  0  0  0  0
  -24.3588  -36.8921   22.2039 H   0  0  0  0  0  0
  -23.7244  -37.6513   23.6644 H   0  0  0  0  0  0
  -26.0645  -31.5840   20.6003 H   0  0  0  0  0  0
  -26.8317  -30.8761   21.9883 H   0  0  0  0  0  0
  -28.1058  -29.0387   21.2095 H   0  0  0  0  0  0
  -26.0432  -25.9687   18.9928 H   0  0  0  0  0  0
  -23.9836  -27.3191   18.9951 H   0  0  0  0  0  0
  -23.7373  -30.5994   19.3998 H   0  0  0  0  0  0
  -22.7509  -29.2425   19.8640 H   0  0  0  0  0  0
  -25.1287  -36.1968   25.0837 H   0  0  0  0  0  0
  -21.0010  -28.3255   24.1403 H   0  0  0  0  0  0
  -20.5675  -26.2304   23.3609 H   0  0  0  0  0  0
  -21.6650  -26.7440   22.1205 H   0  0  0  0  0  0
  -19.6926  -25.6299   21.1236 H   0  0  0  0  0  0
  -19.6686  -27.3215   20.6751 H   0  0  0  0  0  0
  -17.4206  -26.6681   21.4029 H   0  0  0  0  0  0
  -18.0334  -26.0057   22.9013 H   0  0  0  0  0  0
  -19.7925  -30.7271   24.2323 H   0  0  0  0  0  0
  -17.5003  -31.6276   24.5173 H   0  0  0  0  0  0
  -15.5358  -30.3018   23.7632 H   0  0  0  0  0  0
  -15.8665  -28.0847   22.7069 H   0  0  0  0  0  0
  -24.5955  -30.6996   25.7786 H   0  0  0  0  0  0
  -24.8868  -32.2851   26.4860 H   0  0  0  0  0  0
  -25.8082  -30.8910   27.0239 H   0  0  0  0  0  0
  -26.2815  -29.6816   24.1133 H   0  0  0  0  0  0
  -27.3985  -29.7226   25.4576 H   0  0  0  0  0  0
  -27.8694  -30.4308   23.9294 H   0  0  0  0  0  0
  -27.2760  -33.3597   26.2084 H   0  0  0  0  0  0
  -28.3887  -32.6834   25.0280 H   0  0  0  0  0  0
  -28.0782  -31.8375   26.5338 H   0  0  0  0  0  0
  -28.2618  -38.0113   24.7529 H   0  0  0  0  0  0
  -28.1087  -36.2647   24.6267 H   0  0  0  0  0  0
  -27.2305  -37.1425   25.8860 H   0  0  0  0  0  0
  -20.9342  -29.8786   21.6930 H   0  0  0  0  0  0
  -26.0189  -38.2866   24.1412 H   0  0  0  0  0  0
  -32.5196  -18.5004   23.5766 H   0  0  0  0  0  0
  -31.5311  -20.4822   22.4670 H   0  0  0  0  0  0
  -31.8524  -16.2179   22.9235 H   0  0  0  0  0  0
  -29.1373  -17.8703   19.9928 H   0  0  0  0  0  0
  -26.6018  -23.1711   19.5890 H   0  0  0  0  0  0
  -26.8396  -21.4582   19.8694 H   0  0  0  0  0  0
  -27.8428  -22.3126   18.6987 H   0  0  0  0  0  0
  -27.7730  -22.8100   21.6864 H   0  0  0  0  0  0
  -29.0092  -15.3526   21.2258 H   0  0  0  0  0  0
  -29.4594  -21.4849   22.1427 H   0  0  0  0  0  0
  1 25  1  0  0  0
  1 30  2  0  0  0
  1 82  1  0  0  0
  2  3  1  0  0  0
  2 25  1  0  0  0
  2 87  1  0  0  0
  2 88  1  0  0  0
  3  4  1  0  0  0
  3 89  1  0  0  0
  3 90  1  0  0  0
  4  5  1  0  0  0
  4 91  1  0  0  0
  4 92  1  0  0  0
  5  6  1  0  0  0
  5 26  1  0  0  0
  5 93  1  0  0  0
  6 25  1  0  0  0
  6 94  1  0  0  0
  6 95  1  0  0  0
  7  8  2  0  0  0
  7 26  1  0  0  0
  7 29  1  0  0  0
  8  9  1  0  0  0
  8 22  1  0  0  0
  9 10  1  0  0  0
  9 27  2  0  0  0
 10 11  2  0  0  0
 10 15  1  0  0  0
 11 12  1  0  0  0
 11 96  1  0  0  0
 12 13  2  0  0  0
 12 97  1  0  0  0
 13 14  1  0  0  0
 13 31  1  0  0  0
 14 15  2  0  0  0
 14 98  1  0  0  0
 15 99  1  0  0  0
 16 17  2  0  0  0
 16 21  1  0  0  0
 16 31  1  0  0  0
 17 18  1  0  0  0
 17100  1  0  0  0
 18 19  2  0  0  0
 18101  1  0  0  0
 19 20  1  0  0  0
 19 24  1  0  0  0
 20 21  2  0  0  0
 20102  1  0  0  0
 21 23  1  0  0  0
 22 28  1  0  0  0
 22 32  2  0  0  0
 26 27  1  0  0  0
 28103  1  0  0  0
 28104  1  0  0  0
 29105  1  0  0  0
 29106  1  0  0  0
 33 34  1  0  0  0
 33 66  1  0  0  0
 33 70  2  0  0  0
 34 36  1  0  0  0
 34 59  1  0  0  0
 34107  1  0  0  0
 35 44  2  0  0  0
 35 45  1  0  0  0
 35 68  1  0  0  0
 36 56  1  0  0  0
 36108  1  0  0  0
 37 39  1  0  0  0
 37 47  1  0  0  0
 37 66  1  0  0  0
 37109  1  0  0  0
 38 43  2  0  0  0
 38 46  1  0  0  0
 38 47  1  0  0  0
 39 64  1  0  0  0
 39 67  2  0  0  0
 40 52  1  0  0  0
 40 53  2  0  0  0
 40 58  1  0  0  0
 41110  1  0  0  0
 41111  1  0  0  0
 41112  1  0  0  0
 41 48  1  0  0  0
 42 43  1  0  0  0
 42 66  1  0  0  0
 42113  1  0  0  0
 42114  1  0  0  0
 43 44  1  0  0  0
 44115  1  0  0  0
 45 46  2  0  0  0
 45116  1  0  0  0
 46117  1  0  0  0
 47118  1  0  0  0
 47119  1  0  0  0
 48 56  1  0  0  0
 48 65  1  0  0  0
 48120  1  0  0  0
 49 50  1  0  0  0
 49 53  1  0  0  0
 49 64  1  0  0  0
 49121  1  0  0  0
 50 51  1  0  0  0
 50122  1  0  0  0
 50123  1  0  0  0
 51 52  1  0  0  0
 51124  1  0  0  0
 51125  1  0  0  0
 52126  1  0  0  0
 52127  1  0  0  0
 53 54  1  0  0  0
 54 55  2  0  0  0
 54128  1  0  0  0
 55 57  1  0  0  0
 55129  1  0  0  0
 56 69  2  0  0  0
 57 58  2  0  0  0
 57130  1  0  0  0
 58131  1  0  0  0
 59 60  1  0  0  0
 59 61  1  0  0  0
 59 62  1  0  0  0
 60132  1  0  0  0
 60133  1  0  0  0
 60134  1  0  0  0
 61135  1  0  0  0
 61136  1  0  0  0
 61137  1  0  0  0
 62138  1  0  0  0
 62139  1  0  0  0
 62140  1  0  0  0
 63 65  1  0  0  0
 63141  1  0  0  0
 63142  1  0  0  0
 63143  1  0  0  0
 64144  1  0  0  0
 65145  1  0  0  0
 68 79  1  0  0  0
 71 72  2  0  0  0
 71 73  1  0  0  0
 71146  1  0  0  0
 72 75  1  0  0  0
 72147  1  0  0  0
 73 76  2  0  0  0
 73148  1  0  0  0
 74 75  2  0  0  0
 74 76  1  0  0  0
 74149  1  0  0  0
 75 77  1  0  0  0
 76 82  1  0  0  0
 77 83  1  0  0  0
 77 84  2  0  0  0
 78 79  1  0  0  0
 78 81  1  0  0  0
 78 85  2  0  0  0
 79 86  2  0  0  0
 80150  1  0  0  0
 80151  1  0  0  0
 80152  1  0  0  0
 80 81  1  0  0  0
 81 83  1  0  0  0
 81153  1  0  0  0
 82154  1  0  0  0
 83155  1  0  0  0
M  ISO  4   1 100  68 101  79 101  82 100
M  END
> <chiral flag>
0

> <version>
0

> <s_m_source_file>
/data/baiqing/PycharmProjects/Reinvent-master-3.2/result/LINK_invent/BTK/process_docking_weight1_custom_product_contain_oxygen_bond_distance_aromatic_linkinvent_7_9_3/rearranged_h_0081.sdf

> <i_m_source_file_index>
11

> <r_mmod_Potential_Energy-OPLS-2005>
10.5706300735474

> <r_mmod_Stretch_Energy-OPLS-2005>
55.3164291381836

> <r_mmod_Bend_Energy-OPLS-2005>
112.150039672852

> <r_mmod_Torsional_Energy-OPLS-2005>
260.572784423828

> <r_mmod_Improper_Torsional_Energy-OPLS-2005>
5.2802357673645

> <r_mmod_Van_der_Waal_Energy-OPLS-2005>
145.136688232422

> <r_mmod_Electrostatic_Energy-OPLS-2005>
-335.655517578125

> <r_mmod_Solvation_Energy-OPLS-2005>
-257.829833984375

> <b_mmod_Minimization_Converged-OPLS-2005>
0

> <r_mmod_RMS_Derivative-OPLS-2005>
3.73711276054382

$$$$
11
                    3D
 Structure written by MMmdl.
151159  0  0  1  0            999 V2000
  -30.6906  -14.5436   20.5184 C   0  0  0  0  0  0
  -30.4169  -12.3364   19.4421 C   0  0  0  0  0  0
  -29.4948  -12.4932   18.2154 C   0  0  0  0  0  0
  -28.0179  -12.3464   18.6291 C   0  0  0  0  0  0
  -27.6522  -13.2143   19.8630 C   0  0  2  0  0  0
  -28.6954  -13.0591   20.9924 C   0  0  0  0  0  0
  -25.2560  -13.8180   20.5685 C   0  0  0  0  0  0
  -24.1831  -13.0443   20.9204 C   0  0  0  0  0  0
  -24.6393  -11.6912   20.8751 C   0  0  0  0  0  0
  -23.9061  -10.4295   21.0414 C   0  0  0  0  0  0
  -24.3615   -9.4208   21.9189 C   0  0  0  0  0  0
  -23.6294   -8.2241   22.0755 C   0  0  0  0  0  0
  -22.4277   -8.0279   21.3543 C   0  0  0  0  0  0
  -21.9910   -9.0253   20.4647 C   0  0  0  0  0  0
  -22.7234  -10.2136   20.3061 C   0  0  0  0  0  0
  -21.6850   -6.0740   22.5282 C   0  0  0  0  0  0
  -21.4011   -6.5645   23.8216 C   0  0  0  0  0  0
  -21.3658   -5.6796   24.9177 C   0  0  0  0  0  0
  -21.6042   -4.3059   24.7226 C   0  0  0  0  0  0
  -21.8818   -3.8153   23.4348 C   0  0  0  0  0  0
  -21.9194   -4.6969   22.3405 C   0  0  0  0  0  0
  -22.7854  -13.5236   21.1859 C   0  0  0  0  0  0
  -22.1668   -4.2157   21.0983 F   0  0  0  0  0  0
  -21.5624   -3.4542   25.7739 F   0  0  0  0  0  0
  -30.0174  -13.3598   20.4248 N   0  0  0  0  0  0
  -26.2982  -12.9356   20.3322 N   0  0  0  0  0  0
  -25.9318  -11.6510   20.5765 N   0  0  0  0  0  0
  -22.0494  -12.8225   22.0410 N   0  0  0  0  0  0
  -25.4269  -15.1898   20.4069 N   0  0  0  0  0  0
  -31.8622  -14.6296   20.1391 O   0  0  0  0  0  0
  -21.6636   -6.8881   21.4243 O   0  0  0  0  0  0
  -22.3542  -14.5542   20.6706 O   0  0  0  0  0  0
  -24.6187  -31.8658   23.2076 C   0  0  0  0  0  0
  -25.9066  -32.4811   23.8389 C   0  0  1  0  0  0
  -27.2264  -27.3991   20.1074 C   0  0  0  0  0  0
  -25.5906  -33.8612   24.2318 N   0  0  0  0  0  0
  -23.4089  -30.4896   21.5483 C   0  0  2  0  0  0
  -24.8568  -28.9541   20.1112 C   0  0  0  0  0  0
  -22.7431  -29.4658   22.4970 C   0  0  0  0  0  0
  -18.0290  -28.1364   22.8494 C   0  0  0  0  0  0
  -24.1487  -36.7311   23.2639 C   0  0  0  0  0  0
  -25.9423  -30.8215   21.3664 C   0  0  0  0  0  0
  -26.0205  -29.4544   20.7113 C   0  0  0  0  0  0
  -27.2130  -28.6854   20.7044 C   0  0  0  0  0  0
  -26.0483  -26.9276   19.4913 C   0  0  0  0  0  0
  -24.8673  -27.6919   19.4945 C   0  0  0  0  0  0
  -23.6195  -29.8234   20.1629 C   0  0  0  0  0  0
  -25.4108  -36.3108   24.0337 C   0  0  1  0  0  0
  -20.5882  -28.3669   23.1306 C   0  0  2  0  0  0
  -20.6785  -26.9407   22.5396 C   0  0  0  0  0  0
  -19.5752  -26.6388   21.5205 C   0  0  0  0  0  0
  -18.1937  -26.7911   22.1627 C   0  0  0  0  0  0
  -19.1536  -28.8828   23.2902 C   0  0  0  0  0  0
  -18.9459  -30.1434   23.8909 C   0  0  0  0  0  0
  -17.6460  -30.6569   24.0561 C   0  0  0  0  0  0
  -25.9037  -34.9473   23.5123 C   0  0  0  0  0  0
  -16.5356  -29.9069   23.6320 C   0  0  0  0  0  0
  -16.7279  -28.6483   23.0351 C   0  0  0  0  0  0
  -26.4476  -31.6597   25.0728 C   0  0  0  0  0  0
  -25.3734  -31.3705   26.1467 C   0  0  0  0  0  0
  -27.0312  -30.3037   24.6121 C   0  0  0  0  0  0
  -27.6052  -32.4316   25.7488 C   0  0  0  0  0  0
  -27.5580  -37.1812   24.8466 C   0  0  0  0  0  0
  -21.4151  -29.3058   22.3722 N   0  0  0  0  0  0
  -26.4295  -37.3792   23.9407 N   0  0  0  0  0  0
  -24.6749  -31.0737   22.0988 N   0  0  0  0  0  0
  -23.4189  -28.8195   23.3022 O   0  0  0  0  0  0
  -28.3369  -26.5726   20.1332 O   0  0  0  0  0  0
  -26.5602  -34.8928   22.4687 O   0  0  0  0  0  0
  -23.5369  -32.1422   23.7451 O   0  0  0  0  0  0
  -27.0654  -18.7001   21.9071 C   0  0  0  0  0  0
  -28.0272  -17.6939   21.6921 C   0  0  0  0  0  0
  -27.3270  -20.0358   21.5454 C   0  0  0  0  0  0
  -29.5146  -19.3702   20.7285 C   0  0  0  0  0  0
  -29.2664  -18.0069   21.0890 C   0  0  0  0  0  0
  -28.5641  -20.4059   20.9649 C   0  0  0  0  0  0
  -28.6670  -24.1499   20.3628 C   0  0  0  0  0  0
  -28.1433  -25.3442   20.7531 C   0  0  0  0  0  0
  -30.3327  -16.9379   20.8849 C   0  0  0  0  0  0
  -28.3471  -22.9206   21.1087 C   0  0  0  0  0  0
  -28.8376  -21.7723   20.5683 N   0  0  0  0  0  0
  -29.9434  -15.6322   20.8507 N   0  0  0  0  0  0
  -31.4986  -17.3180   20.7273 O   0  0  0  0  0  0
  -27.7024  -22.9237   22.1618 O   0  0  0  0  0  0
  -31.4619  -12.4232   19.1395 H   0  0  0  0  0  0
  -30.3159  -11.3394   19.8744 H   0  0  0  0  0  0
  -29.7464  -11.7505   17.4566 H   0  0  0  0  0  0
  -29.6521  -13.4695   17.7541 H   0  0  0  0  0  0
  -27.8437  -11.2935   18.8528 H   0  0  0  0  0  0
  -27.3640  -12.5900   17.7911 H   0  0  0  0  0  0
  -27.6762  -14.2508   19.5267 H   0  0  0  0  0  0
  -28.6831  -12.0418   21.3876 H   0  0  0  0  0  0
  -28.4574  -13.7107   21.8346 H   0  0  0  0  0  0
  -25.2757   -9.5686   22.4764 H   0  0  0  0  0  0
  -24.0003   -7.4630   22.7471 H   0  0  0  0  0  0
  -21.0842   -8.8771   19.8950 H   0  0  0  0  0  0
  -22.3692  -10.9677   19.6173 H   0  0  0  0  0  0
  -21.2002   -7.6154   23.9722 H   0  0  0  0  0  0
  -21.1480   -6.0527   25.9080 H   0  0  0  0  0  0
  -22.0597   -2.7617   23.2847 H   0  0  0  0  0  0
  -22.4102  -11.9884   22.4797 H   0  0  0  0  0  0
  -21.1116  -13.1259   22.2612 H   0  0  0  0  0  0
  -24.6498  -15.8352   20.4949 H   0  0  0  0  0  0
  -26.2566  -15.6259   20.0269 H   0  0  0  0  0  0
  -26.7137  -32.5512   23.1154 H   0  0  0  0  0  0
  -25.0056  -33.9766   25.0460 H   0  0  0  0  0  0
  -22.6998  -31.3083   21.4084 H   0  0  0  0  0  0
  -23.3746  -35.9647   23.3308 H   0  0  0  0  0  0
  -24.3580  -36.8918   22.2051 H   0  0  0  0  0  0
  -23.7242  -37.6519   23.6647 H   0  0  0  0  0  0
  -26.0607  -31.5875   20.5989 H   0  0  0  0  0  0
  -26.8271  -30.8734   21.9891 H   0  0  0  0  0  0
  -28.1090  -29.0604   21.1786 H   0  0  0  0  0  0
  -26.0400  -25.9531   19.0239 H   0  0  0  0  0  0
  -23.9740  -27.3014   19.0262 H   0  0  0  0  0  0
  -23.7293  -30.5990   19.4042 H   0  0  0  0  0  0
  -22.7426  -29.2456   19.8659 H   0  0  0  0  0  0
  -25.1287  -36.1972   25.0830 H   0  0  0  0  0  0
  -20.9986  -28.3220   24.1419 H   0  0  0  0  0  0
  -21.6651  -26.7460   22.1169 H   0  0  0  0  0  0
  -20.5709  -26.2266   23.3574 H   0  0  0  0  0  0
  -19.6915  -25.6308   21.1213 H   0  0  0  0  0  0
  -19.6673  -27.3220   20.6751 H   0  0  0  0  0  0
  -17.4205  -26.6655   21.4027 H   0  0  0  0  0  0
  -18.0350  -26.0049   22.9024 H   0  0  0  0  0  0
  -19.7934  -30.7247   24.2283 H   0  0  0  0  0  0
  -17.5012  -31.6255   24.5148 H   0  0  0  0  0  0
  -15.5355  -30.2971   23.7628 H   0  0  0  0  0  0
  -15.8683  -28.0802   22.7060 H   0  0  0  0  0  0
  -24.5909  -30.7053   25.7793 H   0  0  0  0  0  0
  -24.8924  -32.2863   26.4916 H   0  0  0  0  0  0
  -25.8080  -30.8869   27.0225 H   0  0  0  0  0  0
  -26.2865  -29.6797   24.1164 H   0  0  0  0  0  0
  -27.4064  -29.7274   25.4587 H   0  0  0  0  0  0
  -27.8708  -30.4348   23.9290 H   0  0  0  0  0  0
  -27.2672  -33.3606   26.2089 H   0  0  0  0  0  0
  -28.3846  -32.6890   25.0304 H   0  0  0  0  0  0
  -28.0737  -31.8428   26.5383 H   0  0  0  0  0  0
  -28.2609  -38.0099   24.7512 H   0  0  0  0  0  0
  -28.1069  -36.2635   24.6298 H   0  0  0  0  0  0
  -27.2303  -37.1468   25.8871 H   0  0  0  0  0  0
  -20.9311  -29.8783   21.6947 H   0  0  0  0  0  0
  -26.0186  -38.2872   24.1400 H   0  0  0  0  0  0
  -26.1157  -18.4465   22.3583 H   0  0  0  0  0  0
  -27.7968  -16.6842   22.0031 H   0  0  0  0  0  0
  -26.5515  -20.7681   21.7180 H   0  0  0  0  0  0
  -30.4629  -19.6249   20.2760 H   0  0  0  0  0  0
  -29.3102  -24.1080   19.4962 H   0  0  0  0  0  0
  -27.4949  -25.4351   21.6162 H   0  0  0  0  0  0
  -29.4729  -21.8914   19.7914 H   0  0  0  0  0  0
  -28.9720  -15.4603   21.0380 H   0  0  0  0  0  0
  1 25  1  0  0  0
  1 30  2  0  0  0
  1 82  1  0  0  0
  2  3  1  0  0  0
  2 25  1  0  0  0
  2 85  1  0  0  0
  2 86  1  0  0  0
  3  4  1  0  0  0
  3 87  1  0  0  0
  3 88  1  0  0  0
  4  5  1  0  0  0
  4 89  1  0  0  0
  4 90  1  0  0  0
  5  6  1  0  0  0
  5 26  1  0  0  0
  5 91  1  0  0  0
  6 25  1  0  0  0
  6 92  1  0  0  0
  6 93  1  0  0  0
  7  8  2  0  0  0
  7 26  1  0  0  0
  7 29  1  0  0  0
  8  9  1  0  0  0
  8 22  1  0  0  0
  9 10  1  0  0  0
  9 27  2  0  0  0
 10 11  2  0  0  0
 10 15  1  0  0  0
 11 12  1  0  0  0
 11 94  1  0  0  0
 12 13  2  0  0  0
 12 95  1  0  0  0
 13 14  1  0  0  0
 13 31  1  0  0  0
 14 15  2  0  0  0
 14 96  1  0  0  0
 15 97  1  0  0  0
 16 17  2  0  0  0
 16 21  1  0  0  0
 16 31  1  0  0  0
 17 18  1  0  0  0
 17 98  1  0  0  0
 18 19  2  0  0  0
 18 99  1  0  0  0
 19 20  1  0  0  0
 19 24  1  0  0  0
 20 21  2  0  0  0
 20100  1  0  0  0
 21 23  1  0  0  0
 22 28  1  0  0  0
 22 32  2  0  0  0
 26 27  1  0  0  0
 28101  1  0  0  0
 28102  1  0  0  0
 29103  1  0  0  0
 29104  1  0  0  0
 33 34  1  0  0  0
 33 66  1  0  0  0
 33 70  2  0  0  0
 34 36  1  0  0  0
 34 59  1  0  0  0
 34105  1  0  0  0
 35 44  2  0  0  0
 35 45  1  0  0  0
 35 68  1  0  0  0
 36 56  1  0  0  0
 36106  1  0  0  0
 37 39  1  0  0  0
 37 47  1  0  0  0
 37 66  1  0  0  0
 37107  1  0  0  0
 38 43  2  0  0  0
 38 46  1  0  0  0
 38 47  1  0  0  0
 39 64  1  0  0  0
 39 67  2  0  0  0
 40 52  1  0  0  0
 40 53  2  0  0  0
 40 58  1  0  0  0
 41108  1  0  0  0
 41109  1  0  0  0
 41110  1  0  0  0
 41 48  1  0  0  0
 42 43  1  0  0  0
 42 66  1  0  0  0
 42111  1  0  0  0
 42112  1  0  0  0
 43 44  1  0  0  0
 44113  1  0  0  0
 45 46  2  0  0  0
 45114  1  0  0  0
 46115  1  0  0  0
 47116  1  0  0  0
 47117  1  0  0  0
 48 56  1  0  0  0
 48 65  1  0  0  0
 48118  1  0  0  0
 49 50  1  0  0  0
 49 53  1  0  0  0
 49 64  1  0  0  0
 49119  1  0  0  0
 50 51  1  0  0  0
 50120  1  0  0  0
 50121  1  0  0  0
 51 52  1  0  0  0
 51122  1  0  0  0
 51123  1  0  0  0
 52124  1  0  0  0
 52125  1  0  0  0
 53 54  1  0  0  0
 54 55  2  0  0  0
 54126  1  0  0  0
 55 57  1  0  0  0
 55127  1  0  0  0
 56 69  2  0  0  0
 57 58  2  0  0  0
 57128  1  0  0  0
 58129  1  0  0  0
 59 60  1  0  0  0
 59 61  1  0  0  0
 59 62  1  0  0  0
 60130  1  0  0  0
 60131  1  0  0  0
 60132  1  0  0  0
 61133  1  0  0  0
 61134  1  0  0  0
 61135  1  0  0  0
 62136  1  0  0  0
 62137  1  0  0  0
 62138  1  0  0  0
 63 65  1  0  0  0
 63139  1  0  0  0
 63140  1  0  0  0
 63141  1  0  0  0
 64142  1  0  0  0
 65143  1  0  0  0
 68 78  1  0  0  0
 71 72  2  0  0  0
 71 73  1  0  0  0
 71144  1  0  0  0
 72 75  1  0  0  0
 72145  1  0  0  0
 73 76  2  0  0  0
 73146  1  0  0  0
 74 75  2  0  0  0
 74 76  1  0  0  0
 74147  1  0  0  0
 75 79  1  0  0  0
 76 81  1  0  0  0
 77 78  2  0  0  0
 77 80  1  0  0  0
 77148  1  0  0  0
 78149  1  0  0  0
 79 82  1  0  0  0
 79 83  2  0  0  0
 80 81  1  0  0  0
 80 84  2  0  0  0
 81150  1  0  0  0
 82151  1  0  0  0
M  ISO  4   1 100  68 101  78 101  82 100
M  END
> <chiral flag>
0

> <version>
0

> <s_m_source_file>
/data/baiqing/PycharmProjects/Reinvent-master-3.2/result/LINK_invent/BTK/process_docking_weight1_custom_product_contain_oxygen_bond_distance_aromatic_linkinvent_7_9_3/rearranged_h_0081.sdf

> <i_m_source_file_index>
12

> <r_mmod_Potential_Energy-OPLS-2005>
-149.643798828125

> <r_mmod_Stretch_Energy-OPLS-2005>
49.2140274047852

> <r_mmod_Bend_Energy-OPLS-2005>
100.441253662109

> <r_mmod_Torsional_Energy-OPLS-2005>
230.571594238281

> <r_mmod_Improper_Torsional_Energy-OPLS-2005>
5.04714965820312

> <r_mmod_Van_der_Waal_Energy-OPLS-2005>
161.360702514648

> <r_mmod_Electrostatic_Energy-OPLS-2005>
-481.779266357422

> <r_mmod_Solvation_Energy-OPLS-2005>
-240.564544677734

> <b_mmod_Minimization_Converged-OPLS-2005>
0

> <r_mmod_RMS_Derivative-OPLS-2005>
0.726689279079437

$$$$
12
                    3D
 Structure written by MMmdl.
161170  0  0  1  0            999 V2000
  -30.7104  -14.4777   20.5155 C   0  0  0  0  0  0
  -30.4120  -12.2840   19.4578 C   0  0  0  0  0  0
  -29.5082  -12.4933   18.2249 C   0  0  0  0  0  0
  -28.0269  -12.3568   18.6272 C   0  0  0  0  0  0
  -27.6611  -13.2118   19.8721 C   0  0  2  0  0  0
  -28.6948  -13.0227   21.0033 C   0  0  0  0  0  0
  -25.2601  -13.8174   20.5685 C   0  0  0  0  0  0
  -24.1846  -13.0448   20.9148 C   0  0  0  0  0  0
  -24.6387  -11.6906   20.8686 C   0  0  0  0  0  0
  -23.9043  -10.4301   21.0370 C   0  0  0  0  0  0
  -24.3594   -9.4227   21.9160 C   0  0  0  0  0  0
  -23.6279   -8.2258   22.0744 C   0  0  0  0  0  0
  -22.4261   -8.0283   21.3533 C   0  0  0  0  0  0
  -21.9879   -9.0254   20.4638 C   0  0  0  0  0  0
  -22.7204  -10.2135   20.3039 C   0  0  0  0  0  0
  -21.6867   -6.0716   22.5272 C   0  0  0  0  0  0
  -21.4020   -6.5618   23.8204 C   0  0  0  0  0  0
  -21.3668   -5.6772   24.9164 C   0  0  0  0  0  0
  -21.6052   -4.3037   24.7224 C   0  0  0  0  0  0
  -21.8821   -3.8123   23.4348 C   0  0  0  0  0  0
  -21.9200   -4.6942   22.3401 C   0  0  0  0  0  0
  -22.7890  -13.5260   21.1850 C   0  0  0  0  0  0
  -22.1681   -4.2127   21.0982 F   0  0  0  0  0  0
  -21.5616   -3.4520   25.7732 F   0  0  0  0  0  0
  -30.0285  -13.2993   20.4546 N   0  0  0  0  0  0
  -26.3026  -12.9347   20.3326 N   0  0  0  0  0  0
  -25.9325  -11.6500   20.5726 N   0  0  0  0  0  0
  -22.0524  -12.8247   22.0397 N   0  0  0  0  0  0
  -25.4352  -15.1888   20.4172 N   0  0  0  0  0  0
  -31.8651  -14.5724   20.0922 O   0  0  0  0  0  0
  -21.6649   -6.8862   21.4237 O   0  0  0  0  0  0
  -22.3588  -14.5581   20.6734 O   0  0  0  0  0  0
  -24.6142  -31.8672   23.2086 C   0  0  0  0  0  0
  -25.9027  -32.4817   23.8390 C   0  0  1  0  0  0
  -27.2318  -27.4337   20.1050 C   0  0  0  0  0  0
  -25.5872  -33.8611   24.2308 N   0  0  0  0  0  0
  -23.4022  -30.4883   21.5498 C   0  0  2  0  0  0
  -24.8522  -28.9560   20.1112 C   0  0  0  0  0  0
  -22.7402  -29.4642   22.5000 C   0  0  0  0  0  0
  -18.0270  -28.1351   22.8486 C   0  0  0  0  0  0
  -24.1471  -36.7307   23.2643 C   0  0  0  0  0  0
  -25.9319  -30.8330   21.3627 C   0  0  0  0  0  0
  -26.0114  -29.4679   20.7096 C   0  0  0  0  0  0
  -27.2081  -28.7145   20.7039 C   0  0  0  0  0  0
  -26.0602  -26.9346   19.5022 C   0  0  0  0  0  0
  -24.8717  -27.6889   19.5013 C   0  0  0  0  0  0
  -23.6094  -29.8172   20.1653 C   0  0  0  0  0  0
  -25.4091  -36.3090   24.0335 C   0  0  1  0  0  0
  -20.5850  -28.3629   23.1322 C   0  0  2  0  0  0
  -20.6757  -26.9368   22.5422 C   0  0  0  0  0  0
  -19.5749  -26.6360   21.5203 C   0  0  0  0  0  0
  -18.1922  -26.7894   22.1614 C   0  0  0  0  0  0
  -19.1518  -28.8806   23.2899 C   0  0  0  0  0  0
  -18.9455  -30.1405   23.8916 C   0  0  0  0  0  0
  -17.6459  -30.6552   24.0559 C   0  0  0  0  0  0
  -25.9024  -34.9463   23.5122 C   0  0  0  0  0  0
  -16.5344  -29.9065   23.6317 C   0  0  0  0  0  0
  -16.7259  -28.6479   23.0349 C   0  0  0  0  0  0
  -26.4454  -31.6610   25.0724 C   0  0  0  0  0  0
  -25.3728  -31.3741   26.1482 C   0  0  0  0  0  0
  -27.0293  -30.3046   24.6121 C   0  0  0  0  0  0
  -27.6023  -32.4353   25.7468 C   0  0  0  0  0  0
  -27.5573  -37.1785   24.8450 C   0  0  0  0  0  0
  -21.4134  -29.2989   22.3729 N   0  0  0  0  0  0
  -26.4268  -37.3787   23.9421 N   0  0  0  0  0  0
  -24.6673  -31.0772   22.0985 N   0  0  0  0  0  0
  -23.4180  -28.8206   23.3059 O   0  0  0  0  0  0
  -28.3564  -26.6423   20.1161 O   0  0  0  0  0  0
  -26.5609  -34.8934   22.4687 O   0  0  0  0  0  0
  -23.5335  -32.1413   23.7482 O   0  0  0  0  0  0
  -29.4889  -18.7265   21.6221 C   0  0  0  0  0  0
  -29.2213  -20.1043   21.7916 C   0  0  0  0  0  0
  -29.2416  -20.4186   19.4195 C   0  0  0  0  0  0
  -29.6850  -18.1826   20.3374 C   0  0  0  0  0  0
  -29.5065  -19.0431   19.2208 C   0  0  0  0  0  0
  -29.1094  -21.0045   20.7013 C   0  0  0  0  0  0
  -28.6448  -24.3810   20.9570 C   0  0  0  0  0  0
  -28.6681  -23.3132   21.9257 C   0  0  0  0  0  0
  -30.1406  -16.7813   20.1453 C   0  0  0  0  0  0
  -28.3813  -25.6974   21.1183 C   0  0  0  0  0  0
  -29.9701  -15.6771   20.9162 C   0  0  0  0  0  0
  -28.7202  -17.9933   17.2944 C   0  0  0  0  0  0
  -28.9730  -23.4203   19.8267 C   0  0  0  0  0  0
  -28.9177  -17.5270   15.8685 C   0  0  0  0  0  0
  -27.3511  -17.6815   17.8832 C   0  0  0  0  0  0
  -29.6676  -18.5948   17.9038 N   0  0  0  0  0  0
  -28.8682  -22.4051   20.8890 N   0  0  0  0  0  0
  -28.5702  -23.3024   23.1344 O   0  0  0  0  0  0
  -31.4658  -12.3339   19.1772 H   0  0  0  0  0  0
  -30.2689  -11.2833   19.8712 H   0  0  0  0  0  0
  -29.7535  -11.7657   17.4505 H   0  0  0  0  0  0
  -29.6903  -13.4797   17.7940 H   0  0  0  0  0  0
  -27.8436  -11.3021   18.8378 H   0  0  0  0  0  0
  -27.3830  -12.6178   17.7874 H   0  0  0  0  0  0
  -27.6990  -14.2562   19.5625 H   0  0  0  0  0  0
  -28.6632  -12.0003   21.3814 H   0  0  0  0  0  0
  -28.4620  -13.6557   21.8600 H   0  0  0  0  0  0
  -25.2735   -9.5714   22.4742 H   0  0  0  0  0  0
  -23.9984   -7.4654   22.7473 H   0  0  0  0  0  0
  -21.0794   -8.8779   19.8963 H   0  0  0  0  0  0
  -22.3647  -10.9674   19.6156 H   0  0  0  0  0  0
  -21.2019   -7.6122   23.9700 H   0  0  0  0  0  0
  -21.1492   -6.0500   25.9065 H   0  0  0  0  0  0
  -22.0590   -2.7586   23.2859 H   0  0  0  0  0  0
  -22.4128  -11.9888   22.4765 H   0  0  0  0  0  0
  -21.1168  -13.1323   22.2646 H   0  0  0  0  0  0
  -24.6750  -15.8494   20.5395 H   0  0  0  0  0  0
  -26.3072  -15.6273   20.1503 H   0  0  0  0  0  0
  -26.7098  -32.5527   23.1164 H   0  0  0  0  0  0
  -24.9991  -33.9764   25.0427 H   0  0  0  0  0  0
  -22.6886  -31.3028   21.4096 H   0  0  0  0  0  0
  -23.3731  -35.9638   23.3288 H   0  0  0  0  0  0
  -24.3577  -36.8942   22.2061 H   0  0  0  0  0  0
  -23.7232  -37.6507   23.6677 H   0  0  0  0  0  0
  -26.0479  -31.6000   20.5948 H   0  0  0  0  0  0
  -26.8192  -30.8844   21.9828 H   0  0  0  0  0  0
  -28.1043  -29.1015   21.1683 H   0  0  0  0  0  0
  -26.0697  -25.9541   19.0481 H   0  0  0  0  0  0
  -23.9803  -27.2874   19.0385 H   0  0  0  0  0  0
  -23.7035  -30.5880   19.3997 H   0  0  0  0  0  0
  -22.7365  -29.2260   19.8815 H   0  0  0  0  0  0
  -25.1266  -36.1938   25.0825 H   0  0  0  0  0  0
  -20.9936  -28.3189   24.1446 H   0  0  0  0  0  0
  -20.5614  -26.2242   23.3605 H   0  0  0  0  0  0
  -21.6643  -26.7387   22.1246 H   0  0  0  0  0  0
  -19.6919  -25.6281   21.1219 H   0  0  0  0  0  0
  -19.6694  -27.3181   20.6741 H   0  0  0  0  0  0
  -17.4189  -26.6613   21.4022 H   0  0  0  0  0  0
  -18.0342  -26.0029   22.9007 H   0  0  0  0  0  0
  -19.7922  -30.7207   24.2316 H   0  0  0  0  0  0
  -17.5010  -31.6238   24.5158 H   0  0  0  0  0  0
  -15.5351  -30.2985   23.7620 H   0  0  0  0  0  0
  -15.8647  -28.0799   22.7079 H   0  0  0  0  0  0
  -24.5829  -30.7174   25.7825 H   0  0  0  0  0  0
  -24.9014  -32.2923   26.4998 H   0  0  0  0  0  0
  -25.8067  -30.8838   27.0202 H   0  0  0  0  0  0
  -26.2846  -29.6800   24.1177 H   0  0  0  0  0  0
  -27.4057  -29.7296   25.4593 H   0  0  0  0  0  0
  -27.8679  -30.4364   23.9278 H   0  0  0  0  0  0
  -27.2609  -33.3617   26.2098 H   0  0  0  0  0  0
  -28.3779  -32.6991   25.0266 H   0  0  0  0  0  0
  -28.0753  -31.8473   26.5338 H   0  0  0  0  0  0
  -28.2566  -38.0110   24.7537 H   0  0  0  0  0  0
  -28.1091  -36.2648   24.6193 H   0  0  0  0  0  0
  -27.2310  -37.1329   25.8858 H   0  0  0  0  0  0
  -20.9306  -29.8679   21.6924 H   0  0  0  0  0  0
  -26.0143  -38.2850   24.1470 H   0  0  0  0  0  0
  -29.6095  -18.1024   22.4956 H   0  0  0  0  0  0
  -29.1297  -20.4809   22.8014 H   0  0  0  0  0  0
  -29.1568  -21.0442   18.5427 H   0  0  0  0  0  0
  -30.7540  -16.6651   19.2616 H   0  0  0  0  0  0
  -28.1461  -26.1203   22.0857 H   0  0  0  0  0  0
  -29.3514  -15.6935   21.8008 H   0  0  0  0  0  0
  -29.9782  -23.4751   19.4011 H   0  0  0  0  0  0
  -28.2257  -23.2862   19.0430 H   0  0  0  0  0  0
  -28.0312  -17.7253   15.2654 H   0  0  0  0  0  0
  -29.1230  -16.4564   15.8455 H   0  0  0  0  0  0
  -29.7577  -18.0484   15.4066 H   0  0  0  0  0  0
  -26.7323  -17.1300   17.1751 H   0  0  0  0  0  0
  -26.8262  -18.6014   18.1392 H   0  0  0  0  0  0
  -27.4472  -17.0701   18.7799 H   0  0  0  0  0  0
  1 25  1  0  0  0
  1 30  2  0  0  0
  1 81  1  0  0  0
  2  3  1  0  0  0
  2 25  1  0  0  0
  2 89  1  0  0  0
  2 90  1  0  0  0
  3  4  1  0  0  0
  3 91  1  0  0  0
  3 92  1  0  0  0
  4  5  1  0  0  0
  4 93  1  0  0  0
  4 94  1  0  0  0
  5  6  1  0  0  0
  5 26  1  0  0  0
  5 95  1  0  0  0
  6 25  1  0  0  0
  6 96  1  0  0  0
  6 97  1  0  0  0
  7  8  2  0  0  0
  7 26  1  0  0  0
  7 29  1  0  0  0
  8  9  1  0  0  0
  8 22  1  0  0  0
  9 10  1  0  0  0
  9 27  2  0  0  0
 10 11  2  0  0  0
 10 15  1  0  0  0
 11 12  1  0  0  0
 11 98  1  0  0  0
 12 13  2  0  0  0
 12 99  1  0  0  0
 13 14  1  0  0  0
 13 31  1  0  0  0
 14 15  2  0  0  0
 14100  1  0  0  0
 15101  1  0  0  0
 16 17  2  0  0  0
 16 21  1  0  0  0
 16 31  1  0  0  0
 17 18  1  0  0  0
 17102  1  0  0  0
 18 19  2  0  0  0
 18103  1  0  0  0
 19 20  1  0  0  0
 19 24  1  0  0  0
 20 21  2  0  0  0
 20104  1  0  0  0
 21 23  1  0  0  0
 22 28  1  0  0  0
 22 32  2  0  0  0
 26 27  1  0  0  0
 28105  1  0  0  0
 28106  1  0  0  0
 29107  1  0  0  0
 29108  1  0  0  0
 33 34  1  0  0  0
 33 66  1  0  0  0
 33 70  2  0  0  0
 34 36  1  0  0  0
 34 59  1  0  0  0
 34109  1  0  0  0
 35 44  2  0  0  0
 35 45  1  0  0  0
 35 68  1  0  0  0
 36 56  1  0  0  0
 36110  1  0  0  0
 37 39  1  0  0  0
 37 47  1  0  0  0
 37 66  1  0  0  0
 37111  1  0  0  0
 38 43  2  0  0  0
 38 46  1  0  0  0
 38 47  1  0  0  0
 39 64  1  0  0  0
 39 67  2  0  0  0
 40 52  1  0  0  0
 40 53  2  0  0  0
 40 58  1  0  0  0
 41112  1  0  0  0
 41113  1  0  0  0
 41114  1  0  0  0
 41 48  1  0  0  0
 42 43  1  0  0  0
 42 66  1  0  0  0
 42115  1  0  0  0
 42116  1  0  0  0
 43 44  1  0  0  0
 44117  1  0  0  0
 45 46  2  0  0  0
 45118  1  0  0  0
 46119  1  0  0  0
 47120  1  0  0  0
 47121  1  0  0  0
 48 56  1  0  0  0
 48 65  1  0  0  0
 48122  1  0  0  0
 49 50  1  0  0  0
 49 53  1  0  0  0
 49 64  1  0  0  0
 49123  1  0  0  0
 50 51  1  0  0  0
 50124  1  0  0  0
 50125  1  0  0  0
 51 52  1  0  0  0
 51126  1  0  0  0
 51127  1  0  0  0
 52128  1  0  0  0
 52129  1  0  0  0
 53 54  1  0  0  0
 54 55  2  0  0  0
 54130  1  0  0  0
 55 57  1  0  0  0
 55131  1  0  0  0
 56 69  2  0  0  0
 57 58  2  0  0  0
 57132  1  0  0  0
 58133  1  0  0  0
 59 60  1  0  0  0
 59 61  1  0  0  0
 59 62  1  0  0  0
 60134  1  0  0  0
 60135  1  0  0  0
 60136  1  0  0  0
 61137  1  0  0  0
 61138  1  0  0  0
 61139  1  0  0  0
 62140  1  0  0  0
 62141  1  0  0  0
 62142  1  0  0  0
 63 65  1  0  0  0
 63143  1  0  0  0
 63144  1  0  0  0
 63145  1  0  0  0
 64146  1  0  0  0
 65147  1  0  0  0
 68 80  1  0  0  0
 71 72  2  0  0  0
 71 74  1  0  0  0
 71148  1  0  0  0
 72 76  1  0  0  0
 72149  1  0  0  0
 73 75  1  0  0  0
 73 76  2  0  0  0
 73150  1  0  0  0
 74 75  2  0  0  0
 74 79  1  0  0  0
 75 86  1  0  0  0
 76 87  1  0  0  0
 77 78  1  0  0  0
 77 80  2  0  0  0
 77 83  1  0  0  0
 78 87  1  0  0  0
 78 88  2  0  0  0
 79 81  2  0  0  0
 79151  1  0  0  0
 80152  1  0  0  0
 81153  1  0  0  0
 82 84  1  0  0  0
 82 85  1  0  0  0
 82 86  2  0  0  0
 83 87  1  0  0  0
 83154  1  0  0  0
 83155  1  0  0  0
 84156  1  0  0  0
 84157  1  0  0  0
 84158  1  0  0  0
 85159  1  0  0  0
 85160  1  0  0  0
 85161  1  0  0  0
M  ISO  4   1 100  68 101  80 101  81 100
M  END
> <chiral flag>
0

> <version>
0

> <s_m_source_file>
/data/baiqing/PycharmProjects/Reinvent-master-3.2/result/LINK_invent/BTK/process_docking_weight1_custom_product_contain_oxygen_bond_distance_aromatic_linkinvent_7_9_3/rearranged_h_0081.sdf

> <i_m_source_file_index>
13

> <r_mmod_Potential_Energy-OPLS-2005>
46.1498565673828

> <r_mmod_Stretch_Energy-OPLS-2005>
39.1583251953125

> <r_mmod_Bend_Energy-OPLS-2005>
189.159881591797

> <r_mmod_Torsional_Energy-OPLS-2005>
239.152206420898

> <r_mmod_Improper_Torsional_Energy-OPLS-2005>
5.17196846008301

> <r_mmod_Van_der_Waal_Energy-OPLS-2005>
146.201599121094

> <r_mmod_Electrostatic_Energy-OPLS-2005>
-379.769683837891

> <r_mmod_Solvation_Energy-OPLS-2005>
-210.35009765625

> <b_mmod_Minimization_Converged-OPLS-2005>
0

> <r_mmod_RMS_Derivative-OPLS-2005>
2.51140737533569

$$$$
13
                    3D
 Structure written by MMmdl.
154163  0  0  1  0            999 V2000
  -30.6104  -14.6688   20.4825 C   0  0  0  0  0  0
  -30.4437  -12.4070   19.4518 C   0  0  0  0  0  0
  -29.5095  -12.5068   18.2247 C   0  0  0  0  0  0
  -28.0326  -12.3410   18.6379 C   0  0  0  0  0  0
  -27.6517  -13.2182   19.8605 C   0  0  2  0  0  0
  -28.7004  -13.0865   20.9888 C   0  0  0  0  0  0
  -25.2544  -13.8157   20.5682 C   0  0  0  0  0  0
  -24.1815  -13.0412   20.9161 C   0  0  0  0  0  0
  -24.6401  -11.6896   20.8724 C   0  0  0  0  0  0
  -23.9069  -10.4279   21.0397 C   0  0  0  0  0  0
  -24.3621   -9.4198   21.9180 C   0  0  0  0  0  0
  -23.6292   -8.2240   22.0755 C   0  0  0  0  0  0
  -22.4270   -8.0278   21.3547 C   0  0  0  0  0  0
  -21.9909   -9.0249   20.4646 C   0  0  0  0  0  0
  -22.7242  -10.2126   20.3052 C   0  0  0  0  0  0
  -21.6850   -6.0736   22.5280 C   0  0  0  0  0  0
  -21.4014   -6.5641   23.8212 C   0  0  0  0  0  0
  -21.3658   -5.6794   24.9173 C   0  0  0  0  0  0
  -21.6044   -4.3056   24.7224 C   0  0  0  0  0  0
  -21.8819   -3.8150   23.4343 C   0  0  0  0  0  0
  -21.9191   -4.6965   22.3401 C   0  0  0  0  0  0
  -22.7836  -13.5206   21.1826 C   0  0  0  0  0  0
  -22.1659   -4.2152   21.0978 F   0  0  0  0  0  0
  -21.5627   -3.4540   25.7736 F   0  0  0  0  0  0
  -30.0128  -13.4348   20.4202 N   0  0  0  0  0  0
  -26.2989  -12.9356   20.3329 N   0  0  0  0  0  0
  -25.9337  -11.6502   20.5762 N   0  0  0  0  0  0
  -22.0493  -12.8211   22.0398 N   0  0  0  0  0  0
  -25.4179  -15.1889   20.4169 N   0  0  0  0  0  0
  -31.7847  -14.8297   20.1382 O   0  0  0  0  0  0
  -21.6634   -6.8879   21.4241 O   0  0  0  0  0  0
  -22.3511  -14.5506   20.6668 O   0  0  0  0  0  0
  -24.6273  -31.8582   23.2018 C   0  0  0  0  0  0
  -25.9122  -32.4765   23.8343 C   0  0  1  0  0  0
  -27.2311  -27.3065   20.1126 C   0  0  0  0  0  0
  -25.5934  -33.8567   24.2273 N   0  0  0  0  0  0
  -23.4216  -30.4813   21.5450 C   0  0  2  0  0  0
  -24.8682  -28.9340   20.1126 C   0  0  0  0  0  0
  -22.7476  -29.4621   22.4939 C   0  0  0  0  0  0
  -18.0278  -28.1385   22.8482 C   0  0  0  0  0  0
  -24.1493  -36.7296   23.2638 C   0  0  0  0  0  0
  -25.9637  -30.7845   21.3749 C   0  0  0  0  0  0
  -26.0372  -29.4103   20.7180 C   0  0  0  0  0  0
  -27.2173  -28.6069   20.7111 C   0  0  0  0  0  0
  -26.0327  -26.8857   19.4876 C   0  0  0  0  0  0
  -24.8686  -27.6767   19.4916 C   0  0  0  0  0  0
  -23.6363  -29.8149   20.1609 C   0  0  0  0  0  0
  -25.4115  -36.3077   24.0328 C   0  0  1  0  0  0
  -20.5880  -28.3696   23.1282 C   0  0  2  0  0  0
  -20.6771  -26.9418   22.5416 C   0  0  0  0  0  0
  -19.5749  -26.6389   21.5217 C   0  0  0  0  0  0
  -18.1925  -26.7926   22.1626 C   0  0  0  0  0  0
  -19.1530  -28.8855   23.2872 C   0  0  0  0  0  0
  -18.9451  -30.1455   23.8895 C   0  0  0  0  0  0
  -17.6456  -30.6586   24.0563 C   0  0  0  0  0  0
  -25.9056  -34.9445   23.5100 C   0  0  0  0  0  0
  -16.5343  -29.9084   23.6330 C   0  0  0  0  0  0
  -16.7263  -28.6504   23.0348 C   0  0  0  0  0  0
  -26.4500  -31.6573   25.0717 C   0  0  0  0  0  0
  -25.3729  -31.3708   26.1439 C   0  0  0  0  0  0
  -27.0351  -30.2992   24.6190 C   0  0  0  0  0  0
  -27.6063  -32.4309   25.7489 C   0  0  0  0  0  0
  -27.5576  -37.1801   24.8460 C   0  0  0  0  0  0
  -21.4191  -29.3041   22.3676 N   0  0  0  0  0  0
  -26.4292  -37.3774   23.9400 N   0  0  0  0  0  0
  -24.6901  -31.0578   22.0978 N   0  0  0  0  0  0
  -23.4191  -28.8167   23.3032 O   0  0  0  0  0  0
  -28.3658  -26.4725   20.1613 O   0  0  0  0  0  0
  -26.5624  -34.8914   22.4665 O   0  0  0  0  0  0
  -23.5434  -32.1390   23.7338 O   0  0  0  0  0  0
  -31.0182  -19.3770   20.6198 C   0  0  0  0  0  0
  -31.0511  -17.9466   20.5858 C   0  0  0  0  0  0
  -28.6210  -19.3532   20.7285 C   0  0  0  0  0  0
  -29.8080  -20.1330   20.7380 C   0  0  0  0  0  0
  -29.8606  -17.1772   20.6605 C   0  0  0  0  0  0
  -28.6515  -17.9244   20.7026 C   0  0  0  0  0  0
  -29.8658  -24.4227   21.6353 C   0  0  0  0  0  0
  -30.5595  -23.4961   22.3164 C   0  0  0  0  0  0
  -28.9926  -24.0788   20.5475 C   0  0  0  0  0  0
  -30.5254  -22.0566   22.0604 C   0  0  0  0  0  0
  -28.2988  -25.0794   19.9050 C   0  0  0  0  0  0
  -28.9233  -22.5501   20.1906 C   0  0  0  0  0  0
  -29.8029  -21.5993   20.9850 N   0  0  0  0  0  0
  -29.7640  -15.7150   20.7469 N   0  0  0  0  0  0
  -31.1374  -21.2940   22.8165 O   0  0  0  0  0  0
  -27.4810  -17.2434   20.7477 F   0  0  0  0  0  0
  -31.4831  -12.5416   19.1470 H   0  0  0  0  0  0
  -30.3883  -11.4140   19.9007 H   0  0  0  0  0  0
  -29.7766  -11.7522   17.4836 H   0  0  0  0  0  0
  -29.6464  -13.4736   17.7380 H   0  0  0  0  0  0
  -27.8741  -11.2883   18.8759 H   0  0  0  0  0  0
  -27.3773  -12.5620   17.7943 H   0  0  0  0  0  0
  -27.6609  -14.2500   19.5096 H   0  0  0  0  0  0
  -28.7186  -12.0682   21.3794 H   0  0  0  0  0  0
  -28.4457  -13.7248   21.8366 H   0  0  0  0  0  0
  -25.2770   -9.5670   22.4749 H   0  0  0  0  0  0
  -23.9994   -7.4633   22.7482 H   0  0  0  0  0  0
  -21.0836   -8.8769   19.8959 H   0  0  0  0  0  0
  -22.3700  -10.9661   19.6158 H   0  0  0  0  0  0
  -21.2010   -7.6151   23.9714 H   0  0  0  0  0  0
  -21.1478   -6.0526   25.9075 H   0  0  0  0  0  0
  -22.0602   -2.7613   23.2841 H   0  0  0  0  0  0
  -22.4119  -11.9882   22.4795 H   0  0  0  0  0  0
  -21.1112  -13.1239   22.2604 H   0  0  0  0  0  0
  -24.6504  -15.8333   20.5666 H   0  0  0  0  0  0
  -26.2861  -15.6680   20.2065 H   0  0  0  0  0  0
  -26.7191  -32.5429   23.1087 H   0  0  0  0  0  0
  -25.0062  -33.9707   25.0405 H   0  0  0  0  0  0
  -22.7160  -31.3026   21.4009 H   0  0  0  0  0  0
  -23.3747  -35.9639   23.3307 H   0  0  0  0  0  0
  -24.3581  -36.8912   22.2051 H   0  0  0  0  0  0
  -23.7259  -37.6505   23.6657 H   0  0  0  0  0  0
  -26.0944  -31.5475   20.6060 H   0  0  0  0  0  0
  -26.8450  -30.8345   22.0038 H   0  0  0  0  0  0
  -28.1147  -28.9693   21.1922 H   0  0  0  0  0  0
  -25.9539  -25.9279   18.9995 H   0  0  0  0  0  0
  -23.9715  -27.3035   19.0172 H   0  0  0  0  0  0
  -23.7540  -30.5910   19.4034 H   0  0  0  0  0  0
  -22.7568  -29.2434   19.8595 H   0  0  0  0  0  0
  -25.1296  -36.1930   25.0824 H   0  0  0  0  0  0
  -20.9953  -28.3276   24.1411 H   0  0  0  0  0  0
  -20.5680  -26.2307   23.3616 H   0  0  0  0  0  0
  -21.6640  -26.7453   22.1207 H   0  0  0  0  0  0
  -19.6920  -25.6304   21.1239 H   0  0  0  0  0  0
  -19.6687  -27.3207   20.6755 H   0  0  0  0  0  0
  -17.4197  -26.6657   21.4028 H   0  0  0  0  0  0
  -18.0327  -26.0069   22.9028 H   0  0  0  0  0  0
  -19.7928  -30.7262   24.2272 H   0  0  0  0  0  0
  -17.5010  -31.6269   24.5161 H   0  0  0  0  0  0
  -15.5347  -30.2986   23.7662 H   0  0  0  0  0  0
  -15.8658  -28.0825   22.7065 H   0  0  0  0  0  0
  -24.5913  -30.7051   25.7750 H   0  0  0  0  0  0
  -24.8910  -32.2875   26.4854 H   0  0  0  0  0  0
  -25.8050  -30.8884   27.0216 H   0  0  0  0  0  0
  -26.2935  -29.6735   24.1210 H   0  0  0  0  0  0
  -27.4026  -29.7253   25.4707 H   0  0  0  0  0  0
  -27.8815  -30.4258   23.9435 H   0  0  0  0  0  0
  -27.2671  -33.3600   26.2079 H   0  0  0  0  0  0
  -28.3867  -32.6880   25.0316 H   0  0  0  0  0  0
  -28.0742  -31.8427   26.5393 H   0  0  0  0  0  0
  -28.2594  -38.0094   24.7497 H   0  0  0  0  0  0
  -28.1070  -36.2625   24.6304 H   0  0  0  0  0  0
  -27.2289  -37.1466   25.8861 H   0  0  0  0  0  0
  -20.9378  -29.8751   21.6869 H   0  0  0  0  0  0
  -26.0174  -38.2852   24.1393 H   0  0  0  0  0  0
  -31.9638  -19.9016   20.6102 H   0  0  0  0  0  0
  -32.0104  -17.4507   20.5439 H   0  0  0  0  0  0
  -27.6631  -19.8443   20.8113 H   0  0  0  0  0  0
  -29.9729  -25.4600   21.9229 H   0  0  0  0  0  0
  -31.1907  -23.8349   23.1249 H   0  0  0  0  0  0
  -27.6766  -24.8436   19.0567 H   0  0  0  0  0  0
  -29.1849  -22.4420   19.1374 H   0  0  0  0  0  0
  -27.8864  -22.2270   20.2860 H   0  0  0  0  0  0
  -28.8272  -15.4034   20.9526 H   0  0  0  0  0  0
  1 25  1  0  0  0
  1 30  2  0  0  0
  1 84  1  0  0  0
  2  3  1  0  0  0
  2 25  1  0  0  0
  2 87  1  0  0  0
  2 88  1  0  0  0
  3  4  1  0  0  0
  3 89  1  0  0  0
  3 90  1  0  0  0
  4  5  1  0  0  0
  4 91  1  0  0  0
  4 92  1  0  0  0
  5  6  1  0  0  0
  5 26  1  0  0  0
  5 93  1  0  0  0
  6 25  1  0  0  0
  6 94  1  0  0  0
  6 95  1  0  0  0
  7  8  2  0  0  0
  7 26  1  0  0  0
  7 29  1  0  0  0
  8  9  1  0  0  0
  8 22  1  0  0  0
  9 10  1  0  0  0
  9 27  2  0  0  0
 10 11  2  0  0  0
 10 15  1  0  0  0
 11 12  1  0  0  0
 11 96  1  0  0  0
 12 13  2  0  0  0
 12 97  1  0  0  0
 13 14  1  0  0  0
 13 31  1  0  0  0
 14 15  2  0  0  0
 14 98  1  0  0  0
 15 99  1  0  0  0
 16 17  2  0  0  0
 16 21  1  0  0  0
 16 31  1  0  0  0
 17 18  1  0  0  0
 17100  1  0  0  0
 18 19  2  0  0  0
 18101  1  0  0  0
 19 20  1  0  0  0
 19 24  1  0  0  0
 20 21  2  0  0  0
 20102  1  0  0  0
 21 23  1  0  0  0
 22 28  1  0  0  0
 22 32  2  0  0  0
 26 27  1  0  0  0
 28103  1  0  0  0
 28104  1  0  0  0
 29105  1  0  0  0
 29106  1  0  0  0
 33 34  1  0  0  0
 33 66  1  0  0  0
 33 70  2  0  0  0
 34 36  1  0  0  0
 34 59  1  0  0  0
 34107  1  0  0  0
 35 44  2  0  0  0
 35 45  1  0  0  0
 35 68  1  0  0  0
 36 56  1  0  0  0
 36108  1  0  0  0
 37 39  1  0  0  0
 37 47  1  0  0  0
 37 66  1  0  0  0
 37109  1  0  0  0
 38 43  2  0  0  0
 38 46  1  0  0  0
 38 47  1  0  0  0
 39 64  1  0  0  0
 39 67  2  0  0  0
 40 52  1  0  0  0
 40 53  2  0  0  0
 40 58  1  0  0  0
 41110  1  0  0  0
 41111  1  0  0  0
 41112  1  0  0  0
 41 48  1  0  0  0
 42 43  1  0  0  0
 42 66  1  0  0  0
 42113  1  0  0  0
 42114  1  0  0  0
 43 44  1  0  0  0
 44115  1  0  0  0
 45 46  2  0  0  0
 45116  1  0  0  0
 46117  1  0  0  0
 47118  1  0  0  0
 47119  1  0  0  0
 48 56  1  0  0  0
 48 65  1  0  0  0
 48120  1  0  0  0
 49 50  1  0  0  0
 49 53  1  0  0  0
 49 64  1  0  0  0
 49121  1  0  0  0
 50 51  1  0  0  0
 50122  1  0  0  0
 50123  1  0  0  0
 51 52  1  0  0  0
 51124  1  0  0  0
 51125  1  0  0  0
 52126  1  0  0  0
 52127  1  0  0  0
 53 54  1  0  0  0
 54 55  2  0  0  0
 54128  1  0  0  0
 55 57  1  0  0  0
 55129  1  0  0  0
 56 69  2  0  0  0
 57 58  2  0  0  0
 57130  1  0  0  0
 58131  1  0  0  0
 59 60  1  0  0  0
 59 61  1  0  0  0
 59 62  1  0  0  0
 60132  1  0  0  0
 60133  1  0  0  0
 60134  1  0  0  0
 61135  1  0  0  0
 61136  1  0  0  0
 61137  1  0  0  0
 62138  1  0  0  0
 62139  1  0  0  0
 62140  1  0  0  0
 63 65  1  0  0  0
 63141  1  0  0  0
 63142  1  0  0  0
 63143  1  0  0  0
 64144  1  0  0  0
 65145  1  0  0  0
 68 81  1  0  0  0
 71 72  2  0  0  0
 71 74  1  0  0  0
 71146  1  0  0  0
 72 75  1  0  0  0
 72147  1  0  0  0
 73 74  2  0  0  0
 73 76  1  0  0  0
 73148  1  0  0  0
 74 83  1  0  0  0
 75 76  2  0  0  0
 75 84  1  0  0  0
 76 86  1  0  0  0
 77 78  2  0  0  0
 77 79  1  0  0  0
 77149  1  0  0  0
 78 80  1  0  0  0
 78150  1  0  0  0
 79 81  2  0  0  0
 79 82  1  0  0  0
 80 83  1  0  0  0
 80 85  2  0  0  0
 81151  1  0  0  0
 82 83  1  0  0  0
 82152  1  0  0  0
 82153  1  0  0  0
 84154  1  0  0  0
M  ISO  4   1 100  68 101  81 101  84 100
M  END
> <chiral flag>
0

> <version>
0

> <s_m_source_file>
/data/baiqing/PycharmProjects/Reinvent-master-3.2/result/LINK_invent/BTK/process_docking_weight1_custom_product_contain_oxygen_bond_distance_aromatic_linkinvent_7_9_3/rearranged_h_0081.sdf

> <i_m_source_file_index>
14

> <r_mmod_Potential_Energy-OPLS-2005>
139.083114624023

> <r_mmod_Stretch_Energy-OPLS-2005>
91.6777420043945

> <r_mmod_Bend_Energy-OPLS-2005>
155.556045532227

> <r_mmod_Torsional_Energy-OPLS-2005>
264.617858886719

> <r_mmod_Improper_Torsional_Energy-OPLS-2005>
5.33696269989014

> <r_mmod_Van_der_Waal_Energy-OPLS-2005>
162.389068603516

> <r_mmod_Electrostatic_Energy-OPLS-2005>
-389.760406494141

> <r_mmod_Solvation_Energy-OPLS-2005>
-205.927886962891

> <b_mmod_Minimization_Converged-OPLS-2005>
0

> <r_mmod_RMS_Derivative-OPLS-2005>
1.26025247573853

$$$$
14
                    3D
 Structure written by MMmdl.
151160  0  0  1  0            999 V2000
  -30.5780  -14.8448   20.4523 C   0  0  0  0  0  0
  -30.4456  -12.5210   19.4862 C   0  0  0  0  0  0
  -29.5195  -12.5194   18.2458 C   0  0  0  0  0  0
  -28.0468  -12.3120   18.6536 C   0  0  0  0  0  0
  -27.6369  -13.2163   19.8427 C   0  0  2  0  0  0
  -28.6850  -13.1586   20.9781 C   0  0  0  0  0  0
  -25.2520  -13.8153   20.5684 C   0  0  0  0  0  0
  -24.1792  -13.0414   20.9159 C   0  0  0  0  0  0
  -24.6373  -11.6890   20.8720 C   0  0  0  0  0  0
  -23.9050  -10.4279   21.0398 C   0  0  0  0  0  0
  -24.3611   -9.4205   21.9177 C   0  0  0  0  0  0
  -23.6290   -8.2240   22.0748 C   0  0  0  0  0  0
  -22.4273   -8.0275   21.3542 C   0  0  0  0  0  0
  -21.9897   -9.0244   20.4644 C   0  0  0  0  0  0
  -22.7219  -10.2124   20.3050 C   0  0  0  0  0  0
  -21.6854   -6.0745   22.5285 C   0  0  0  0  0  0
  -21.4016   -6.5648   23.8219 C   0  0  0  0  0  0
  -21.3651   -5.6793   24.9174 C   0  0  0  0  0  0
  -21.6038   -4.3058   24.7222 C   0  0  0  0  0  0
  -21.8822   -3.8155   23.4345 C   0  0  0  0  0  0
  -21.9195   -4.6972   22.3405 C   0  0  0  0  0  0
  -22.7824  -13.5216   21.1846 C   0  0  0  0  0  0
  -22.1666   -4.2160   21.0982 F   0  0  0  0  0  0
  -21.5615   -3.4536   25.7735 F   0  0  0  0  0  0
  -29.9730  -13.5885   20.4102 N   0  0  0  0  0  0
  -26.2913  -12.9315   20.3248 N   0  0  0  0  0  0
  -25.9296  -11.6480   20.5730 N   0  0  0  0  0  0
  -22.0480  -12.8210   22.0413 N   0  0  0  0  0  0
  -25.4231  -15.1886   20.4224 N   0  0  0  0  0  0
  -31.7697  -14.9145   20.1330 O   0  0  0  0  0  0
  -21.6633   -6.8880   21.4245 O   0  0  0  0  0  0
  -22.3506  -14.5528   20.6705 O   0  0  0  0  0  0
  -24.6378  -31.8507   23.1948 C   0  0  0  0  0  0
  -25.9179  -32.4728   23.8308 C   0  0  1  0  0  0
  -27.2209  -27.2049   20.1223 C   0  0  0  0  0  0
  -25.5950  -33.8532   24.2228 N   0  0  0  0  0  0
  -23.4368  -30.4753   21.5399 C   0  0  2  0  0  0
  -24.8842  -28.9190   20.1096 C   0  0  0  0  0  0
  -22.7536  -29.4586   22.4883 C   0  0  0  0  0  0
  -18.0303  -28.1388   22.8482 C   0  0  0  0  0  0
  -24.1498  -36.7276   23.2641 C   0  0  0  0  0  0
  -25.9903  -30.7457   21.3850 C   0  0  0  0  0  0
  -26.0613  -29.3648   20.7232 C   0  0  0  0  0  0
  -27.2285  -28.5212   20.7198 C   0  0  0  0  0  0
  -26.0046  -26.8440   19.4898 C   0  0  0  0  0  0
  -24.8647  -27.6680   19.4829 C   0  0  0  0  0  0
  -23.6583  -29.8123   20.1566 C   0  0  0  0  0  0
  -25.4125  -36.3055   24.0321 C   0  0  1  0  0  0
  -20.5913  -28.3711   23.1245 C   0  0  2  0  0  0
  -20.6789  -26.9420   22.5399 C   0  0  0  0  0  0
  -19.5759  -26.6379   21.5210 C   0  0  0  0  0  0
  -18.1945  -26.7926   22.1631 C   0  0  0  0  0  0
  -19.1559  -28.8866   23.2858 C   0  0  0  0  0  0
  -18.9477  -30.1465   23.8877 C   0  0  0  0  0  0
  -17.6474  -30.6587   24.0558 C   0  0  0  0  0  0
  -25.9065  -34.9424   23.5077 C   0  0  0  0  0  0
  -16.5365  -29.9082   23.6333 C   0  0  0  0  0  0
  -16.7288  -28.6500   23.0353 C   0  0  0  0  0  0
  -26.4518  -31.6569   25.0719 C   0  0  0  0  0  0
  -25.3721  -31.3743   26.1427 C   0  0  0  0  0  0
  -27.0369  -30.2971   24.6254 C   0  0  0  0  0  0
  -27.6059  -32.4323   25.7496 C   0  0  0  0  0  0
  -27.5578  -37.1802   24.8469 C   0  0  0  0  0  0
  -21.4237  -29.3052   22.3626 N   0  0  0  0  0  0
  -26.4298  -37.3756   23.9398 N   0  0  0  0  0  0
  -24.7078  -31.0427   22.0954 N   0  0  0  0  0  0
  -23.4210  -28.8121   23.2999 O   0  0  0  0  0  0
  -28.2973  -26.2604   20.1977 O   0  0  0  0  0  0
  -26.5645  -34.8907   22.4652 O   0  0  0  0  0  0
  -23.5514  -32.1357   23.7207 O   0  0  0  0  0  0
  -32.1459  -19.2473   20.9696 C   0  0  0  0  0  0
  -31.6300  -17.9397   20.8963 C   0  0  0  0  0  0
  -31.3274  -20.3862   20.8176 C   0  0  0  0  0  0
  -29.4613  -18.9366   20.4833 C   0  0  0  0  0  0
  -30.2615  -17.7050   20.6519 C   0  0  0  0  0  0
  -29.9347  -20.3302   20.5628 C   0  0  0  0  0  0
  -28.6640  -23.6457   20.0720 C   0  0  0  0  0  0
  -28.4554  -22.3354   19.4313 C   0  0  0  0  0  0
  -28.1674  -24.9086   19.7025 C   0  0  0  0  0  0
  -29.6941  -16.2232   20.6908 C   0  0  0  0  0  0
  -29.5781  -22.9299   21.0994 C   0  0  0  0  0  0
  -28.4499  -16.1514   20.9099 N   0  0  0  0  0  0
  -29.1941  -21.6405   20.4255 N   0  0  0  0  0  0
  -27.9268  -22.0494   18.3764 O   0  0  0  0  0  0
  -31.4806  -12.6690   19.1737 H   0  0  0  0  0  0
  -30.4269  -11.5478   19.9793 H   0  0  0  0  0  0
  -29.8249  -11.7393   17.5473 H   0  0  0  0  0  0
  -29.6233  -13.4656   17.7127 H   0  0  0  0  0  0
  -27.9236  -11.2633   18.9261 H   0  0  0  0  0  0
  -27.3877  -12.4826   17.8013 H   0  0  0  0  0  0
  -27.6143  -14.2215   19.4268 H   0  0  0  0  0  0
  -28.7603  -12.1429   21.3698 H   0  0  0  0  0  0
  -28.3968  -13.7664   21.8357 H   0  0  0  0  0  0
  -25.2759   -9.5680   22.4741 H   0  0  0  0  0  0
  -24.0000   -7.4634   22.7468 H   0  0  0  0  0  0
  -21.0822   -8.8760   19.8962 H   0  0  0  0  0  0
  -22.3675  -10.9657   19.6156 H   0  0  0  0  0  0
  -21.2018   -7.6159   23.9725 H   0  0  0  0  0  0
  -21.1458   -6.0525   25.9076 H   0  0  0  0  0  0
  -22.0608   -2.7617   23.2843 H   0  0  0  0  0  0
  -22.4106  -11.9870   22.4790 H   0  0  0  0  0  0
  -21.1105  -13.1239   22.2647 H   0  0  0  0  0  0
  -24.6660  -15.8420   20.5909 H   0  0  0  0  0  0
  -26.3107  -15.6539   20.2577 H   0  0  0  0  0  0
  -26.7242  -32.5362   23.1042 H   0  0  0  0  0  0
  -25.0078  -33.9655   25.0362 H   0  0  0  0  0  0
  -22.7369  -31.3005   21.3927 H   0  0  0  0  0  0
  -23.3748  -35.9623   23.3315 H   0  0  0  0  0  0
  -24.3581  -36.8889   22.2053 H   0  0  0  0  0  0
  -23.7269  -37.6487   23.6661 H   0  0  0  0  0  0
  -26.1401  -31.5053   20.6164 H   0  0  0  0  0  0
  -26.8632  -30.7917   22.0240 H   0  0  0  0  0  0
  -28.1253  -28.8565   21.2215 H   0  0  0  0  0  0
  -25.8660  -25.8862   19.0170 H   0  0  0  0  0  0
  -23.9609  -27.3164   19.0034 H   0  0  0  0  0  0
  -23.7887  -30.5899   19.4029 H   0  0  0  0  0  0
  -22.7749  -29.2517   19.8457 H   0  0  0  0  0  0
  -25.1314  -36.1897   25.0815 H   0  0  0  0  0  0
  -21.0011  -28.3296   24.1363 H   0  0  0  0  0  0
  -20.5693  -26.2321   23.3612 H   0  0  0  0  0  0
  -21.6655  -26.7438   22.1189 H   0  0  0  0  0  0
  -19.6920  -25.6287   21.1245 H   0  0  0  0  0  0
  -19.6686  -27.3185   20.6734 H   0  0  0  0  0  0
  -17.4207  -26.6664   21.4041 H   0  0  0  0  0  0
  -18.0355  -26.0073   22.9036 H   0  0  0  0  0  0
  -19.7951  -30.7291   24.2234 H   0  0  0  0  0  0
  -17.5025  -31.6263   24.5168 H   0  0  0  0  0  0
  -15.5364  -30.2979   23.7661 H   0  0  0  0  0  0
  -15.8690  -28.0813   22.7073 H   0  0  0  0  0  0
  -24.5889  -30.7105   25.7747 H   0  0  0  0  0  0
  -24.8924  -32.2923   26.4831 H   0  0  0  0  0  0
  -25.8019  -30.8923   27.0216 H   0  0  0  0  0  0
  -26.2968  -29.6706   24.1262 H   0  0  0  0  0  0
  -27.4002  -29.7256   25.4804 H   0  0  0  0  0  0
  -27.8871  -30.4220   23.9545 H   0  0  0  0  0  0
  -27.2652  -33.3628   26.2047 H   0  0  0  0  0  0
  -28.3878  -32.6875   25.0331 H   0  0  0  0  0  0
  -28.0712  -31.8464   26.5431 H   0  0  0  0  0  0
  -28.2612  -38.0083   24.7481 H   0  0  0  0  0  0
  -28.1057  -36.2608   24.6344 H   0  0  0  0  0  0
  -27.2284  -37.1509   25.8871 H   0  0  0  0  0  0
  -20.9432  -29.8779   21.6830 H   0  0  0  0  0  0
  -26.0171  -38.2834   24.1372 H   0  0  0  0  0  0
  -33.2012  -19.3825   21.1642 H   0  0  0  0  0  0
  -32.3113  -17.1190   21.0649 H   0  0  0  0  0  0
  -31.8206  -21.3431   20.8928 H   0  0  0  0  0  0
  -28.4030  -18.7986   20.3116 H   0  0  0  0  0  0
  -27.5930  -24.9065   18.7907 H   0  0  0  0  0  0
  -29.2747  -22.9443   22.1472 H   0  0  0  0  0  0
  -30.6402  -23.1619   21.0191 H   0  0  0  0  0  0
  -28.1652  -15.1809   20.9390 H   0  0  0  0  0  0
  1 25  1  0  0  0
  1 30  2  0  0  0
  1 80  1  0  0  0
  2  3  1  0  0  0
  2 25  1  0  0  0
  2 85  1  0  0  0
  2 86  1  0  0  0
  3  4  1  0  0  0
  3 87  1  0  0  0
  3 88  1  0  0  0
  4  5  1  0  0  0
  4 89  1  0  0  0
  4 90  1  0  0  0
  5  6  1  0  0  0
  5 26  1  0  0  0
  5 91  1  0  0  0
  6 25  1  0  0  0
  6 92  1  0  0  0
  6 93  1  0  0  0
  7  8  2  0  0  0
  7 26  1  0  0  0
  7 29  1  0  0  0
  8  9  1  0  0  0
  8 22  1  0  0  0
  9 10  1  0  0  0
  9 27  2  0  0  0
 10 11  2  0  0  0
 10 15  1  0  0  0
 11 12  1  0  0  0
 11 94  1  0  0  0
 12 13  2  0  0  0
 12 95  1  0  0  0
 13 14  1  0  0  0
 13 31  1  0  0  0
 14 15  2  0  0  0
 14 96  1  0  0  0
 15 97  1  0  0  0
 16 17  2  0  0  0
 16 21  1  0  0  0
 16 31  1  0  0  0
 17 18  1  0  0  0
 17 98  1  0  0  0
 18 19  2  0  0  0
 18 99  1  0  0  0
 19 20  1  0  0  0
 19 24  1  0  0  0
 20 21  2  0  0  0
 20100  1  0  0  0
 21 23  1  0  0  0
 22 28  1  0  0  0
 22 32  2  0  0  0
 26 27  1  0  0  0
 28101  1  0  0  0
 28102  1  0  0  0
 29103  1  0  0  0
 29104  1  0  0  0
 33 34  1  0  0  0
 33 66  1  0  0  0
 33 70  2  0  0  0
 34 36  1  0  0  0
 34 59  1  0  0  0
 34105  1  0  0  0
 35 44  2  0  0  0
 35 45  1  0  0  0
 35 68  1  0  0  0
 36 56  1  0  0  0
 36106  1  0  0  0
 37 39  1  0  0  0
 37 47  1  0  0  0
 37 66  1  0  0  0
 37107  1  0  0  0
 38 43  2  0  0  0
 38 46  1  0  0  0
 38 47  1  0  0  0
 39 64  1  0  0  0
 39 67  2  0  0  0
 40 52  1  0  0  0
 40 53  2  0  0  0
 40 58  1  0  0  0
 41108  1  0  0  0
 41109  1  0  0  0
 41110  1  0  0  0
 41 48  1  0  0  0
 42 43  1  0  0  0
 42 66  1  0  0  0
 42111  1  0  0  0
 42112  1  0  0  0
 43 44  1  0  0  0
 44113  1  0  0  0
 45 46  2  0  0  0
 45114  1  0  0  0
 46115  1  0  0  0
 47116  1  0  0  0
 47117  1  0  0  0
 48 56  1  0  0  0
 48 65  1  0  0  0
 48118  1  0  0  0
 49 50  1  0  0  0
 49 53  1  0  0  0
 49 64  1  0  0  0
 49119  1  0  0  0
 50 51  1  0  0  0
 50120  1  0  0  0
 50121  1  0  0  0
 51 52  1  0  0  0
 51122  1  0  0  0
 51123  1  0  0  0
 52124  1  0  0  0
 52125  1  0  0  0
 53 54  1  0  0  0
 54 55  2  0  0  0
 54126  1  0  0  0
 55 57  1  0  0  0
 55127  1  0  0  0
 56 69  2  0  0  0
 57 58  2  0  0  0
 57128  1  0  0  0
 58129  1  0  0  0
 59 60  1  0  0  0
 59 61  1  0  0  0
 59 62  1  0  0  0
 60130  1  0  0  0
 60131  1  0  0  0
 60132  1  0  0  0
 61133  1  0  0  0
 61134  1  0  0  0
 61135  1  0  0  0
 62136  1  0  0  0
 62137  1  0  0  0
 62138  1  0  0  0
 63 65  1  0  0  0
 63139  1  0  0  0
 63140  1  0  0  0
 63141  1  0  0  0
 64142  1  0  0  0
 65143  1  0  0  0
 68 79  1  0  0  0
 71 72  2  0  0  0
 71 73  1  0  0  0
 71144  1  0  0  0
 72 75  1  0  0  0
 72145  1  0  0  0
 73 76  2  0  0  0
 73146  1  0  0  0
 74 75  2  0  0  0
 74 76  1  0  0  0
 74147  1  0  0  0
 75 80  1  0  0  0
 76 83  1  0  0  0
 77 78  1  0  0  0
 77 79  2  0  0  0
 77 81  1  0  0  0
 78 83  1  0  0  0
 78 84  2  0  0  0
 79148  1  0  0  0
 80 82  2  0  0  0
 81 83  1  0  0  0
 81149  1  0  0  0
 81150  1  0  0  0
 82151  1  0  0  0
M  ISO  4   1 100  68 101  79 101  80 100
M  END
> <chiral flag>
0

> <version>
0

> <s_m_source_file>
/data/baiqing/PycharmProjects/Reinvent-master-3.2/result/LINK_invent/BTK/process_docking_weight1_custom_product_contain_oxygen_bond_distance_aromatic_linkinvent_7_9_3/rearranged_h_0081.sdf

> <i_m_source_file_index>
15

> <r_mmod_Potential_Energy-OPLS-2005>
493.995880126953

> <r_mmod_Stretch_Energy-OPLS-2005>
180.474960327148

> <r_mmod_Bend_Energy-OPLS-2005>
275.950042724609

> <r_mmod_Torsional_Energy-OPLS-2005>
206.027923583984

> <r_mmod_Improper_Torsional_Energy-OPLS-2005>
7.1858549118042

> <r_mmod_Van_der_Waal_Energy-OPLS-2005>
152.413803100586

> <r_mmod_Electrostatic_Energy-OPLS-2005>
-245.902709960938

> <r_mmod_Solvation_Energy-OPLS-2005>
-207.888626098633

> <b_mmod_Minimization_Converged-OPLS-2005>
0

> <r_mmod_RMS_Derivative-OPLS-2005>
1.14839720726013

$$$$
15
                    3D
 Structure written by MMmdl.
150159  0  0  1  0            999 V2000
  -30.5685  -14.7424   20.4852 C   0  0  0  0  0  0
  -30.4511  -12.4558   19.4667 C   0  0  0  0  0  0
  -29.5165  -12.5188   18.2354 C   0  0  0  0  0  0
  -28.0413  -12.3378   18.6472 C   0  0  0  0  0  0
  -27.6514  -13.2208   19.8617 C   0  0  2  0  0  0
  -28.6967  -13.1050   20.9940 C   0  0  0  0  0  0
  -25.2558  -13.8172   20.5689 C   0  0  0  0  0  0
  -24.1828  -13.0436   20.9197 C   0  0  0  0  0  0
  -24.6402  -11.6908   20.8741 C   0  0  0  0  0  0
  -23.9069  -10.4291   21.0407 C   0  0  0  0  0  0
  -24.3619   -9.4205   21.9183 C   0  0  0  0  0  0
  -23.6293   -8.2242   22.0753 C   0  0  0  0  0  0
  -22.4275   -8.0281   21.3544 C   0  0  0  0  0  0
  -21.9911   -9.0256   20.4648 C   0  0  0  0  0  0
  -22.7240  -10.2135   20.3057 C   0  0  0  0  0  0
  -21.6852   -6.0735   22.5279 C   0  0  0  0  0  0
  -21.4013   -6.5638   23.8212 C   0  0  0  0  0  0
  -21.3661   -5.6792   24.9175 C   0  0  0  0  0  0
  -21.6044   -4.3055   24.7226 C   0  0  0  0  0  0
  -21.8820   -3.8146   23.4348 C   0  0  0  0  0  0
  -21.9194   -4.6962   22.3403 C   0  0  0  0  0  0
  -22.7850  -13.5228   21.1859 C   0  0  0  0  0  0
  -22.1662   -4.2147   21.0981 F   0  0  0  0  0  0
  -21.5631   -3.4540   25.7739 F   0  0  0  0  0  0
  -30.0024  -13.4862   20.4306 N   0  0  0  0  0  0
  -26.2984  -12.9356   20.3312 N   0  0  0  0  0  0
  -25.9332  -11.6510   20.5754 N   0  0  0  0  0  0
  -22.0494  -12.8220   22.0416 N   0  0  0  0  0  0
  -25.4273  -15.1895   20.4100 N   0  0  0  0  0  0
  -31.7262  -14.9243   20.0934 O   0  0  0  0  0  0
  -21.6641   -6.8877   21.4240 O   0  0  0  0  0  0
  -22.3535  -14.5535   20.6705 O   0  0  0  0  0  0
  -24.6313  -31.8551   23.1983 C   0  0  0  0  0  0
  -25.9135  -32.4756   23.8333 C   0  0  1  0  0  0
  -27.2249  -27.2672   20.1291 C   0  0  0  0  0  0
  -25.5927  -33.8559   24.2254 N   0  0  0  0  0  0
  -23.4298  -30.4767   21.5413 C   0  0  2  0  0  0
  -24.8811  -28.9258   20.1087 C   0  0  0  0  0  0
  -22.7509  -29.4597   22.4906 C   0  0  0  0  0  0
  -18.0294  -28.1384   22.8486 C   0  0  0  0  0  0
  -24.1490  -36.7287   23.2640 C   0  0  0  0  0  0
  -25.9760  -30.7685   21.3802 C   0  0  0  0  0  0
  -26.0525  -29.3914   20.7220 C   0  0  0  0  0  0
  -27.2300  -28.5734   20.7249 C   0  0  0  0  0  0
  -26.0355  -26.8731   19.4795 C   0  0  0  0  0  0
  -24.8770  -27.6736   19.4759 C   0  0  0  0  0  0
  -23.6498  -29.8106   20.1575 C   0  0  0  0  0  0
  -25.4117  -36.3072   24.0325 C   0  0  1  0  0  0
  -20.5900  -28.3699   23.1264 C   0  0  2  0  0  0
  -20.6780  -26.9416   22.5406 C   0  0  0  0  0  0
  -19.5754  -26.6381   21.5212 C   0  0  0  0  0  0
  -18.1937  -26.7924   22.1630 C   0  0  0  0  0  0
  -19.1549  -28.8859   23.2870 C   0  0  0  0  0  0
  -18.9469  -30.1459   23.8888 C   0  0  0  0  0  0
  -17.6468  -30.6587   24.0562 C   0  0  0  0  0  0
  -25.9054  -34.9442   23.5094 C   0  0  0  0  0  0
  -16.5359  -29.9084   23.6331 C   0  0  0  0  0  0
  -16.7280  -28.6501   23.0354 C   0  0  0  0  0  0
  -26.4500  -31.6581   25.0723 C   0  0  0  0  0  0
  -25.3721  -31.3739   26.1442 C   0  0  0  0  0  0
  -27.0350  -30.2994   24.6218 C   0  0  0  0  0  0
  -27.6046  -32.4328   25.7500 C   0  0  0  0  0  0
  -27.5578  -37.1801   24.8467 C   0  0  0  0  0  0
  -21.4214  -29.3046   22.3651 N   0  0  0  0  0  0
  -26.4293  -37.3769   23.9405 N   0  0  0  0  0  0
  -24.6978  -31.0511   22.0963 N   0  0  0  0  0  0
  -23.4203  -28.8138   23.3011 O   0  0  0  0  0  0
  -28.2747  -26.3196   20.1796 O   0  0  0  0  0  0
  -26.5633  -34.8915   22.4667 O   0  0  0  0  0  0
  -23.5460  -32.1373   23.7272 O   0  0  0  0  0  0
  -28.4029  -19.3345   21.3720 C   0  0  0  0  0  0
  -30.2787  -19.5677   19.9757 C   0  0  0  0  0  0
  -28.6085  -17.9214   21.4327 C   0  0  0  0  0  0
  -30.5100  -18.1383   20.0304 C   0  0  0  0  0  0
  -29.2087  -20.2590   20.6419 C   0  0  0  0  0  0
  -29.6683  -17.2520   20.7675 C   0  0  0  0  0  0
  -28.4293  -23.7432   20.6065 C   0  0  0  0  0  0
  -27.9214  -22.5499   21.2755 C   0  0  0  0  0  0
  -27.9438  -25.0462   20.7318 C   0  0  0  0  0  0
  -29.4924  -22.8480   19.8987 C   0  0  0  0  0  0
  -28.8783  -21.7167   20.6595 N   0  0  0  0  0  0
  -29.7251  -15.7689   20.8757 N   0  0  0  0  0  0
  -27.0000  -22.4088   22.0534 O   0  0  0  0  0  0
  -31.4873  -12.6094   19.1601 H   0  0  0  0  0  0
  -30.4196  -11.4667   19.9265 H   0  0  0  0  0  0
  -29.7978  -11.7551   17.5089 H   0  0  0  0  0  0
  -29.6389  -13.4788   17.7316 H   0  0  0  0  0  0
  -27.8959  -11.2860   18.8961 H   0  0  0  0  0  0
  -27.3834  -12.5432   17.8020 H   0  0  0  0  0  0
  -27.6590  -14.2507   19.5044 H   0  0  0  0  0  0
  -28.7336  -12.0849   21.3792 H   0  0  0  0  0  0
  -28.4235  -13.7320   21.8440 H   0  0  0  0  0  0
  -25.2765   -9.5679   22.4756 H   0  0  0  0  0  0
  -24.0002   -7.4632   22.7472 H   0  0  0  0  0  0
  -21.0841   -8.8775   19.8954 H   0  0  0  0  0  0
  -22.3699  -10.9675   19.6168 H   0  0  0  0  0  0
  -21.2003   -7.6146   23.9714 H   0  0  0  0  0  0
  -21.1482   -6.0523   25.9077 H   0  0  0  0  0  0
  -22.0598   -2.7608   23.2849 H   0  0  0  0  0  0
  -22.4112  -11.9883   22.4805 H   0  0  0  0  0  0
  -21.1112  -13.1244   22.2625 H   0  0  0  0  0  0
  -24.6575  -15.8417   20.5130 H   0  0  0  0  0  0
  -26.2695  -15.6261   20.0572 H   0  0  0  0  0  0
  -26.7203  -32.5413   23.1078 H   0  0  0  0  0  0
  -25.0056  -33.9694   25.0388 H   0  0  0  0  0  0
  -22.7267  -31.2991   21.3942 H   0  0  0  0  0  0
  -23.3748  -35.9624   23.3310 H   0  0  0  0  0  0
  -24.3576  -36.8903   22.2053 H   0  0  0  0  0  0
  -23.7250  -37.6493   23.6660 H   0  0  0  0  0  0
  -26.1151  -31.5291   20.6108 H   0  0  0  0  0  0
  -26.8527  -30.8178   22.0143 H   0  0  0  0  0  0
  -28.1239  -28.9182   21.2254 H   0  0  0  0  0  0
  -25.9908  -25.9067   18.9974 H   0  0  0  0  0  0
  -23.9817  -27.3114   18.9890 H   0  0  0  0  0  0
  -23.7723  -30.5871   19.4016 H   0  0  0  0  0  0
  -22.7691  -29.2423   19.8529 H   0  0  0  0  0  0
  -25.1300  -36.1921   25.0818 H   0  0  0  0  0  0
  -20.9994  -28.3279   24.1384 H   0  0  0  0  0  0
  -20.5679  -26.2312   23.3613 H   0  0  0  0  0  0
  -21.6647  -26.7435   22.1201 H   0  0  0  0  0  0
  -19.6917  -25.6289   21.1246 H   0  0  0  0  0  0
  -19.6687  -27.3188   20.6739 H   0  0  0  0  0  0
  -17.4203  -26.6666   21.4037 H   0  0  0  0  0  0
  -18.0347  -26.0068   22.9029 H   0  0  0  0  0  0
  -19.7945  -30.7279   24.2251 H   0  0  0  0  0  0
  -17.5022  -31.6265   24.5167 H   0  0  0  0  0  0
  -15.5359  -30.2985   23.7655 H   0  0  0  0  0  0
  -15.8682  -28.0815   22.7074 H   0  0  0  0  0  0
  -24.5878  -30.7113   25.7763 H   0  0  0  0  0  0
  -24.8937  -32.2916   26.4871 H   0  0  0  0  0  0
  -25.8026  -30.8900   27.0217 H   0  0  0  0  0  0
  -26.2939  -29.6739   24.1226 H   0  0  0  0  0  0
  -27.4008  -29.7259   25.4745 H   0  0  0  0  0  0
  -27.8828  -30.4263   23.9482 H   0  0  0  0  0  0
  -27.2638  -33.3623   26.2072 H   0  0  0  0  0  0
  -28.3859  -32.6897   25.0335 H   0  0  0  0  0  0
  -28.0713  -31.8462   26.5425 H   0  0  0  0  0  0
  -28.2602  -38.0091   24.7498 H   0  0  0  0  0  0
  -28.1067  -36.2621   24.6314 H   0  0  0  0  0  0
  -27.2292  -37.1474   25.8869 H   0  0  0  0  0  0
  -20.9401  -29.8772   21.6857 H   0  0  0  0  0  0
  -26.0174  -38.2846   24.1392 H   0  0  0  0  0  0
  -27.5585  -19.7204   21.9252 H   0  0  0  0  0  0
  -30.9661  -20.1570   19.3856 H   0  0  0  0  0  0
  -27.9079  -17.3412   22.0169 H   0  0  0  0  0  0
  -31.3442  -17.7292   19.4781 H   0  0  0  0  0  0
  -27.1101  -25.1709   21.4114 H   0  0  0  0  0  0
  -30.5386  -22.9973   20.1702 H   0  0  0  0  0  0
  -29.3951  -22.7088   18.8208 H   0  0  0  0  0  0
  -28.8810  -15.3792   21.2665 H   0  0  0  0  0  0
  1 25  1  0  0  0
  1 30  2  0  0  0
  1 82  1  0  0  0
  2  3  1  0  0  0
  2 25  1  0  0  0
  2 84  1  0  0  0
  2 85  1  0  0  0
  3  4  1  0  0  0
  3 86  1  0  0  0
  3 87  1  0  0  0
  4  5  1  0  0  0
  4 88  1  0  0  0
  4 89  1  0  0  0
  5  6  1  0  0  0
  5 26  1  0  0  0
  5 90  1  0  0  0
  6 25  1  0  0  0
  6 91  1  0  0  0
  6 92  1  0  0  0
  7  8  2  0  0  0
  7 26  1  0  0  0
  7 29  1  0  0  0
  8  9  1  0  0  0
  8 22  1  0  0  0
  9 10  1  0  0  0
  9 27  2  0  0  0
 10 11  2  0  0  0
 10 15  1  0  0  0
 11 12  1  0  0  0
 11 93  1  0  0  0
 12 13  2  0  0  0
 12 94  1  0  0  0
 13 14  1  0  0  0
 13 31  1  0  0  0
 14 15  2  0  0  0
 14 95  1  0  0  0
 15 96  1  0  0  0
 16 17  2  0  0  0
 16 21  1  0  0  0
 16 31  1  0  0  0
 17 18  1  0  0  0
 17 97  1  0  0  0
 18 19  2  0  0  0
 18 98  1  0  0  0
 19 20  1  0  0  0
 19 24  1  0  0  0
 20 21  2  0  0  0
 20 99  1  0  0  0
 21 23  1  0  0  0
 22 28  1  0  0  0
 22 32  2  0  0  0
 26 27  1  0  0  0
 28100  1  0  0  0
 28101  1  0  0  0
 29102  1  0  0  0
 29103  1  0  0  0
 33 34  1  0  0  0
 33 66  1  0  0  0
 33 70  2  0  0  0
 34 36  1  0  0  0
 34 59  1  0  0  0
 34104  1  0  0  0
 35 44  2  0  0  0
 35 45  1  0  0  0
 35 68  1  0  0  0
 36 56  1  0  0  0
 36105  1  0  0  0
 37 39  1  0  0  0
 37 47  1  0  0  0
 37 66  1  0  0  0
 37106  1  0  0  0
 38 43  2  0  0  0
 38 46  1  0  0  0
 38 47  1  0  0  0
 39 64  1  0  0  0
 39 67  2  0  0  0
 40 52  1  0  0  0
 40 53  2  0  0  0
 40 58  1  0  0  0
 41107  1  0  0  0
 41108  1  0  0  0
 41109  1  0  0  0
 41 48  1  0  0  0
 42 43  1  0  0  0
 42 66  1  0  0  0
 42110  1  0  0  0
 42111  1  0  0  0
 43 44  1  0  0  0
 44112  1  0  0  0
 45 46  2  0  0  0
 45113  1  0  0  0
 46114  1  0  0  0
 47115  1  0  0  0
 47116  1  0  0  0
 48 56  1  0  0  0
 48 65  1  0  0  0
 48117  1  0  0  0
 49 50  1  0  0  0
 49 53  1  0  0  0
 49 64  1  0  0  0
 49118  1  0  0  0
 50 51  1  0  0  0
 50119  1  0  0  0
 50120  1  0  0  0
 51 52  1  0  0  0
 51121  1  0  0  0
 51122  1  0  0  0
 52123  1  0  0  0
 52124  1  0  0  0
 53 54  1  0  0  0
 54 55  2  0  0  0
 54125  1  0  0  0
 55 57  1  0  0  0
 55126  1  0  0  0
 56 69  2  0  0  0
 57 58  2  0  0  0
 57127  1  0  0  0
 58128  1  0  0  0
 59 60  1  0  0  0
 59 61  1  0  0  0
 59 62  1  0  0  0
 60129  1  0  0  0
 60130  1  0  0  0
 60131  1  0  0  0
 61132  1  0  0  0
 61133  1  0  0  0
 61134  1  0  0  0
 62135  1  0  0  0
 62136  1  0  0  0
 62137  1  0  0  0
 63 65  1  0  0  0
 63138  1  0  0  0
 63139  1  0  0  0
 63140  1  0  0  0
 64141  1  0  0  0
 65142  1  0  0  0
 68 79  1  0  0  0
 71 73  2  0  0  0
 71 75  1  0  0  0
 71143  1  0  0  0
 72 74  1  0  0  0
 72 75  2  0  0  0
 72144  1  0  0  0
 73 76  1  0  0  0
 73145  1  0  0  0
 74 76  2  0  0  0
 74146  1  0  0  0
 75 81  1  0  0  0
 76 82  1  0  0  0
 77 78  1  0  0  0
 77 79  2  0  0  0
 77 80  1  0  0  0
 78 81  1  0  0  0
 78 83  2  0  0  0
 79147  1  0  0  0
 80 81  1  0  0  0
 80148  1  0  0  0
 80149  1  0  0  0
 82150  1  0  0  0
M  ISO  4   1 100  68 101  79 101  82 100
M  END
> <chiral flag>
0

> <version>
0

> <s_m_source_file>
/data/baiqing/PycharmProjects/Reinvent-master-3.2/result/LINK_invent/BTK/process_docking_weight1_custom_product_contain_oxygen_bond_distance_aromatic_linkinvent_7_9_3/rearranged_h_0081.sdf

> <i_m_source_file_index>
16

> <r_mmod_Potential_Energy-OPLS-2005>
216.110015869141

> <r_mmod_Stretch_Energy-OPLS-2005>
106.537666320801

> <r_mmod_Bend_Energy-OPLS-2005>
270.702850341797

> <r_mmod_Torsional_Energy-OPLS-2005>
219.89909362793

> <r_mmod_Improper_Torsional_Energy-OPLS-2005>
3.45828318595886

> <r_mmod_Van_der_Waal_Energy-OPLS-2005>
134.482055664062

> <r_mmod_Electrostatic_Energy-OPLS-2005>
-389.401977539062

> <r_mmod_Solvation_Energy-OPLS-2005>
-217.736526489258

> <b_mmod_Minimization_Converged-OPLS-2005>
0

> <r_mmod_RMS_Derivative-OPLS-2005>
0.385791778564453

$$$$
16
                    3D
 Structure written by MMmdl.
160169  0  0  1  0            999 V2000
  -30.6166  -14.7356   20.3564 C   0  0  0  0  0  0
  -30.4385  -12.4185   19.4636 C   0  0  0  0  0  0
  -29.5068  -12.3979   18.2314 C   0  0  0  0  0  0
  -28.0215  -12.3059   18.6462 C   0  0  0  0  0  0
  -27.6350  -13.2147   19.8480 C   0  0  2  0  0  0
  -28.6969  -13.1856   20.9663 C   0  0  0  0  0  0
  -25.2506  -13.8128   20.5744 C   0  0  0  0  0  0
  -24.1780  -13.0398   20.9242 C   0  0  0  0  0  0
  -24.6360  -11.6876   20.8802 C   0  0  0  0  0  0
  -23.9042  -10.4258   21.0438 C   0  0  0  0  0  0
  -24.3602   -9.4166   21.9201 C   0  0  0  0  0  0
  -23.6277   -8.2201   22.0755 C   0  0  0  0  0  0
  -22.4256   -8.0253   21.3548 C   0  0  0  0  0  0
  -21.9899   -9.0227   20.4648 C   0  0  0  0  0  0
  -22.7226  -10.2106   20.3069 C   0  0  0  0  0  0
  -21.6835   -6.0718   22.5283 C   0  0  0  0  0  0
  -21.3998   -6.5629   23.8214 C   0  0  0  0  0  0
  -21.3665   -5.6789   24.9185 C   0  0  0  0  0  0
  -21.6050   -4.3051   24.7239 C   0  0  0  0  0  0
  -21.8815   -3.8135   23.4361 C   0  0  0  0  0  0
  -21.9183   -4.6947   22.3413 C   0  0  0  0  0  0
  -22.7801  -13.5194   21.1883 C   0  0  0  0  0  0
  -22.1657   -4.2131   21.0992 F   0  0  0  0  0  0
  -21.5644   -3.4542   25.7757 F   0  0  0  0  0  0
  -29.9870  -13.5120   20.3465 N   0  0  0  0  0  0
  -26.2923  -12.9298   20.3379 N   0  0  0  0  0  0
  -25.9295  -11.6469   20.5868 N   0  0  0  0  0  0
  -22.0440  -12.8187   22.0441 N   0  0  0  0  0  0
  -25.4213  -15.1846   20.4126 N   0  0  0  0  0  0
  -31.8443  -14.7948   20.2444 O   0  0  0  0  0  0
  -21.6620   -6.8852   21.4240 O   0  0  0  0  0  0
  -22.3494  -14.5497   20.6718 O   0  0  0  0  0  0
  -24.6275  -31.8588   23.2014 C   0  0  0  0  0  0
  -25.9120  -32.4769   23.8340 C   0  0  1  0  0  0
  -27.2250  -27.2920   20.1225 C   0  0  0  0  0  0
  -25.5941  -33.8571   24.2278 N   0  0  0  0  0  0
  -23.4226  -30.4812   21.5436 C   0  0  2  0  0  0
  -24.8700  -28.9317   20.1103 C   0  0  0  0  0  0
  -22.7482  -29.4617   22.4926 C   0  0  0  0  0  0
  -18.0282  -28.1386   22.8485 C   0  0  0  0  0  0
  -24.1489  -36.7282   23.2640 C   0  0  0  0  0  0
  -25.9659  -30.7796   21.3776 C   0  0  0  0  0  0
  -26.0377  -29.4044   20.7202 C   0  0  0  0  0  0
  -27.2142  -28.5948   20.7180 C   0  0  0  0  0  0
  -26.0319  -26.8780   19.4859 C   0  0  0  0  0  0
  -24.8707  -27.6762   19.4837 C   0  0  0  0  0  0
  -23.6394  -29.8154   20.1588 C   0  0  0  0  0  0
  -25.4119  -36.3082   24.0329 C   0  0  1  0  0  0
  -20.5883  -28.3697   23.1274 C   0  0  2  0  0  0
  -20.6770  -26.9417   22.5407 C   0  0  0  0  0  0
  -19.5749  -26.6388   21.5203 C   0  0  0  0  0  0
  -18.1930  -26.7929   22.1615 C   0  0  0  0  0  0
  -19.1537  -28.8855   23.2876 C   0  0  0  0  0  0
  -18.9460  -30.1456   23.8904 C   0  0  0  0  0  0
  -17.6463  -30.6588   24.0557 C   0  0  0  0  0  0
  -25.9062  -34.9449   23.5105 C   0  0  0  0  0  0
  -16.5351  -29.9087   23.6325 C   0  0  0  0  0  0
  -16.7271  -28.6495   23.0354 C   0  0  0  0  0  0
  -26.4506  -31.6582   25.0714 C   0  0  0  0  0  0
  -25.3748  -31.3720   26.1445 C   0  0  0  0  0  0
  -27.0349  -30.2997   24.6186 C   0  0  0  0  0  0
  -27.6061  -32.4319   25.7491 C   0  0  0  0  0  0
  -27.5579  -37.1801   24.8468 C   0  0  0  0  0  0
  -21.4191  -29.3052   22.3666 N   0  0  0  0  0  0
  -26.4293  -37.3777   23.9410 N   0  0  0  0  0  0
  -24.6907  -31.0574   22.0973 N   0  0  0  0  0  0
  -23.4198  -28.8154   23.3010 O   0  0  0  0  0  0
  -28.3565  -26.4541   20.1808 O   0  0  0  0  0  0
  -26.5616  -34.8917   22.4666 O   0  0  0  0  0  0
  -23.5433  -32.1404   23.7325 O   0  0  0  0  0  0
  -28.5435  -19.3712   20.5428 C   0  0  0  0  0  0
  -28.6029  -17.9506   20.3708 C   0  0  0  0  0  0
  -30.9816  -17.9968   20.6202 C   0  0  0  0  0  0
  -29.7063  -20.1688   20.7467 C   0  0  0  0  0  0
  -29.8223  -17.2111   20.3965 C   0  0  0  0  0  0
  -30.9288  -19.4175   20.7809 C   0  0  0  0  0  0
  -29.0379  -24.0689   20.6499 C   0  0  0  0  0  0
  -29.9568  -24.4102   21.7310 C   0  0  0  0  0  0
  -28.9177  -22.5920   20.2910 C   0  0  0  0  0  0
  -30.6525  -25.5634   21.7758 C   0  0  0  0  0  0
  -28.3003  -25.0442   19.9948 C   0  0  0  0  0  0
  -30.1829  -23.3597   22.7812 C   0  0  0  0  0  0
  -30.6075  -22.0849   22.0552 C   0  0  0  0  0  0
  -29.6751  -15.8221   18.4390 C   0  0  0  0  0  0
  -29.6711  -21.6419   20.9981 N   0  0  0  0  0  0
  -29.8605  -15.8186   19.9052 N   0  0  0  0  0  0
  -28.1670  -22.2168   19.3832 O   0  0  0  0  0  0
  -32.1130  -20.0574   20.9290 F   0  0  0  0  0  0
  -31.4739  -12.5504   19.1438 H   0  0  0  0  0  0
  -30.4044  -11.4654   19.9936 H   0  0  0  0  0  0
  -29.7569  -11.5408   17.6041 H   0  0  0  0  0  0
  -29.6791  -13.2659   17.6000 H   0  0  0  0  0  0
  -27.8336  -11.2637   18.9064 H   0  0  0  0  0  0
  -27.3781  -12.5199   17.7918 H   0  0  0  0  0  0
  -27.5958  -14.2299   19.4716 H   0  0  0  0  0  0
  -28.7349  -12.2082   21.4493 H   0  0  0  0  0  0
  -28.4529  -13.9129   21.7427 H   0  0  0  0  0  0
  -25.2746   -9.5632   22.4782 H   0  0  0  0  0  0
  -23.9988   -7.4579   22.7456 H   0  0  0  0  0  0
  -21.0838   -8.8737   19.8944 H   0  0  0  0  0  0
  -22.3689  -10.9647   19.6179 H   0  0  0  0  0  0
  -21.1975   -7.6134   23.9716 H   0  0  0  0  0  0
  -21.1504   -6.0523   25.9090 H   0  0  0  0  0  0
  -22.0592   -2.7594   23.2873 H   0  0  0  0  0  0
  -22.4052  -11.9858   22.4849 H   0  0  0  0  0  0
  -21.1054  -13.1203   22.2634 H   0  0  0  0  0  0
  -24.6558  -15.8419   20.5155 H   0  0  0  0  0  0
  -26.2806  -15.6177   20.1014 H   0  0  0  0  0  0
  -26.7184  -32.5425   23.1082 H   0  0  0  0  0  0
  -25.0104  -33.9722   25.0430 H   0  0  0  0  0  0
  -22.7176  -31.3025   21.3983 H   0  0  0  0  0  0
  -23.3751  -35.9615   23.3325 H   0  0  0  0  0  0
  -24.3576  -36.8874   22.2050 H   0  0  0  0  0  0
  -23.7240  -37.6492   23.6642 H   0  0  0  0  0  0
  -26.1043  -31.5423   20.6102 H   0  0  0  0  0  0
  -26.8451  -30.8269   22.0086 H   0  0  0  0  0  0
  -28.1107  -28.9538   21.2030 H   0  0  0  0  0  0
  -25.9587  -25.9210   18.9945 H   0  0  0  0  0  0
  -23.9762  -27.3104   18.9992 H   0  0  0  0  0  0
  -23.7633  -30.5930   19.4041 H   0  0  0  0  0  0
  -22.7585  -29.2481   19.8527 H   0  0  0  0  0  0
  -25.1295  -36.1938   25.0817 H   0  0  0  0  0  0
  -20.9976  -28.3279   24.1394 H   0  0  0  0  0  0
  -20.5658  -26.2310   23.3612 H   0  0  0  0  0  0
  -21.6641  -26.7442   22.1208 H   0  0  0  0  0  0
  -19.6918  -25.6301   21.1229 H   0  0  0  0  0  0
  -19.6682  -27.3199   20.6735 H   0  0  0  0  0  0
  -17.4194  -26.6669   21.4024 H   0  0  0  0  0  0
  -18.0337  -26.0069   22.9012 H   0  0  0  0  0  0
  -19.7940  -30.7258   24.2287 H   0  0  0  0  0  0
  -17.5017  -31.6269   24.5159 H   0  0  0  0  0  0
  -15.5353  -30.2984   23.7659 H   0  0  0  0  0  0
  -15.8664  -28.0813   22.7086 H   0  0  0  0  0  0
  -24.5927  -30.7063   25.7778 H   0  0  0  0  0  0
  -24.8943  -32.2886   26.4874 H   0  0  0  0  0  0
  -25.8086  -30.8900   27.0214 H   0  0  0  0  0  0
  -26.2929  -29.6742   24.1212 H   0  0  0  0  0  0
  -27.4035  -29.7255   25.4696 H   0  0  0  0  0  0
  -27.8798  -30.4264   23.9416 H   0  0  0  0  0  0
  -27.2667  -33.3608   26.2081 H   0  0  0  0  0  0
  -28.3867  -32.6899   25.0325 H   0  0  0  0  0  0
  -28.0732  -31.8441   26.5404 H   0  0  0  0  0  0
  -28.2607  -38.0090   24.7504 H   0  0  0  0  0  0
  -28.1065  -36.2622   24.6303 H   0  0  0  0  0  0
  -27.2297  -37.1455   25.8871 H   0  0  0  0  0  0
  -20.9375  -29.8771   21.6870 H   0  0  0  0  0  0
  -26.0176  -38.2850   24.1404 H   0  0  0  0  0  0
  -27.5743  -19.8486   20.5104 H   0  0  0  0  0  0
  -27.6818  -17.4256   20.1630 H   0  0  0  0  0  0
  -31.9540  -17.5262   20.5977 H   0  0  0  0  0  0
  -30.5678  -26.3263   21.0169 H   0  0  0  0  0  0
  -31.3501  -25.7628   22.5768 H   0  0  0  0  0  0
  -27.6474  -24.7683   19.1819 H   0  0  0  0  0  0
  -29.2642  -23.1976   23.3473 H   0  0  0  0  0  0
  -30.9486  -23.6661   23.4963 H   0  0  0  0  0  0
  -30.7460  -21.2944   22.7937 H   0  0  0  0  0  0
  -31.5812  -22.2644   21.5967 H   0  0  0  0  0  0
  -28.8079  -15.2523   18.1215 H   0  0  0  0  0  0
  -30.5465  -15.4257   17.9129 H   0  0  0  0  0  0
  -29.5245  -16.8254   18.0367 H   0  0  0  0  0  0
  1 25  1  0  0  0
  1 30  2  0  0  0
  1 86  1  0  0  0
  2  3  1  0  0  0
  2 25  1  0  0  0
  2 89  1  0  0  0
  2 90  1  0  0  0
  3  4  1  0  0  0
  3 91  1  0  0  0
  3 92  1  0  0  0
  4  5  1  0  0  0
  4 93  1  0  0  0
  4 94  1  0  0  0
  5  6  1  0  0  0
  5 26  1  0  0  0
  5 95  1  0  0  0
  6 25  1  0  0  0
  6 96  1  0  0  0
  6 97  1  0  0  0
  7  8  2  0  0  0
  7 26  1  0  0  0
  7 29  1  0  0  0
  8  9  1  0  0  0
  8 22  1  0  0  0
  9 10  1  0  0  0
  9 27  2  0  0  0
 10 11  2  0  0  0
 10 15  1  0  0  0
 11 12  1  0  0  0
 11 98  1  0  0  0
 12 13  2  0  0  0
 12 99  1  0  0  0
 13 14  1  0  0  0
 13 31  1  0  0  0
 14 15  2  0  0  0
 14100  1  0  0  0
 15101  1  0  0  0
 16 17  2  0  0  0
 16 21  1  0  0  0
 16 31  1  0  0  0
 17 18  1  0  0  0
 17102  1  0  0  0
 18 19  2  0  0  0
 18103  1  0  0  0
 19 20  1  0  0  0
 19 24  1  0  0  0
 20 21  2  0  0  0
 20104  1  0  0  0
 21 23  1  0  0  0
 22 28  1  0  0  0
 22 32  2  0  0  0
 26 27  1  0  0  0
 28105  1  0  0  0
 28106  1  0  0  0
 29107  1  0  0  0
 29108  1  0  0  0
 33 34  1  0  0  0
 33 66  1  0  0  0
 33 70  2  0  0  0
 34 36  1  0  0  0
 34 59  1  0  0  0
 34109  1  0  0  0
 35 44  2  0  0  0
 35 45  1  0  0  0
 35 68  1  0  0  0
 36 56  1  0  0  0
 36110  1  0  0  0
 37 39  1  0  0  0
 37 47  1  0  0  0
 37 66  1  0  0  0
 37111  1  0  0  0
 38 43  2  0  0  0
 38 46  1  0  0  0
 38 47  1  0  0  0
 39 64  1  0  0  0
 39 67  2  0  0  0
 40 52  1  0  0  0
 40 53  2  0  0  0
 40 58  1  0  0  0
 41112  1  0  0  0
 41113  1  0  0  0
 41114  1  0  0  0
 41 48  1  0  0  0
 42 43  1  0  0  0
 42 66  1  0  0  0
 42115  1  0  0  0
 42116  1  0  0  0
 43 44  1  0  0  0
 44117  1  0  0  0
 45 46  2  0  0  0
 45118  1  0  0  0
 46119  1  0  0  0
 47120  1  0  0  0
 47121  1  0  0  0
 48 56  1  0  0  0
 48 65  1  0  0  0
 48122  1  0  0  0
 49 50  1  0  0  0
 49 53  1  0  0  0
 49 64  1  0  0  0
 49123  1  0  0  0
 50 51  1  0  0  0
 50124  1  0  0  0
 50125  1  0  0  0
 51 52  1  0  0  0
 51126  1  0  0  0
 51127  1  0  0  0
 52128  1  0  0  0
 52129  1  0  0  0
 53 54  1  0  0  0
 54 55  2  0  0  0
 54130  1  0  0  0
 55 57  1  0  0  0
 55131  1  0  0  0
 56 69  2  0  0  0
 57 58  2  0  0  0
 57132  1  0  0  0
 58133  1  0  0  0
 59 60  1  0  0  0
 59 61  1  0  0  0
 59 62  1  0  0  0
 60134  1  0  0  0
 60135  1  0  0  0
 60136  1  0  0  0
 61137  1  0  0  0
 61138  1  0  0  0
 61139  1  0  0  0
 62140  1  0  0  0
 62141  1  0  0  0
 62142  1  0  0  0
 63 65  1  0  0  0
 63143  1  0  0  0
 63144  1  0  0  0
 63145  1  0  0  0
 64146  1  0  0  0
 65147  1  0  0  0
 68 81  1  0  0  0
 71 72  2  0  0  0
 71 74  1  0  0  0
 71148  1  0  0  0
 72 75  1  0  0  0
 72149  1  0  0  0
 73 75  2  0  0  0
 73 76  1  0  0  0
 73150  1  0  0  0
 74 76  2  0  0  0
 74 85  1  0  0  0
 75 86  1  0  0  0
 76 88  1  0  0  0
 77 78  1  0  0  0
 77 79  1  0  0  0
 77 81  2  0  0  0
 78 80  2  0  0  0
 78 82  1  0  0  0
 79 85  1  0  0  0
 79 87  2  0  0  0
 80151  1  0  0  0
 80152  1  0  0  0
 81153  1  0  0  0
 82 83  1  0  0  0
 82154  1  0  0  0
 82155  1  0  0  0
 83 85  1  0  0  0
 83156  1  0  0  0
 83157  1  0  0  0
 84 86  1  0  0  0
 84158  1  0  0  0
 84159  1  0  0  0
 84160  1  0  0  0
M  ISO  4   1 100  68 101  81 101  86 100
M  END
> <chiral flag>
0

> <version>
0

> <s_m_source_file>
/data/baiqing/PycharmProjects/Reinvent-master-3.2/result/LINK_invent/BTK/process_docking_weight1_custom_product_contain_oxygen_bond_distance_aromatic_linkinvent_7_9_3/rearranged_h_0081.sdf

> <i_m_source_file_index>
17

> <r_mmod_Potential_Energy-OPLS-2005>
500.548522949219

> <r_mmod_Stretch_Energy-OPLS-2005>
113.988288879395

> <r_mmod_Bend_Energy-OPLS-2005>
169.600875854492

> <r_mmod_Torsional_Energy-OPLS-2005>
389.164825439453

> <r_mmod_Improper_Torsional_Energy-OPLS-2005>
25.4267177581787

> <r_mmod_Van_der_Waal_Energy-OPLS-2005>
172.716217041016

> <r_mmod_Electrostatic_Energy-OPLS-2005>
-263.903137207031

> <r_mmod_Solvation_Energy-OPLS-2005>
-190.0322265625

> <b_mmod_Minimization_Converged-OPLS-2005>
0

> <r_mmod_RMS_Derivative-OPLS-2005>
1.4128485918045

$$$$
17
                    3D
 Structure written by MMmdl.
153162  0  0  1  0            999 V2000
  -30.6657  -14.6345   20.5741 C   0  0  0  0  0  0
  -30.4283  -12.4046   19.4735 C   0  0  0  0  0  0
  -29.5090  -12.5361   18.2387 C   0  0  0  0  0  0
  -28.0318  -12.3579   18.6388 C   0  0  0  0  0  0
  -27.6555  -13.2188   19.8711 C   0  0  2  0  0  0
  -28.6899  -13.0554   21.0048 C   0  0  0  0  0  0
  -25.2559  -13.8180   20.5675 C   0  0  0  0  0  0
  -24.1814  -13.0433   20.9143 C   0  0  0  0  0  0
  -24.6374  -11.6906   20.8695 C   0  0  0  0  0  0
  -23.9040  -10.4286   21.0378 C   0  0  0  0  0  0
  -24.3592   -9.4214   21.9169 C   0  0  0  0  0  0
  -23.6270   -8.2252   22.0760 C   0  0  0  0  0  0
  -22.4256   -8.0275   21.3550 C   0  0  0  0  0  0
  -21.9884   -9.0232   20.4647 C   0  0  0  0  0  0
  -22.7206  -10.2117   20.3041 C   0  0  0  0  0  0
  -21.6854   -6.0722   22.5270 C   0  0  0  0  0  0
  -21.4018   -6.5632   23.8201 C   0  0  0  0  0  0
  -21.3654   -5.6785   24.9167 C   0  0  0  0  0  0
  -21.6045   -4.3045   24.7224 C   0  0  0  0  0  0
  -21.8814   -3.8126   23.4349 C   0  0  0  0  0  0
  -21.9185   -4.6944   22.3400 C   0  0  0  0  0  0
  -22.7850  -13.5237   21.1821 C   0  0  0  0  0  0
  -22.1658   -4.2129   21.0974 F   0  0  0  0  0  0
  -21.5627   -3.4535   25.7741 F   0  0  0  0  0  0
  -30.0156  -13.4203   20.4708 N   0  0  0  0  0  0
  -26.2995  -12.9359   20.3342 N   0  0  0  0  0  0
  -25.9314  -11.6499   20.5745 N   0  0  0  0  0  0
  -22.0500  -12.8228   22.0390 N   0  0  0  0  0  0
  -25.4269  -15.1908   20.4153 N   0  0  0  0  0  0
  -31.7491  -14.8171   20.0083 O   0  0  0  0  0  0
  -21.6631   -6.8861   21.4234 O   0  0  0  0  0  0
  -22.3532  -14.5542   20.6675 O   0  0  0  0  0  0
  -24.6246  -31.8588   23.2003 C   0  0  0  0  0  0
  -25.9089  -32.4780   23.8350 C   0  0  1  0  0  0
  -27.2319  -27.3218   20.1224 C   0  0  0  0  0  0
  -25.5893  -33.8578   24.2269 N   0  0  0  0  0  0
  -23.4222  -30.4795   21.5417 C   0  0  2  0  0  0
  -24.8725  -28.9311   20.1131 C   0  0  0  0  0  0
  -22.7473  -29.4606   22.4917 C   0  0  0  0  0  0
  -18.0271  -28.1405   22.8481 C   0  0  0  0  0  0
  -24.1480  -36.7274   23.2648 C   0  0  0  0  0  0
  -25.9627  -30.7901   21.3721 C   0  0  0  0  0  0
  -26.0411  -29.4169   20.7149 C   0  0  0  0  0  0
  -27.2271  -28.6244   20.7078 C   0  0  0  0  0  0
  -26.0457  -26.8852   19.4975 C   0  0  0  0  0  0
  -24.8738  -27.6687   19.4967 C   0  0  0  0  0  0
  -23.6397  -29.8116   20.1578 C   0  0  0  0  0  0
  -25.4115  -36.3085   24.0342 C   0  0  1  0  0  0
  -20.5882  -28.3704   23.1270 C   0  0  2  0  0  0
  -20.6775  -26.9431   22.5401 C   0  0  0  0  0  0
  -19.5746  -26.6387   21.5204 C   0  0  0  0  0  0
  -18.1908  -26.7950   22.1607 C   0  0  0  0  0  0
  -19.1531  -28.8867   23.2863 C   0  0  0  0  0  0
  -18.9465  -30.1455   23.8911 C   0  0  0  0  0  0
  -17.6469  -30.6600   24.0577 C   0  0  0  0  0  0
  -25.9052  -34.9453   23.5119 C   0  0  0  0  0  0
  -16.5351  -29.9110   23.6349 C   0  0  0  0  0  0
  -16.7262  -28.6529   23.0370 C   0  0  0  0  0  0
  -26.4487  -31.6609   25.0724 C   0  0  0  0  0  0
  -25.3725  -31.3694   26.1454 C   0  0  0  0  0  0
  -27.0388  -30.3065   24.6166 C   0  0  0  0  0  0
  -27.6034  -32.4389   25.7482 C   0  0  0  0  0  0
  -27.5582  -37.1784   24.8473 C   0  0  0  0  0  0
  -21.4185  -29.3066   22.3680 N   0  0  0  0  0  0
  -26.4288  -37.3787   23.9430 N   0  0  0  0  0  0
  -24.6881  -31.0602   22.0946 N   0  0  0  0  0  0
  -23.4189  -28.8115   23.2982 O   0  0  0  0  0  0
  -28.3336  -26.4557   20.1404 O   0  0  0  0  0  0
  -26.5628  -34.8920   22.4692 O   0  0  0  0  0  0
  -23.5404  -32.1379   23.7329 O   0  0  0  0  0  0
  -30.8192  -18.0040   20.2570 C   0  0  0  0  0  0
  -28.6738  -17.9523   21.3131 C   0  0  0  0  0  0
  -30.6373  -19.4006   19.9989 C   0  0  0  0  0  0
  -28.4829  -19.3396   21.0385 C   0  0  0  0  0  0
  -29.8497  -17.2297   20.9498 C   0  0  0  0  0  0
  -29.4697  -20.1315   20.3852 C   0  0  0  0  0  0
  -29.5008  -23.6572   19.1907 C   0  0  0  0  0  0
  -28.7543  -23.8407   20.2795 C   0  0  0  0  0  0
  -29.8361  -22.2495   19.0646 C   0  0  0  0  0  0
  -28.6180  -22.5050   20.8917 C   0  0  0  0  0  0
  -30.0507  -15.7848   21.4626 C   0  0  0  0  0  0
  -28.1324  -25.1675   20.8469 C   0  0  0  0  0  0
  -29.7380  -15.5577   22.6712 N   0  0  0  0  0  0
  -29.3022  -21.5915   20.1267 N   0  0  0  0  0  0
  -30.4699  -21.7413   18.1320 O   0  0  0  0  0  0
  -27.9986  -22.2440   21.9312 O   0  0  0  0  0  0
  -31.4750  -12.5063   19.1822 H   0  0  0  0  0  0
  -30.3444  -11.4056   19.9028 H   0  0  0  0  0  0
  -29.7825  -11.8032   17.4795 H   0  0  0  0  0  0
  -29.6465  -13.5191   17.7867 H   0  0  0  0  0  0
  -27.8695  -11.3028   18.8632 H   0  0  0  0  0  0
  -27.3775  -12.5961   17.7992 H   0  0  0  0  0  0
  -27.6792  -14.2584   19.5451 H   0  0  0  0  0  0
  -28.7066  -12.0268   21.3675 H   0  0  0  0  0  0
  -28.3839  -13.6468   21.8638 H   0  0  0  0  0  0
  -25.2741   -9.5704   22.4744 H   0  0  0  0  0  0
  -23.9974   -7.4663   22.7506 H   0  0  0  0  0  0
  -21.0802   -8.8747   19.8959 H   0  0  0  0  0  0
  -22.3656  -10.9651   19.6138 H   0  0  0  0  0  0
  -21.2012   -7.6135   23.9694 H   0  0  0  0  0  0
  -21.1486   -6.0519   25.9066 H   0  0  0  0  0  0
  -22.0585   -2.7587   23.2851 H   0  0  0  0  0  0
  -22.4114  -11.9868   22.4740 H   0  0  0  0  0  0
  -21.1144  -13.1293   22.2658 H   0  0  0  0  0  0
  -24.6584  -15.8446   20.5169 H   0  0  0  0  0  0
  -26.2875  -15.6360   20.1203 H   0  0  0  0  0  0
  -26.7143  -32.5478   23.1095 H   0  0  0  0  0  0
  -25.0102  -33.9744   25.0460 H   0  0  0  0  0  0
  -22.7148  -31.2973   21.3925 H   0  0  0  0  0  0
  -23.3785  -35.9562   23.3291 H   0  0  0  0  0  0
  -24.3567  -36.8929   22.2070 H   0  0  0  0  0  0
  -23.7183  -37.6440   23.6704 H   0  0  0  0  0  0
  -26.0988  -31.5532   20.6045 H   0  0  0  0  0  0
  -26.8400  -30.8358   22.0051 H   0  0  0  0  0  0
  -28.1270  -28.9890   21.1829 H   0  0  0  0  0  0
  -26.0208  -25.9158   19.0212 H   0  0  0  0  0  0
  -23.9782  -27.2898   19.0232 H   0  0  0  0  0  0
  -23.7620  -30.5881   19.4007 H   0  0  0  0  0  0
  -22.7602  -29.2405   19.8551 H   0  0  0  0  0  0
  -25.1289  -36.1942   25.0846 H   0  0  0  0  0  0
  -20.9961  -28.3293   24.1398 H   0  0  0  0  0  0
  -20.5673  -26.2328   23.3602 H   0  0  0  0  0  0
  -21.6630  -26.7435   22.1197 H   0  0  0  0  0  0
  -19.6914  -25.6287   21.1248 H   0  0  0  0  0  0
  -19.6688  -27.3190   20.6733 H   0  0  0  0  0  0
  -17.4171  -26.6690   21.3998 H   0  0  0  0  0  0
  -18.0291  -26.0069   22.8992 H   0  0  0  0  0  0
  -19.7939  -30.7250   24.2303 H   0  0  0  0  0  0
  -17.5031  -31.6289   24.5164 H   0  0  0  0  0  0
  -15.5370  -30.3026   23.7674 H   0  0  0  0  0  0
  -15.8652  -28.0854   22.7123 H   0  0  0  0  0  0
  -24.5933  -30.7018   25.7760 H   0  0  0  0  0  0
  -24.8884  -32.2828   26.4915 H   0  0  0  0  0  0
  -25.8064  -30.8841   27.0208 H   0  0  0  0  0  0
  -26.2977  -29.6752   24.1253 H   0  0  0  0  0  0
  -27.4212  -29.7384   25.4653 H   0  0  0  0  0  0
  -27.8759  -30.4411   23.9320 H   0  0  0  0  0  0
  -27.2667  -33.3765   26.1924 H   0  0  0  0  0  0
  -28.3887  -32.6844   25.0317 H   0  0  0  0  0  0
  -28.0635  -31.8605   26.5502 H   0  0  0  0  0  0
  -28.2566  -38.0114   24.7610 H   0  0  0  0  0  0
  -28.1129  -36.2666   24.6218 H   0  0  0  0  0  0
  -27.2306  -37.1317   25.8871 H   0  0  0  0  0  0
  -20.9373  -29.8845   21.6924 H   0  0  0  0  0  0
  -26.0178  -38.2861   24.1477 H   0  0  0  0  0  0
  -31.7502  -17.5411   19.9584 H   0  0  0  0  0  0
  -27.8904  -17.4327   21.8509 H   0  0  0  0  0  0
  -31.4532  -19.9149   19.5102 H   0  0  0  0  0  0
  -27.5552  -19.7936   21.3617 H   0  0  0  0  0  0
  -29.8120  -24.4282   18.5044 H   0  0  0  0  0  0
  -28.5519  -25.3014   21.8456 H   0  0  0  0  0  0
  -27.0733  -24.9741   21.0136 H   0  0  0  0  0  0
  -29.4016  -16.4059   23.1115 H   0  0  0  0  0  0
  1 25  1  0  0  0
  1 30  2  0  0  0
  1 81  1  0  0  0
  2  3  1  0  0  0
  2 25  1  0  0  0
  2 87  1  0  0  0
  2 88  1  0  0  0
  3  4  1  0  0  0
  3 89  1  0  0  0
  3 90  1  0  0  0
  4  5  1  0  0  0
  4 91  1  0  0  0
  4 92  1  0  0  0
  5  6  1  0  0  0
  5 26  1  0  0  0
  5 93  1  0  0  0
  6 25  1  0  0  0
  6 94  1  0  0  0
  6 95  1  0  0  0
  7  8  2  0  0  0
  7 26  1  0  0  0
  7 29  1  0  0  0
  8  9  1  0  0  0
  8 22  1  0  0  0
  9 10  1  0  0  0
  9 27  2  0  0  0
 10 11  2  0  0  0
 10 15  1  0  0  0
 11 12  1  0  0  0
 11 96  1  0  0  0
 12 13  2  0  0  0
 12 97  1  0  0  0
 13 14  1  0  0  0
 13 31  1  0  0  0
 14 15  2  0  0  0
 14 98  1  0  0  0
 15 99  1  0  0  0
 16 17  2  0  0  0
 16 21  1  0  0  0
 16 31  1  0  0  0
 17 18  1  0  0  0
 17100  1  0  0  0
 18 19  2  0  0  0
 18101  1  0  0  0
 19 20  1  0  0  0
 19 24  1  0  0  0
 20 21  2  0  0  0
 20102  1  0  0  0
 21 23  1  0  0  0
 22 28  1  0  0  0
 22 32  2  0  0  0
 26 27  1  0  0  0
 28103  1  0  0  0
 28104  1  0  0  0
 29105  1  0  0  0
 29106  1  0  0  0
 33 34  1  0  0  0
 33 66  1  0  0  0
 33 70  2  0  0  0
 34 36  1  0  0  0
 34 59  1  0  0  0
 34107  1  0  0  0
 35 44  2  0  0  0
 35 45  1  0  0  0
 35 68  1  0  0  0
 36 56  1  0  0  0
 36108  1  0  0  0
 37 39  1  0  0  0
 37 47  1  0  0  0
 37 66  1  0  0  0
 37109  1  0  0  0
 38 43  2  0  0  0
 38 46  1  0  0  0
 38 47  1  0  0  0
 39 64  1  0  0  0
 39 67  2  0  0  0
 40 52  1  0  0  0
 40 53  2  0  0  0
 40 58  1  0  0  0
 41110  1  0  0  0
 41111  1  0  0  0
 41112  1  0  0  0
 41 48  1  0  0  0
 42 43  1  0  0  0
 42 66  1  0  0  0
 42113  1  0  0  0
 42114  1  0  0  0
 43 44  1  0  0  0
 44115  1  0  0  0
 45 46  2  0  0  0
 45116  1  0  0  0
 46117  1  0  0  0
 47118  1  0  0  0
 47119  1  0  0  0
 48 56  1  0  0  0
 48 65  1  0  0  0
 48120  1  0  0  0
 49 50  1  0  0  0
 49 53  1  0  0  0
 49 64  1  0  0  0
 49121  1  0  0  0
 50 51  1  0  0  0
 50122  1  0  0  0
 50123  1  0  0  0
 51 52  1  0  0  0
 51124  1  0  0  0
 51125  1  0  0  0
 52126  1  0  0  0
 52127  1  0  0  0
 53 54  1  0  0  0
 54 55  2  0  0  0
 54128  1  0  0  0
 55 57  1  0  0  0
 55129  1  0  0  0
 56 69  2  0  0  0
 57 58  2  0  0  0
 57130  1  0  0  0
 58131  1  0  0  0
 59 60  1  0  0  0
 59 61  1  0  0  0
 59 62  1  0  0  0
 60132  1  0  0  0
 60133  1  0  0  0
 60134  1  0  0  0
 61135  1  0  0  0
 61136  1  0  0  0
 61137  1  0  0  0
 62138  1  0  0  0
 62139  1  0  0  0
 62140  1  0  0  0
 63 65  1  0  0  0
 63141  1  0  0  0
 63142  1  0  0  0
 63143  1  0  0  0
 64144  1  0  0  0
 65145  1  0  0  0
 68 82  1  0  0  0
 71 73  2  0  0  0
 71 75  1  0  0  0
 71146  1  0  0  0
 72 74  1  0  0  0
 72 75  2  0  0  0
 72147  1  0  0  0
 73 76  1  0  0  0
 73148  1  0  0  0
 74 76  2  0  0  0
 74149  1  0  0  0
 75 81  1  0  0  0
 76 84  1  0  0  0
 77 78  2  0  0  0
 77 79  1  0  0  0
 77150  1  0  0  0
 78 80  1  0  0  0
 78 82  1  0  0  0
 79 84  1  0  0  0
 79 85  2  0  0  0
 80 84  1  0  0  0
 80 86  2  0  0  0
 81 83  2  0  0  0
 82151  1  0  0  0
 82152  1  0  0  0
 83153  1  0  0  0
M  ISO  4   1 100  68 101  81 100  82 101
M  END
> <chiral flag>
0

> <version>
0

> <s_m_source_file>
/data/baiqing/PycharmProjects/Reinvent-master-3.2/result/LINK_invent/BTK/process_docking_weight1_custom_product_contain_oxygen_bond_distance_aromatic_linkinvent_7_9_3/rearranged_h_0081.sdf

> <i_m_source_file_index>
18

> <r_mmod_Potential_Energy-OPLS-2005>
250.427124023438

> <r_mmod_Stretch_Energy-OPLS-2005>
96.5765762329102

> <r_mmod_Bend_Energy-OPLS-2005>
187.23600769043

> <r_mmod_Torsional_Energy-OPLS-2005>
250.491012573242

> <r_mmod_Improper_Torsional_Energy-OPLS-2005>
2.88961005210876

> <r_mmod_Van_der_Waal_Energy-OPLS-2005>
146.131454467773

> <r_mmod_Electrostatic_Energy-OPLS-2005>
-256.8955078125

> <r_mmod_Solvation_Energy-OPLS-2005>
-222.352508544922

> <b_mmod_Minimization_Converged-OPLS-2005>
0

> <r_mmod_RMS_Derivative-OPLS-2005>
3.38559889793396

$$$$
18
                    3D
 Structure written by MMmdl.
152161  0  0  1  0            999 V2000
  -30.6250  -14.8386   20.3910 C   0  0  0  0  0  0
  -30.4321  -12.5126   19.4821 C   0  0  0  0  0  0
  -29.5158  -12.5220   18.2407 C   0  0  0  0  0  0
  -28.0449  -12.3377   18.6540 C   0  0  0  0  0  0
  -27.6387  -13.2519   19.8416 C   0  0  2  0  0  0
  -28.6888  -13.2598   20.9761 C   0  0  0  0  0  0
  -25.2523  -13.8250   20.5698 C   0  0  0  0  0  0
  -24.1818  -13.0473   20.9187 C   0  0  0  0  0  0
  -24.6432  -11.6951   20.8741 C   0  0  0  0  0  0
  -23.9113  -10.4323   21.0402 C   0  0  0  0  0  0
  -24.3660   -9.4237   21.9179 C   0  0  0  0  0  0
  -23.6322   -8.2279   22.0756 C   0  0  0  0  0  0
  -22.4302   -8.0322   21.3541 C   0  0  0  0  0  0
  -21.9929   -9.0298   20.4647 C   0  0  0  0  0  0
  -22.7277  -10.2168   20.3061 C   0  0  0  0  0  0
  -21.6873   -6.0742   22.5262 C   0  0  0  0  0  0
  -21.4024   -6.5633   23.8199 C   0  0  0  0  0  0
  -21.3670   -5.6786   24.9160 C   0  0  0  0  0  0
  -21.6050   -4.3045   24.7193 C   0  0  0  0  0  0
  -21.8839   -3.8142   23.4309 C   0  0  0  0  0  0
  -21.9199   -4.6966   22.3371 C   0  0  0  0  0  0
  -22.7843  -13.5247   21.1852 C   0  0  0  0  0  0
  -22.1676   -4.2172   21.0941 F   0  0  0  0  0  0
  -21.5627   -3.4519   25.7695 F   0  0  0  0  0  0
  -29.9817  -13.6108   20.3778 N   0  0  0  0  0  0
  -26.2952  -12.9479   20.3279 N   0  0  0  0  0  0
  -25.9376  -11.6604   20.5768 N   0  0  0  0  0  0
  -22.0480  -12.8249   22.0402 N   0  0  0  0  0  0
  -25.4233  -15.1980   20.4125 N   0  0  0  0  0  0
  -31.8257  -14.8600   20.1112 O   0  0  0  0  0  0
  -21.6672   -6.8905   21.4231 O   0  0  0  0  0  0
  -22.3514  -14.5560   20.6716 O   0  0  0  0  0  0
  -24.6366  -31.8516   23.1908 C   0  0  0  0  0  0
  -25.9173  -32.4739   23.8280 C   0  0  1  0  0  0
  -27.2337  -27.2220   20.1085 C   0  0  0  0  0  0
  -25.5934  -33.8520   24.2222 N   0  0  0  0  0  0
  -23.4345  -30.4723   21.5356 C   0  0  2  0  0  0
  -24.8828  -28.9089   20.1042 C   0  0  0  0  0  0
  -22.7499  -29.4617   22.4873 C   0  0  0  0  0  0
  -18.0299  -28.1408   22.8449 C   0  0  0  0  0  0
  -24.1496  -36.7264   23.2637 C   0  0  0  0  0  0
  -25.9834  -30.7536   21.3700 C   0  0  0  0  0  0
  -26.0573  -29.3705   20.7116 C   0  0  0  0  0  0
  -27.2306  -28.5386   20.7021 C   0  0  0  0  0  0
  -26.0264  -26.8342   19.4841 C   0  0  0  0  0  0
  -24.8728  -27.6491   19.4863 C   0  0  0  0  0  0
  -23.6519  -29.7982   20.1548 C   0  0  0  0  0  0
  -25.4116  -36.3039   24.0331 C   0  0  1  0  0  0
  -20.5890  -28.3719   23.1234 C   0  0  2  0  0  0
  -20.6785  -26.9432   22.5395 C   0  0  0  0  0  0
  -19.5783  -26.6392   21.5189 C   0  0  0  0  0  0
  -18.1956  -26.7946   22.1598 C   0  0  0  0  0  0
  -19.1549  -28.8888   23.2840 C   0  0  0  0  0  0
  -18.9460  -30.1465   23.8894 C   0  0  0  0  0  0
  -17.6472  -30.6602   24.0557 C   0  0  0  0  0  0
  -25.9058  -34.9413   23.5081 C   0  0  0  0  0  0
  -16.5362  -29.9093   23.6327 C   0  0  0  0  0  0
  -16.7287  -28.6507   23.0343 C   0  0  0  0  0  0
  -26.4516  -31.6544   25.0667 C   0  0  0  0  0  0
  -25.3741  -31.3712   26.1383 C   0  0  0  0  0  0
  -27.0345  -30.2934   24.6181 C   0  0  0  0  0  0
  -27.6077  -32.4280   25.7438 C   0  0  0  0  0  0
  -27.5584  -37.1784   24.8457 C   0  0  0  0  0  0
  -21.4207  -29.3063   22.3612 N   0  0  0  0  0  0
  -26.4288  -37.3740   23.9418 N   0  0  0  0  0  0
  -24.7047  -31.0440   22.0884 N   0  0  0  0  0  0
  -23.4183  -28.8176   23.3013 O   0  0  0  0  0  0
  -28.3236  -26.3042   20.2038 O   0  0  0  0  0  0
  -26.5624  -34.8903   22.4647 O   0  0  0  0  0  0
  -23.5505  -32.1351   23.7185 O   0  0  0  0  0  0
  -31.3247  -18.7774   18.2705 C   0  0  0  0  0  0
  -30.7484  -19.9811   18.7206 C   0  0  0  0  0  0
  -31.0405  -17.5401   18.8799 C   0  0  0  0  0  0
  -29.5969  -18.7139   20.4501 C   0  0  0  0  0  0
  -29.8596  -20.0268   19.8215 C   0  0  0  0  0  0
  -30.1783  -17.4303   19.9984 C   0  0  0  0  0  0
  -28.7883  -23.7534   20.1481 C   0  0  0  0  0  0
  -28.9157  -22.4450   19.4109 C   0  0  0  0  0  0
  -29.6121  -21.9310   21.4605 C   0  0  0  0  0  0
  -28.3371  -24.9800   19.6302 C   0  0  0  0  0  0
  -29.2681  -23.4293   21.5356 C   0  0  0  0  0  0
  -29.3861  -21.4134   20.2311 N   0  0  0  0  0  0
  -29.9046  -16.0424   20.5361 N   0  0  0  0  0  0
  -28.6446  -22.2845   18.2152 O   0  0  0  0  0  0
  -30.0548  -21.3106   22.4337 O   0  0  0  0  0  0
  -31.4716  -12.6278   19.1688 H   0  0  0  0  0  0
  -30.3785  -11.5523   19.9976 H   0  0  0  0  0  0
  -29.8078  -11.7368   17.5438 H   0  0  0  0  0  0
  -29.6323  -13.4664   17.7057 H   0  0  0  0  0  0
  -27.9052  -11.2902   18.9255 H   0  0  0  0  0  0
  -27.3929  -12.5208   17.7998 H   0  0  0  0  0  0
  -27.6096  -14.2619   19.4313 H   0  0  0  0  0  0
  -28.7413  -12.2914   21.4746 H   0  0  0  0  0  0
  -28.4194  -13.9888   21.7426 H   0  0  0  0  0  0
  -25.2807   -9.5705   22.4741 H   0  0  0  0  0  0
  -24.0039   -7.4656   22.7467 H   0  0  0  0  0  0
  -21.0869   -8.8825   19.8939 H   0  0  0  0  0  0
  -22.3742  -10.9714   19.6174 H   0  0  0  0  0  0
  -21.2028   -7.6141   23.9702 H   0  0  0  0  0  0
  -21.1472   -6.0506   25.9068 H   0  0  0  0  0  0
  -22.0606   -2.7603   23.2794 H   0  0  0  0  0  0
  -22.4107  -11.9917   22.4785 H   0  0  0  0  0  0
  -21.1103  -13.1286   22.2615 H   0  0  0  0  0  0
  -24.6634  -15.8627   20.5190 H   0  0  0  0  0  0
  -26.2764  -15.6249   20.0745 H   0  0  0  0  0  0
  -26.7228  -32.5380   23.1021 H   0  0  0  0  0  0
  -25.0035  -33.9640   25.0343 H   0  0  0  0  0  0
  -22.7335  -31.2967   21.3849 H   0  0  0  0  0  0
  -23.3755  -35.9595   23.3280 H   0  0  0  0  0  0
  -24.3597  -36.8894   22.2050 H   0  0  0  0  0  0
  -23.7253  -37.6462   23.6682 H   0  0  0  0  0  0
  -26.1159  -31.5152   20.5998 H   0  0  0  0  0  0
  -26.8616  -30.8138   22.0010 H   0  0  0  0  0  0
  -28.1295  -28.8854   21.1904 H   0  0  0  0  0  0
  -25.9378  -25.8615   19.0253 H   0  0  0  0  0  0
  -23.9615  -27.2880   19.0260 H   0  0  0  0  0  0
  -23.7656  -30.5707   19.3932 H   0  0  0  0  0  0
  -22.7694  -29.2261   19.8619 H   0  0  0  0  0  0
  -25.1300  -36.1873   25.0820 H   0  0  0  0  0  0
  -20.9984  -28.3335   24.1352 H   0  0  0  0  0  0
  -20.5648  -26.2344   23.3619 H   0  0  0  0  0  0
  -21.6657  -26.7449   22.1230 H   0  0  0  0  0  0
  -19.6937  -25.6285   21.1255 H   0  0  0  0  0  0
  -19.6714  -27.3153   20.6684 H   0  0  0  0  0  0
  -17.4205  -26.6640   21.4026 H   0  0  0  0  0  0
  -18.0379  -26.0111   22.9029 H   0  0  0  0  0  0
  -19.7943  -30.7268   24.2285 H   0  0  0  0  0  0
  -17.5032  -31.6289   24.5130 H   0  0  0  0  0  0
  -15.5364  -30.3003   23.7662 H   0  0  0  0  0  0
  -15.8676  -28.0834   22.7080 H   0  0  0  0  0  0
  -24.5928  -30.7033   25.7711 H   0  0  0  0  0  0
  -24.8910  -32.2869   26.4778 H   0  0  0  0  0  0
  -25.8046  -30.8905   27.0175 H   0  0  0  0  0  0
  -26.2903  -29.6675   24.1217 H   0  0  0  0  0  0
  -27.3976  -29.7207   25.4728 H   0  0  0  0  0  0
  -27.8811  -30.4134   23.9428 H   0  0  0  0  0  0
  -27.2696  -33.3594   26.1994 H   0  0  0  0  0  0
  -28.3899  -32.6806   25.0273 H   0  0  0  0  0  0
  -28.0736  -31.8407   26.5370 H   0  0  0  0  0  0
  -28.2581  -38.0099   24.7529 H   0  0  0  0  0  0
  -28.1111  -36.2636   24.6256 H   0  0  0  0  0  0
  -27.2325  -37.1393   25.8864 H   0  0  0  0  0  0
  -20.9402  -29.8729   21.6759 H   0  0  0  0  0  0
  -26.0165  -38.2811   24.1400 H   0  0  0  0  0  0
  -32.0057  -18.8007   17.4311 H   0  0  0  0  0  0
  -31.0262  -20.8909   18.2068 H   0  0  0  0  0  0
  -31.4959  -16.6618   18.4449 H   0  0  0  0  0  0
  -28.9364  -18.6942   21.3067 H   0  0  0  0  0  0
  -28.0253  -25.0277   18.5931 H   0  0  0  0  0  0
  -28.4878  -23.6016   22.2747 H   0  0  0  0  0  0
  -30.1500  -24.0119   21.8005 H   0  0  0  0  0  0
  -28.9928  -15.9222   20.9488 H   0  0  0  0  0  0
  1 25  1  0  0  0
  1 30  2  0  0  0
  1 83  1  0  0  0
  2  3  1  0  0  0
  2 25  1  0  0  0
  2 86  1  0  0  0
  2 87  1  0  0  0
  3  4  1  0  0  0
  3 88  1  0  0  0
  3 89  1  0  0  0
  4  5  1  0  0  0
  4 90  1  0  0  0
  4 91  1  0  0  0
  5  6  1  0  0  0
  5 26  1  0  0  0
  5 92  1  0  0  0
  6 25  1  0  0  0
  6 93  1  0  0  0
  6 94  1  0  0  0
  7  8  2  0  0  0
  7 26  1  0  0  0
  7 29  1  0  0  0
  8  9  1  0  0  0
  8 22  1  0  0  0
  9 10  1  0  0  0
  9 27  2  0  0  0
 10 11  2  0  0  0
 10 15  1  0  0  0
 11 12  1  0  0  0
 11 95  1  0  0  0
 12 13  2  0  0  0
 12 96  1  0  0  0
 13 14  1  0  0  0
 13 31  1  0  0  0
 14 15  2  0  0  0
 14 97  1  0  0  0
 15 98  1  0  0  0
 16 17  2  0  0  0
 16 21  1  0  0  0
 16 31  1  0  0  0
 17 18  1  0  0  0
 17 99  1  0  0  0
 18 19  2  0  0  0
 18100  1  0  0  0
 19 20  1  0  0  0
 19 24  1  0  0  0
 20 21  2  0  0  0
 20101  1  0  0  0
 21 23  1  0  0  0
 22 28  1  0  0  0
 22 32  2  0  0  0
 26 27  1  0  0  0
 28102  1  0  0  0
 28103  1  0  0  0
 29104  1  0  0  0
 29105  1  0  0  0
 33 34  1  0  0  0
 33 66  1  0  0  0
 33 70  2  0  0  0
 34 36  1  0  0  0
 34 59  1  0  0  0
 34106  1  0  0  0
 35 44  2  0  0  0
 35 45  1  0  0  0
 35 68  1  0  0  0
 36 56  1  0  0  0
 36107  1  0  0  0
 37 39  1  0  0  0
 37 47  1  0  0  0
 37 66  1  0  0  0
 37108  1  0  0  0
 38 43  2  0  0  0
 38 46  1  0  0  0
 38 47  1  0  0  0
 39 64  1  0  0  0
 39 67  2  0  0  0
 40 52  1  0  0  0
 40 53  2  0  0  0
 40 58  1  0  0  0
 41109  1  0  0  0
 41110  1  0  0  0
 41111  1  0  0  0
 41 48  1  0  0  0
 42 43  1  0  0  0
 42 66  1  0  0  0
 42112  1  0  0  0
 42113  1  0  0  0
 43 44  1  0  0  0
 44114  1  0  0  0
 45 46  2  0  0  0
 45115  1  0  0  0
 46116  1  0  0  0
 47117  1  0  0  0
 47118  1  0  0  0
 48 56  1  0  0  0
 48 65  1  0  0  0
 48119  1  0  0  0
 49 50  1  0  0  0
 49 53  1  0  0  0
 49 64  1  0  0  0
 49120  1  0  0  0
 50 51  1  0  0  0
 50121  1  0  0  0
 50122  1  0  0  0
 51 52  1  0  0  0
 51123  1  0  0  0
 51124  1  0  0  0
 52125  1  0  0  0
 52126  1  0  0  0
 53 54  1  0  0  0
 54 55  2  0  0  0
 54127  1  0  0  0
 55 57  1  0  0  0
 55128  1  0  0  0
 56 69  2  0  0  0
 57 58  2  0  0  0
 57129  1  0  0  0
 58130  1  0  0  0
 59 60  1  0  0  0
 59 61  1  0  0  0
 59 62  1  0  0  0
 60131  1  0  0  0
 60132  1  0  0  0
 60133  1  0  0  0
 61134  1  0  0  0
 61135  1  0  0  0
 61136  1  0  0  0
 62137  1  0  0  0
 62138  1  0  0  0
 62139  1  0  0  0
 63 65  1  0  0  0
 63140  1  0  0  0
 63141  1  0  0  0
 63142  1  0  0  0
 64143  1  0  0  0
 65144  1  0  0  0
 68 80  1  0  0  0
 71 72  2  0  0  0
 71 73  1  0  0  0
 71145  1  0  0  0
 72 75  1  0  0  0
 72146  1  0  0  0
 73 76  2  0  0  0
 73147  1  0  0  0
 74 75  2  0  0  0
 74 76  1  0  0  0
 74148  1  0  0  0
 75 82  1  0  0  0
 76 83  1  0  0  0
 77 78  1  0  0  0
 77 80  2  0  0  0
 77 81  1  0  0  0
 78 82  1  0  0  0
 78 84  2  0  0  0
 79 81  1  0  0  0
 79 82  1  0  0  0
 79 85  2  0  0  0
 80149  1  0  0  0
 81150  1  0  0  0
 81151  1  0  0  0
 83152  1  0  0  0
M  ISO  4   1 100  68 101  80 101  83 100
M  END
> <chiral flag>
0

> <version>
0

> <s_m_source_file>
/data/baiqing/PycharmProjects/Reinvent-master-3.2/result/LINK_invent/BTK/process_docking_weight1_custom_product_contain_oxygen_bond_distance_aromatic_linkinvent_7_9_3/rearranged_h_0081.sdf

> <i_m_source_file_index>
19

> <r_mmod_Potential_Energy-OPLS-2005>
328.904510498047

> <r_mmod_Stretch_Energy-OPLS-2005>
167.28303527832

> <r_mmod_Bend_Energy-OPLS-2005>
225.203109741211

> <r_mmod_Torsional_Energy-OPLS-2005>
269.226287841797

> <r_mmod_Improper_Torsional_Energy-OPLS-2005>
5.01292181015015

> <r_mmod_Van_der_Waal_Energy-OPLS-2005>
134.064468383789

> <r_mmod_Electrostatic_Energy-OPLS-2005>
-358.68896484375

> <r_mmod_Solvation_Energy-OPLS-2005>
-237.021606445312

> <b_mmod_Minimization_Converged-OPLS-2005>
0

> <r_mmod_RMS_Derivative-OPLS-2005>
4.33606147766113

$$$$
19
                    3D
 Structure written by MMmdl.
150158  0  0  1  0            999 V2000
  -30.5525  -14.8860   20.4264 C   0  0  0  0  0  0
  -30.4411  -12.5360   19.5026 C   0  0  0  0  0  0
  -29.5201  -12.5112   18.2609 C   0  0  0  0  0  0
  -28.0521  -12.3068   18.6776 C   0  0  0  0  0  0
  -27.6369  -13.2386   19.8457 C   0  0  2  0  0  0
  -28.6785  -13.2353   20.9864 C   0  0  0  0  0  0
  -25.2507  -13.8217   20.5720 C   0  0  0  0  0  0
  -24.1800  -13.0449   20.9209 C   0  0  0  0  0  0
  -24.6398  -11.6933   20.8748 C   0  0  0  0  0  0
  -23.9073  -10.4305   21.0399 C   0  0  0  0  0  0
  -24.3624   -9.4223   21.9176 C   0  0  0  0  0  0
  -23.6302   -8.2258   22.0755 C   0  0  0  0  0  0
  -22.4281   -8.0286   21.3551 C   0  0  0  0  0  0
  -21.9915   -9.0258   20.4651 C   0  0  0  0  0  0
  -22.7242  -10.2142   20.3056 C   0  0  0  0  0  0
  -21.6861   -6.0733   22.5268 C   0  0  0  0  0  0
  -21.4026   -6.5639   23.8203 C   0  0  0  0  0  0
  -21.3658   -5.6792   24.9166 C   0  0  0  0  0  0
  -21.6045   -4.3055   24.7224 C   0  0  0  0  0  0
  -21.8820   -3.8149   23.4345 C   0  0  0  0  0  0
  -21.9204   -4.6962   22.3403 C   0  0  0  0  0  0
  -22.7822  -13.5219   21.1857 C   0  0  0  0  0  0
  -22.1658   -4.2140   21.0983 F   0  0  0  0  0  0
  -21.5633   -3.4544   25.7740 F   0  0  0  0  0  0
  -29.9688  -13.6247   20.4014 N   0  0  0  0  0  0
  -26.2919  -12.9421   20.3275 N   0  0  0  0  0  0
  -25.9326  -11.6561   20.5759 N   0  0  0  0  0  0
  -22.0489  -12.8212   22.0432 N   0  0  0  0  0  0
  -25.4242  -15.1942   20.4159 N   0  0  0  0  0  0
  -31.7399  -14.9825   20.0965 O   0  0  0  0  0  0
  -21.6653   -6.8877   21.4233 O   0  0  0  0  0  0
  -22.3489  -14.5508   20.6683 O   0  0  0  0  0  0
  -24.6400  -31.8470   23.1914 C   0  0  0  0  0  0
  -25.9183  -32.4705   23.8294 C   0  0  1  0  0  0
  -27.2254  -27.1804   20.1422 C   0  0  0  0  0  0
  -25.5945  -33.8512   24.2211 N   0  0  0  0  0  0
  -23.4439  -30.4669   21.5349 C   0  0  2  0  0  0
  -24.8992  -28.9033   20.1083 C   0  0  0  0  0  0
  -22.7556  -29.4570   22.4860 C   0  0  0  0  0  0
  -18.0306  -28.1395   22.8467 C   0  0  0  0  0  0
  -24.1500  -36.7263   23.2639 C   0  0  0  0  0  0
  -25.9978  -30.7327   21.3883 C   0  0  0  0  0  0
  -26.0747  -29.3492   20.7286 C   0  0  0  0  0  0
  -27.2422  -28.5006   20.7362 C   0  0  0  0  0  0
  -26.0309  -26.8300   19.4793 C   0  0  0  0  0  0
  -24.8877  -27.6549   19.4683 C   0  0  0  0  0  0
  -23.6712  -29.7974   20.1535 C   0  0  0  0  0  0
  -25.4126  -36.3041   24.0317 C   0  0  1  0  0  0
  -20.5912  -28.3726   23.1232 C   0  0  2  0  0  0
  -20.6798  -26.9429   22.5408 C   0  0  0  0  0  0
  -19.5779  -26.6374   21.5210 C   0  0  0  0  0  0
  -18.1955  -26.7933   22.1611 C   0  0  0  0  0  0
  -19.1558  -28.8872   23.2842 C   0  0  0  0  0  0
  -18.9479  -30.1465   23.8878 C   0  0  0  0  0  0
  -17.6477  -30.6589   24.0554 C   0  0  0  0  0  0
  -25.9070  -34.9411   23.5071 C   0  0  0  0  0  0
  -16.5366  -29.9088   23.6335 C   0  0  0  0  0  0
  -16.7290  -28.6502   23.0358 C   0  0  0  0  0  0
  -26.4527  -31.6561   25.0717 C   0  0  0  0  0  0
  -25.3731  -31.3739   26.1423 C   0  0  0  0  0  0
  -27.0387  -30.2958   24.6276 C   0  0  0  0  0  0
  -27.6069  -32.4317   25.7495 C   0  0  0  0  0  0
  -27.5576  -37.1788   24.8464 C   0  0  0  0  0  0
  -21.4243  -29.3059   22.3608 N   0  0  0  0  0  0
  -26.4291  -37.3743   23.9401 N   0  0  0  0  0  0
  -24.7129  -31.0357   22.0937 N   0  0  0  0  0  0
  -23.4210  -28.8109   23.2984 O   0  0  0  0  0  0
  -28.2274  -26.1550   20.2058 O   0  0  0  0  0  0
  -26.5650  -34.8899   22.4645 O   0  0  0  0  0  0
  -23.5521  -32.1322   23.7144 O   0  0  0  0  0  0
  -28.9506  -18.5975   20.8714 C   0  0  0  0  0  0
  -30.8693  -18.1981   19.7790 C   0  0  0  0  0  0
  -29.8757  -17.5217   20.4560 C   0  0  0  0  0  0
  -29.3973  -19.8695   20.4513 C   0  0  0  0  0  0
  -27.8539  -24.9503   20.9147 C   0  0  0  0  0  0
  -28.0987  -23.5481   21.0129 C   0  0  0  0  0  0
  -28.9928  -22.5071   20.3065 C   0  0  0  0  0  0
  -27.2611  -22.8901   22.1193 C   0  0  0  0  0  0
  -30.5789  -19.5814   19.7790 N   0  0  0  0  0  0
  -29.7465  -16.0197   20.6757 N   0  0  0  0  0  0
  -28.8069  -21.1532   20.6964 N   0  0  0  0  0  0
  -29.8293  -22.8016   19.4504 O   0  0  0  0  0  0
  -31.4772  -12.6803   19.1953 H   0  0  0  0  0  0
  -30.4172  -11.5763   20.0227 H   0  0  0  0  0  0
  -29.8292  -11.7181   17.5790 H   0  0  0  0  0  0
  -29.6186  -13.4482   17.7103 H   0  0  0  0  0  0
  -27.9444  -11.2664   18.9858 H   0  0  0  0  0  0
  -27.3850  -12.4373   17.8249 H   0  0  0  0  0  0
  -27.6125  -14.2449   19.4250 H   0  0  0  0  0  0
  -28.7428  -12.2521   21.4552 H   0  0  0  0  0  0
  -28.3852  -13.9324   21.7722 H   0  0  0  0  0  0
  -25.2774   -9.5707   22.4746 H   0  0  0  0  0  0
  -24.0014   -7.4665   22.7492 H   0  0  0  0  0  0
  -21.0842   -8.8776   19.8967 H   0  0  0  0  0  0
  -22.3688  -10.9675   19.6170 H   0  0  0  0  0  0
  -21.2011   -7.6147   23.9694 H   0  0  0  0  0  0
  -21.1473   -6.0530   25.9061 H   0  0  0  0  0  0
  -22.0602   -2.7607   23.2850 H   0  0  0  0  0  0
  -22.4093  -11.9854   22.4800 H   0  0  0  0  0  0
  -21.1118  -13.1253   22.2659 H   0  0  0  0  0  0
  -24.6660  -15.8565   20.5383 H   0  0  0  0  0  0
  -26.2794  -15.6326   20.0983 H   0  0  0  0  0  0
  -26.7248  -32.5337   23.1027 H   0  0  0  0  0  0
  -25.0099  -33.9639   25.0361 H   0  0  0  0  0  0
  -22.7450  -31.2922   21.3816 H   0  0  0  0  0  0
  -23.3755  -35.9600   23.3296 H   0  0  0  0  0  0
  -24.3589  -36.8891   22.2053 H   0  0  0  0  0  0
  -23.7260  -37.6462   23.6673 H   0  0  0  0  0  0
  -26.1513  -31.4898   20.6181 H   0  0  0  0  0  0
  -26.8691  -30.7819   22.0301 H   0  0  0  0  0  0
  -28.1336  -28.8292   21.2517 H   0  0  0  0  0  0
  -25.9656  -25.8621   19.0021 H   0  0  0  0  0  0
  -23.9907  -27.3099   18.9727 H   0  0  0  0  0  0
  -23.8022  -30.5739   19.3996 H   0  0  0  0  0  0
  -22.7889  -29.2354   19.8423 H   0  0  0  0  0  0
  -25.1316  -36.1874   25.0808 H   0  0  0  0  0  0
  -20.9995  -28.3321   24.1352 H   0  0  0  0  0  0
  -20.5688  -26.2340   23.3625 H   0  0  0  0  0  0
  -21.6671  -26.7449   22.1209 H   0  0  0  0  0  0
  -19.6954  -25.6276   21.1263 H   0  0  0  0  0  0
  -19.6725  -27.3158   20.6717 H   0  0  0  0  0  0
  -17.4229  -26.6657   21.4013 H   0  0  0  0  0  0
  -18.0372  -26.0083   22.9016 H   0  0  0  0  0  0
  -19.7956  -30.7276   24.2246 H   0  0  0  0  0  0
  -17.5038  -31.6271   24.5156 H   0  0  0  0  0  0
  -15.5367  -30.2985   23.7675 H   0  0  0  0  0  0
  -15.8688  -28.0810   22.7103 H   0  0  0  0  0  0
  -24.5897  -30.7103   25.7738 H   0  0  0  0  0  0
  -24.8946  -32.2929   26.4820 H   0  0  0  0  0  0
  -25.8030  -30.8918   27.0214 H   0  0  0  0  0  0
  -26.2996  -29.6681   24.1282 H   0  0  0  0  0  0
  -27.4006  -29.7244   25.4834 H   0  0  0  0  0  0
  -27.8907  -30.4187   23.9586 H   0  0  0  0  0  0
  -27.2656  -33.3610   26.2060 H   0  0  0  0  0  0
  -28.3887  -32.6880   25.0339 H   0  0  0  0  0  0
  -28.0735  -31.8457   26.5419 H   0  0  0  0  0  0
  -28.2594  -38.0082   24.7495 H   0  0  0  0  0  0
  -28.1072  -36.2611   24.6316 H   0  0  0  0  0  0
  -27.2295  -37.1464   25.8867 H   0  0  0  0  0  0
  -20.9448  -29.8752   21.6772 H   0  0  0  0  0  0
  -26.0162  -38.2814   24.1388 H   0  0  0  0  0  0
  -28.0365  -18.4474   21.4290 H   0  0  0  0  0  0
  -31.7603  -17.8349   19.2832 H   0  0  0  0  0  0
  -27.1226  -25.2980   21.6309 H   0  0  0  0  0  0
  -26.6859  -23.5966   22.7181 H   0  0  0  0  0  0
  -27.9002  -22.3617   22.8297 H   0  0  0  0  0  0
  -26.5422  -22.1871   21.6965 H   0  0  0  0  0  0
  -31.1725  -20.2823   19.3472 H   0  0  0  0  0  0
  -28.8406  -15.7456   21.0249 H   0  0  0  0  0  0
  -28.0449  -21.1079   21.3593 H   0  0  0  0  0  0
  1 25  1  0  0  0
  1 30  2  0  0  0
  1 80  1  0  0  0
  2  3  1  0  0  0
  2 25  1  0  0  0
  2 83  1  0  0  0
  2 84  1  0  0  0
  3  4  1  0  0  0
  3 85  1  0  0  0
  3 86  1  0  0  0
  4  5  1  0  0  0
  4 87  1  0  0  0
  4 88  1  0  0  0
  5  6  1  0  0  0
  5 26  1  0  0  0
  5 89  1  0  0  0
  6 25  1  0  0  0
  6 90  1  0  0  0
  6 91  1  0  0  0
  7  8  2  0  0  0
  7 26  1  0  0  0
  7 29  1  0  0  0
  8  9  1  0  0  0
  8 22  1  0  0  0
  9 10  1  0  0  0
  9 27  2  0  0  0
 10 11  2  0  0  0
 10 15  1  0  0  0
 11 12  1  0  0  0
 11 92  1  0  0  0
 12 13  2  0  0  0
 12 93  1  0  0  0
 13 14  1  0  0  0
 13 31  1  0  0  0
 14 15  2  0  0  0
 14 94  1  0  0  0
 15 95  1  0  0  0
 16 17  2  0  0  0
 16 21  1  0  0  0
 16 31  1  0  0  0
 17 18  1  0  0  0
 17 96  1  0  0  0
 18 19  2  0  0  0
 18 97  1  0  0  0
 19 20  1  0  0  0
 19 24  1  0  0  0
 20 21  2  0  0  0
 20 98  1  0  0  0
 21 23  1  0  0  0
 22 28  1  0  0  0
 22 32  2  0  0  0
 26 27  1  0  0  0
 28 99  1  0  0  0
 28100  1  0  0  0
 29101  1  0  0  0
 29102  1  0  0  0
 33 34  1  0  0  0
 33 66  1  0  0  0
 33 70  2  0  0  0
 34 36  1  0  0  0
 34 59  1  0  0  0
 34103  1  0  0  0
 35 44  2  0  0  0
 35 45  1  0  0  0
 35 68  1  0  0  0
 36 56  1  0  0  0
 36104  1  0  0  0
 37 39  1  0  0  0
 37 47  1  0  0  0
 37 66  1  0  0  0
 37105  1  0  0  0
 38 43  2  0  0  0
 38 46  1  0  0  0
 38 47  1  0  0  0
 39 64  1  0  0  0
 39 67  2  0  0  0
 40 52  1  0  0  0
 40 53  2  0  0  0
 40 58  1  0  0  0
 41106  1  0  0  0
 41107  1  0  0  0
 41108  1  0  0  0
 41 48  1  0  0  0
 42 43  1  0  0  0
 42 66  1  0  0  0
 42109  1  0  0  0
 42110  1  0  0  0
 43 44  1  0  0  0
 44111  1  0  0  0
 45 46  2  0  0  0
 45112  1  0  0  0
 46113  1  0  0  0
 47114  1  0  0  0
 47115  1  0  0  0
 48 56  1  0  0  0
 48 65  1  0  0  0
 48116  1  0  0  0
 49 50  1  0  0  0
 49 53  1  0  0  0
 49 64  1  0  0  0
 49117  1  0  0  0
 50 51  1  0  0  0
 50118  1  0  0  0
 50119  1  0  0  0
 51 52  1  0  0  0
 51120  1  0  0  0
 51121  1  0  0  0
 52122  1  0  0  0
 52123  1  0  0  0
 53 54  1  0  0  0
 54 55  2  0  0  0
 54124  1  0  0  0
 55 57  1  0  0  0
 55125  1  0  0  0
 56 69  2  0  0  0
 57 58  2  0  0  0
 57126  1  0  0  0
 58127  1  0  0  0
 59 60  1  0  0  0
 59 61  1  0  0  0
 59 62  1  0  0  0
 60128  1  0  0  0
 60129  1  0  0  0
 60130  1  0  0  0
 61131  1  0  0  0
 61132  1  0  0  0
 61133  1  0  0  0
 62134  1  0  0  0
 62135  1  0  0  0
 62136  1  0  0  0
 63 65  1  0  0  0
 63137  1  0  0  0
 63138  1  0  0  0
 63139  1  0  0  0
 64140  1  0  0  0
 65141  1  0  0  0
 68 75  1  0  0  0
 71 73  1  0  0  0
 71 74  2  0  0  0
 71142  1  0  0  0
 72 73  2  0  0  0
 72 79  1  0  0  0
 72143  1  0  0  0
 73 80  1  0  0  0
 74 79  1  0  0  0
 74 81  1  0  0  0
 75 76  2  0  0  0
 75144  1  0  0  0
 76 77  1  0  0  0
 76 78  1  0  0  0
 77 81  1  0  0  0
 77 82  2  0  0  0
 78145  1  0  0  0
 78146  1  0  0  0
 78147  1  0  0  0
 79148  1  0  0  0
 80149  1  0  0  0
 81150  1  0  0  0
M  ISO  4   1 100  68 101  75 101  80 100
M  END
> <chiral flag>
0

> <version>
0

> <s_m_source_file>
/data/baiqing/PycharmProjects/Reinvent-master-3.2/result/LINK_invent/BTK/process_docking_weight1_custom_product_contain_oxygen_bond_distance_aromatic_linkinvent_7_9_3/rearranged_h_0081.sdf

> <i_m_source_file_index>
20

> <r_mmod_Potential_Energy-OPLS-2005>
408.677001953125

> <r_mmod_Stretch_Energy-OPLS-2005>
182.535781860352

> <r_mmod_Bend_Energy-OPLS-2005>
310.483337402344

> <r_mmod_Torsional_Energy-OPLS-2005>
227.82666015625

> <r_mmod_Improper_Torsional_Energy-OPLS-2005>
3.55944776535034

> <r_mmod_Van_der_Waal_Energy-OPLS-2005>
126.559173583984

> <r_mmod_Electrostatic_Energy-OPLS-2005>
-368.096740722656

> <r_mmod_Solvation_Energy-OPLS-2005>
-236.624526977539

> <b_mmod_Minimization_Converged-OPLS-2005>
0

> <r_mmod_RMS_Derivative-OPLS-2005>
1.83449423313141

$$$$
20
                    3D
 Structure written by MMmdl.
161170  0  0  1  0            999 V2000
  -30.4713  -15.0410   20.4541 C   0  0  0  0  0  0
  -30.4502  -12.6618   19.5163 C   0  0  0  0  0  0
  -29.5284  -12.5323   18.2804 C   0  0  0  0  0  0
  -28.0653  -12.2975   18.6965 C   0  0  0  0  0  0
  -27.6226  -13.2428   19.8418 C   0  0  2  0  0  0
  -28.6541  -13.3046   20.9838 C   0  0  0  0  0  0
  -25.2454  -13.8175   20.5809 C   0  0  0  0  0  0
  -24.1780  -13.0400   20.9208 C   0  0  0  0  0  0
  -24.6352  -11.6876   20.8695 C   0  0  0  0  0  0
  -23.9046  -10.4259   21.0375 C   0  0  0  0  0  0
  -24.3593   -9.4211   21.9164 C   0  0  0  0  0  0
  -23.6297   -8.2239   22.0741 C   0  0  0  0  0  0
  -22.4285   -8.0261   21.3524 C   0  0  0  0  0  0
  -21.9893   -9.0235   20.4639 C   0  0  0  0  0  0
  -22.7205  -10.2127   20.3047 C   0  0  0  0  0  0
  -21.6857   -6.0735   22.5277 C   0  0  0  0  0  0
  -21.4006   -6.5631   23.8216 C   0  0  0  0  0  0
  -21.3657   -5.6785   24.9175 C   0  0  0  0  0  0
  -21.6045   -4.3052   24.7217 C   0  0  0  0  0  0
  -21.8831   -3.8149   23.4336 C   0  0  0  0  0  0
  -21.9203   -4.6964   22.3397 C   0  0  0  0  0  0
  -22.7797  -13.5212   21.1877 C   0  0  0  0  0  0
  -22.1685   -4.2156   21.0977 F   0  0  0  0  0  0
  -21.5627   -3.4544   25.7732 F   0  0  0  0  0  0
  -29.9145  -13.7557   20.3842 N   0  0  0  0  0  0
  -26.2842  -12.9396   20.3266 N   0  0  0  0  0  0
  -25.9281  -11.6516   20.5679 N   0  0  0  0  0  0
  -22.0452  -12.8199   22.0429 N   0  0  0  0  0  0
  -25.4144  -15.1926   20.4516 N   0  0  0  0  0  0
  -31.6854  -15.0985   20.2111 O   0  0  0  0  0  0
  -21.6648   -6.8869   21.4245 O   0  0  0  0  0  0
  -22.3489  -14.5511   20.6733 O   0  0  0  0  0  0
  -24.6624  -31.8269   23.1609 C   0  0  0  0  0  0
  -25.9365  -32.4589   23.8042 C   0  0  1  0  0  0
  -27.2350  -26.9694   20.1571 C   0  0  0  0  0  0
  -25.6054  -33.8381   24.2032 N   0  0  0  0  0  0
  -23.4749  -30.4424   21.5092 C   0  0  2  0  0  0
  -24.9250  -28.8209   20.1108 C   0  0  0  0  0  0
  -22.7689  -29.4567   22.4736 C   0  0  0  0  0  0
  -18.0365  -28.1497   22.8566 C   0  0  0  0  0  0
  -24.1454  -36.7131   23.2645 C   0  0  0  0  0  0
  -26.0392  -30.6344   21.3914 C   0  0  0  0  0  0
  -26.1051  -29.2254   20.7449 C   0  0  0  0  0  0
  -27.2519  -28.3207   20.7505 C   0  0  0  0  0  0
  -26.0301  -26.7168   19.4572 C   0  0  0  0  0  0
  -24.9050  -27.5823   19.4500 C   0  0  0  0  0  0
  -23.7085  -29.7415   20.1424 C   0  0  0  0  0  0
  -25.4114  -36.2939   24.0315 C   0  0  1  0  0  0
  -20.6001  -28.3854   23.1203 C   0  0  2  0  0  0
  -20.6834  -26.9530   22.5458 C   0  0  0  0  0  0
  -19.5745  -26.6498   21.5276 C   0  0  0  0  0  0
  -18.1941  -26.8062   22.1701 C   0  0  0  0  0  0
  -19.1628  -28.9016   23.2864 C   0  0  0  0  0  0
  -18.9525  -30.1599   23.8901 C   0  0  0  0  0  0
  -17.6516  -30.6676   24.0651 C   0  0  0  0  0  0
  -25.9112  -34.9347   23.5000 C   0  0  0  0  0  0
  -16.5430  -29.9176   23.6366 C   0  0  0  0  0  0
  -16.7341  -28.6593   23.0399 C   0  0  0  0  0  0
  -26.4563  -31.6515   25.0569 C   0  0  0  0  0  0
  -25.3693  -31.3811   26.1245 C   0  0  0  0  0  0
  -27.0441  -30.2897   24.6270 C   0  0  0  0  0  0
  -27.6076  -32.4322   25.7386 C   0  0  0  0  0  0
  -27.5553  -37.1727   24.8493 C   0  0  0  0  0  0
  -21.4380  -29.3110   22.3491 N   0  0  0  0  0  0
  -26.4243  -37.3714   23.9453 N   0  0  0  0  0  0
  -24.7477  -30.9988   22.0713 N   0  0  0  0  0  0
  -23.4244  -28.8232   23.3043 O   0  0  0  0  0  0
  -28.2653  -25.8980   20.1858 O   0  0  0  0  0  0
  -26.5733  -34.8944   22.4562 O   0  0  0  0  0  0
  -23.5730  -32.1265   23.6728 O   0  0  0  0  0  0
  -31.5376  -19.5483   21.1351 C   0  0  0  0  0  0
  -30.5915  -20.6049   21.0708 C   0  0  0  0  0  0
  -31.2266  -18.1946   20.8814 C   0  0  0  0  0  0
  -28.9610  -18.9548   20.4529 C   0  0  0  0  0  0
  -29.2769  -20.4431   20.5703 C   0  0  0  0  0  0
  -29.9042  -17.7755   20.6106 C   0  0  0  0  0  0
  -29.8176  -22.3158   18.0013 C   0  0  0  0  0  0
  -28.8477  -23.1979   20.1411 C   0  0  0  0  0  0
  -30.7824  -21.6462   17.3229 C   0  0  0  0  0  0
  -28.0556  -24.4067   20.4191 C   0  0  0  0  0  0
  -30.0847  -23.2418   19.2163 C   0  0  0  0  0  0
  -28.3239  -22.0647   17.7649 C   0  0  0  0  0  0
  -27.6550  -21.4566   19.0469 C   0  0  0  0  0  0
  -26.7126  -24.1497   21.0774 C   0  0  0  0  0  0
  -28.4775  -21.7214   20.2500 N   0  0  0  0  0  0
  -29.6519  -16.2280   20.5666 N   0  0  0  0  0  0
  -31.4620  -12.8817   19.1732 H   0  0  0  0  0  0
  -30.5266  -11.7257   20.0729 H   0  0  0  0  0  0
  -29.8718  -11.7273   17.6326 H   0  0  0  0  0  0
  -29.5915  -13.4492   17.6960 H   0  0  0  0  0  0
  -27.9668  -11.2612   19.0145 H   0  0  0  0  0  0
  -27.4097  -12.4209   17.8314 H   0  0  0  0  0  0
  -27.5807  -14.2349   19.3927 H   0  0  0  0  0  0
  -28.7646  -12.3408   21.4869 H   0  0  0  0  0  0
  -28.3264  -14.0163   21.7439 H   0  0  0  0  0  0
  -25.2743   -9.5724   22.4737 H   0  0  0  0  0  0
  -24.0036   -7.4634   22.7447 H   0  0  0  0  0  0
  -21.0815   -8.8734   19.8932 H   0  0  0  0  0  0
  -22.3636  -10.9662   19.6152 H   0  0  0  0  0  0
  -21.1978   -7.6133   23.9710 H   0  0  0  0  0  0
  -21.1474   -6.0511   25.9079 H   0  0  0  0  0  0
  -22.0605   -2.7608   23.2838 H   0  0  0  0  0  0
  -22.4077  -11.9853   22.4795 H   0  0  0  0  0  0
  -21.1055  -13.1208   22.2645 H   0  0  0  0  0  0
  -24.6556  -15.8352   20.6536 H   0  0  0  0  0  0
  -26.2798  -15.6627   20.2268 H   0  0  0  0  0  0
  -26.7414  -32.5111   23.0687 H   0  0  0  0  0  0
  -25.0160  -33.9384   25.0189 H   0  0  0  0  0  0
  -22.7908  -31.2776   21.3343 H   0  0  0  0  0  0
  -23.3762  -35.9420   23.3295 H   0  0  0  0  0  0
  -24.3468  -36.8745   22.2061 H   0  0  0  0  0  0
  -23.7221  -37.6340   23.6641 H   0  0  0  0  0  0
  -26.2391  -31.3633   20.6054 H   0  0  0  0  0  0
  -26.8964  -30.6862   22.0477 H   0  0  0  0  0  0
  -28.1496  -28.6173   21.2704 H   0  0  0  0  0  0
  -25.9275  -25.7810   18.9229 H   0  0  0  0  0  0
  -24.0068  -27.2582   18.9404 H   0  0  0  0  0  0
  -23.8674  -30.4909   19.3673 H   0  0  0  0  0  0
  -22.8105  -29.1989   19.8347 H   0  0  0  0  0  0
  -25.1315  -36.1674   25.0821 H   0  0  0  0  0  0
  -21.0180  -28.3481   24.1301 H   0  0  0  0  0  0
  -20.5755  -26.2493   23.3706 H   0  0  0  0  0  0
  -21.6657  -26.7528   22.1213 H   0  0  0  0  0  0
  -19.6850  -25.6390   21.1290 H   0  0  0  0  0  0
  -19.6617  -27.3314   20.6777 H   0  0  0  0  0  0
  -17.4248  -26.6941   21.4069 H   0  0  0  0  0  0
  -18.0240  -26.0204   22.9066 H   0  0  0  0  0  0
  -19.7979  -30.7415   24.2285 H   0  0  0  0  0  0
  -17.5052  -31.6333   24.5257 H   0  0  0  0  0  0
  -15.5412  -30.3046   23.7674 H   0  0  0  0  0  0
  -15.8769  -28.0854   22.7128 H   0  0  0  0  0  0
  -24.5906  -30.7082   25.7585 H   0  0  0  0  0  0
  -24.8849  -32.3027   26.4477 H   0  0  0  0  0  0
  -25.7983  -30.9142   27.0107 H   0  0  0  0  0  0
  -26.3073  -29.6621   24.1248 H   0  0  0  0  0  0
  -27.3970  -29.7221   25.4878 H   0  0  0  0  0  0
  -27.8995  -30.4066   23.9639 H   0  0  0  0  0  0
  -27.2646  -33.3656   26.1801 H   0  0  0  0  0  0
  -28.3964  -32.6810   25.0285 H   0  0  0  0  0  0
  -28.0566  -31.8542   26.5451 H   0  0  0  0  0  0
  -28.2634  -37.9967   24.7554 H   0  0  0  0  0  0
  -28.0995  -36.2536   24.6290 H   0  0  0  0  0  0
  -27.2274  -37.1368   25.8894 H   0  0  0  0  0  0
  -20.9663  -29.8696   21.6527 H   0  0  0  0  0  0
  -26.0064  -38.2770   24.1442 H   0  0  0  0  0  0
  -32.5590  -19.7815   21.4029 H   0  0  0  0  0  0
  -30.9179  -21.5794   21.3971 H   0  0  0  0  0  0
  -32.0321  -17.4750   20.9544 H   0  0  0  0  0  0
  -27.9311  -18.6860   20.2567 H   0  0  0  0  0  0
  -31.8361  -21.7352   17.5628 H   0  0  0  0  0  0
  -30.5355  -20.9594   16.5215 H   0  0  0  0  0  0
  -30.2862  -24.2671   18.9013 H   0  0  0  0  0  0
  -30.9820  -22.8987   19.7442 H   0  0  0  0  0  0
  -28.1084  -21.4932   16.8578 H   0  0  0  0  0  0
  -27.8926  -23.0531   17.5784 H   0  0  0  0  0  0
  -27.4334  -20.3991   18.8956 H   0  0  0  0  0  0
  -26.6705  -21.9101   19.1793 H   0  0  0  0  0  0
  -25.9972  -23.8339   20.3130 H   0  0  0  0  0  0
  -26.3048  -25.0153   21.6015 H   0  0  0  0  0  0
  -26.7963  -23.3446   21.8090 H   0  0  0  0  0  0
  -28.6770  -15.9790   20.6664 H   0  0  0  0  0  0
  1 25  1  0  0  0
  1 30  2  0  0  0
  1 86  1  0  0  0
  2  3  1  0  0  0
  2 25  1  0  0  0
  2 87  1  0  0  0
  2 88  1  0  0  0
  3  4  1  0  0  0
  3 89  1  0  0  0
  3 90  1  0  0  0
  4  5  1  0  0  0
  4 91  1  0  0  0
  4 92  1  0  0  0
  5  6  1  0  0  0
  5 26  1  0  0  0
  5 93  1  0  0  0
  6 25  1  0  0  0
  6 94  1  0  0  0
  6 95  1  0  0  0
  7  8  2  0  0  0
  7 26  1  0  0  0
  7 29  1  0  0  0
  8  9  1  0  0  0
  8 22  1  0  0  0
  9 10  1  0  0  0
  9 27  2  0  0  0
 10 11  2  0  0  0
 10 15  1  0  0  0
 11 12  1  0  0  0
 11 96  1  0  0  0
 12 13  2  0  0  0
 12 97  1  0  0  0
 13 14  1  0  0  0
 13 31  1  0  0  0
 14 15  2  0  0  0
 14 98  1  0  0  0
 15 99  1  0  0  0
 16 17  2  0  0  0
 16 21  1  0  0  0
 16 31  1  0  0  0
 17 18  1  0  0  0
 17100  1  0  0  0
 18 19  2  0  0  0
 18101  1  0  0  0
 19 20  1  0  0  0
 19 24  1  0  0  0
 20 21  2  0  0  0
 20102  1  0  0  0
 21 23  1  0  0  0
 22 28  1  0  0  0
 22 32  2  0  0  0
 26 27  1  0  0  0
 28103  1  0  0  0
 28104  1  0  0  0
 29105  1  0  0  0
 29106  1  0  0  0
 33 34  1  0  0  0
 33 66  1  0  0  0
 33 70  2  0  0  0
 34 36  1  0  0  0
 34 59  1  0  0  0
 34107  1  0  0  0
 35 44  2  0  0  0
 35 45  1  0  0  0
 35 68  1  0  0  0
 36 56  1  0  0  0
 36108  1  0  0  0
 37 39  1  0  0  0
 37 47  1  0  0  0
 37 66  1  0  0  0
 37109  1  0  0  0
 38 43  2  0  0  0
 38 46  1  0  0  0
 38 47  1  0  0  0
 39 64  1  0  0  0
 39 67  2  0  0  0
 40 52  1  0  0  0
 40 53  2  0  0  0
 40 58  1  0  0  0
 41110  1  0  0  0
 41111  1  0  0  0
 41112  1  0  0  0
 41 48  1  0  0  0
 42 43  1  0  0  0
 42 66  1  0  0  0
 42113  1  0  0  0
 42114  1  0  0  0
 43 44  1  0  0  0
 44115  1  0  0  0
 45 46  2  0  0  0
 45116  1  0  0  0
 46117  1  0  0  0
 47118  1  0  0  0
 47119  1  0  0  0
 48 56  1  0  0  0
 48 65  1  0  0  0
 48120  1  0  0  0
 49 50  1  0  0  0
 49 53  1  0  0  0
 49 64  1  0  0  0
 49121  1  0  0  0
 50 51  1  0  0  0
 50122  1  0  0  0
 50123  1  0  0  0
 51 52  1  0  0  0
 51124  1  0  0  0
 51125  1  0  0  0
 52126  1  0  0  0
 52127  1  0  0  0
 53 54  1  0  0  0
 54 55  2  0  0  0
 54128  1  0  0  0
 55 57  1  0  0  0
 55129  1  0  0  0
 56 69  2  0  0  0
 57 58  2  0  0  0
 57130  1  0  0  0
 58131  1  0  0  0
 59 60  1  0  0  0
 59 61  1  0  0  0
 59 62  1  0  0  0
 60132  1  0  0  0
 60133  1  0  0  0
 60134  1  0  0  0
 61135  1  0  0  0
 61136  1  0  0  0
 61137  1  0  0  0
 62138  1  0  0  0
 62139  1  0  0  0
 62140  1  0  0  0
 63 65  1  0  0  0
 63141  1  0  0  0
 63142  1  0  0  0
 63143  1  0  0  0
 64144  1  0  0  0
 65145  1  0  0  0
 68 80  1  0  0  0
 71 72  2  0  0  0
 71 73  1  0  0  0
 71146  1  0  0  0
 72 75  1  0  0  0
 72147  1  0  0  0
 73 76  2  0  0  0
 73148  1  0  0  0
 74 75  2  0  0  0
 74 76  1  0  0  0
 74149  1  0  0  0
 75 85  1  0  0  0
 76 86  1  0  0  0
 77 79  2  0  0  0
 77 81  1  0  0  0
 77 82  1  0  0  0
 78 80  2  0  0  0
 78 81  1  0  0  0
 78 85  1  0  0  0
 79150  1  0  0  0
 79151  1  0  0  0
 80 84  1  0  0  0
 81152  1  0  0  0
 81153  1  0  0  0
 82 83  1  0  0  0
 82154  1  0  0  0
 82155  1  0  0  0
 83 85  1  0  0  0
 83156  1  0  0  0
 83157  1  0  0  0
 84158  1  0  0  0
 84159  1  0  0  0
 84160  1  0  0  0
 86161  1  0  0  0
M  ISO  4   1 100  68 101  80 101  86 100
M  END
> <chiral flag>
0

> <version>
0

> <s_m_source_file>
/data/baiqing/PycharmProjects/Reinvent-master-3.2/result/LINK_invent/BTK/process_docking_weight1_custom_product_contain_oxygen_bond_distance_aromatic_linkinvent_7_9_3/rearranged_h_0081.sdf

> <i_m_source_file_index>
21

> <r_mmod_Potential_Energy-OPLS-2005>
880.567810058594

> <r_mmod_Stretch_Energy-OPLS-2005>
402.124145507812

> <r_mmod_Bend_Energy-OPLS-2005>
306.019256591797

> <r_mmod_Torsional_Energy-OPLS-2005>
258.621917724609

> <r_mmod_Improper_Torsional_Energy-OPLS-2005>
10.2496004104614

> <r_mmod_Van_der_Waal_Energy-OPLS-2005>
160.332717895508

> <r_mmod_Electrostatic_Energy-OPLS-2005>
-368.738891601562

> <r_mmod_Solvation_Energy-OPLS-2005>
-203.040985107422

> <b_mmod_Minimization_Converged-OPLS-2005>
0

> <r_mmod_RMS_Derivative-OPLS-2005>
11.236385345459

$$$$
21
                    3D
 Structure written by MMmdl.
154162  0  0  1  0            999 V2000
  -30.5875  -14.8468   20.3645 C   0  0  0  0  0  0
  -30.4365  -12.5019   19.4739 C   0  0  0  0  0  0
  -29.5069  -12.4357   18.2419 C   0  0  0  0  0  0
  -28.0345  -12.2772   18.6661 C   0  0  0  0  0  0
  -27.6248  -13.2199   19.8291 C   0  0  2  0  0  0
  -28.6798  -13.2523   20.9536 C   0  0  0  0  0  0
  -25.2468  -13.8155   20.5701 C   0  0  0  0  0  0
  -24.1766  -13.0419   20.9232 C   0  0  0  0  0  0
  -24.6347  -11.6890   20.8800 C   0  0  0  0  0  0
  -23.9032  -10.4271   21.0439 C   0  0  0  0  0  0
  -24.3594   -9.4181   21.9203 C   0  0  0  0  0  0
  -23.6275   -8.2214   22.0753 C   0  0  0  0  0  0
  -22.4266   -8.0262   21.3535 C   0  0  0  0  0  0
  -21.9897   -9.0232   20.4644 C   0  0  0  0  0  0
  -22.7218  -10.2113   20.3067 C   0  0  0  0  0  0
  -21.6842   -6.0726   22.5279 C   0  0  0  0  0  0
  -21.4002   -6.5634   23.8211 C   0  0  0  0  0  0
  -21.3654   -5.6790   24.9179 C   0  0  0  0  0  0
  -21.6043   -4.3052   24.7229 C   0  0  0  0  0  0
  -21.8821   -3.8140   23.4352 C   0  0  0  0  0  0
  -21.9193   -4.6957   22.3413 C   0  0  0  0  0  0
  -22.7794  -13.5205   21.1899 C   0  0  0  0  0  0
  -22.1667   -4.2145   21.0987 F   0  0  0  0  0  0
  -21.5631   -3.4541   25.7741 F   0  0  0  0  0  0
  -29.9598  -13.6124   20.3326 N   0  0  0  0  0  0
  -26.2863  -12.9328   20.3282 N   0  0  0  0  0  0
  -25.9267  -11.6495   20.5805 N   0  0  0  0  0  0
  -22.0433  -12.8199   22.0460 N   0  0  0  0  0  0
  -25.4153  -15.1874   20.4032 N   0  0  0  0  0  0
  -31.8165  -14.8801   20.2521 O   0  0  0  0  0  0
  -21.6627   -6.8866   21.4235 O   0  0  0  0  0  0
  -22.3476  -14.5517   20.6752 O   0  0  0  0  0  0
  -24.6355  -31.8528   23.1958 C   0  0  0  0  0  0
  -25.9162  -32.4745   23.8322 C   0  0  1  0  0  0
  -27.2269  -27.2378   20.1456 C   0  0  0  0  0  0
  -25.5934  -33.8547   24.2241 N   0  0  0  0  0  0
  -23.4336  -30.4728   21.5410 C   0  0  2  0  0  0
  -24.8840  -28.9097   20.1166 C   0  0  0  0  0  0
  -22.7530  -29.4585   22.4918 C   0  0  0  0  0  0
  -18.0297  -28.1411   22.8494 C   0  0  0  0  0  0
  -24.1478  -36.7258   23.2641 C   0  0  0  0  0  0
  -25.9806  -30.7587   21.3788 C   0  0  0  0  0  0
  -26.0562  -29.3770   20.7255 C   0  0  0  0  0  0
  -27.2343  -28.5571   20.7215 C   0  0  0  0  0  0
  -26.0325  -26.8372   19.5134 C   0  0  0  0  0  0
  -24.8791  -27.6497   19.4959 C   0  0  0  0  0  0
  -23.6542  -29.8006   20.1601 C   0  0  0  0  0  0
  -25.4113  -36.3065   24.0325 C   0  0  1  0  0  0
  -20.5901  -28.3708   23.1270 C   0  0  2  0  0  0
  -20.6772  -26.9431   22.5409 C   0  0  0  0  0  0
  -19.5739  -26.6406   21.5213 C   0  0  0  0  0  0
  -18.1927  -26.7962   22.1634 C   0  0  0  0  0  0
  -19.1554  -28.8884   23.2868 C   0  0  0  0  0  0
  -18.9469  -30.1491   23.8887 C   0  0  0  0  0  0
  -17.6461  -30.6595   24.0582 C   0  0  0  0  0  0
  -25.9064  -34.9434   23.5096 C   0  0  0  0  0  0
  -16.5355  -29.9088   23.6347 C   0  0  0  0  0  0
  -16.7287  -28.6513   23.0358 C   0  0  0  0  0  0
  -26.4518  -31.6582   25.0727 C   0  0  0  0  0  0
  -25.3723  -31.3733   26.1433 C   0  0  0  0  0  0
  -27.0374  -30.3003   24.6230 C   0  0  0  0  0  0
  -27.6079  -32.4325   25.7486 C   0  0  0  0  0  0
  -27.5573  -37.1778   24.8472 C   0  0  0  0  0  0
  -21.4237  -29.3034   22.3634 N   0  0  0  0  0  0
  -26.4277  -37.3775   23.9422 N   0  0  0  0  0  0
  -24.7022  -31.0469   22.0949 N   0  0  0  0  0  0
  -23.4214  -28.8151   23.3044 O   0  0  0  0  0  0
  -28.3166  -26.3328   20.1279 O   0  0  0  0  0  0
  -26.5639  -34.8927   22.4672 O   0  0  0  0  0  0
  -23.5491  -32.1373   23.7223 O   0  0  0  0  0  0
  -30.4370  -18.6910   22.7646 C   0  0  0  0  0  0
  -30.0180  -19.9036   22.1720 C   0  0  0  0  0  0
  -30.3751  -17.4561   22.0843 C   0  0  0  0  0  0
  -29.4864  -18.6602   20.1656 C   0  0  0  0  0  0
  -29.5210  -19.9546   20.8490 C   0  0  0  0  0  0
  -29.9028  -17.3716   20.7578 C   0  0  0  0  0  0
  -29.8667  -15.9232   17.6431 C   0  0  0  0  0  0
  -29.2456  -16.1196   18.8214 C   0  0  0  0  0  0
  -28.1776  -24.9848   20.6052 C   0  0  0  0  0  0
  -28.8092  -23.8159   20.1630 C   0  0  0  0  0  0
  -28.6904  -22.4611   20.8628 C   0  0  0  0  0  0
  -29.1844  -21.2968   20.2548 N   0  0  0  0  0  0
  -29.8403  -16.0207   20.0905 N   0  0  0  0  0  0
  -28.1496  -22.3675   21.9660 O   0  0  0  0  0  0
  -29.6129  -23.8934   19.0923 O   0  0  0  0  0  0
  -31.4682  -12.6483   19.1515 H   0  0  0  0  0  0
  -30.4191  -11.5607   20.0268 H   0  0  0  0  0  0
  -29.7973  -11.6021   17.6008 H   0  0  0  0  0  0
  -29.6187  -13.3286   17.6304 H   0  0  0  0  0  0
  -27.9023  -11.2401   18.9767 H   0  0  0  0  0  0
  -27.3747  -12.4198   17.8098 H   0  0  0  0  0  0
  -27.5762  -14.2121   19.3914 H   0  0  0  0  0  0
  -28.7479  -12.2885   21.4598 H   0  0  0  0  0  0
  -28.4077  -13.9886   21.7113 H   0  0  0  0  0  0
  -25.2731   -9.5668   22.4790 H   0  0  0  0  0  0
  -23.9995   -7.4600   22.7455 H   0  0  0  0  0  0
  -21.0839   -8.8737   19.8940 H   0  0  0  0  0  0
  -22.3670  -10.9655   19.6183 H   0  0  0  0  0  0
  -21.1981   -7.6141   23.9712 H   0  0  0  0  0  0
  -21.1475   -6.0524   25.9081 H   0  0  0  0  0  0
  -22.0606   -2.7603   23.2856 H   0  0  0  0  0  0
  -22.4036  -11.9855   22.4860 H   0  0  0  0  0  0
  -21.1036  -13.1222   22.2663 H   0  0  0  0  0  0
  -24.6422  -15.8379   20.4836 H   0  0  0  0  0  0
  -26.2694  -15.6233   20.0817 H   0  0  0  0  0  0
  -26.7238  -32.5426   23.1061 H   0  0  0  0  0  0
  -25.0053  -33.9682   25.0366 H   0  0  0  0  0  0
  -22.7317  -31.2958   21.3922 H   0  0  0  0  0  0
  -23.3757  -35.9570   23.3303 H   0  0  0  0  0  0
  -24.3554  -36.8878   22.2056 H   0  0  0  0  0  0
  -23.7209  -37.6447   23.6672 H   0  0  0  0  0  0
  -26.1217  -31.5162   20.6061 H   0  0  0  0  0  0
  -26.8574  -30.8118   22.0132 H   0  0  0  0  0  0
  -28.1400  -28.9199   21.1866 H   0  0  0  0  0  0
  -25.9861  -25.8672   19.0392 H   0  0  0  0  0  0
  -23.9844  -27.2842   19.0106 H   0  0  0  0  0  0
  -23.7796  -30.5756   19.4032 H   0  0  0  0  0  0
  -22.7725  -29.2317   19.8572 H   0  0  0  0  0  0
  -25.1282  -36.1905   25.0811 H   0  0  0  0  0  0
  -21.0003  -28.3309   24.1381 H   0  0  0  0  0  0
  -20.5670  -26.2325   23.3609 H   0  0  0  0  0  0
  -21.6633  -26.7444   22.1190 H   0  0  0  0  0  0
  -19.6886  -25.6313   21.1234 H   0  0  0  0  0  0
  -19.6674  -27.3211   20.6746 H   0  0  0  0  0  0
  -17.4186  -26.6717   21.4049 H   0  0  0  0  0  0
  -18.0334  -26.0098   22.9034 H   0  0  0  0  0  0
  -19.7946  -30.7333   24.2225 H   0  0  0  0  0  0
  -17.5006  -31.6272   24.5195 H   0  0  0  0  0  0
  -15.5352  -30.2978   23.7678 H   0  0  0  0  0  0
  -15.8689  -28.0834   22.7063 H   0  0  0  0  0  0
  -24.5903  -30.7080   25.7734 H   0  0  0  0  0  0
  -24.8911  -32.2908   26.4857 H   0  0  0  0  0  0
  -25.8026  -30.8909   27.0221 H   0  0  0  0  0  0
  -26.2970  -29.6733   24.1244 H   0  0  0  0  0  0
  -27.4040  -29.7289   25.4767 H   0  0  0  0  0  0
  -27.8852  -30.4263   23.9484 H   0  0  0  0  0  0
  -27.2700  -33.3643   26.2037 H   0  0  0  0  0  0
  -28.3894  -32.6847   25.0301 H   0  0  0  0  0  0
  -28.0739  -31.8465   26.5421 H   0  0  0  0  0  0
  -28.2588  -38.0079   24.7538 H   0  0  0  0  0  0
  -28.1067  -36.2616   24.6263 H   0  0  0  0  0  0
  -27.2294  -37.1377   25.8874 H   0  0  0  0  0  0
  -20.9440  -29.8711   21.6776 H   0  0  0  0  0  0
  -26.0156  -38.2837   24.1461 H   0  0  0  0  0  0
  -30.8223  -18.7101   23.7740 H   0  0  0  0  0  0
  -30.1138  -20.8108   22.7518 H   0  0  0  0  0  0
  -30.7001  -16.5684   22.6086 H   0  0  0  0  0  0
  -29.1335  -18.6712   19.1447 H   0  0  0  0  0  0
  -29.3269  -16.0236   16.7129 H   0  0  0  0  0  0
  -30.9148  -15.6672   17.5805 H   0  0  0  0  0  0
  -28.2003  -16.3955   18.8661 H   0  0  0  0  0  0
  -27.5033  -24.9564   21.4516 H   0  0  0  0  0  0
  -29.3546  -21.3759   19.2626 H   0  0  0  0  0  0
  -30.1178  -23.0911   19.0599 H   0  0  0  0  0  0
  1 25  1  0  0  0
  1 30  2  0  0  0
  1 83  1  0  0  0
  2  3  1  0  0  0
  2 25  1  0  0  0
  2 86  1  0  0  0
  2 87  1  0  0  0
  3  4  1  0  0  0
  3 88  1  0  0  0
  3 89  1  0  0  0
  4  5  1  0  0  0
  4 90  1  0  0  0
  4 91  1  0  0  0
  5  6  1  0  0  0
  5 26  1  0  0  0
  5 92  1  0  0  0
  6 25  1  0  0  0
  6 93  1  0  0  0
  6 94  1  0  0  0
  7  8  2  0  0  0
  7 26  1  0  0  0
  7 29  1  0  0  0
  8  9  1  0  0  0
  8 22  1  0  0  0
  9 10  1  0  0  0
  9 27  2  0  0  0
 10 11  2  0  0  0
 10 15  1  0  0  0
 11 12  1  0  0  0
 11 95  1  0  0  0
 12 13  2  0  0  0
 12 96  1  0  0  0
 13 14  1  0  0  0
 13 31  1  0  0  0
 14 15  2  0  0  0
 14 97  1  0  0  0
 15 98  1  0  0  0
 16 17  2  0  0  0
 16 21  1  0  0  0
 16 31  1  0  0  0
 17 18  1  0  0  0
 17 99  1  0  0  0
 18 19  2  0  0  0
 18100  1  0  0  0
 19 20  1  0  0  0
 19 24  1  0  0  0
 20 21  2  0  0  0
 20101  1  0  0  0
 21 23  1  0  0  0
 22 28  1  0  0  0
 22 32  2  0  0  0
 26 27  1  0  0  0
 28102  1  0  0  0
 28103  1  0  0  0
 29104  1  0  0  0
 29105  1  0  0  0
 33 34  1  0  0  0
 33 66  1  0  0  0
 33 70  2  0  0  0
 34 36  1  0  0  0
 34 59  1  0  0  0
 34106  1  0  0  0
 35 44  2  0  0  0
 35 45  1  0  0  0
 35 68  1  0  0  0
 36 56  1  0  0  0
 36107  1  0  0  0
 37 39  1  0  0  0
 37 47  1  0  0  0
 37 66  1  0  0  0
 37108  1  0  0  0
 38 43  2  0  0  0
 38 46  1  0  0  0
 38 47  1  0  0  0
 39 64  1  0  0  0
 39 67  2  0  0  0
 40 52  1  0  0  0
 40 53  2  0  0  0
 40 58  1  0  0  0
 41109  1  0  0  0
 41110  1  0  0  0
 41111  1  0  0  0
 41 48  1  0  0  0
 42 43  1  0  0  0
 42 66  1  0  0  0
 42112  1  0  0  0
 42113  1  0  0  0
 43 44  1  0  0  0
 44114  1  0  0  0
 45 46  2  0  0  0
 45115  1  0  0  0
 46116  1  0  0  0
 47117  1  0  0  0
 47118  1  0  0  0
 48 56  1  0  0  0
 48 65  1  0  0  0
 48119  1  0  0  0
 49 50  1  0  0  0
 49 53  1  0  0  0
 49 64  1  0  0  0
 49120  1  0  0  0
 50 51  1  0  0  0
 50121  1  0  0  0
 50122  1  0  0  0
 51 52  1  0  0  0
 51123  1  0  0  0
 51124  1  0  0  0
 52125  1  0  0  0
 52126  1  0  0  0
 53 54  1  0  0  0
 54 55  2  0  0  0
 54127  1  0  0  0
 55 57  1  0  0  0
 55128  1  0  0  0
 56 69  2  0  0  0
 57 58  2  0  0  0
 57129  1  0  0  0
 58130  1  0  0  0
 59 60  1  0  0  0
 59 61  1  0  0  0
 59 62  1  0  0  0
 60131  1  0  0  0
 60132  1  0  0  0
 60133  1  0  0  0
 61134  1  0  0  0
 61135  1  0  0  0
 61136  1  0  0  0
 62137  1  0  0  0
 62138  1  0  0  0
 62139  1  0  0  0
 63 65  1  0  0  0
 63140  1  0  0  0
 63141  1  0  0  0
 63142  1  0  0  0
 64143  1  0  0  0
 65144  1  0  0  0
 68 79  1  0  0  0
 71 72  2  0  0  0
 71 73  1  0  0  0
 71145  1  0  0  0
 72 75  1  0  0  0
 72146  1  0  0  0
 73 76  2  0  0  0
 73147  1  0  0  0
 74 75  2  0  0  0
 74 76  1  0  0  0
 74148  1  0  0  0
 75 82  1  0  0  0
 76 83  1  0  0  0
 77 78  2  0  0  0
 77149  1  0  0  0
 77150  1  0  0  0
 78 83  1  0  0  0
 78151  1  0  0  0
 79 80  2  0  0  0
 79152  1  0  0  0
 80 81  1  0  0  0
 80 85  1  0  0  0
 81 82  1  0  0  0
 81 84  2  0  0  0
 82153  1  0  0  0
 85154  1  0  0  0
M  ISO  4   1 100  68 101  79 101  83 100
M  END
> <chiral flag>
0

> <version>
0

> <s_m_source_file>
/data/baiqing/PycharmProjects/Reinvent-master-3.2/result/LINK_invent/BTK/process_docking_weight1_custom_product_contain_oxygen_bond_distance_aromatic_linkinvent_7_9_3/rearranged_h_0081.sdf

> <i_m_source_file_index>
22

> <r_mmod_Potential_Energy-OPLS-2005>
430.723602294922

> <r_mmod_Stretch_Energy-OPLS-2005>
155.063415527344

> <r_mmod_Bend_Energy-OPLS-2005>
167.266296386719

> <r_mmod_Torsional_Energy-OPLS-2005>
351.513336181641

> <r_mmod_Improper_Torsional_Energy-OPLS-2005>
14.0999536514282

> <r_mmod_Van_der_Waal_Energy-OPLS-2005>
141.875

> <r_mmod_Electrostatic_Energy-OPLS-2005>
-292.727966308594

> <r_mmod_Solvation_Energy-OPLS-2005>
-233.454208374023

> <b_mmod_Minimization_Converged-OPLS-2005>
0

> <r_mmod_RMS_Derivative-OPLS-2005>
2.97146105766296

$$$$
22
                    3D
 Structure written by MMmdl.
152161  0  0  1  0            999 V2000
  -30.6262  -14.7859   20.4441 C   0  0  0  0  0  0
  -30.4222  -12.4790   19.4853 C   0  0  0  0  0  0
  -29.5082  -12.5070   18.2418 C   0  0  0  0  0  0
  -28.0363  -12.3275   18.6563 C   0  0  0  0  0  0
  -27.6355  -13.2409   19.8457 C   0  0  2  0  0  0
  -28.6797  -13.2150   20.9833 C   0  0  0  0  0  0
  -25.2479  -13.8217   20.5707 C   0  0  0  0  0  0
  -24.1785  -13.0447   20.9221 C   0  0  0  0  0  0
  -24.6391  -11.6928   20.8757 C   0  0  0  0  0  0
  -23.9075  -10.4297   21.0409 C   0  0  0  0  0  0
  -24.3624   -9.4210   21.9186 C   0  0  0  0  0  0
  -23.6298   -8.2246   22.0755 C   0  0  0  0  0  0
  -22.4280   -8.0284   21.3544 C   0  0  0  0  0  0
  -21.9918   -9.0258   20.4647 C   0  0  0  0  0  0
  -22.7248  -10.2137   20.3057 C   0  0  0  0  0  0
  -21.6854   -6.0737   22.5279 C   0  0  0  0  0  0
  -21.4016   -6.5641   23.8212 C   0  0  0  0  0  0
  -21.3660   -5.6793   24.9174 C   0  0  0  0  0  0
  -21.6043   -4.3056   24.7224 C   0  0  0  0  0  0
  -21.8819   -3.8148   23.4345 C   0  0  0  0  0  0
  -21.9194   -4.6965   22.3402 C   0  0  0  0  0  0
  -22.7805  -13.5218   21.1876 C   0  0  0  0  0  0
  -22.1661   -4.2150   21.0979 F   0  0  0  0  0  0
  -21.5629   -3.4539   25.7738 F   0  0  0  0  0  0
  -29.9744  -13.5680   20.3912 N   0  0  0  0  0  0
  -26.2908  -12.9441   20.3276 N   0  0  0  0  0  0
  -25.9324  -11.6573   20.5759 N   0  0  0  0  0  0
  -22.0454  -12.8204   22.0429 N   0  0  0  0  0  0
  -25.4150  -15.1943   20.4118 N   0  0  0  0  0  0
  -31.8209  -14.8012   20.1401 O   0  0  0  0  0  0
  -21.6642   -6.8881   21.4241 O   0  0  0  0  0  0
  -22.3487  -14.5521   20.6721 O   0  0  0  0  0  0
  -24.6337  -31.8519   23.1952 C   0  0  0  0  0  0
  -25.9152  -32.4734   23.8305 C   0  0  1  0  0  0
  -27.2202  -27.2325   20.1235 C   0  0  0  0  0  0
  -25.5936  -33.8538   24.2228 N   0  0  0  0  0  0
  -23.4316  -30.4738   21.5390 C   0  0  2  0  0  0
  -24.8781  -28.9162   20.1063 C   0  0  0  0  0  0
  -22.7514  -29.4584   22.4895 C   0  0  0  0  0  0
  -18.0292  -28.1388   22.8481 C   0  0  0  0  0  0
  -24.1490  -36.7275   23.2642 C   0  0  0  0  0  0
  -25.9792  -30.7551   21.3789 C   0  0  0  0  0  0
  -26.0497  -29.3754   20.7192 C   0  0  0  0  0  0
  -27.2184  -28.5444   20.7193 C   0  0  0  0  0  0
  -26.0179  -26.8427   19.4910 C   0  0  0  0  0  0
  -24.8690  -27.6594   19.4828 C   0  0  0  0  0  0
  -23.6503  -29.8064   20.1552 C   0  0  0  0  0  0
  -25.4119  -36.3058   24.0322 C   0  0  1  0  0  0
  -20.5898  -28.3701   23.1262 C   0  0  2  0  0  0
  -20.6778  -26.9415   22.5408 C   0  0  0  0  0  0
  -19.5754  -26.6382   21.5211 C   0  0  0  0  0  0
  -18.1934  -26.7929   22.1624 C   0  0  0  0  0  0
  -19.1547  -28.8862   23.2865 C   0  0  0  0  0  0
  -18.9468  -30.1462   23.8886 C   0  0  0  0  0  0
  -17.6467  -30.6588   24.0560 C   0  0  0  0  0  0
  -25.9062  -34.9430   23.5081 C   0  0  0  0  0  0
  -16.5358  -29.9085   23.6334 C   0  0  0  0  0  0
  -16.7278  -28.6503   23.0353 C   0  0  0  0  0  0
  -26.4506  -31.6576   25.0712 C   0  0  0  0  0  0
  -25.3717  -31.3738   26.1426 C   0  0  0  0  0  0
  -27.0359  -30.2987   24.6227 C   0  0  0  0  0  0
  -27.6050  -32.4326   25.7492 C   0  0  0  0  0  0
  -27.5577  -37.1794   24.8466 C   0  0  0  0  0  0
  -21.4217  -29.3041   22.3644 N   0  0  0  0  0  0
  -26.4290  -37.3763   23.9407 N   0  0  0  0  0  0
  -24.7009  -31.0458   22.0939 N   0  0  0  0  0  0
  -23.4203  -28.8129   23.3006 O   0  0  0  0  0  0
  -28.3178  -26.3360   20.2265 O   0  0  0  0  0  0
  -26.5643  -34.8914   22.4656 O   0  0  0  0  0  0
  -23.5482  -32.1357   23.7233 O   0  0  0  0  0  0
  -32.1690  -19.0597   20.4405 C   0  0  0  0  0  0
  -31.2950  -20.1559   20.3863 C   0  0  0  0  0  0
  -31.6948  -17.7403   20.5253 C   0  0  0  0  0  0
  -29.4235  -18.6040   20.5146 C   0  0  0  0  0  0
  -29.8904  -20.0009   20.4263 C   0  0  0  0  0  0
  -30.3134  -17.4277   20.5454 C   0  0  0  0  0  0
  -27.8435  -23.0489   21.1827 C   0  0  0  0  0  0
  -28.5406  -23.5765   20.1685 C   0  0  0  0  0  0
  -28.1877  -21.6364   21.3678 C   0  0  0  0  0  0
  -29.3499  -22.4288   19.6745 C   0  0  0  0  0  0
  -28.4334  -25.0257   19.4786 C   0  0  0  0  0  0
  -29.1021  -21.2929   20.4303 N   0  0  0  0  0  0
  -29.8986  -15.9768   20.6177 N   0  0  0  0  0  0
  -27.7257  -20.8737   22.2240 O   0  0  0  0  0  0
  -30.1159  -22.4609   18.7041 O   0  0  0  0  0  0
  -31.4648  -12.5851   19.1817 H   0  0  0  0  0  0
  -30.3594  -11.5133   19.9895 H   0  0  0  0  0  0
  -29.7978  -11.7236   17.5400 H   0  0  0  0  0  0
  -29.6308  -13.4539   17.7134 H   0  0  0  0  0  0
  -27.9009  -11.2814   18.9334 H   0  0  0  0  0  0
  -27.3780  -12.5029   17.8045 H   0  0  0  0  0  0
  -27.6180  -14.2551   19.4461 H   0  0  0  0  0  0
  -28.7249  -12.2307   21.4517 H   0  0  0  0  0  0
  -28.4095  -13.9196   21.7713 H   0  0  0  0  0  0
  -25.2767   -9.5686   22.4763 H   0  0  0  0  0  0
  -24.0006   -7.4637   22.7474 H   0  0  0  0  0  0
  -21.0850   -8.8778   19.8951 H   0  0  0  0  0  0
  -22.3706  -10.9677   19.6168 H   0  0  0  0  0  0
  -21.2008   -7.6149   23.9716 H   0  0  0  0  0  0
  -21.1481   -6.0523   25.9077 H   0  0  0  0  0  0
  -22.0598   -2.7610   23.2845 H   0  0  0  0  0  0
  -22.4077  -11.9869   22.4819 H   0  0  0  0  0  0
  -21.1069  -13.1220   22.2633 H   0  0  0  0  0  0
  -24.6443  -15.8448   20.5202 H   0  0  0  0  0  0
  -26.2564  -15.6351   20.0637 H   0  0  0  0  0  0
  -26.7213  -32.5371   23.1037 H   0  0  0  0  0  0
  -25.0066  -33.9664   25.0362 H   0  0  0  0  0  0
  -22.7297  -31.2972   21.3914 H   0  0  0  0  0  0
  -23.3754  -35.9606   23.3303 H   0  0  0  0  0  0
  -24.3576  -36.8904   22.2056 H   0  0  0  0  0  0
  -23.7243  -37.6473   23.6673 H   0  0  0  0  0  0
  -26.1229  -31.5148   20.6092 H   0  0  0  0  0  0
  -26.8551  -30.8029   22.0145 H   0  0  0  0  0  0
  -28.1130  -28.8889   21.2190 H   0  0  0  0  0  0
  -25.9110  -25.8721   19.0342 H   0  0  0  0  0  0
  -23.9676  -27.2976   19.0072 H   0  0  0  0  0  0
  -23.7760  -30.5823   19.3992 H   0  0  0  0  0  0
  -22.7675  -29.2414   19.8502 H   0  0  0  0  0  0
  -25.1304  -36.1899   25.0815 H   0  0  0  0  0  0
  -20.9989  -28.3284   24.1383 H   0  0  0  0  0  0
  -20.5677  -26.2310   23.3616 H   0  0  0  0  0  0
  -21.6645  -26.7434   22.1203 H   0  0  0  0  0  0
  -19.6917  -25.6292   21.1245 H   0  0  0  0  0  0
  -19.6693  -27.3189   20.6740 H   0  0  0  0  0  0
  -17.4202  -26.6672   21.4028 H   0  0  0  0  0  0
  -18.0336  -26.0074   22.9026 H   0  0  0  0  0  0
  -19.7946  -30.7276   24.2253 H   0  0  0  0  0  0
  -17.5023  -31.6269   24.5160 H   0  0  0  0  0  0
  -15.5358  -30.2982   23.7666 H   0  0  0  0  0  0
  -15.8678  -28.0818   22.7076 H   0  0  0  0  0  0
  -24.5905  -30.7072   25.7755 H   0  0  0  0  0  0
  -24.8891  -32.2909   26.4814 H   0  0  0  0  0  0
  -25.8023  -30.8945   27.0226 H   0  0  0  0  0  0
  -26.2952  -29.6725   24.1241 H   0  0  0  0  0  0
  -27.4015  -29.7263   25.4763 H   0  0  0  0  0  0
  -27.8840  -30.4249   23.9494 H   0  0  0  0  0  0
  -27.2655  -33.3642   26.2029 H   0  0  0  0  0  0
  -28.3882  -32.6858   25.0334 H   0  0  0  0  0  0
  -28.0692  -31.8475   26.5441 H   0  0  0  0  0  0
  -28.2593  -38.0091   24.7507 H   0  0  0  0  0  0
  -28.1072  -36.2620   24.6300 H   0  0  0  0  0  0
  -27.2290  -37.1451   25.8869 H   0  0  0  0  0  0
  -20.9407  -29.8764   21.6846 H   0  0  0  0  0  0
  -26.0165  -38.2835   24.1408 H   0  0  0  0  0  0
  -33.2358  -19.2353   20.4260 H   0  0  0  0  0  0
  -31.7382  -21.1413   20.3397 H   0  0  0  0  0  0
  -32.4544  -16.9788   20.5843 H   0  0  0  0  0  0
  -28.3571  -18.4323   20.5570 H   0  0  0  0  0  0
  -27.0984  -23.5740   21.7592 H   0  0  0  0  0  0
  -27.7163  -24.9488   18.6652 H   0  0  0  0  0  0
  -29.3797  -25.1378   18.9489 H   0  0  0  0  0  0
  -28.9136  -15.8240   20.7716 H   0  0  0  0  0  0
  1 25  1  0  0  0
  1 30  2  0  0  0
  1 83  1  0  0  0
  2  3  1  0  0  0
  2 25  1  0  0  0
  2 86  1  0  0  0
  2 87  1  0  0  0
  3  4  1  0  0  0
  3 88  1  0  0  0
  3 89  1  0  0  0
  4  5  1  0  0  0
  4 90  1  0  0  0
  4 91  1  0  0  0
  5  6  1  0  0  0
  5 26  1  0  0  0
  5 92  1  0  0  0
  6 25  1  0  0  0
  6 93  1  0  0  0
  6 94  1  0  0  0
  7  8  2  0  0  0
  7 26  1  0  0  0
  7 29  1  0  0  0
  8  9  1  0  0  0
  8 22  1  0  0  0
  9 10  1  0  0  0
  9 27  2  0  0  0
 10 11  2  0  0  0
 10 15  1  0  0  0
 11 12  1  0  0  0
 11 95  1  0  0  0
 12 13  2  0  0  0
 12 96  1  0  0  0
 13 14  1  0  0  0
 13 31  1  0  0  0
 14 15  2  0  0  0
 14 97  1  0  0  0
 15 98  1  0  0  0
 16 17  2  0  0  0
 16 21  1  0  0  0
 16 31  1  0  0  0
 17 18  1  0  0  0
 17 99  1  0  0  0
 18 19  2  0  0  0
 18100  1  0  0  0
 19 20  1  0  0  0
 19 24  1  0  0  0
 20 21  2  0  0  0
 20101  1  0  0  0
 21 23  1  0  0  0
 22 28  1  0  0  0
 22 32  2  0  0  0
 26 27  1  0  0  0
 28102  1  0  0  0
 28103  1  0  0  0
 29104  1  0  0  0
 29105  1  0  0  0
 33 34  1  0  0  0
 33 66  1  0  0  0
 33 70  2  0  0  0
 34 36  1  0  0  0
 34 59  1  0  0  0
 34106  1  0  0  0
 35 44  2  0  0  0
 35 45  1  0  0  0
 35 68  1  0  0  0
 36 56  1  0  0  0
 36107  1  0  0  0
 37 39  1  0  0  0
 37 47  1  0  0  0
 37 66  1  0  0  0
 37108  1  0  0  0
 38 43  2  0  0  0
 38 46  1  0  0  0
 38 47  1  0  0  0
 39 64  1  0  0  0
 39 67  2  0  0  0
 40 52  1  0  0  0
 40 53  2  0  0  0
 40 58  1  0  0  0
 41109  1  0  0  0
 41110  1  0  0  0
 41111  1  0  0  0
 41 48  1  0  0  0
 42 43  1  0  0  0
 42 66  1  0  0  0
 42112  1  0  0  0
 42113  1  0  0  0
 43 44  1  0  0  0
 44114  1  0  0  0
 45 46  2  0  0  0
 45115  1  0  0  0
 46116  1  0  0  0
 47117  1  0  0  0
 47118  1  0  0  0
 48 56  1  0  0  0
 48 65  1  0  0  0
 48119  1  0  0  0
 49 50  1  0  0  0
 49 53  1  0  0  0
 49 64  1  0  0  0
 49120  1  0  0  0
 50 51  1  0  0  0
 50121  1  0  0  0
 50122  1  0  0  0
 51 52  1  0  0  0
 51123  1  0  0  0
 51124  1  0  0  0
 52125  1  0  0  0
 52126  1  0  0  0
 53 54  1  0  0  0
 54 55  2  0  0  0
 54127  1  0  0  0
 55 57  1  0  0  0
 55128  1  0  0  0
 56 69  2  0  0  0
 57 58  2  0  0  0
 57129  1  0  0  0
 58130  1  0  0  0
 59 60  1  0  0  0
 59 61  1  0  0  0
 59 62  1  0  0  0
 60131  1  0  0  0
 60132  1  0  0  0
 60133  1  0  0  0
 61134  1  0  0  0
 61135  1  0  0  0
 61136  1  0  0  0
 62137  1  0  0  0
 62138  1  0  0  0
 62139  1  0  0  0
 63 65  1  0  0  0
 63140  1  0  0  0
 63141  1  0  0  0
 63142  1  0  0  0
 64143  1  0  0  0
 65144  1  0  0  0
 68 81  1  0  0  0
 71 72  2  0  0  0
 71 73  1  0  0  0
 71145  1  0  0  0
 72 75  1  0  0  0
 72146  1  0  0  0
 73 76  2  0  0  0
 73147  1  0  0  0
 74 75  2  0  0  0
 74 76  1  0  0  0
 74148  1  0  0  0
 75 82  1  0  0  0
 76 83  1  0  0  0
 77 78  2  0  0  0
 77 79  1  0  0  0
 77149  1  0  0  0
 78 80  1  0  0  0
 78 81  1  0  0  0
 79 82  1  0  0  0
 79 84  2  0  0  0
 80 82  1  0  0  0
 80 85  2  0  0  0
 81150  1  0  0  0
 81151  1  0  0  0
 83152  1  0  0  0
M  ISO  4   1 100  68 101  81 101  83 100
M  END
> <chiral flag>
0

> <version>
0

> <s_m_source_file>
/data/baiqing/PycharmProjects/Reinvent-master-3.2/result/LINK_invent/BTK/process_docking_weight1_custom_product_contain_oxygen_bond_distance_aromatic_linkinvent_7_9_3/rearranged_h_0081.sdf

> <i_m_source_file_index>
23

> <r_mmod_Potential_Energy-OPLS-2005>
263.750366210938

> <r_mmod_Stretch_Energy-OPLS-2005>
153.43913269043

> <r_mmod_Bend_Energy-OPLS-2005>
235.681442260742

> <r_mmod_Torsional_Energy-OPLS-2005>
243.639572143555

> <r_mmod_Improper_Torsional_Energy-OPLS-2005>
5.71787691116333

> <r_mmod_Van_der_Waal_Energy-OPLS-2005>
143.333236694336

> <r_mmod_Electrostatic_Energy-OPLS-2005>
-383.01611328125

> <r_mmod_Solvation_Energy-OPLS-2005>
-238.981216430664

> <b_mmod_Minimization_Converged-OPLS-2005>
0

> <r_mmod_RMS_Derivative-OPLS-2005>
0.281984508037567

$$$$
23
                    3D
 Structure written by MMmdl.
154163  0  0  1  0            999 V2000
  -30.5937  -14.6869   20.4966 C   0  0  0  0  0  0
  -30.4457  -12.4209   19.4629 C   0  0  0  0  0  0
  -29.5156  -12.5150   18.2318 C   0  0  0  0  0  0
  -28.0379  -12.3437   18.6404 C   0  0  0  0  0  0
  -27.6533  -13.2176   19.8637 C   0  0  2  0  0  0
  -28.6969  -13.0819   20.9955 C   0  0  0  0  0  0
  -25.2563  -13.8173   20.5685 C   0  0  0  0  0  0
  -24.1828  -13.0441   20.9185 C   0  0  0  0  0  0
  -24.6392  -11.6912   20.8732 C   0  0  0  0  0  0
  -23.9060  -10.4296   21.0401 C   0  0  0  0  0  0
  -24.3613   -9.4211   21.9178 C   0  0  0  0  0  0
  -23.6287   -8.2248   22.0755 C   0  0  0  0  0  0
  -22.4268   -8.0285   21.3548 C   0  0  0  0  0  0
  -21.9901   -9.0258   20.4649 C   0  0  0  0  0  0
  -22.7231  -10.2134   20.3053 C   0  0  0  0  0  0
  -21.6858   -6.0733   22.5275 C   0  0  0  0  0  0
  -21.4018   -6.5635   23.8210 C   0  0  0  0  0  0
  -21.3660   -5.6786   24.9171 C   0  0  0  0  0  0
  -21.6043   -4.3049   24.7222 C   0  0  0  0  0  0
  -21.8820   -3.8143   23.4342 C   0  0  0  0  0  0
  -21.9195   -4.6960   22.3397 C   0  0  0  0  0  0
  -22.7849  -13.5238   21.1848 C   0  0  0  0  0  0
  -22.1663   -4.2148   21.0974 F   0  0  0  0  0  0
  -21.5627   -3.4531   25.7735 F   0  0  0  0  0  0
  -30.0091  -13.4445   20.4356 N   0  0  0  0  0  0
  -26.2985  -12.9350   20.3306 N   0  0  0  0  0  0
  -25.9322  -11.6505   20.5743 N   0  0  0  0  0  0
  -22.0484  -12.8240   22.0403 N   0  0  0  0  0  0
  -25.4283  -15.1894   20.4109 N   0  0  0  0  0  0
  -31.7518  -14.8608   20.1032 O   0  0  0  0  0  0
  -21.6640   -6.8876   21.4239 O   0  0  0  0  0  0
  -22.3538  -14.5548   20.6695 O   0  0  0  0  0  0
  -24.6280  -31.8580   23.2012 C   0  0  0  0  0  0
  -25.9119  -32.4770   23.8347 C   0  0  1  0  0  0
  -27.2250  -27.2997   20.1263 C   0  0  0  0  0  0
  -25.5922  -33.8573   24.2269 N   0  0  0  0  0  0
  -23.4235  -30.4802   21.5438 C   0  0  2  0  0  0
  -24.8721  -28.9318   20.1110 C   0  0  0  0  0  0
  -22.7487  -29.4612   22.4929 C   0  0  0  0  0  0
  -18.0291  -28.1382   22.8487 C   0  0  0  0  0  0
  -24.1487  -36.7296   23.2637 C   0  0  0  0  0  0
  -25.9658  -30.7811   21.3771 C   0  0  0  0  0  0
  -26.0407  -29.4059   20.7221 C   0  0  0  0  0  0
  -27.2207  -28.6000   20.7237 C   0  0  0  0  0  0
  -26.0387  -26.8879   19.4797 C   0  0  0  0  0  0
  -24.8732  -27.6778   19.4808 C   0  0  0  0  0  0
  -23.6401  -29.8137   20.1596 C   0  0  0  0  0  0
  -25.4108  -36.3080   24.0328 C   0  0  1  0  0  0
  -20.5892  -28.3691   23.1278 C   0  0  2  0  0  0
  -20.6782  -26.9413   22.5405 C   0  0  0  0  0  0
  -19.5754  -26.6380   21.5213 C   0  0  0  0  0  0
  -18.1934  -26.7924   22.1628 C   0  0  0  0  0  0
  -19.1543  -28.8854   23.2876 C   0  0  0  0  0  0
  -18.9464  -30.1456   23.8891 C   0  0  0  0  0  0
  -17.6464  -30.6585   24.0559 C   0  0  0  0  0  0
  -25.9047  -34.9449   23.5100 C   0  0  0  0  0  0
  -16.5356  -29.9080   23.6329 C   0  0  0  0  0  0
  -16.7278  -28.6498   23.0351 C   0  0  0  0  0  0
  -26.4492  -31.6592   25.0730 C   0  0  0  0  0  0
  -25.3718  -31.3748   26.1456 C   0  0  0  0  0  0
  -27.0344  -30.3012   24.6209 C   0  0  0  0  0  0
  -27.6046  -32.4331   25.7504 C   0  0  0  0  0  0
  -27.5581  -37.1794   24.8455 C   0  0  0  0  0  0
  -21.4198  -29.3044   22.3672 N   0  0  0  0  0  0
  -26.4283  -37.3778   23.9413 N   0  0  0  0  0  0
  -24.6912  -31.0569   22.0974 N   0  0  0  0  0  0
  -23.4199  -28.8153   23.3019 O   0  0  0  0  0  0
  -28.3171  -26.4129   20.1582 O   0  0  0  0  0  0
  -26.5618  -34.8922   22.4669 O   0  0  0  0  0  0
  -23.5438  -32.1389   23.7326 O   0  0  0  0  0  0
  -28.5738  -19.3587   21.0983 C   0  0  0  0  0  0
  -30.6724  -19.3915   19.9566 C   0  0  0  0  0  0
  -28.6813  -17.9380   21.2258 C   0  0  0  0  0  0
  -30.7823  -17.9658   20.0834 C   0  0  0  0  0  0
  -29.5644  -20.1527   20.4518 C   0  0  0  0  0  0
  -29.7807  -17.1864   20.7242 C   0  0  0  0  0  0
  -28.8670  -23.9310   20.2720 C   0  0  0  0  0  0
  -30.1820  -23.8284   19.7056 C   0  0  0  0  0  0
  -28.4868  -22.5343   20.6300 C   0  0  0  0  0  0
  -30.9410  -24.8539   19.2820 C   0  0  0  0  0  0
  -28.0703  -25.0478   20.4636 C   0  0  0  0  0  0
  -30.6089  -22.3770   19.6777 C   0  0  0  0  0  0
  -29.4919  -21.6375   20.2925 N   0  0  0  0  0  0
  -29.7677  -15.7195   20.8819 N   0  0  0  0  0  0
  -27.4147  -22.2150   21.1542 O   0  0  0  0  0  0
  -31.4860  -12.5568   19.1624 H   0  0  0  0  0  0
  -30.3926  -11.4276   19.9111 H   0  0  0  0  0  0
  -29.7893  -11.7597   17.4939 H   0  0  0  0  0  0
  -29.6508  -13.4813   17.7439 H   0  0  0  0  0  0
  -27.8808  -11.2906   18.8760 H   0  0  0  0  0  0
  -27.3850  -12.5670   17.7958 H   0  0  0  0  0  0
  -27.6681  -14.2511   19.5175 H   0  0  0  0  0  0
  -28.7190  -12.0590   21.3746 H   0  0  0  0  0  0
  -28.4320  -13.7070   21.8496 H   0  0  0  0  0  0
  -25.2760   -9.5692   22.4748 H   0  0  0  0  0  0
  -24.0003   -7.4640   22.7475 H   0  0  0  0  0  0
  -21.0833   -8.8774   19.8953 H   0  0  0  0  0  0
  -22.3689  -10.9673   19.6159 H   0  0  0  0  0  0
  -21.2013   -7.6144   23.9714 H   0  0  0  0  0  0
  -21.1479   -6.0514   25.9074 H   0  0  0  0  0  0
  -22.0599   -2.7606   23.2843 H   0  0  0  0  0  0
  -22.4093  -11.9903   22.4801 H   0  0  0  0  0  0
  -21.1107  -13.1282   22.2608 H   0  0  0  0  0  0
  -24.6596  -15.8430   20.5138 H   0  0  0  0  0  0
  -26.2718  -15.6257   20.0604 H   0  0  0  0  0  0
  -26.7193  -32.5430   23.1098 H   0  0  0  0  0  0
  -25.0059  -33.9716   25.0408 H   0  0  0  0  0  0
  -22.7187  -31.3015   21.3991 H   0  0  0  0  0  0
  -23.3751  -35.9626   23.3286 H   0  0  0  0  0  0
  -24.3584  -36.8931   22.2054 H   0  0  0  0  0  0
  -23.7243  -37.6494   23.6670 H   0  0  0  0  0  0
  -26.0987  -31.5420   20.6068 H   0  0  0  0  0  0
  -26.8459  -30.8321   22.0066 H   0  0  0  0  0  0
  -28.1157  -28.9540   21.2151 H   0  0  0  0  0  0
  -26.0014  -25.9259   18.9878 H   0  0  0  0  0  0
  -23.9798  -27.3100   18.9947 H   0  0  0  0  0  0
  -23.7595  -30.5895   19.4025 H   0  0  0  0  0  0
  -22.7598  -29.2437   19.8565 H   0  0  0  0  0  0
  -25.1288  -36.1924   25.0820 H   0  0  0  0  0  0
  -20.9985  -28.3266   24.1399 H   0  0  0  0  0  0
  -20.5689  -26.2299   23.3606 H   0  0  0  0  0  0
  -21.6650  -26.7442   22.1195 H   0  0  0  0  0  0
  -19.6912  -25.6289   21.1250 H   0  0  0  0  0  0
  -19.6685  -27.3187   20.6739 H   0  0  0  0  0  0
  -17.4201  -26.6670   21.4034 H   0  0  0  0  0  0
  -18.0332  -26.0064   22.9023 H   0  0  0  0  0  0
  -19.7938  -30.7275   24.2256 H   0  0  0  0  0  0
  -17.5016  -31.6267   24.5159 H   0  0  0  0  0  0
  -15.5356  -30.2978   23.7655 H   0  0  0  0  0  0
  -15.8679  -28.0814   22.7071 H   0  0  0  0  0  0
  -24.5855  -30.7144   25.7779 H   0  0  0  0  0  0
  -24.8957  -32.2930   26.4908 H   0  0  0  0  0  0
  -25.8024  -30.8886   27.0219 H   0  0  0  0  0  0
  -26.2935  -29.6756   24.1219 H   0  0  0  0  0  0
  -27.4020  -29.7277   25.4730 H   0  0  0  0  0  0
  -27.8811  -30.4299   23.9462 H   0  0  0  0  0  0
  -27.2645  -33.3617   26.2102 H   0  0  0  0  0  0
  -28.3845  -32.6917   25.0329 H   0  0  0  0  0  0
  -28.0729  -31.8448   26.5406 H   0  0  0  0  0  0
  -28.2575  -38.0115   24.7537 H   0  0  0  0  0  0
  -28.1103  -36.2650   24.6230 H   0  0  0  0  0  0
  -27.2308  -37.1381   25.8858 H   0  0  0  0  0  0
  -20.9378  -29.8765   21.6878 H   0  0  0  0  0  0
  -26.0162  -38.2849   24.1427 H   0  0  0  0  0  0
  -27.6947  -19.8228   21.5192 H   0  0  0  0  0  0
  -31.4812  -19.8985   19.4508 H   0  0  0  0  0  0
  -27.8770  -17.4185   21.7279 H   0  0  0  0  0  0
  -31.6526  -17.4774   19.6680 H   0  0  0  0  0  0
  -30.5999  -25.8776   19.3309 H   0  0  0  0  0  0
  -31.9287  -24.6833   18.8782 H   0  0  0  0  0  0
  -27.0987  -24.9246   20.9244 H   0  0  0  0  0  0
  -31.5281  -22.2385   20.2487 H   0  0  0  0  0  0
  -30.7724  -22.0521   18.6492 H   0  0  0  0  0  0
  -28.9002  -15.3650   21.2552 H   0  0  0  0  0  0
  1 25  1  0  0  0
  1 30  2  0  0  0
  1 84  1  0  0  0
  2  3  1  0  0  0
  2 25  1  0  0  0
  2 86  1  0  0  0
  2 87  1  0  0  0
  3  4  1  0  0  0
  3 88  1  0  0  0
  3 89  1  0  0  0
  4  5  1  0  0  0
  4 90  1  0  0  0
  4 91  1  0  0  0
  5  6  1  0  0  0
  5 26  1  0  0  0
  5 92  1  0  0  0
  6 25  1  0  0  0
  6 93  1  0  0  0
  6 94  1  0  0  0
  7  8  2  0  0  0
  7 26  1  0  0  0
  7 29  1  0  0  0
  8  9  1  0  0  0
  8 22  1  0  0  0
  9 10  1  0  0  0
  9 27  2  0  0  0
 10 11  2  0  0  0
 10 15  1  0  0  0
 11 12  1  0  0  0
 11 95  1  0  0  0
 12 13  2  0  0  0
 12 96  1  0  0  0
 13 14  1  0  0  0
 13 31  1  0  0  0
 14 15  2  0  0  0
 14 97  1  0  0  0
 15 98  1  0  0  0
 16 17  2  0  0  0
 16 21  1  0  0  0
 16 31  1  0  0  0
 17 18  1  0  0  0
 17 99  1  0  0  0
 18 19  2  0  0  0
 18100  1  0  0  0
 19 20  1  0  0  0
 19 24  1  0  0  0
 20 21  2  0  0  0
 20101  1  0  0  0
 21 23  1  0  0  0
 22 28  1  0  0  0
 22 32  2  0  0  0
 26 27  1  0  0  0
 28102  1  0  0  0
 28103  1  0  0  0
 29104  1  0  0  0
 29105  1  0  0  0
 33 34  1  0  0  0
 33 66  1  0  0  0
 33 70  2  0  0  0
 34 36  1  0  0  0
 34 59  1  0  0  0
 34106  1  0  0  0
 35 44  2  0  0  0
 35 45  1  0  0  0
 35 68  1  0  0  0
 36 56  1  0  0  0
 36107  1  0  0  0
 37 39  1  0  0  0
 37 47  1  0  0  0
 37 66  1  0  0  0
 37108  1  0  0  0
 38 43  2  0  0  0
 38 46  1  0  0  0
 38 47  1  0  0  0
 39 64  1  0  0  0
 39 67  2  0  0  0
 40 52  1  0  0  0
 40 53  2  0  0  0
 40 58  1  0  0  0
 41109  1  0  0  0
 41110  1  0  0  0
 41111  1  0  0  0
 41 48  1  0  0  0
 42 43  1  0  0  0
 42 66  1  0  0  0
 42112  1  0  0  0
 42113  1  0  0  0
 43 44  1  0  0  0
 44114  1  0  0  0
 45 46  2  0  0  0
 45115  1  0  0  0
 46116  1  0  0  0
 47117  1  0  0  0
 47118  1  0  0  0
 48 56  1  0  0  0
 48 65  1  0  0  0
 48119  1  0  0  0
 49 50  1  0  0  0
 49 53  1  0  0  0
 49 64  1  0  0  0
 49120  1  0  0  0
 50 51  1  0  0  0
 50121  1  0  0  0
 50122  1  0  0  0
 51 52  1  0  0  0
 51123  1  0  0  0
 51124  1  0  0  0
 52125  1  0  0  0
 52126  1  0  0  0
 53 54  1  0  0  0
 54 55  2  0  0  0
 54127  1  0  0  0
 55 57  1  0  0  0
 55128  1  0  0  0
 56 69  2  0  0  0
 57 58  2  0  0  0
 57129  1  0  0  0
 58130  1  0  0  0
 59 60  1  0  0  0
 59 61  1  0  0  0
 59 62  1  0  0  0
 60131  1  0  0  0
 60132  1  0  0  0
 60133  1  0  0  0
 61134  1  0  0  0
 61135  1  0  0  0
 61136  1  0  0  0
 62137  1  0  0  0
 62138  1  0  0  0
 62139  1  0  0  0
 63 65  1  0  0  0
 63140  1  0  0  0
 63141  1  0  0  0
 63142  1  0  0  0
 64143  1  0  0  0
 65144  1  0  0  0
 68 81  1  0  0  0
 71 73  2  0  0  0
 71 75  1  0  0  0
 71145  1  0  0  0
 72 74  1  0  0  0
 72 75  2  0  0  0
 72146  1  0  0  0
 73 76  1  0  0  0
 73147  1  0  0  0
 74 76  2  0  0  0
 74148  1  0  0  0
 75 83  1  0  0  0
 76 84  1  0  0  0
 77 78  1  0  0  0
 77 79  1  0  0  0
 77 81  2  0  0  0
 78 80  2  0  0  0
 78 82  1  0  0  0
 79 83  1  0  0  0
 79 85  2  0  0  0
 80149  1  0  0  0
 80150  1  0  0  0
 81151  1  0  0  0
 82 83  1  0  0  0
 82152  1  0  0  0
 82153  1  0  0  0
 84154  1  0  0  0
M  ISO  4   1 100  68 101  81 101  84 100
M  END
> <chiral flag>
0

> <version>
0

> <s_m_source_file>
/data/baiqing/PycharmProjects/Reinvent-master-3.2/result/LINK_invent/BTK/process_docking_weight1_custom_product_contain_oxygen_bond_distance_aromatic_linkinvent_7_9_3/rearranged_h_0081.sdf

> <i_m_source_file_index>
24

> <r_mmod_Potential_Energy-OPLS-2005>
213.749710083008

> <r_mmod_Stretch_Energy-OPLS-2005>
94.9645385742188

> <r_mmod_Bend_Energy-OPLS-2005>
196.454376220703

> <r_mmod_Torsional_Energy-OPLS-2005>
246.572250366211

> <r_mmod_Improper_Torsional_Energy-OPLS-2005>
3.60927796363831

> <r_mmod_Van_der_Waal_Energy-OPLS-2005>
143.749618530273

> <r_mmod_Electrostatic_Energy-OPLS-2005>
-326.163909912109

> <r_mmod_Solvation_Energy-OPLS-2005>
-208.378356933594

> <b_mmod_Minimization_Converged-OPLS-2005>
0

> <r_mmod_RMS_Derivative-OPLS-2005>
0.686327934265137

$$$$
24
                    3D
 Structure written by MMmdl.
156165  0  0  1  0            999 V2000
  -30.3267  -14.8515   20.0045 C   0  0  0  0  0  0
  -30.9602  -12.6023   19.8209 C   0  0  0  0  0  0
  -29.9583  -12.0353   18.8238 C   0  0  0  0  0  0
  -28.8795  -11.6570   19.9022 C   0  0  0  0  0  0
  -27.9593  -12.9099   20.7098 C   0  0  2  0  0  0
  -29.1312  -13.4316   21.5598 C   0  0  0  0  0  0
  -24.5187  -14.4489   20.3638 C   0  0  0  0  0  0
  -23.6665  -13.4313   20.6618 C   0  0  0  0  0  0
  -23.9602  -12.4553   19.6525 C   0  0  0  0  0  0
  -24.1038  -10.9487   19.4936 C   0  0  0  0  0  0
  -25.5119   -9.4679   20.2831 C   0  0  0  0  0  0
  -24.7931   -8.3493   21.7841 C   0  0  0  0  0  0
  -22.9641   -8.4733   22.2876 C   0  0  0  0  0  0
  -21.8907   -9.8261   21.6295 C   0  0  0  0  0  0
  -22.3787  -10.9786   20.2742 C   0  0  0  0  0  0
  -21.8923   -6.2522   22.7249 C   0  0  0  0  0  0
  -21.4887   -6.6087   24.0181 C   0  0  0  0  0  0
  -21.3449   -5.6378   25.0167 C   0  0  0  0  0  0
  -21.5684   -4.2853   24.7232 C   0  0  0  0  0  0
  -21.8451   -3.8892   23.4012 C   0  0  0  0  0  0
  -21.9820   -4.8611   22.3852 C   0  0  0  0  0  0
  -22.3996  -13.7202   21.2978 C   0  0  0  0  0  0
  -22.2305   -4.4265   21.1196 F   0  0  0  0  0  0
  -21.5131   -3.3754   25.7225 F   0  0  0  0  0  0
  -30.3331  -13.6943   20.6653 N   0  0  0  0  0  0
  -25.6058  -13.8188   19.8827 N   0  0  0  0  0  0
  -24.7104  -13.2203   18.9793 N   0  0  0  0  0  0
  -21.9752  -12.9501   22.2862 N   0  0  0  0  0  0
  -24.5449  -15.8080   20.5054 N   0  0  0  0  0  0
  -31.4574  -15.3169   19.8206 O   0  0  0  0  0  0
  -22.2160   -7.2986   21.8831 O   0  0  0  0  0  0
  -21.7969  -14.6856   20.8666 O   0  0  0  0  0  0
  -24.7351  -31.7284   23.1089 C   0  0  0  0  0  0
  -25.9705  -32.4085   23.7812 C   0  0  1  0  0  0
  -26.8330  -25.8845   20.4401 C   0  0  0  0  0  0
  -25.6060  -33.7967   24.1603 N   0  0  0  0  0  0
  -23.5700  -30.3214   21.4774 C   0  0  2  0  0  0
  -24.9674  -28.5105   20.1221 C   0  0  0  0  0  0
  -22.7906  -29.3957   22.4531 C   0  0  0  0  0  0
  -18.0325  -28.1436   22.8403 C   0  0  0  0  0  0
  -24.1466  -36.6984   23.2644 C   0  0  0  0  0  0
  -26.1494  -30.1748   21.5035 C   0  0  0  0  0  0
  -26.1242  -28.6565   20.8883 C   0  0  0  0  0  0
  -27.0249  -27.3846   21.0056 C   0  0  0  0  0  0
  -25.7797  -26.1649   19.5048 C   0  0  0  0  0  0
  -24.8979  -27.3117   19.3809 C   0  0  0  0  0  0
  -23.8453  -29.5920   20.1182 C   0  0  0  0  0  0
  -25.4139  -36.2680   24.0233 C   0  0  1  0  0  0
  -20.5984  -28.3820   23.1045 C   0  0  2  0  0  0
  -20.6772  -26.9436   22.5410 C   0  0  0  0  0  0
  -19.5784  -26.6340   21.5202 C   0  0  0  0  0  0
  -18.1948  -26.7946   22.1560 C   0  0  0  0  0  0
  -19.1604  -28.8961   23.2691 C   0  0  0  0  0  0
  -18.9514  -30.1526   23.8778 C   0  0  0  0  0  0
  -17.6511  -30.6624   24.0538 C   0  0  0  0  0  0
  -25.9215  -34.9096   23.4808 C   0  0  0  0  0  0
  -16.5393  -29.9121   23.6351 C   0  0  0  0  0  0
  -16.7304  -28.6533   23.0374 C   0  0  0  0  0  0
  -26.4677  -31.6441   25.0733 C   0  0  0  0  0  0
  -25.3581  -31.3957   26.1246 C   0  0  0  0  0  0
  -27.0769  -30.2727   24.7174 C   0  0  0  0  0  0
  -27.5982  -32.4499   25.7569 C   0  0  0  0  0  0
  -27.5587  -37.1562   24.8406 C   0  0  0  0  0  0
  -21.4510  -29.2969   22.3288 N   0  0  0  0  0  0
  -26.4174  -37.3567   23.9520 N   0  0  0  0  0  0
  -24.8549  -30.8011   22.0764 N   0  0  0  0  0  0
  -23.4127  -28.7616   23.3093 O   0  0  0  0  0  0
  -27.3983  -24.2499   20.6998 O   0  0  0  0  0  0
  -26.5930  -34.8808   22.4477 O   0  0  0  0  0  0
  -23.6268  -32.0767   23.5624 O   0  0  0  0  0  0
  -26.5156  -11.7675   19.4229 C   0  0  0  0  0  0
  -27.2975  -13.2337   18.4938 C   0  0  0  0  0  0
  -26.3136  -13.7856   22.0287 C   0  0  0  0  0  0
  -27.0936  -15.3538   20.9793 C   0  0  0  0  0  0
  -25.8293  -11.9372   21.2571 C   0  0  0  0  0  0
  -27.6800  -14.8344   19.3808 C   0  0  0  0  0  0
  -27.1777  -20.6906   20.9120 C   0  0  0  0  0  0
  -27.2511  -19.9660   22.2372 C   0  0  0  0  0  0
  -27.0922  -18.9124   20.3509 C   0  0  0  0  0  0
  -27.3591  -20.6990   23.3605 C   0  0  0  0  0  0
  -27.1680  -22.3952   20.4455 C   0  0  0  0  0  0
  -27.1474  -18.2994   22.3678 C   0  0  0  0  0  0
  -27.1178  -17.4061   21.1113 N   0  0  0  0  0  0
  -29.1332  -15.2851   19.3360 N   0  0  0  0  0  0
  -24.2679  -10.6398   21.7002 N   0  3  0  0  0  0
  -26.9863  -18.7802   19.1278 O   0  0  0  0  0  0
  -23.4717   -9.1768   20.3616 O   0  5  0  0  0  0
  -23.9332  -10.9023   22.8709 O   0  0  0  0  0  0
  -31.8362  -12.9464   19.2686 H   0  0  0  0  0  0
  -31.3630  -11.8190   20.4699 H   0  0  0  0  0  0
  -30.3643  -11.1550   18.3248 H   0  0  0  0  0  0
  -29.6895  -12.7391   18.0434 H   0  0  0  0  0  0
  -29.3606  -11.1160   20.7223 H   0  0  0  0  0  0
  -28.4611  -10.7217   19.5278 H   0  0  0  0  0  0
  -28.6151  -13.0420   20.0303 H   0  0  0  0  0  0
  -29.4221  -12.6698   22.2867 H   0  0  0  0  0  0
  -28.9195  -14.2867   22.1982 H   0  0  0  0  0  0
  -26.5242   -9.2937   19.9458 H   0  0  0  0  0  0
  -25.3769   -7.5073   22.1240 H   0  0  0  0  0  0
  -20.8396   -9.8006   21.8787 H   0  0  0  0  0  0
  -21.6269  -11.6659   19.9047 H   0  0  0  0  0  0
  -21.3689   -7.6481   24.2860 H   0  0  0  0  0  0
  -21.1035   -5.9305   26.0279 H   0  0  0  0  0  0
  -21.9691   -2.8437   23.1617 H   0  0  0  0  0  0
  -22.5388  -12.1921   22.6491 H   0  0  0  0  0  0
  -21.0925  -13.1561   22.7333 H   0  0  0  0  0  0
  -23.7411  -16.3335   20.8258 H   0  0  0  0  0  0
  -25.3169  -16.3817   20.1923 H   0  0  0  0  0  0
  -26.7880  -32.4359   23.0577 H   0  0  0  0  0  0
  -25.0015  -33.8929   24.9632 H   0  0  0  0  0  0
  -22.9354  -31.1830   21.2638 H   0  0  0  0  0  0
  -23.3866  -35.9163   23.2949 H   0  0  0  0  0  0
  -24.3584  -36.9066   22.2150 H   0  0  0  0  0  0
  -23.7022  -37.5928   23.7014 H   0  0  0  0  0  0
  -26.4502  -30.8320   20.6861 H   0  0  0  0  0  0
  -26.9801  -30.2412   22.1889 H   0  0  0  0  0  0
  -27.8493  -27.4966   21.6942 H   0  0  0  0  0  0
  -25.4935  -25.3097   18.9091 H   0  0  0  0  0  0
  -24.0649  -27.1926   18.7052 H   0  0  0  0  0  0
  -24.1129  -30.3420   19.3746 H   0  0  0  0  0  0
  -22.9217  -29.1490   19.7445 H   0  0  0  0  0  0
  -25.1328  -36.1293   25.0702 H   0  0  0  0  0  0
  -21.0029  -28.3466   24.1194 H   0  0  0  0  0  0
  -20.5562  -26.2461   23.3713 H   0  0  0  0  0  0
  -21.6641  -26.7297   22.1295 H   0  0  0  0  0  0
  -19.6963  -25.6223   21.1326 H   0  0  0  0  0  0
  -19.6762  -27.3060   20.6674 H   0  0  0  0  0  0
  -17.4225  -26.6659   21.3955 H   0  0  0  0  0  0
  -18.0328  -26.0119   22.8982 H   0  0  0  0  0  0
  -19.8010  -30.7332   24.2113 H   0  0  0  0  0  0
  -17.5096  -31.6291   24.5158 H   0  0  0  0  0  0
  -15.5409  -30.3016   23.7789 H   0  0  0  0  0  0
  -15.8661  -28.0849   22.7204 H   0  0  0  0  0  0
  -24.5884  -30.7152   25.7584 H   0  0  0  0  0  0
  -24.8640  -32.3238   26.4146 H   0  0  0  0  0  0
  -25.7641  -30.9522   27.0359 H   0  0  0  0  0  0
  -26.3565  -29.6016   24.2497 H   0  0  0  0  0  0
  -27.4246  -29.7578   25.6145 H   0  0  0  0  0  0
  -27.9532  -30.3732   24.0768 H   0  0  0  0  0  0
  -27.2407  -33.3937   26.1700 H   0  0  0  0  0  0
  -28.3994  -32.6857   25.0556 H   0  0  0  0  0  0
  -28.0453  -31.8989   26.5858 H   0  0  0  0  0  0
  -28.2244  -38.0182   24.7903 H   0  0  0  0  0  0
  -28.1417  -36.2767   24.5632 H   0  0  0  0  0  0
  -27.2423  -37.0453   25.8790 H   0  0  0  0  0  0
  -20.9926  -29.8596   21.6245 H   0  0  0  0  0  0
  -25.9909  -38.2503   24.1827 H   0  0  0  0  0  0
  -26.3841  -10.9527   18.7308 H   0  0  0  0  0  0
  -27.6684  -13.0647   17.4974 H   0  0  0  0  0  0
  -25.8600  -14.0305   22.9810 H   0  0  0  0  0  0
  -27.4160  -21.7789   23.3414 H   0  0  0  0  0  0
  -27.3866  -20.2386   24.3391 H   0  0  0  0  0  0
  -27.0329  -22.3718   19.3756 H   0  0  0  0  0  0
  -26.2449  -18.0701   22.9366 H   0  0  0  0  0  0
  -27.9783  -17.9489   22.9822 H   0  0  0  0  0  0
  -29.2916  -16.1028   18.7645 H   0  0  0  0  0  0
  1 25  1  0  0  0
  1 30  2  0  0  0
  1 84  1  0  0  0
  2  3  1  0  0  0
  2 25  1  0  0  0
  2 89  1  0  0  0
  2 90  1  0  0  0
  3  4  1  0  0  0
  3 91  1  0  0  0
  3 92  1  0  0  0
  4  5  1  0  0  0
  4 93  1  0  0  0
  4 94  1  0  0  0
  5  6  1  0  0  0
  5 26  1  0  0  0
  5 95  1  0  0  0
  6 25  1  0  0  0
  6 96  1  0  0  0
  6 97  1  0  0  0
  7  8  2  0  0  0
  7 26  1  0  0  0
  7 29  1  0  0  0
  8  9  1  0  0  0
  8 22  1  0  0  0
  9 10  1  0  0  0
  9 27  2  0  0  0
 10 11  2  0  0  0
 10 15  1  0  0  0
 11 12  1  0  0  0
 11 98  1  0  0  0
 12 13  2  0  0  0
 12 99  1  0  0  0
 13 14  1  0  0  0
 13 31  1  0  0  0
 14 15  2  0  0  0
 14100  1  0  0  0
 15101  1  0  0  0
 16 17  2  0  0  0
 16 21  1  0  0  0
 16 31  1  0  0  0
 17 18  1  0  0  0
 17102  1  0  0  0
 18 19  2  0  0  0
 18103  1  0  0  0
 19 20  1  0  0  0
 19 24  1  0  0  0
 20 21  2  0  0  0
 20104  1  0  0  0
 21 23  1  0  0  0
 22 28  1  0  0  0
 22 32  2  0  0  0
 26 27  1  0  0  0
 28105  1  0  0  0
 28106  1  0  0  0
 29107  1  0  0  0
 29108  1  0  0  0
 33 34  1  0  0  0
 33 66  1  0  0  0
 33 70  2  0  0  0
 34 36  1  0  0  0
 34 59  1  0  0  0
 34109  1  0  0  0
 35 44  2  0  0  0
 35 45  1  0  0  0
 35 68  1  0  0  0
 36 56  1  0  0  0
 36110  1  0  0  0
 37 39  1  0  0  0
 37 47  1  0  0  0
 37 66  1  0  0  0
 37111  1  0  0  0
 38 43  2  0  0  0
 38 46  1  0  0  0
 38 47  1  0  0  0
 39 64  1  0  0  0
 39 67  2  0  0  0
 40 52  1  0  0  0
 40 53  2  0  0  0
 40 58  1  0  0  0
 41112  1  0  0  0
 41113  1  0  0  0
 41114  1  0  0  0
 41 48  1  0  0  0
 42 43  1  0  0  0
 42 66  1  0  0  0
 42115  1  0  0  0
 42116  1  0  0  0
 43 44  1  0  0  0
 44117  1  0  0  0
 45 46  2  0  0  0
 45118  1  0  0  0
 46119  1  0  0  0
 47120  1  0  0  0
 47121  1  0  0  0
 48 56  1  0  0  0
 48 65  1  0  0  0
 48122  1  0  0  0
 49 50  1  0  0  0
 49 53  1  0  0  0
 49 64  1  0  0  0
 49123  1  0  0  0
 50 51  1  0  0  0
 50124  1  0  0  0
 50125  1  0  0  0
 51 52  1  0  0  0
 51126  1  0  0  0
 51127  1  0  0  0
 52128  1  0  0  0
 52129  1  0  0  0
 53 54  1  0  0  0
 54 55  2  0  0  0
 54130  1  0  0  0
 55 57  1  0  0  0
 55131  1  0  0  0
 56 69  2  0  0  0
 57 58  2  0  0  0
 57132  1  0  0  0
 58133  1  0  0  0
 59 60  1  0  0  0
 59 61  1  0  0  0
 59 62  1  0  0  0
 60134  1  0  0  0
 60135  1  0  0  0
 60136  1  0  0  0
 61137  1  0  0  0
 61138  1  0  0  0
 61139  1  0  0  0
 62140  1  0  0  0
 62141  1  0  0  0
 62142  1  0  0  0
 63 65  1  0  0  0
 63143  1  0  0  0
 63144  1  0  0  0
 63145  1  0  0  0
 64146  1  0  0  0
 65147  1  0  0  0
 68 81  1  0  0  0
 71 72  2  0  0  0
 71 75  1  0  0  0
 71148  1  0  0  0
 72 76  1  0  0  0
 72149  1  0  0  0
 73 74  1  0  0  0
 73 75  2  0  0  0
 73150  1  0  0  0
 74 76  2  0  0  0
 74 83  1  0  0  0
 75 85  1  0  0  0
 76 84  1  0  0  0
 77 78  1  0  0  0
 77 79  1  0  0  0
 77 81  2  0  0  0
 78 80  2  0  0  0
 78 82  1  0  0  0
 79 83  1  0  0  0
 79 86  2  0  0  0
 80151  1  0  0  0
 80152  1  0  0  0
 81153  1  0  0  0
 82 83  1  0  0  0
 82154  1  0  0  0
 82155  1  0  0  0
 84156  1  0  0  0
 85 87  1  0  0  0
 85 88  2  0  0  0
M  CHG  2  85   1  87  -1
M  ISO  4   1 100  68 101  81 101  84 100
M  END
> <chiral flag>
0

> <version>
0

> <s_m_source_file>
/data/baiqing/PycharmProjects/Reinvent-master-3.2/result/LINK_invent/BTK/process_docking_weight1_custom_product_contain_oxygen_bond_distance_aromatic_linkinvent_7_9_3/rearranged_h_0081.sdf

> <i_m_source_file_index>
25

> <r_mmod_Potential_Energy-OPLS-2005>
27713.30859375

> <r_mmod_Stretch_Energy-OPLS-2005>
14592.232421875

> <r_mmod_Bend_Energy-OPLS-2005>
1850.59216308594

> <r_mmod_Torsional_Energy-OPLS-2005>
971.499145507812

> <r_mmod_Improper_Torsional_Energy-OPLS-2005>
91.895393371582

> <r_mmod_Van_der_Waal_Energy-OPLS-2005>
5734.41748046875

> <r_mmod_Electrostatic_Energy-OPLS-2005>
-326.265167236328

> <r_mmod_Solvation_Energy-OPLS-2005>
-243.200775146484

> <b_mmod_Minimization_Converged-OPLS-2005>
0

> <r_mmod_RMS_Derivative-OPLS-2005>
8.24082374572754

$$$$
25
                    3D
 Structure written by MMmdl.
152161  0  0  1  0            999 V2000
  -30.6230  -14.7424   20.5658 C   0  0  0  0  0  0
  -30.4396  -12.4787   19.4723 C   0  0  0  0  0  0
  -29.5134  -12.5350   18.2358 C   0  0  0  0  0  0
  -28.0398  -12.3440   18.6415 C   0  0  0  0  0  0
  -27.6457  -13.2274   19.8524 C   0  0  2  0  0  0
  -28.6821  -13.1163   20.9864 C   0  0  0  0  0  0
  -25.2529  -13.8187   20.5678 C   0  0  0  0  0  0
  -24.1810  -13.0436   20.9180 C   0  0  0  0  0  0
  -24.6393  -11.6913   20.8719 C   0  0  0  0  0  0
  -23.9067  -10.4294   21.0396 C   0  0  0  0  0  0
  -24.3620   -9.4213   21.9178 C   0  0  0  0  0  0
  -23.6295   -8.2247   22.0754 C   0  0  0  0  0  0
  -22.4275   -8.0282   21.3546 C   0  0  0  0  0  0
  -21.9909   -9.0254   20.4648 C   0  0  0  0  0  0
  -22.7237  -10.2133   20.3051 C   0  0  0  0  0  0
  -21.6854   -6.0738   22.5282 C   0  0  0  0  0  0
  -21.4014   -6.5642   23.8216 C   0  0  0  0  0  0
  -21.3660   -5.6795   24.9178 C   0  0  0  0  0  0
  -21.6044   -4.3058   24.7229 C   0  0  0  0  0  0
  -21.8818   -3.8150   23.4351 C   0  0  0  0  0  0
  -21.9192   -4.6966   22.3406 C   0  0  0  0  0  0
  -22.7833  -13.5223   21.1862 C   0  0  0  0  0  0
  -22.1661   -4.2151   21.0983 F   0  0  0  0  0  0
  -21.5629   -3.4541   25.7741 F   0  0  0  0  0  0
  -29.9935  -13.5119   20.4426 N   0  0  0  0  0  0
  -26.2945  -12.9382   20.3242 N   0  0  0  0  0  0
  -25.9316  -11.6528   20.5700 N   0  0  0  0  0  0
  -22.0483  -12.8213   22.0423 N   0  0  0  0  0  0
  -25.4246  -15.1913   20.4150 N   0  0  0  0  0  0
  -31.7231  -14.9111   20.0278 O   0  0  0  0  0  0
  -21.6641   -6.8880   21.4244 O   0  0  0  0  0  0
  -22.3512  -14.5532   20.6714 O   0  0  0  0  0  0
  -24.6327  -31.8541   23.1973 C   0  0  0  0  0  0
  -25.9144  -32.4751   23.8327 C   0  0  1  0  0  0
  -27.2235  -27.2540   20.1324 C   0  0  0  0  0  0
  -25.5931  -33.8555   24.2248 N   0  0  0  0  0  0
  -23.4316  -30.4751   21.5407 C   0  0  2  0  0  0
  -24.8824  -28.9197   20.1116 C   0  0  0  0  0  0
  -22.7516  -29.4593   22.4905 C   0  0  0  0  0  0
  -18.0296  -28.1387   22.8483 C   0  0  0  0  0  0
  -24.1490  -36.7282   23.2642 C   0  0  0  0  0  0
  -25.9789  -30.7636   21.3803 C   0  0  0  0  0  0
  -26.0550  -29.3846   20.7237 C   0  0  0  0  0  0
  -27.2318  -28.5638   20.7245 C   0  0  0  0  0  0
  -26.0314  -26.8595   19.4912 C   0  0  0  0  0  0
  -24.8755  -27.6644   19.4842 C   0  0  0  0  0  0
  -23.6527  -29.8075   20.1579 C   0  0  0  0  0  0
  -25.4119  -36.3068   24.0324 C   0  0  1  0  0  0
  -20.5898  -28.3701   23.1265 C   0  0  2  0  0  0
  -20.6780  -26.9416   22.5408 C   0  0  0  0  0  0
  -19.5756  -26.6382   21.5210 C   0  0  0  0  0  0
  -18.1938  -26.7928   22.1624 C   0  0  0  0  0  0
  -19.1549  -28.8861   23.2866 C   0  0  0  0  0  0
  -18.9469  -30.1459   23.8887 C   0  0  0  0  0  0
  -17.6467  -30.6588   24.0560 C   0  0  0  0  0  0
  -25.9058  -34.9440   23.5091 C   0  0  0  0  0  0
  -16.5357  -29.9085   23.6333 C   0  0  0  0  0  0
  -16.7281  -28.6502   23.0355 C   0  0  0  0  0  0
  -26.4506  -31.6583   25.0724 C   0  0  0  0  0  0
  -25.3721  -31.3736   26.1435 C   0  0  0  0  0  0
  -27.0361  -30.3001   24.6224 C   0  0  0  0  0  0
  -27.6052  -32.4330   25.7501 C   0  0  0  0  0  0
  -27.5577  -37.1802   24.8469 C   0  0  0  0  0  0
  -21.4221  -29.3045   22.3649 N   0  0  0  0  0  0
  -26.4294  -37.3766   23.9401 N   0  0  0  0  0  0
  -24.6999  -31.0490   22.0957 N   0  0  0  0  0  0
  -23.4203  -28.8136   23.3013 O   0  0  0  0  0  0
  -28.2767  -26.3078   20.1599 O   0  0  0  0  0  0
  -26.5634  -34.8916   22.4663 O   0  0  0  0  0  0
  -23.5471  -32.1367   23.7256 O   0  0  0  0  0  0
  -28.8023  -19.4299   21.7745 C   0  0  0  0  0  0
  -29.9320  -19.3976   19.7276 C   0  0  0  0  0  0
  -29.0502  -18.0311   21.9416 C   0  0  0  0  0  0
  -30.1851  -17.9745   19.8741 C   0  0  0  0  0  0
  -29.2268  -20.2291   20.6702 C   0  0  0  0  0  0
  -29.7688  -17.2162   21.0140 C   0  0  0  0  0  0
  -28.4326  -23.7303   20.6401 C   0  0  0  0  0  0
  -28.0862  -22.5415   21.4001 C   0  0  0  0  0  0
  -29.2838  -22.8620   19.8252 C   0  0  0  0  0  0
  -28.0062  -25.0559   20.7948 C   0  0  0  0  0  0
  -30.0080  -15.4369   22.7632 C   0  0  0  0  0  0
  -28.9189  -21.7004   20.6064 N   0  0  0  0  0  0
  -30.0298  -15.7594   21.3226 N   0  0  0  0  0  0
  -27.3474  -22.4053   22.3557 O   0  0  0  0  0  0
  -29.9988  -23.1044   18.8708 O   0  0  0  0  0  0
  -31.4775  -12.6202   19.1668 H   0  0  0  0  0  0
  -30.4046  -11.4901   19.9325 H   0  0  0  0  0  0
  -29.8035  -11.7727   17.5116 H   0  0  0  0  0  0
  -29.6330  -13.4961   17.7330 H   0  0  0  0  0  0
  -27.8982  -11.2919   18.8915 H   0  0  0  0  0  0
  -27.3834  -12.5462   17.7944 H   0  0  0  0  0  0
  -27.6544  -14.2591   19.4992 H   0  0  0  0  0  0
  -28.7230  -12.0968   21.3726 H   0  0  0  0  0  0
  -28.3605  -13.7316   21.8219 H   0  0  0  0  0  0
  -25.2766   -9.5692   22.4749 H   0  0  0  0  0  0
  -24.0007   -7.4641   22.7473 H   0  0  0  0  0  0
  -21.0839   -8.8771   19.8955 H   0  0  0  0  0  0
  -22.3693  -10.9669   19.6159 H   0  0  0  0  0  0
  -21.2006   -7.6151   23.9720 H   0  0  0  0  0  0
  -21.1483   -6.0526   25.9082 H   0  0  0  0  0  0
  -22.0597   -2.7611   23.2851 H   0  0  0  0  0  0
  -22.4103  -11.9875   22.4806 H   0  0  0  0  0  0
  -21.1104  -13.1237   22.2635 H   0  0  0  0  0  0
  -24.6647  -15.8506   20.5424 H   0  0  0  0  0  0
  -26.2888  -15.6334   20.1276 H   0  0  0  0  0  0
  -26.7211  -32.5404   23.1070 H   0  0  0  0  0  0
  -25.0067  -33.9690   25.0386 H   0  0  0  0  0  0
  -22.7287  -31.2978   21.3922 H   0  0  0  0  0  0
  -23.3749  -35.9619   23.3318 H   0  0  0  0  0  0
  -24.3572  -36.8892   22.2052 H   0  0  0  0  0  0
  -23.7251  -37.6491   23.6659 H   0  0  0  0  0  0
  -26.1190  -31.5234   20.6102 H   0  0  0  0  0  0
  -26.8552  -30.8141   22.0148 H   0  0  0  0  0  0
  -28.1288  -28.9105   21.2181 H   0  0  0  0  0  0
  -25.9851  -25.8908   19.0137 H   0  0  0  0  0  0
  -23.9786  -27.3020   19.0008 H   0  0  0  0  0  0
  -23.7790  -30.5835   19.4017 H   0  0  0  0  0  0
  -22.7713  -29.2415   19.8515 H   0  0  0  0  0  0
  -25.1305  -36.1917   25.0818 H   0  0  0  0  0  0
  -20.9991  -28.3281   24.1382 H   0  0  0  0  0  0
  -20.5677  -26.2313   23.3613 H   0  0  0  0  0  0
  -21.6650  -26.7434   22.1203 H   0  0  0  0  0  0
  -19.6919  -25.6291   21.1245 H   0  0  0  0  0  0
  -19.6694  -27.3188   20.6735 H   0  0  0  0  0  0
  -17.4206  -26.6669   21.4029 H   0  0  0  0  0  0
  -18.0343  -26.0072   22.9024 H   0  0  0  0  0  0
  -19.7946  -30.7278   24.2254 H   0  0  0  0  0  0
  -17.5023  -31.6268   24.5163 H   0  0  0  0  0  0
  -15.5359  -30.2982   23.7663 H   0  0  0  0  0  0
  -15.8680  -28.0815   22.7077 H   0  0  0  0  0  0
  -24.5905  -30.7074   25.7760 H   0  0  0  0  0  0
  -24.8898  -32.2905   26.4837 H   0  0  0  0  0  0
  -25.8030  -30.8931   27.0229 H   0  0  0  0  0  0
  -26.2956  -29.6740   24.1231 H   0  0  0  0  0  0
  -27.4022  -29.7270   25.4754 H   0  0  0  0  0  0
  -27.8842  -30.4274   23.9490 H   0  0  0  0  0  0
  -27.2655  -33.3636   26.2063 H   0  0  0  0  0  0
  -28.3873  -32.6885   25.0338 H   0  0  0  0  0  0
  -28.0712  -31.8467   26.5432 H   0  0  0  0  0  0
  -28.2608  -38.0084   24.7493 H   0  0  0  0  0  0
  -28.1057  -36.2614   24.6328 H   0  0  0  0  0  0
  -27.2288  -37.1491   25.8871 H   0  0  0  0  0  0
  -20.9409  -29.8766   21.6847 H   0  0  0  0  0  0
  -26.0174  -38.2845   24.1387 H   0  0  0  0  0  0
  -28.2519  -19.9100   22.5716 H   0  0  0  0  0  0
  -30.3059  -19.8705   18.8312 H   0  0  0  0  0  0
  -28.6560  -17.5965   22.8470 H   0  0  0  0  0  0
  -30.7375  -17.4737   19.0915 H   0  0  0  0  0  0
  -27.3087  -25.2309   21.6032 H   0  0  0  0  0  0
  -28.9897  -15.4415   23.1521 H   0  0  0  0  0  0
  -30.5878  -16.1708   23.3248 H   0  0  0  0  0  0
  -30.4358  -14.4623   23.0124 H   0  0  0  0  0  0
  1 25  1  0  0  0
  1 30  2  0  0  0
  1 83  1  0  0  0
  2  3  1  0  0  0
  2 25  1  0  0  0
  2 86  1  0  0  0
  2 87  1  0  0  0
  3  4  1  0  0  0
  3 88  1  0  0  0
  3 89  1  0  0  0
  4  5  1  0  0  0
  4 90  1  0  0  0
  4 91  1  0  0  0
  5  6  1  0  0  0
  5 26  1  0  0  0
  5 92  1  0  0  0
  6 25  1  0  0  0
  6 93  1  0  0  0
  6 94  1  0  0  0
  7  8  2  0  0  0
  7 26  1  0  0  0
  7 29  1  0  0  0
  8  9  1  0  0  0
  8 22  1  0  0  0
  9 10  1  0  0  0
  9 27  2  0  0  0
 10 11  2  0  0  0
 10 15  1  0  0  0
 11 12  1  0  0  0
 11 95  1  0  0  0
 12 13  2  0  0  0
 12 96  1  0  0  0
 13 14  1  0  0  0
 13 31  1  0  0  0
 14 15  2  0  0  0
 14 97  1  0  0  0
 15 98  1  0  0  0
 16 17  2  0  0  0
 16 21  1  0  0  0
 16 31  1  0  0  0
 17 18  1  0  0  0
 17 99  1  0  0  0
 18 19  2  0  0  0
 18100  1  0  0  0
 19 20  1  0  0  0
 19 24  1  0  0  0
 20 21  2  0  0  0
 20101  1  0  0  0
 21 23  1  0  0  0
 22 28  1  0  0  0
 22 32  2  0  0  0
 26 27  1  0  0  0
 28102  1  0  0  0
 28103  1  0  0  0
 29104  1  0  0  0
 29105  1  0  0  0
 33 34  1  0  0  0
 33 66  1  0  0  0
 33 70  2  0  0  0
 34 36  1  0  0  0
 34 59  1  0  0  0
 34106  1  0  0  0
 35 44  2  0  0  0
 35 45  1  0  0  0
 35 68  1  0  0  0
 36 56  1  0  0  0
 36107  1  0  0  0
 37 39  1  0  0  0
 37 47  1  0  0  0
 37 66  1  0  0  0
 37108  1  0  0  0
 38 43  2  0  0  0
 38 46  1  0  0  0
 38 47  1  0  0  0
 39 64  1  0  0  0
 39 67  2  0  0  0
 40 52  1  0  0  0
 40 53  2  0  0  0
 40 58  1  0  0  0
 41109  1  0  0  0
 41110  1  0  0  0
 41111  1  0  0  0
 41 48  1  0  0  0
 42 43  1  0  0  0
 42 66  1  0  0  0
 42112  1  0  0  0
 42113  1  0  0  0
 43 44  1  0  0  0
 44114  1  0  0  0
 45 46  2  0  0  0
 45115  1  0  0  0
 46116  1  0  0  0
 47117  1  0  0  0
 47118  1  0  0  0
 48 56  1  0  0  0
 48 65  1  0  0  0
 48119  1  0  0  0
 49 50  1  0  0  0
 49 53  1  0  0  0
 49 64  1  0  0  0
 49120  1  0  0  0
 50 51  1  0  0  0
 50121  1  0  0  0
 50122  1  0  0  0
 51 52  1  0  0  0
 51123  1  0  0  0
 51124  1  0  0  0
 52125  1  0  0  0
 52126  1  0  0  0
 53 54  1  0  0  0
 54 55  2  0  0  0
 54127  1  0  0  0
 55 57  1  0  0  0
 55128  1  0  0  0
 56 69  2  0  0  0
 57 58  2  0  0  0
 57129  1  0  0  0
 58130  1  0  0  0
 59 60  1  0  0  0
 59 61  1  0  0  0
 59 62  1  0  0  0
 60131  1  0  0  0
 60132  1  0  0  0
 60133  1  0  0  0
 61134  1  0  0  0
 61135  1  0  0  0
 61136  1  0  0  0
 62137  1  0  0  0
 62138  1  0  0  0
 62139  1  0  0  0
 63 65  1  0  0  0
 63140  1  0  0  0
 63141  1  0  0  0
 63142  1  0  0  0
 64143  1  0  0  0
 65144  1  0  0  0
 68 80  1  0  0  0
 71 73  2  0  0  0
 71 75  1  0  0  0
 71145  1  0  0  0
 72 74  1  0  0  0
 72 75  2  0  0  0
 72146  1  0  0  0
 73 76  1  0  0  0
 73147  1  0  0  0
 74 76  2  0  0  0
 74148  1  0  0  0
 75 82  1  0  0  0
 76 83  1  0  0  0
 77 78  1  0  0  0
 77 79  1  0  0  0
 77 80  2  0  0  0
 78 82  1  0  0  0
 78 84  2  0  0  0
 79 82  1  0  0  0
 79 85  2  0  0  0
 80149  1  0  0  0
 81 83  1  0  0  0
 81150  1  0  0  0
 81151  1  0  0  0
 81152  1  0  0  0
M  ISO  4   1 100  68 101  80 101  83 100
M  END
> <chiral flag>
0

> <version>
0

> <s_m_source_file>
/data/baiqing/PycharmProjects/Reinvent-master-3.2/result/LINK_invent/BTK/process_docking_weight1_custom_product_contain_oxygen_bond_distance_aromatic_linkinvent_7_9_3/rearranged_h_0081.sdf

> <i_m_source_file_index>
26

> <r_mmod_Potential_Energy-OPLS-2005>
377.207000732422

> <r_mmod_Stretch_Energy-OPLS-2005>
130.824203491211

> <r_mmod_Bend_Energy-OPLS-2005>
280.953308105469

> <r_mmod_Torsional_Energy-OPLS-2005>
269.927795410156

> <r_mmod_Improper_Torsional_Energy-OPLS-2005>
2.65186333656311

> <r_mmod_Van_der_Waal_Energy-OPLS-2005>
145.187530517578

> <r_mmod_Electrostatic_Energy-OPLS-2005>
-331.562774658203

> <r_mmod_Solvation_Energy-OPLS-2005>
-209.309707641602

> <b_mmod_Minimization_Converged-OPLS-2005>
0

> <r_mmod_RMS_Derivative-OPLS-2005>
1.24566280841827

$$$$
26
                    3D
 Structure written by MMmdl.
152160  0  0  1  0            999 V2000
  -30.5188  -14.8190   20.4851 C   0  0  0  0  0  0
  -30.4635  -12.5050   19.4682 C   0  0  0  0  0  0
  -29.5245  -12.5201   18.2344 C   0  0  0  0  0  0
  -28.0516  -12.3133   18.6476 C   0  0  0  0  0  0
  -27.6457  -13.2116   19.8425 C   0  0  2  0  0  0
  -28.6923  -13.1305   20.9813 C   0  0  0  0  0  0
  -25.2515  -13.8085   20.5574 C   0  0  0  0  0  0
  -24.1824  -13.0373   20.9245 C   0  0  0  0  0  0
  -24.6389  -11.6871   20.8778 C   0  0  0  0  0  0
  -23.9070  -10.4271   21.0443 C   0  0  0  0  0  0
  -24.3644   -9.4187   21.9198 C   0  0  0  0  0  0
  -23.6311   -8.2226   22.0764 C   0  0  0  0  0  0
  -22.4288   -8.0290   21.3559 C   0  0  0  0  0  0
  -21.9933   -9.0256   20.4652 C   0  0  0  0  0  0
  -22.7263  -10.2136   20.3060 C   0  0  0  0  0  0
  -21.6863   -6.0748   22.5279 C   0  0  0  0  0  0
  -21.4014   -6.5649   23.8211 C   0  0  0  0  0  0
  -21.3639   -5.6799   24.9163 C   0  0  0  0  0  0
  -21.6033   -4.3065   24.7219 C   0  0  0  0  0  0
  -21.8813   -3.8162   23.4343 C   0  0  0  0  0  0
  -21.9198   -4.6977   22.3401 C   0  0  0  0  0  0
  -22.7854  -13.5214   21.1854 C   0  0  0  0  0  0
  -22.1682   -4.2161   21.0979 F   0  0  0  0  0  0
  -21.5608   -3.4542   25.7733 F   0  0  0  0  0  0
  -29.9950  -13.5377   20.4247 N   0  0  0  0  0  0
  -26.2933  -12.9251   20.3140 N   0  0  0  0  0  0
  -25.9296  -11.6439   20.5684 N   0  0  0  0  0  0
  -22.0481  -12.8214   22.0408 N   0  0  0  0  0  0
  -25.4095  -15.1762   20.3727 N   0  0  0  0  0  0
  -31.6869  -15.0551   20.1436 O   0  0  0  0  0  0
  -21.6653   -6.8899   21.4244 O   0  0  0  0  0  0
  -22.3557  -14.5496   20.6673 O   0  0  0  0  0  0
  -24.6298  -31.8554   23.1987 C   0  0  0  0  0  0
  -25.9105  -32.4762   23.8348 C   0  0  1  0  0  0
  -27.2322  -27.2444   20.1435 C   0  0  0  0  0  0
  -25.5905  -33.8582   24.2270 N   0  0  0  0  0  0
  -23.4297  -30.4773   21.5366 C   0  0  2  0  0  0
  -24.8830  -28.9156   20.1163 C   0  0  0  0  0  0
  -22.7455  -29.4622   22.4858 C   0  0  0  0  0  0
  -18.0293  -28.1376   22.8523 C   0  0  0  0  0  0
  -24.1489  -36.7278   23.2640 C   0  0  0  0  0  0
  -25.9755  -30.7665   21.3805 C   0  0  0  0  0  0
  -26.0532  -29.3836   20.7278 C   0  0  0  0  0  0
  -27.2245  -28.5567   20.7359 C   0  0  0  0  0  0
  -26.0353  -26.8522   19.4988 C   0  0  0  0  0  0
  -24.8770  -27.6559   19.4979 C   0  0  0  0  0  0
  -23.6563  -29.8069   20.1562 C   0  0  0  0  0  0
  -25.4112  -36.3059   24.0320 C   0  0  1  0  0  0
  -20.5876  -28.3722   23.1232 C   0  0  2  0  0  0
  -20.6761  -26.9431   22.5449 C   0  0  0  0  0  0
  -19.5713  -26.6293   21.5309 C   0  0  0  0  0  0
  -18.1923  -26.7874   22.1737 C   0  0  0  0  0  0
  -19.1528  -28.8881   23.2868 C   0  0  0  0  0  0
  -18.9423  -30.1492   23.8866 C   0  0  0  0  0  0
  -17.6414  -30.6617   24.0515 C   0  0  0  0  0  0
  -25.9049  -34.9436   23.5093 C   0  0  0  0  0  0
  -16.5328  -29.9079   23.6316 C   0  0  0  0  0  0
  -16.7281  -28.6483   23.0381 C   0  0  0  0  0  0
  -26.4498  -31.6589   25.0733 C   0  0  0  0  0  0
  -25.3734  -31.3756   26.1471 C   0  0  0  0  0  0
  -27.0350  -30.2998   24.6214 C   0  0  0  0  0  0
  -27.6020  -32.4359   25.7536 C   0  0  0  0  0  0
  -27.5570  -37.1790   24.8459 C   0  0  0  0  0  0
  -21.4161  -29.3037   22.3559 N   0  0  0  0  0  0
  -26.4278  -37.3752   23.9403 N   0  0  0  0  0  0
  -24.6977  -31.0493   22.0965 N   0  0  0  0  0  0
  -23.4139  -28.8197   23.3000 O   0  0  0  0  0  0
  -28.3506  -26.3679   20.1786 O   0  0  0  0  0  0
  -26.5608  -34.8917   22.4656 O   0  0  0  0  0  0
  -23.5434  -32.1383   23.7267 O   0  0  0  0  0  0
  -29.9951  -22.8763   22.4015 C   0  0  0  0  0  0
  -29.9848  -21.5564   21.8747 C   0  0  0  0  0  0
  -29.4000  -23.9685   21.7252 C   0  0  0  0  0  0
  -28.7435  -22.4244   19.9803 C   0  0  0  0  0  0
  -29.3642  -21.2728   20.6330 C   0  0  0  0  0  0
  -28.7480  -23.7909   20.4912 C   0  0  0  0  0  0
  -29.1829  -19.8048   20.0988 C   0  0  0  0  0  0
  -29.1928  -17.2892   20.6479 C   0  0  0  0  0  0
  -27.6937  -17.4165   20.8222 C   0  0  0  0  0  0
  -28.0905  -24.9084   19.8356 N   0  0  0  0  0  0
  -29.8725  -18.5312   20.5630 N   0  0  0  0  0  0
  -29.4877  -15.8977   20.7062 N   0  3  0  0  0  0
  -28.3317  -19.6585   19.2134 O   0  0  0  0  0  0
  -31.4941  -12.6774   19.1570 H   0  0  0  0  0  0
  -30.4565  -11.5233   19.9426 H   0  0  0  0  0  0
  -29.8232  -11.7486   17.5228 H   0  0  0  0  0  0
  -29.6216  -13.4719   17.7092 H   0  0  0  0  0  0
  -27.9313  -11.2648   18.9192 H   0  0  0  0  0  0
  -27.3877  -12.4873   17.7996 H   0  0  0  0  0  0
  -27.6342  -14.2306   19.4561 H   0  0  0  0  0  0
  -28.7477  -12.1136   21.3775 H   0  0  0  0  0  0
  -28.3966  -13.7616   21.8197 H   0  0  0  0  0  0
  -25.2802   -9.5647   22.4768 H   0  0  0  0  0  0
  -24.0002   -7.4620   22.7493 H   0  0  0  0  0  0
  -21.0862   -8.8784   19.8969 H   0  0  0  0  0  0
  -22.3746  -10.9667   19.6158 H   0  0  0  0  0  0
  -21.2022   -7.6161   23.9708 H   0  0  0  0  0  0
  -21.1458   -6.0538   25.9062 H   0  0  0  0  0  0
  -22.0620   -2.7626   23.2833 H   0  0  0  0  0  0
  -22.4127  -11.9887   22.4756 H   0  0  0  0  0  0
  -21.1069  -13.1172   22.2564 H   0  0  0  0  0  0
  -24.5423  -15.7019   20.4075 H   0  0  0  0  0  0
  -25.9702  -15.4583   19.5778 H   0  0  0  0  0  0
  -26.7170  -32.5434   23.1101 H   0  0  0  0  0  0
  -25.0022  -33.9741   25.0399 H   0  0  0  0  0  0
  -22.7289  -31.3003   21.3813 H   0  0  0  0  0  0
  -23.3743  -35.9613   23.3296 H   0  0  0  0  0  0
  -24.3575  -36.8921   22.2050 H   0  0  0  0  0  0
  -23.7266  -37.6484   23.6692 H   0  0  0  0  0  0
  -26.1046  -31.5330   20.6153 H   0  0  0  0  0  0
  -26.8546  -30.8248   22.0094 H   0  0  0  0  0  0
  -28.1213  -28.9129   21.2242 H   0  0  0  0  0  0
  -25.9630  -25.8880   19.0130 H   0  0  0  0  0  0
  -23.9755  -27.2882   19.0269 H   0  0  0  0  0  0
  -23.7832  -30.5843   19.4003 H   0  0  0  0  0  0
  -22.7815  -29.2364   19.8427 H   0  0  0  0  0  0
  -25.1312  -36.1870   25.0805 H   0  0  0  0  0  0
  -20.9976  -28.3295   24.1339 H   0  0  0  0  0  0
  -20.5799  -26.2404   23.3740 H   0  0  0  0  0  0
  -21.6574  -26.7483   22.1140 H   0  0  0  0  0  0
  -19.6878  -25.6137   21.1483 H   0  0  0  0  0  0
  -19.6635  -27.3012   20.6744 H   0  0  0  0  0  0
  -17.4205  -26.6531   21.4133 H   0  0  0  0  0  0
  -18.0343  -26.0113   22.9246 H   0  0  0  0  0  0
  -19.7868  -30.7332   24.2222 H   0  0  0  0  0  0
  -17.4943  -31.6296   24.5121 H   0  0  0  0  0  0
  -15.5318  -30.2964   23.7626 H   0  0  0  0  0  0
  -15.8702  -28.0773   22.7099 H   0  0  0  0  0  0
  -24.5907  -30.7092   25.7837 H   0  0  0  0  0  0
  -24.8941  -32.2943   26.4867 H   0  0  0  0  0  0
  -25.8094  -30.8984   27.0253 H   0  0  0  0  0  0
  -26.2940  -29.6748   24.1215 H   0  0  0  0  0  0
  -27.3998  -29.7267   25.4747 H   0  0  0  0  0  0
  -27.8837  -30.4280   23.9489 H   0  0  0  0  0  0
  -27.2571  -33.3659   26.2081 H   0  0  0  0  0  0
  -28.3871  -32.6923   25.0408 H   0  0  0  0  0  0
  -28.0622  -31.8494   26.5500 H   0  0  0  0  0  0
  -28.2569  -38.0100   24.7488 H   0  0  0  0  0  0
  -28.1087  -36.2626   24.6308 H   0  0  0  0  0  0
  -27.2286  -37.1462   25.8864 H   0  0  0  0  0  0
  -20.9318  -29.8553   21.6600 H   0  0  0  0  0  0
  -26.0143  -38.2811   24.1434 H   0  0  0  0  0  0
  -30.4684  -23.0671   23.3564 H   0  0  0  0  0  0
  -30.4390  -20.7706   22.4655 H   0  0  0  0  0  0
  -29.4311  -24.9539   22.1680 H   0  0  0  0  0  0
  -28.1975  -22.2319   19.0667 H   0  0  0  0  0  0
  -27.4023  -18.3521   21.2983 H   0  0  0  0  0  0
  -27.3035  -16.6408   21.4767 H   0  0  0  0  0  0
  -27.1820  -17.3426   19.8606 H   0  0  0  0  0  0
  -27.9249  -24.8260   18.8370 H   0  0  0  0  0  0
  -30.7611  -18.5780   21.0357 H   0  0  0  0  0  0
  -28.5944  -15.4875   20.9180 H   0  0  0  0  0  0
  1 25  1  0  0  0
  1 30  2  0  0  0
  1 82  1  0  0  0
  2  3  1  0  0  0
  2 25  1  0  0  0
  2 84  1  0  0  0
  2 85  1  0  0  0
  3  4  1  0  0  0
  3 86  1  0  0  0
  3 87  1  0  0  0
  4  5  1  0  0  0
  4 88  1  0  0  0
  4 89  1  0  0  0
  5  6  1  0  0  0
  5 26  1  0  0  0
  5 90  1  0  0  0
  6 25  1  0  0  0
  6 91  1  0  0  0
  6 92  1  0  0  0
  7  8  2  0  0  0
  7 26  1  0  0  0
  7 29  1  0  0  0
  8  9  1  0  0  0
  8 22  1  0  0  0
  9 10  1  0  0  0
  9 27  2  0  0  0
 10 11  2  0  0  0
 10 15  1  0  0  0
 11 12  1  0  0  0
 11 93  1  0  0  0
 12 13  2  0  0  0
 12 94  1  0  0  0
 13 14  1  0  0  0
 13 31  1  0  0  0
 14 15  2  0  0  0
 14 95  1  0  0  0
 15 96  1  0  0  0
 16 17  2  0  0  0
 16 21  1  0  0  0
 16 31  1  0  0  0
 17 18  1  0  0  0
 17 97  1  0  0  0
 18 19  2  0  0  0
 18 98  1  0  0  0
 19 20  1  0  0  0
 19 24  1  0  0  0
 20 21  2  0  0  0
 20 99  1  0  0  0
 21 23  1  0  0  0
 22 28  1  0  0  0
 22 32  2  0  0  0
 26 27  1  0  0  0
 28100  1  0  0  0
 28101  1  0  0  0
 29102  1  0  0  0
 29103  1  0  0  0
 33 34  1  0  0  0
 33 66  1  0  0  0
 33 70  2  0  0  0
 34 36  1  0  0  0
 34 59  1  0  0  0
 34104  1  0  0  0
 35 44  2  0  0  0
 35 45  1  0  0  0
 35 68  1  0  0  0
 36 56  1  0  0  0
 36105  1  0  0  0
 37 39  1  0  0  0
 37 47  1  0  0  0
 37 66  1  0  0  0
 37106  1  0  0  0
 38 43  2  0  0  0
 38 46  1  0  0  0
 38 47  1  0  0  0
 39 64  1  0  0  0
 39 67  2  0  0  0
 40 52  1  0  0  0
 40 53  2  0  0  0
 40 58  1  0  0  0
 41107  1  0  0  0
 41108  1  0  0  0
 41109  1  0  0  0
 41 48  1  0  0  0
 42 43  1  0  0  0
 42 66  1  0  0  0
 42110  1  0  0  0
 42111  1  0  0  0
 43 44  1  0  0  0
 44112  1  0  0  0
 45 46  2  0  0  0
 45113  1  0  0  0
 46114  1  0  0  0
 47115  1  0  0  0
 47116  1  0  0  0
 48 56  1  0  0  0
 48 65  1  0  0  0
 48117  1  0  0  0
 49 50  1  0  0  0
 49 53  1  0  0  0
 49 64  1  0  0  0
 49118  1  0  0  0
 50 51  1  0  0  0
 50119  1  0  0  0
 50120  1  0  0  0
 51 52  1  0  0  0
 51121  1  0  0  0
 51122  1  0  0  0
 52123  1  0  0  0
 52124  1  0  0  0
 53 54  1  0  0  0
 54 55  2  0  0  0
 54125  1  0  0  0
 55 57  1  0  0  0
 55126  1  0  0  0
 56 69  2  0  0  0
 57 58  2  0  0  0
 57127  1  0  0  0
 58128  1  0  0  0
 59 60  1  0  0  0
 59 61  1  0  0  0
 59 62  1  0  0  0
 60129  1  0  0  0
 60130  1  0  0  0
 60131  1  0  0  0
 61132  1  0  0  0
 61133  1  0  0  0
 61134  1  0  0  0
 62135  1  0  0  0
 62136  1  0  0  0
 62137  1  0  0  0
 63 65  1  0  0  0
 63138  1  0  0  0
 63139  1  0  0  0
 63140  1  0  0  0
 64141  1  0  0  0
 65142  1  0  0  0
 68 80  1  0  0  0
 71 72  2  0  0  0
 71 73  1  0  0  0
 71143  1  0  0  0
 72 75  1  0  0  0
 72144  1  0  0  0
 73 76  2  0  0  0
 73145  1  0  0  0
 74 75  2  0  0  0
 74 76  1  0  0  0
 74146  1  0  0  0
 75 77  1  0  0  0
 76 80  1  0  0  0
 77 81  1  0  0  0
 77 83  2  0  0  0
 78 79  1  0  0  0
 78 81  1  0  0  0
 78 82  2  0  0  0
 79147  1  0  0  0
 79148  1  0  0  0
 79149  1  0  0  0
 80150  1  0  0  0
 81151  1  0  0  0
 82152  1  0  0  0
M  CHG  1  82   1
M  ISO  4   1 100  68 101  80 101  82 100
M  END
> <chiral flag>
0

> <version>
0

> <s_m_source_file>
/data/baiqing/PycharmProjects/Reinvent-master-3.2/result/LINK_invent/BTK/process_docking_weight1_custom_product_contain_oxygen_bond_distance_aromatic_linkinvent_7_9_3/rearranged_h_0081.sdf

> <i_m_source_file_index>
27

> <r_mmod_Potential_Energy-OPLS-2005>
177.872985839844

> <r_mmod_Stretch_Energy-OPLS-2005>
149.024276733398

> <r_mmod_Bend_Energy-OPLS-2005>
283.222930908203

> <r_mmod_Torsional_Energy-OPLS-2005>
255.707656860352

> <r_mmod_Improper_Torsional_Energy-OPLS-2005>
16.3771266937256

> <r_mmod_Van_der_Waal_Energy-OPLS-2005>
153.47509765625

> <r_mmod_Electrostatic_Energy-OPLS-2005>
-303.612396240234

> <r_mmod_Solvation_Energy-OPLS-2005>
-487.533294677734

> <b_mmod_Minimization_Converged-OPLS-2005>
0

> <r_mmod_RMS_Derivative-OPLS-2005>
4.99211359024048

$$$$
27
                    3D
 Structure written by MMmdl.
154163  0  0  1  0            999 V2000
  -30.5764  -14.7517   20.4648 C   0  0  0  0  0  0
  -30.4445  -12.4563   19.4738 C   0  0  0  0  0  0
  -29.5169  -12.5162   18.2382 C   0  0  0  0  0  0
  -28.0410  -12.3388   18.6480 C   0  0  0  0  0  0
  -27.6486  -13.2261   19.8589 C   0  0  2  0  0  0
  -28.6931  -13.1294   20.9933 C   0  0  0  0  0  0
  -25.2542  -13.8187   20.5693 C   0  0  0  0  0  0
  -24.1818  -13.0443   20.9197 C   0  0  0  0  0  0
  -24.6399  -11.6916   20.8744 C   0  0  0  0  0  0
  -23.9069  -10.4296   21.0406 C   0  0  0  0  0  0
  -24.3619   -9.4211   21.9182 C   0  0  0  0  0  0
  -23.6292   -8.2248   22.0756 C   0  0  0  0  0  0
  -22.4273   -8.0285   21.3547 C   0  0  0  0  0  0
  -21.9907   -9.0260   20.4651 C   0  0  0  0  0  0
  -22.7239  -10.2137   20.3058 C   0  0  0  0  0  0
  -21.6854   -6.0734   22.5277 C   0  0  0  0  0  0
  -21.4017   -6.5638   23.8210 C   0  0  0  0  0  0
  -21.3660   -5.6792   24.9172 C   0  0  0  0  0  0
  -21.6043   -4.3054   24.7224 C   0  0  0  0  0  0
  -21.8819   -3.8144   23.4345 C   0  0  0  0  0  0
  -21.9193   -4.6961   22.3401 C   0  0  0  0  0  0
  -22.7839  -13.5231   21.1854 C   0  0  0  0  0  0
  -22.1661   -4.2146   21.0979 F   0  0  0  0  0  0
  -21.5628   -3.4537   25.7737 F   0  0  0  0  0  0
  -29.9978  -13.5006   20.4246 N   0  0  0  0  0  0
  -26.2969  -12.9380   20.3303 N   0  0  0  0  0  0
  -25.9328  -11.6528   20.5751 N   0  0  0  0  0  0
  -22.0479  -12.8228   22.0413 N   0  0  0  0  0  0
  -25.4257  -15.1912   20.4113 N   0  0  0  0  0  0
  -31.7438  -14.9045   20.0912 O   0  0  0  0  0  0
  -21.6641   -6.8878   21.4239 O   0  0  0  0  0  0
  -22.3526  -14.5536   20.6699 O   0  0  0  0  0  0
  -24.6325  -31.8539   23.1981 C   0  0  0  0  0  0
  -25.9144  -32.4750   23.8332 C   0  0  1  0  0  0
  -27.2270  -27.2606   20.1144 C   0  0  0  0  0  0
  -25.5930  -33.8552   24.2250 N   0  0  0  0  0  0
  -23.4304  -30.4766   21.5410 C   0  0  2  0  0  0
  -24.8800  -28.9260   20.1053 C   0  0  0  0  0  0
  -22.7515  -29.4592   22.4902 C   0  0  0  0  0  0
  -18.0293  -28.1391   22.8485 C   0  0  0  0  0  0
  -24.1486  -36.7281   23.2639 C   0  0  0  0  0  0
  -25.9779  -30.7645   21.3809 C   0  0  0  0  0  0
  -26.0522  -29.3886   20.7176 C   0  0  0  0  0  0
  -27.2265  -28.5661   20.7170 C   0  0  0  0  0  0
  -26.0252  -26.8630   19.4854 C   0  0  0  0  0  0
  -24.8714  -27.6704   19.4798 C   0  0  0  0  0  0
  -23.6500  -29.8127   20.1562 C   0  0  0  0  0  0
  -25.4114  -36.3066   24.0324 C   0  0  1  0  0  0
  -20.5899  -28.3703   23.1267 C   0  0  2  0  0  0
  -20.6780  -26.9418   22.5410 C   0  0  0  0  0  0
  -19.5754  -26.6383   21.5216 C   0  0  0  0  0  0
  -18.1935  -26.7931   22.1629 C   0  0  0  0  0  0
  -19.1548  -28.8865   23.2870 C   0  0  0  0  0  0
  -18.9467  -30.1465   23.8889 C   0  0  0  0  0  0
  -17.6466  -30.6590   24.0563 C   0  0  0  0  0  0
  -25.9057  -34.9436   23.5092 C   0  0  0  0  0  0
  -16.5357  -29.9088   23.6330 C   0  0  0  0  0  0
  -16.7279  -28.6505   23.0353 C   0  0  0  0  0  0
  -26.4501  -31.6583   25.0731 C   0  0  0  0  0  0
  -25.3720  -31.3752   26.1453 C   0  0  0  0  0  0
  -27.0350  -30.2993   24.6243 C   0  0  0  0  0  0
  -27.6049  -32.4334   25.7505 C   0  0  0  0  0  0
  -27.5578  -37.1794   24.8460 C   0  0  0  0  0  0
  -21.4219  -29.3043   22.3650 N   0  0  0  0  0  0
  -26.4287  -37.3768   23.9409 N   0  0  0  0  0  0
  -24.6992  -31.0497   22.0961 N   0  0  0  0  0  0
  -23.4207  -28.8134   23.3009 O   0  0  0  0  0  0
  -28.2882  -26.3252   20.2118 O   0  0  0  0  0  0
  -26.5635  -34.8913   22.4665 O   0  0  0  0  0  0
  -23.5471  -32.1366   23.7268 O   0  0  0  0  0  0
  -28.5934  -19.5218   20.8663 C   0  0  0  0  0  0
  -28.7172  -18.1085   21.1082 C   0  0  0  0  0  0
  -30.7127  -18.0274   19.8085 C   0  0  0  0  0  0
  -29.5065  -20.2452   20.0470 C   0  0  0  0  0  0
  -29.7643  -17.2926   20.5745 C   0  0  0  0  0  0
  -30.5872  -19.4386   19.5528 C   0  0  0  0  0  0
  -28.7213  -23.9479   19.1831 C   0  0  0  0  0  0
  -28.8845  -23.2636   17.9186 C   0  0  0  0  0  0
  -28.9291  -22.8517   20.2002 C   0  0  0  0  0  0
  -28.5809  -23.7405   16.6949 C   0  0  0  0  0  0
  -28.4491  -25.3239   19.2244 C   0  0  0  0  0  0
  -29.3840  -21.8678   18.1262 C   0  0  0  0  0  0
  -29.2787  -21.6486   19.5679 N   0  0  0  0  0  0
  -29.7507  -15.8162   20.8006 N   0  0  0  0  0  0
  -28.8128  -22.9706   21.4240 O   0  0  0  0  0  0
  -31.5439  -20.0159   18.7872 F   0  0  0  0  0  0
  -31.4837  -12.5946   19.1715 H   0  0  0  0  0  0
  -30.3990  -11.4721   19.9429 H   0  0  0  0  0  0
  -29.7990  -11.7489   17.5161 H   0  0  0  0  0  0
  -29.6432  -13.4740   17.7309 H   0  0  0  0  0  0
  -27.8924  -11.2878   18.8982 H   0  0  0  0  0  0
  -27.3861  -12.5454   17.8008 H   0  0  0  0  0  0
  -27.6513  -14.2531   19.4933 H   0  0  0  0  0  0
  -28.7292  -12.1174   21.3996 H   0  0  0  0  0  0
  -28.4221  -13.7772   21.8282 H   0  0  0  0  0  0
  -25.2764   -9.5684   22.4755 H   0  0  0  0  0  0
  -24.0001   -7.4639   22.7474 H   0  0  0  0  0  0
  -21.0837   -8.8782   19.8957 H   0  0  0  0  0  0
  -22.3698  -10.9677   19.6168 H   0  0  0  0  0  0
  -21.2013   -7.6147   23.9713 H   0  0  0  0  0  0
  -21.1481   -6.0521   25.9075 H   0  0  0  0  0  0
  -22.0597   -2.7605   23.2849 H   0  0  0  0  0  0
  -22.4090  -11.9894   22.4811 H   0  0  0  0  0  0
  -21.1100  -13.1264   22.2616 H   0  0  0  0  0  0
  -24.6575  -15.8449   20.5163 H   0  0  0  0  0  0
  -26.2682  -15.6274   20.0589 H   0  0  0  0  0  0
  -26.7212  -32.5395   23.1074 H   0  0  0  0  0  0
  -25.0055  -33.9684   25.0381 H   0  0  0  0  0  0
  -22.7271  -31.2993   21.3956 H   0  0  0  0  0  0
  -23.3749  -35.9613   23.3298 H   0  0  0  0  0  0
  -24.3571  -36.8907   22.2054 H   0  0  0  0  0  0
  -23.7241  -37.6479   23.6670 H   0  0  0  0  0  0
  -26.1211  -31.5272   20.6143 H   0  0  0  0  0  0
  -26.8530  -30.8097   22.0177 H   0  0  0  0  0  0
  -28.1198  -28.9083   21.2206 H   0  0  0  0  0  0
  -25.9471  -25.8870   19.0286 H   0  0  0  0  0  0
  -23.9704  -27.3053   19.0059 H   0  0  0  0  0  0
  -23.7749  -30.5906   19.4021 H   0  0  0  0  0  0
  -22.7681  -29.2476   19.8490 H   0  0  0  0  0  0
  -25.1295  -36.1910   25.0817 H   0  0  0  0  0  0
  -20.9988  -28.3285   24.1390 H   0  0  0  0  0  0
  -20.5682  -26.2312   23.3617 H   0  0  0  0  0  0
  -21.6649  -26.7441   22.1204 H   0  0  0  0  0  0
  -19.6913  -25.6292   21.1250 H   0  0  0  0  0  0
  -19.6688  -27.3190   20.6743 H   0  0  0  0  0  0
  -17.4203  -26.6676   21.4034 H   0  0  0  0  0  0
  -18.0334  -26.0076   22.9030 H   0  0  0  0  0  0
  -19.7942  -30.7285   24.2254 H   0  0  0  0  0  0
  -17.5018  -31.6269   24.5167 H   0  0  0  0  0  0
  -15.5358  -30.2988   23.7656 H   0  0  0  0  0  0
  -15.8677  -28.0822   22.7073 H   0  0  0  0  0  0
  -24.5871  -30.7129   25.7783 H   0  0  0  0  0  0
  -24.8947  -32.2934   26.4886 H   0  0  0  0  0  0
  -25.8026  -30.8914   27.0229 H   0  0  0  0  0  0
  -26.2946  -29.6742   24.1239 H   0  0  0  0  0  0
  -27.3979  -29.7257   25.4783 H   0  0  0  0  0  0
  -27.8846  -30.4251   23.9529 H   0  0  0  0  0  0
  -27.2645  -33.3631   26.2076 H   0  0  0  0  0  0
  -28.3860  -32.6901   25.0337 H   0  0  0  0  0  0
  -28.0719  -31.8470   26.5429 H   0  0  0  0  0  0
  -28.2590  -38.0098   24.7513 H   0  0  0  0  0  0
  -28.1078  -36.2627   24.6275 H   0  0  0  0  0  0
  -27.2296  -37.1429   25.8864 H   0  0  0  0  0  0
  -20.9409  -29.8769   21.6853 H   0  0  0  0  0  0
  -26.0161  -38.2839   24.1417 H   0  0  0  0  0  0
  -27.7353  -20.0395   21.2715 H   0  0  0  0  0  0
  -27.9491  -17.6379   21.7065 H   0  0  0  0  0  0
  -31.5500  -17.5066   19.3677 H   0  0  0  0  0  0
  -28.1833  -24.7281   16.5192 H   0  0  0  0  0  0
  -28.7220  -23.1220   15.8195 H   0  0  0  0  0  0
  -28.3712  -25.8365   18.2786 H   0  0  0  0  0  0
  -30.4147  -21.8062   17.7789 H   0  0  0  0  0  0
  -28.7759  -21.1482   17.5762 H   0  0  0  0  0  0
  -28.8836  -15.4820   21.1935 H   0  0  0  0  0  0
  1 25  1  0  0  0
  1 30  2  0  0  0
  1 84  1  0  0  0
  2  3  1  0  0  0
  2 25  1  0  0  0
  2 87  1  0  0  0
  2 88  1  0  0  0
  3  4  1  0  0  0
  3 89  1  0  0  0
  3 90  1  0  0  0
  4  5  1  0  0  0
  4 91  1  0  0  0
  4 92  1  0  0  0
  5  6  1  0  0  0
  5 26  1  0  0  0
  5 93  1  0  0  0
  6 25  1  0  0  0
  6 94  1  0  0  0
  6 95  1  0  0  0
  7  8  2  0  0  0
  7 26  1  0  0  0
  7 29  1  0  0  0
  8  9  1  0  0  0
  8 22  1  0  0  0
  9 10  1  0  0  0
  9 27  2  0  0  0
 10 11  2  0  0  0
 10 15  1  0  0  0
 11 12  1  0  0  0
 11 96  1  0  0  0
 12 13  2  0  0  0
 12 97  1  0  0  0
 13 14  1  0  0  0
 13 31  1  0  0  0
 14 15  2  0  0  0
 14 98  1  0  0  0
 15 99  1  0  0  0
 16 17  2  0  0  0
 16 21  1  0  0  0
 16 31  1  0  0  0
 17 18  1  0  0  0
 17100  1  0  0  0
 18 19  2  0  0  0
 18101  1  0  0  0
 19 20  1  0  0  0
 19 24  1  0  0  0
 20 21  2  0  0  0
 20102  1  0  0  0
 21 23  1  0  0  0
 22 28  1  0  0  0
 22 32  2  0  0  0
 26 27  1  0  0  0
 28103  1  0  0  0
 28104  1  0  0  0
 29105  1  0  0  0
 29106  1  0  0  0
 33 34  1  0  0  0
 33 66  1  0  0  0
 33 70  2  0  0  0
 34 36  1  0  0  0
 34 59  1  0  0  0
 34107  1  0  0  0
 35 44  2  0  0  0
 35 45  1  0  0  0
 35 68  1  0  0  0
 36 56  1  0  0  0
 36108  1  0  0  0
 37 39  1  0  0  0
 37 47  1  0  0  0
 37 66  1  0  0  0
 37109  1  0  0  0
 38 43  2  0  0  0
 38 46  1  0  0  0
 38 47  1  0  0  0
 39 64  1  0  0  0
 39 67  2  0  0  0
 40 52  1  0  0  0
 40 53  2  0  0  0
 40 58  1  0  0  0
 41110  1  0  0  0
 41111  1  0  0  0
 41112  1  0  0  0
 41 48  1  0  0  0
 42 43  1  0  0  0
 42 66  1  0  0  0
 42113  1  0  0  0
 42114  1  0  0  0
 43 44  1  0  0  0
 44115  1  0  0  0
 45 46  2  0  0  0
 45116  1  0  0  0
 46117  1  0  0  0
 47118  1  0  0  0
 47119  1  0  0  0
 48 56  1  0  0  0
 48 65  1  0  0  0
 48120  1  0  0  0
 49 50  1  0  0  0
 49 53  1  0  0  0
 49 64  1  0  0  0
 49121  1  0  0  0
 50 51  1  0  0  0
 50122  1  0  0  0
 50123  1  0  0  0
 51 52  1  0  0  0
 51124  1  0  0  0
 51125  1  0  0  0
 52126  1  0  0  0
 52127  1  0  0  0
 53 54  1  0  0  0
 54 55  2  0  0  0
 54128  1  0  0  0
 55 57  1  0  0  0
 55129  1  0  0  0
 56 69  2  0  0  0
 57 58  2  0  0  0
 57130  1  0  0  0
 58131  1  0  0  0
 59 60  1  0  0  0
 59 61  1  0  0  0
 59 62  1  0  0  0
 60132  1  0  0  0
 60133  1  0  0  0
 60134  1  0  0  0
 61135  1  0  0  0
 61136  1  0  0  0
 61137  1  0  0  0
 62138  1  0  0  0
 62139  1  0  0  0
 62140  1  0  0  0
 63 65  1  0  0  0
 63141  1  0  0  0
 63142  1  0  0  0
 63143  1  0  0  0
 64144  1  0  0  0
 65145  1  0  0  0
 68 81  1  0  0  0
 71 72  2  0  0  0
 71 74  1  0  0  0
 71146  1  0  0  0
 72 75  1  0  0  0
 72147  1  0  0  0
 73 75  2  0  0  0
 73 76  1  0  0  0
 73148  1  0  0  0
 74 76  2  0  0  0
 74 83  1  0  0  0
 75 84  1  0  0  0
 76 86  1  0  0  0
 77 78  1  0  0  0
 77 79  1  0  0  0
 77 81  2  0  0  0
 78 80  2  0  0  0
 78 82  1  0  0  0
 79 83  1  0  0  0
 79 85  2  0  0  0
 80149  1  0  0  0
 80150  1  0  0  0
 81151  1  0  0  0
 82 83  1  0  0  0
 82152  1  0  0  0
 82153  1  0  0  0
 84154  1  0  0  0
M  ISO  4   1 100  68 101  81 101  84 100
M  END
> <chiral flag>
0

> <version>
0

> <s_m_source_file>
/data/baiqing/PycharmProjects/Reinvent-master-3.2/result/LINK_invent/BTK/process_docking_weight1_custom_product_contain_oxygen_bond_distance_aromatic_linkinvent_7_9_3/rearranged_h_0081.sdf

> <i_m_source_file_index>
28

> <r_mmod_Potential_Energy-OPLS-2005>
356.977386474609

> <r_mmod_Stretch_Energy-OPLS-2005>
121.785774230957

> <r_mmod_Bend_Energy-OPLS-2005>
257.013977050781

> <r_mmod_Torsional_Energy-OPLS-2005>
279.374694824219

> <r_mmod_Improper_Torsional_Energy-OPLS-2005>
5.00183486938477

> <r_mmod_Van_der_Waal_Energy-OPLS-2005>
140.075134277344

> <r_mmod_Electrostatic_Energy-OPLS-2005>
-318.465362548828

> <r_mmod_Solvation_Energy-OPLS-2005>
-219.5673828125

> <b_mmod_Minimization_Converged-OPLS-2005>
0

> <r_mmod_RMS_Derivative-OPLS-2005>
0.574022471904755

$$$$
28
                    3D
 Structure written by MMmdl.
152161  0  0  1  0            999 V2000
  -30.6262  -14.7859   20.4441 C   0  0  0  0  0  0
  -30.4222  -12.4790   19.4853 C   0  0  0  0  0  0
  -29.5082  -12.5070   18.2418 C   0  0  0  0  0  0
  -28.0363  -12.3275   18.6563 C   0  0  0  0  0  0
  -27.6355  -13.2409   19.8457 C   0  0  2  0  0  0
  -28.6797  -13.2150   20.9833 C   0  0  0  0  0  0
  -25.2479  -13.8217   20.5707 C   0  0  0  0  0  0
  -24.1785  -13.0447   20.9221 C   0  0  0  0  0  0
  -24.6391  -11.6928   20.8757 C   0  0  0  0  0  0
  -23.9075  -10.4297   21.0409 C   0  0  0  0  0  0
  -24.3624   -9.4210   21.9186 C   0  0  0  0  0  0
  -23.6298   -8.2246   22.0755 C   0  0  0  0  0  0
  -22.4280   -8.0284   21.3544 C   0  0  0  0  0  0
  -21.9918   -9.0258   20.4647 C   0  0  0  0  0  0
  -22.7248  -10.2137   20.3057 C   0  0  0  0  0  0
  -21.6854   -6.0737   22.5279 C   0  0  0  0  0  0
  -21.4016   -6.5641   23.8212 C   0  0  0  0  0  0
  -21.3660   -5.6793   24.9174 C   0  0  0  0  0  0
  -21.6043   -4.3056   24.7224 C   0  0  0  0  0  0
  -21.8819   -3.8148   23.4345 C   0  0  0  0  0  0
  -21.9194   -4.6965   22.3402 C   0  0  0  0  0  0
  -22.7805  -13.5218   21.1876 C   0  0  0  0  0  0
  -22.1661   -4.2150   21.0979 F   0  0  0  0  0  0
  -21.5629   -3.4539   25.7738 F   0  0  0  0  0  0
  -29.9744  -13.5680   20.3912 N   0  0  0  0  0  0
  -26.2908  -12.9441   20.3276 N   0  0  0  0  0  0
  -25.9324  -11.6573   20.5759 N   0  0  0  0  0  0
  -22.0454  -12.8204   22.0429 N   0  0  0  0  0  0
  -25.4150  -15.1943   20.4118 N   0  0  0  0  0  0
  -31.8209  -14.8012   20.1401 O   0  0  0  0  0  0
  -21.6642   -6.8881   21.4241 O   0  0  0  0  0  0
  -22.3487  -14.5521   20.6721 O   0  0  0  0  0  0
  -24.6337  -31.8519   23.1952 C   0  0  0  0  0  0
  -25.9152  -32.4734   23.8305 C   0  0  1  0  0  0
  -27.2202  -27.2325   20.1235 C   0  0  0  0  0  0
  -25.5936  -33.8538   24.2228 N   0  0  0  0  0  0
  -23.4316  -30.4738   21.5390 C   0  0  2  0  0  0
  -24.8781  -28.9162   20.1063 C   0  0  0  0  0  0
  -22.7514  -29.4584   22.4895 C   0  0  0  0  0  0
  -18.0292  -28.1388   22.8481 C   0  0  0  0  0  0
  -24.1490  -36.7275   23.2642 C   0  0  0  0  0  0
  -25.9792  -30.7551   21.3789 C   0  0  0  0  0  0
  -26.0497  -29.3754   20.7192 C   0  0  0  0  0  0
  -27.2184  -28.5444   20.7193 C   0  0  0  0  0  0
  -26.0179  -26.8427   19.4910 C   0  0  0  0  0  0
  -24.8690  -27.6594   19.4828 C   0  0  0  0  0  0
  -23.6503  -29.8064   20.1552 C   0  0  0  0  0  0
  -25.4119  -36.3058   24.0322 C   0  0  1  0  0  0
  -20.5898  -28.3701   23.1262 C   0  0  2  0  0  0
  -20.6778  -26.9415   22.5408 C   0  0  0  0  0  0
  -19.5754  -26.6382   21.5211 C   0  0  0  0  0  0
  -18.1934  -26.7929   22.1624 C   0  0  0  0  0  0
  -19.1547  -28.8862   23.2865 C   0  0  0  0  0  0
  -18.9468  -30.1462   23.8886 C   0  0  0  0  0  0
  -17.6467  -30.6588   24.0560 C   0  0  0  0  0  0
  -25.9062  -34.9430   23.5081 C   0  0  0  0  0  0
  -16.5358  -29.9085   23.6334 C   0  0  0  0  0  0
  -16.7278  -28.6503   23.0353 C   0  0  0  0  0  0
  -26.4506  -31.6576   25.0712 C   0  0  0  0  0  0
  -25.3717  -31.3738   26.1426 C   0  0  0  0  0  0
  -27.0359  -30.2987   24.6227 C   0  0  0  0  0  0
  -27.6050  -32.4326   25.7492 C   0  0  0  0  0  0
  -27.5577  -37.1794   24.8466 C   0  0  0  0  0  0
  -21.4217  -29.3041   22.3644 N   0  0  0  0  0  0
  -26.4290  -37.3763   23.9407 N   0  0  0  0  0  0
  -24.7009  -31.0458   22.0939 N   0  0  0  0  0  0
  -23.4203  -28.8129   23.3006 O   0  0  0  0  0  0
  -28.3178  -26.3360   20.2265 O   0  0  0  0  0  0
  -26.5643  -34.8914   22.4656 O   0  0  0  0  0  0
  -23.5482  -32.1357   23.7233 O   0  0  0  0  0  0
  -32.1690  -19.0597   20.4405 C   0  0  0  0  0  0
  -31.2950  -20.1559   20.3863 C   0  0  0  0  0  0
  -31.6948  -17.7403   20.5253 C   0  0  0  0  0  0
  -29.4235  -18.6040   20.5146 C   0  0  0  0  0  0
  -29.8904  -20.0009   20.4263 C   0  0  0  0  0  0
  -30.3134  -17.4277   20.5454 C   0  0  0  0  0  0
  -27.8435  -23.0489   21.1827 C   0  0  0  0  0  0
  -28.5406  -23.5765   20.1685 C   0  0  0  0  0  0
  -28.1877  -21.6364   21.3678 C   0  0  0  0  0  0
  -29.3499  -22.4288   19.6745 C   0  0  0  0  0  0
  -28.4334  -25.0257   19.4786 C   0  0  0  0  0  0
  -29.1021  -21.2929   20.4303 N   0  0  0  0  0  0
  -29.8986  -15.9768   20.6177 N   0  0  0  0  0  0
  -27.7257  -20.8737   22.2240 O   0  0  0  0  0  0
  -30.1159  -22.4609   18.7041 O   0  0  0  0  0  0
  -31.4648  -12.5851   19.1817 H   0  0  0  0  0  0
  -30.3594  -11.5133   19.9895 H   0  0  0  0  0  0
  -29.7978  -11.7236   17.5400 H   0  0  0  0  0  0
  -29.6308  -13.4539   17.7134 H   0  0  0  0  0  0
  -27.9009  -11.2814   18.9334 H   0  0  0  0  0  0
  -27.3780  -12.5029   17.8045 H   0  0  0  0  0  0
  -27.6180  -14.2551   19.4461 H   0  0  0  0  0  0
  -28.7249  -12.2307   21.4517 H   0  0  0  0  0  0
  -28.4095  -13.9196   21.7713 H   0  0  0  0  0  0
  -25.2767   -9.5686   22.4763 H   0  0  0  0  0  0
  -24.0006   -7.4637   22.7474 H   0  0  0  0  0  0
  -21.0850   -8.8778   19.8951 H   0  0  0  0  0  0
  -22.3706  -10.9677   19.6168 H   0  0  0  0  0  0
  -21.2008   -7.6149   23.9716 H   0  0  0  0  0  0
  -21.1481   -6.0523   25.9077 H   0  0  0  0  0  0
  -22.0598   -2.7610   23.2845 H   0  0  0  0  0  0
  -22.4077  -11.9869   22.4819 H   0  0  0  0  0  0
  -21.1069  -13.1220   22.2633 H   0  0  0  0  0  0
  -24.6443  -15.8448   20.5202 H   0  0  0  0  0  0
  -26.2564  -15.6351   20.0637 H   0  0  0  0  0  0
  -26.7213  -32.5371   23.1037 H   0  0  0  0  0  0
  -25.0066  -33.9664   25.0362 H   0  0  0  0  0  0
  -22.7297  -31.2972   21.3914 H   0  0  0  0  0  0
  -23.3754  -35.9606   23.3303 H   0  0  0  0  0  0
  -24.3576  -36.8904   22.2056 H   0  0  0  0  0  0
  -23.7243  -37.6473   23.6673 H   0  0  0  0  0  0
  -26.1229  -31.5148   20.6092 H   0  0  0  0  0  0
  -26.8551  -30.8029   22.0145 H   0  0  0  0  0  0
  -28.1130  -28.8889   21.2190 H   0  0  0  0  0  0
  -25.9110  -25.8721   19.0342 H   0  0  0  0  0  0
  -23.9676  -27.2976   19.0072 H   0  0  0  0  0  0
  -23.7760  -30.5823   19.3992 H   0  0  0  0  0  0
  -22.7675  -29.2414   19.8502 H   0  0  0  0  0  0
  -25.1304  -36.1899   25.0815 H   0  0  0  0  0  0
  -20.9989  -28.3284   24.1383 H   0  0  0  0  0  0
  -20.5677  -26.2310   23.3616 H   0  0  0  0  0  0
  -21.6645  -26.7434   22.1203 H   0  0  0  0  0  0
  -19.6917  -25.6292   21.1245 H   0  0  0  0  0  0
  -19.6693  -27.3189   20.6740 H   0  0  0  0  0  0
  -17.4202  -26.6672   21.4028 H   0  0  0  0  0  0
  -18.0336  -26.0074   22.9026 H   0  0  0  0  0  0
  -19.7946  -30.7276   24.2253 H   0  0  0  0  0  0
  -17.5023  -31.6269   24.5160 H   0  0  0  0  0  0
  -15.5358  -30.2982   23.7666 H   0  0  0  0  0  0
  -15.8678  -28.0818   22.7076 H   0  0  0  0  0  0
  -24.5905  -30.7072   25.7755 H   0  0  0  0  0  0
  -24.8891  -32.2909   26.4814 H   0  0  0  0  0  0
  -25.8023  -30.8945   27.0226 H   0  0  0  0  0  0
  -26.2952  -29.6725   24.1241 H   0  0  0  0  0  0
  -27.4015  -29.7263   25.4763 H   0  0  0  0  0  0
  -27.8840  -30.4249   23.9494 H   0  0  0  0  0  0
  -27.2655  -33.3642   26.2029 H   0  0  0  0  0  0
  -28.3882  -32.6858   25.0334 H   0  0  0  0  0  0
  -28.0692  -31.8475   26.5441 H   0  0  0  0  0  0
  -28.2593  -38.0091   24.7507 H   0  0  0  0  0  0
  -28.1072  -36.2620   24.6300 H   0  0  0  0  0  0
  -27.2290  -37.1451   25.8869 H   0  0  0  0  0  0
  -20.9407  -29.8764   21.6846 H   0  0  0  0  0  0
  -26.0165  -38.2835   24.1408 H   0  0  0  0  0  0
  -33.2358  -19.2353   20.4260 H   0  0  0  0  0  0
  -31.7382  -21.1413   20.3397 H   0  0  0  0  0  0
  -32.4544  -16.9788   20.5843 H   0  0  0  0  0  0
  -28.3571  -18.4323   20.5570 H   0  0  0  0  0  0
  -27.0984  -23.5740   21.7592 H   0  0  0  0  0  0
  -27.7163  -24.9488   18.6652 H   0  0  0  0  0  0
  -29.3797  -25.1378   18.9489 H   0  0  0  0  0  0
  -28.9136  -15.8240   20.7716 H   0  0  0  0  0  0
  1 25  1  0  0  0
  1 30  2  0  0  0
  1 83  1  0  0  0
  2  3  1  0  0  0
  2 25  1  0  0  0
  2 86  1  0  0  0
  2 87  1  0  0  0
  3  4  1  0  0  0
  3 88  1  0  0  0
  3 89  1  0  0  0
  4  5  1  0  0  0
  4 90  1  0  0  0
  4 91  1  0  0  0
  5  6  1  0  0  0
  5 26  1  0  0  0
  5 92  1  0  0  0
  6 25  1  0  0  0
  6 93  1  0  0  0
  6 94  1  0  0  0
  7  8  2  0  0  0
  7 26  1  0  0  0
  7 29  1  0  0  0
  8  9  1  0  0  0
  8 22  1  0  0  0
  9 10  1  0  0  0
  9 27  2  0  0  0
 10 11  2  0  0  0
 10 15  1  0  0  0
 11 12  1  0  0  0
 11 95  1  0  0  0
 12 13  2  0  0  0
 12 96  1  0  0  0
 13 14  1  0  0  0
 13 31  1  0  0  0
 14 15  2  0  0  0
 14 97  1  0  0  0
 15 98  1  0  0  0
 16 17  2  0  0  0
 16 21  1  0  0  0
 16 31  1  0  0  0
 17 18  1  0  0  0
 17 99  1  0  0  0
 18 19  2  0  0  0
 18100  1  0  0  0
 19 20  1  0  0  0
 19 24  1  0  0  0
 20 21  2  0  0  0
 20101  1  0  0  0
 21 23  1  0  0  0
 22 28  1  0  0  0
 22 32  2  0  0  0
 26 27  1  0  0  0
 28102  1  0  0  0
 28103  1  0  0  0
 29104  1  0  0  0
 29105  1  0  0  0
 33 34  1  0  0  0
 33 66  1  0  0  0
 33 70  2  0  0  0
 34 36  1  0  0  0
 34 59  1  0  0  0
 34106  1  0  0  0
 35 44  2  0  0  0
 35 45  1  0  0  0
 35 68  1  0  0  0
 36 56  1  0  0  0
 36107  1  0  0  0
 37 39  1  0  0  0
 37 47  1  0  0  0
 37 66  1  0  0  0
 37108  1  0  0  0
 38 43  2  0  0  0
 38 46  1  0  0  0
 38 47  1  0  0  0
 39 64  1  0  0  0
 39 67  2  0  0  0
 40 52  1  0  0  0
 40 53  2  0  0  0
 40 58  1  0  0  0
 41109  1  0  0  0
 41110  1  0  0  0
 41111  1  0  0  0
 41 48  1  0  0  0
 42 43  1  0  0  0
 42 66  1  0  0  0
 42112  1  0  0  0
 42113  1  0  0  0
 43 44  1  0  0  0
 44114  1  0  0  0
 45 46  2  0  0  0
 45115  1  0  0  0
 46116  1  0  0  0
 47117  1  0  0  0
 47118  1  0  0  0
 48 56  1  0  0  0
 48 65  1  0  0  0
 48119  1  0  0  0
 49 50  1  0  0  0
 49 53  1  0  0  0
 49 64  1  0  0  0
 49120  1  0  0  0
 50 51  1  0  0  0
 50121  1  0  0  0
 50122  1  0  0  0
 51 52  1  0  0  0
 51123  1  0  0  0
 51124  1  0  0  0
 52125  1  0  0  0
 52126  1  0  0  0
 53 54  1  0  0  0
 54 55  2  0  0  0
 54127  1  0  0  0
 55 57  1  0  0  0
 55128  1  0  0  0
 56 69  2  0  0  0
 57 58  2  0  0  0
 57129  1  0  0  0
 58130  1  0  0  0
 59 60  1  0  0  0
 59 61  1  0  0  0
 59 62  1  0  0  0
 60131  1  0  0  0
 60132  1  0  0  0
 60133  1  0  0  0
 61134  1  0  0  0
 61135  1  0  0  0
 61136  1  0  0  0
 62137  1  0  0  0
 62138  1  0  0  0
 62139  1  0  0  0
 63 65  1  0  0  0
 63140  1  0  0  0
 63141  1  0  0  0
 63142  1  0  0  0
 64143  1  0  0  0
 65144  1  0  0  0
 68 81  1  0  0  0
 71 72  2  0  0  0
 71 73  1  0  0  0
 71145  1  0  0  0
 72 75  1  0  0  0
 72146  1  0  0  0
 73 76  2  0  0  0
 73147  1  0  0  0
 74 75  2  0  0  0
 74 76  1  0  0  0
 74148  1  0  0  0
 75 82  1  0  0  0
 76 83  1  0  0  0
 77 78  2  0  0  0
 77 79  1  0  0  0
 77149  1  0  0  0
 78 80  1  0  0  0
 78 81  1  0  0  0
 79 82  1  0  0  0
 79 84  2  0  0  0
 80 82  1  0  0  0
 80 85  2  0  0  0
 81150  1  0  0  0
 81151  1  0  0  0
 83152  1  0  0  0
M  ISO  4   1 100  68 101  81 101  83 100
M  END
> <chiral flag>
0

> <version>
0

> <s_m_source_file>
/data/baiqing/PycharmProjects/Reinvent-master-3.2/result/LINK_invent/BTK/process_docking_weight1_custom_product_contain_oxygen_bond_distance_aromatic_linkinvent_7_9_3/rearranged_h_0081.sdf

> <i_m_source_file_index>
29

> <r_mmod_Potential_Energy-OPLS-2005>
263.750366210938

> <r_mmod_Stretch_Energy-OPLS-2005>
153.43913269043

> <r_mmod_Bend_Energy-OPLS-2005>
235.681442260742

> <r_mmod_Torsional_Energy-OPLS-2005>
243.639572143555

> <r_mmod_Improper_Torsional_Energy-OPLS-2005>
5.71787691116333

> <r_mmod_Van_der_Waal_Energy-OPLS-2005>
143.333236694336

> <r_mmod_Electrostatic_Energy-OPLS-2005>
-383.01611328125

> <r_mmod_Solvation_Energy-OPLS-2005>
-238.981216430664

> <b_mmod_Minimization_Converged-OPLS-2005>
0

> <r_mmod_RMS_Derivative-OPLS-2005>
0.281984508037567

$$$$
29
                    3D
 Structure written by MMmdl.
156164  0  0  1  0            999 V2000
  -30.6849  -14.5104   20.5521 C   0  0  0  0  0  0
  -30.4242  -12.3206   19.4619 C   0  0  0  0  0  0
  -29.5117  -12.5093   18.2319 C   0  0  0  0  0  0
  -28.0296  -12.3612   18.6285 C   0  0  0  0  0  0
  -27.6613  -13.2114   19.8754 C   0  0  2  0  0  0
  -28.6946  -13.0277   21.0114 C   0  0  0  0  0  0
  -25.2578  -13.8168   20.5677 C   0  0  0  0  0  0
  -24.1823  -13.0431   20.9156 C   0  0  0  0  0  0
  -24.6376  -11.6901   20.8696 C   0  0  0  0  0  0
  -23.9035  -10.4292   21.0383 C   0  0  0  0  0  0
  -24.3594   -9.4223   21.9170 C   0  0  0  0  0  0
  -23.6283   -8.2257   22.0754 C   0  0  0  0  0  0
  -22.4260   -8.0276   21.3559 C   0  0  0  0  0  0
  -21.9887   -9.0235   20.4652 C   0  0  0  0  0  0
  -22.7203  -10.2123   20.3046 C   0  0  0  0  0  0
  -21.6849   -6.0719   22.5281 C   0  0  0  0  0  0
  -21.4016   -6.5635   23.8208 C   0  0  0  0  0  0
  -21.3670   -5.6790   24.9174 C   0  0  0  0  0  0
  -21.6054   -4.3056   24.7229 C   0  0  0  0  0  0
  -21.8824   -3.8136   23.4352 C   0  0  0  0  0  0
  -21.9194   -4.6946   22.3401 C   0  0  0  0  0  0
  -22.7861  -13.5242   21.1818 C   0  0  0  0  0  0
  -22.1670   -4.2135   21.0978 F   0  0  0  0  0  0
  -21.5624   -3.4545   25.7747 F   0  0  0  0  0  0
  -30.0304  -13.3188   20.4690 N   0  0  0  0  0  0
  -26.3009  -12.9338   20.3333 N   0  0  0  0  0  0
  -25.9306  -11.6487   20.5712 N   0  0  0  0  0  0
  -22.0479  -12.8253   22.0380 N   0  0  0  0  0  0
  -25.4297  -15.1884   20.4155 N   0  0  0  0  0  0
  -31.8193  -14.6748   20.0938 O   0  0  0  0  0  0
  -21.6645   -6.8856   21.4241 O   0  0  0  0  0  0
  -22.3560  -14.5549   20.6668 O   0  0  0  0  0  0
  -24.6150  -31.8669   23.2084 C   0  0  0  0  0  0
  -25.9028  -32.4829   23.8390 C   0  0  1  0  0  0
  -27.2327  -27.4193   20.1172 C   0  0  0  0  0  0
  -25.5867  -33.8616   24.2337 N   0  0  0  0  0  0
  -23.4060  -30.4895   21.5479 C   0  0  2  0  0  0
  -24.8562  -28.9508   20.1174 C   0  0  0  0  0  0
  -22.7400  -29.4666   22.4971 C   0  0  0  0  0  0
  -18.0280  -28.1382   22.8521 C   0  0  0  0  0  0
  -24.1476  -36.7299   23.2647 C   0  0  0  0  0  0
  -25.9346  -30.8331   21.3619 C   0  0  0  0  0  0
  -26.0169  -29.4640   20.7114 C   0  0  0  0  0  0
  -27.2121  -28.7067   20.7050 C   0  0  0  0  0  0
  -26.0613  -26.9258   19.5048 C   0  0  0  0  0  0
  -24.8736  -27.6829   19.5089 C   0  0  0  0  0  0
  -23.6177  -29.8181   20.1642 C   0  0  0  0  0  0
  -25.4092  -36.3115   24.0361 C   0  0  1  0  0  0
  -20.5870  -28.3665   23.1336 C   0  0  2  0  0  0
  -20.6761  -26.9397   22.5431 C   0  0  0  0  0  0
  -19.5735  -26.6394   21.5226 C   0  0  0  0  0  0
  -18.1918  -26.7936   22.1638 C   0  0  0  0  0  0
  -19.1527  -28.8832   23.2941 C   0  0  0  0  0  0
  -18.9448  -30.1446   23.8940 C   0  0  0  0  0  0
  -17.6451  -30.6597   24.0566 C   0  0  0  0  0  0
  -25.9011  -34.9481   23.5151 C   0  0  0  0  0  0
  -16.5343  -29.9097   23.6339 C   0  0  0  0  0  0
  -16.7266  -28.6511   23.0366 C   0  0  0  0  0  0
  -26.4463  -31.6595   25.0712 C   0  0  0  0  0  0
  -25.3737  -31.3698   26.1472 C   0  0  0  0  0  0
  -27.0289  -30.3036   24.6077 C   0  0  0  0  0  0
  -27.6041  -32.4301   25.7477 C   0  0  0  0  0  0
  -27.5573  -37.1809   24.8478 C   0  0  0  0  0  0
  -21.4120  -29.3047   22.3709 N   0  0  0  0  0  0
  -26.4286  -37.3789   23.9428 N   0  0  0  0  0  0
  -24.6704  -31.0762   22.0991 N   0  0  0  0  0  0
  -23.4169  -28.8198   23.3007 O   0  0  0  0  0  0
  -28.3697  -26.6408   20.1360 O   0  0  0  0  0  0
  -26.5571  -34.8935   22.4717 O   0  0  0  0  0  0
  -23.5336  -32.1415   23.7467 O   0  0  0  0  0  0
  -29.9922  -16.9588   18.9879 C   0  0  0  0  0  0
  -29.8515  -18.2046   18.3539 C   0  0  0  0  0  0
  -29.6694  -18.0384   21.1453 C   0  0  0  0  0  0
  -29.5459  -19.3174   20.5172 C   0  0  0  0  0  0
  -29.9018  -16.8527   20.3931 C   0  0  0  0  0  0
  -29.6257  -19.3723   19.1018 C   0  0  0  0  0  0
  -29.3152  -20.5701   21.3487 C   0  0  0  0  0  0
  -28.9564  -24.2265   20.4061 C   0  0  0  0  0  0
  -30.7425  -23.4543   22.0886 C   0  0  0  0  0  0
  -28.2708  -25.4840   21.0007 C   0  0  0  0  0  0
  -29.4088  -23.1078   21.3952 C   0  0  2  0  0  0
  -29.9703  -15.5605   21.0188 N   0  0  0  0  0  0
  -29.5062  -21.7724   20.7640 N   0  0  0  0  0  0
  -29.0096  -20.4739   22.5404 O   0  0  0  0  0  0
  -29.1417  -24.1411   19.1867 O   0  0  0  0  0  0
  -29.4929  -20.5405   18.4270 F   0  0  0  0  0  0
  -31.4735  -12.4094   19.1763 H   0  0  0  0  0  0
  -30.3143  -11.3164   19.8735 H   0  0  0  0  0  0
  -29.7677  -11.7868   17.4565 H   0  0  0  0  0  0
  -29.6798  -13.4951   17.7944 H   0  0  0  0  0  0
  -27.8412  -11.3041   18.8247 H   0  0  0  0  0  0
  -27.3904  -12.6327   17.7880 H   0  0  0  0  0  0
  -27.6949  -14.2541   19.5582 H   0  0  0  0  0  0
  -28.6692  -12.0063   21.3938 H   0  0  0  0  0  0
  -28.4464  -13.6674   21.8590 H   0  0  0  0  0  0
  -25.2727   -9.5732   22.4741 H   0  0  0  0  0  0
  -24.0001   -7.4664   22.7484 H   0  0  0  0  0  0
  -21.0812   -8.8731   19.8961 H   0  0  0  0  0  0
  -22.3628  -10.9652   19.6152 H   0  0  0  0  0  0
  -21.2009   -7.6143   23.9707 H   0  0  0  0  0  0
  -21.1490   -6.0521   25.9072 H   0  0  0  0  0  0
  -22.0589   -2.7598   23.2853 H   0  0  0  0  0  0
  -22.4087  -11.9937   22.4807 H   0  0  0  0  0  0
  -21.1092  -13.1302   22.2547 H   0  0  0  0  0  0
  -24.6622  -15.8416   20.5333 H   0  0  0  0  0  0
  -26.2860  -15.6330   20.1095 H   0  0  0  0  0  0
  -26.7098  -32.5550   23.1149 H   0  0  0  0  0  0
  -25.0042  -33.9772   25.0504 H   0  0  0  0  0  0
  -22.6996  -31.3086   21.4033 H   0  0  0  0  0  0
  -23.3737  -35.9630   23.3317 H   0  0  0  0  0  0
  -24.3576  -36.8879   22.2055 H   0  0  0  0  0  0
  -23.7208  -37.6510   23.6631 H   0  0  0  0  0  0
  -26.0469  -31.5987   20.5925 H   0  0  0  0  0  0
  -26.8236  -30.8902   21.9786 H   0  0  0  0  0  0
  -28.1104  -29.0946   21.1675 H   0  0  0  0  0  0
  -26.0654  -25.9551   19.0273 H   0  0  0  0  0  0
  -23.9795  -27.2878   19.0467 H   0  0  0  0  0  0
  -23.7271  -30.5911   19.4024 H   0  0  0  0  0  0
  -22.7434  -29.2381   19.8659 H   0  0  0  0  0  0
  -25.1261  -36.1996   25.0849 H   0  0  0  0  0  0
  -21.0010  -28.3229   24.1439 H   0  0  0  0  0  0
  -20.5671  -26.2257   23.3609 H   0  0  0  0  0  0
  -21.6625  -26.7440   22.1208 H   0  0  0  0  0  0
  -19.6883  -25.6313   21.1234 H   0  0  0  0  0  0
  -19.6672  -27.3220   20.6767 H   0  0  0  0  0  0
  -17.4187  -26.6714   21.4042 H   0  0  0  0  0  0
  -18.0309  -26.0070   22.9021 H   0  0  0  0  0  0
  -19.7918  -30.7259   24.2333 H   0  0  0  0  0  0
  -17.5004  -31.6297   24.5128 H   0  0  0  0  0  0
  -15.5346  -30.3002   23.7652 H   0  0  0  0  0  0
  -15.8667  -28.0838   22.7069 H   0  0  0  0  0  0
  -24.5929  -30.7014   25.7833 H   0  0  0  0  0  0
  -24.8910  -32.2851   26.4914 H   0  0  0  0  0  0
  -25.8120  -30.8898   27.0233 H   0  0  0  0  0  0
  -26.2841  -29.6805   24.1114 H   0  0  0  0  0  0
  -27.4046  -29.7270   25.4542 H   0  0  0  0  0  0
  -27.8679  -30.4360   23.9234 H   0  0  0  0  0  0
  -27.2668  -33.3600   26.2071 H   0  0  0  0  0  0
  -28.3851  -32.6848   25.0298 H   0  0  0  0  0  0
  -28.0695  -31.8397   26.5382 H   0  0  0  0  0  0
  -28.2620  -38.0084   24.7507 H   0  0  0  0  0  0
  -28.1043  -36.2615   24.6318 H   0  0  0  0  0  0
  -27.2303  -37.1483   25.8889 H   0  0  0  0  0  0
  -20.9252  -29.8740   21.6913 H   0  0  0  0  0  0
  -26.0181  -38.2877   24.1406 H   0  0  0  0  0  0
  -30.1557  -16.0859   18.3733 H   0  0  0  0  0  0
  -29.9125  -18.2690   17.2785 H   0  0  0  0  0  0
  -29.5927  -17.9711   22.2210 H   0  0  0  0  0  0
  -30.9989  -22.7214   22.8547 H   0  0  0  0  0  0
  -30.6965  -24.4256   22.5824 H   0  0  0  0  0  0
  -31.5669  -23.4975   21.3736 H   0  0  0  0  0  0
  -28.7286  -25.7210   21.9613 H   0  0  0  0  0  0
  -27.2305  -25.2327   21.2130 H   0  0  0  0  0  0
  -28.6407  -23.0504   22.1691 H   0  0  0  0  0  0
  -29.2017  -15.3301   21.6305 H   0  0  0  0  0  0
  -29.7138  -21.7575   19.7718 H   0  0  0  0  0  0
  1 25  1  0  0  0
  1 30  2  0  0  0
  1 82  1  0  0  0
  2  3  1  0  0  0
  2 25  1  0  0  0
  2 87  1  0  0  0
  2 88  1  0  0  0
  3  4  1  0  0  0
  3 89  1  0  0  0
  3 90  1  0  0  0
  4  5  1  0  0  0
  4 91  1  0  0  0
  4 92  1  0  0  0
  5  6  1  0  0  0
  5 26  1  0  0  0
  5 93  1  0  0  0
  6 25  1  0  0  0
  6 94  1  0  0  0
  6 95  1  0  0  0
  7  8  2  0  0  0
  7 26  1  0  0  0
  7 29  1  0  0  0
  8  9  1  0  0  0
  8 22  1  0  0  0
  9 10  1  0  0  0
  9 27  2  0  0  0
 10 11  2  0  0  0
 10 15  1  0  0  0
 11 12  1  0  0  0
 11 96  1  0  0  0
 12 13  2  0  0  0
 12 97  1  0  0  0
 13 14  1  0  0  0
 13 31  1  0  0  0
 14 15  2  0  0  0
 14 98  1  0  0  0
 15 99  1  0  0  0
 16 17  2  0  0  0
 16 21  1  0  0  0
 16 31  1  0  0  0
 17 18  1  0  0  0
 17100  1  0  0  0
 18 19  2  0  0  0
 18101  1  0  0  0
 19 20  1  0  0  0
 19 24  1  0  0  0
 20 21  2  0  0  0
 20102  1  0  0  0
 21 23  1  0  0  0
 22 28  1  0  0  0
 22 32  2  0  0  0
 26 27  1  0  0  0
 28103  1  0  0  0
 28104  1  0  0  0
 29105  1  0  0  0
 29106  1  0  0  0
 33 34  1  0  0  0
 33 66  1  0  0  0
 33 70  2  0  0  0
 34 36  1  0  0  0
 34 59  1  0  0  0
 34107  1  0  0  0
 35 44  2  0  0  0
 35 45  1  0  0  0
 35 68  1  0  0  0
 36 56  1  0  0  0
 36108  1  0  0  0
 37 39  1  0  0  0
 37 47  1  0  0  0
 37 66  1  0  0  0
 37109  1  0  0  0
 38 43  2  0  0  0
 38 46  1  0  0  0
 38 47  1  0  0  0
 39 64  1  0  0  0
 39 67  2  0  0  0
 40 52  1  0  0  0
 40 53  2  0  0  0
 40 58  1  0  0  0
 41110  1  0  0  0
 41111  1  0  0  0
 41112  1  0  0  0
 41 48  1  0  0  0
 42 43  1  0  0  0
 42 66  1  0  0  0
 42113  1  0  0  0
 42114  1  0  0  0
 43 44  1  0  0  0
 44115  1  0  0  0
 45 46  2  0  0  0
 45116  1  0  0  0
 46117  1  0  0  0
 47118  1  0  0  0
 47119  1  0  0  0
 48 56  1  0  0  0
 48 65  1  0  0  0
 48120  1  0  0  0
 49 50  1  0  0  0
 49 53  1  0  0  0
 49 64  1  0  0  0
 49121  1  0  0  0
 50 51  1  0  0  0
 50122  1  0  0  0
 50123  1  0  0  0
 51 52  1  0  0  0
 51124  1  0  0  0
 51125  1  0  0  0
 52126  1  0  0  0
 52127  1  0  0  0
 53 54  1  0  0  0
 54 55  2  0  0  0
 54128  1  0  0  0
 55 57  1  0  0  0
 55129  1  0  0  0
 56 69  2  0  0  0
 57 58  2  0  0  0
 57130  1  0  0  0
 58131  1  0  0  0
 59 60  1  0  0  0
 59 61  1  0  0  0
 59 62  1  0  0  0
 60132  1  0  0  0
 60133  1  0  0  0
 60134  1  0  0  0
 61135  1  0  0  0
 61136  1  0  0  0
 61137  1  0  0  0
 62138  1  0  0  0
 62139  1  0  0  0
 62140  1  0  0  0
 63 65  1  0  0  0
 63141  1  0  0  0
 63142  1  0  0  0
 63143  1  0  0  0
 64144  1  0  0  0
 65145  1  0  0  0
 68 80  1  0  0  0
 71 72  2  0  0  0
 71 75  1  0  0  0
 71146  1  0  0  0
 72 76  1  0  0  0
 72147  1  0  0  0
 73 74  1  0  0  0
 73 75  2  0  0  0
 73148  1  0  0  0
 74 76  2  0  0  0
 74 77  1  0  0  0
 75 82  1  0  0  0
 76 86  1  0  0  0
 77 83  1  0  0  0
 77 84  2  0  0  0
 78 80  1  0  0  0
 78 81  1  0  0  0
 78 85  2  0  0  0
 79149  1  0  0  0
 79150  1  0  0  0
 79151  1  0  0  0
 79 81  1  0  0  0
 80152  1  0  0  0
 80153  1  0  0  0
 81 83  1  0  0  0
 81154  1  0  0  0
 82155  1  0  0  0
 83156  1  0  0  0
M  ISO  4   1 100  68 101  80 101  82 100
M  END
> <chiral flag>
0

> <version>
0

> <s_m_source_file>
/data/baiqing/PycharmProjects/Reinvent-master-3.2/result/LINK_invent/BTK/process_docking_weight1_custom_product_contain_oxygen_bond_distance_aromatic_linkinvent_7_9_3/rearranged_h_0081.sdf

> <i_m_source_file_index>
30

> <r_mmod_Potential_Energy-OPLS-2005>
-83.47412109375

> <r_mmod_Stretch_Energy-OPLS-2005>
44.7402992248535

> <r_mmod_Bend_Energy-OPLS-2005>
92.7911376953125

> <r_mmod_Torsional_Energy-OPLS-2005>
273.421478271484

> <r_mmod_Improper_Torsional_Energy-OPLS-2005>
5.22324705123901

> <r_mmod_Van_der_Waal_Energy-OPLS-2005>
153.119934082031

> <r_mmod_Electrostatic_Energy-OPLS-2005>
-436.902587890625

> <r_mmod_Solvation_Energy-OPLS-2005>
-233.64778137207

> <b_mmod_Minimization_Converged-OPLS-2005>
0

> <r_mmod_RMS_Derivative-OPLS-2005>
2.83303284645081

$$$$
30
                    3D
 Structure written by MMmdl.
152161  0  0  1  0            999 V2000
  -30.5902  -14.8287   20.3999 C   0  0  0  0  0  0
  -30.4335  -12.4994   19.4952 C   0  0  0  0  0  0
  -29.5154  -12.5064   18.2514 C   0  0  0  0  0  0
  -28.0428  -12.3261   18.6652 C   0  0  0  0  0  0
  -27.6375  -13.2441   19.8503 C   0  0  2  0  0  0
  -28.6812  -13.2241   20.9878 C   0  0  0  0  0  0
  -25.2491  -13.8226   20.5728 C   0  0  0  0  0  0
  -24.1793  -13.0450   20.9229 C   0  0  0  0  0  0
  -24.6401  -11.6932   20.8774 C   0  0  0  0  0  0
  -23.9090  -10.4300   21.0434 C   0  0  0  0  0  0
  -24.3638   -9.4206   21.9202 C   0  0  0  0  0  0
  -23.6306   -8.2244   22.0762 C   0  0  0  0  0  0
  -22.4290   -8.0294   21.3554 C   0  0  0  0  0  0
  -21.9931   -9.0271   20.4653 C   0  0  0  0  0  0
  -22.7266  -10.2146   20.3068 C   0  0  0  0  0  0
  -21.6853   -6.0748   22.5281 C   0  0  0  0  0  0
  -21.4014   -6.5646   23.8210 C   0  0  0  0  0  0
  -21.3647   -5.6798   24.9174 C   0  0  0  0  0  0
  -21.6047   -4.3067   24.7225 C   0  0  0  0  0  0
  -21.8812   -3.8151   23.4351 C   0  0  0  0  0  0
  -21.9193   -4.6973   22.3408 C   0  0  0  0  0  0
  -22.7804  -13.5219   21.1884 C   0  0  0  0  0  0
  -22.1658   -4.2163   21.0990 F   0  0  0  0  0  0
  -21.5625   -3.4548   25.7727 F   0  0  0  0  0  0
  -29.9755  -13.5876   20.3977 N   0  0  0  0  0  0
  -26.2921  -12.9454   20.3303 N   0  0  0  0  0  0
  -25.9339  -11.6585   20.5781 N   0  0  0  0  0  0
  -22.0459  -12.8194   22.0434 N   0  0  0  0  0  0
  -25.4186  -15.1956   20.4148 N   0  0  0  0  0  0
  -31.7872  -14.8862   20.1015 O   0  0  0  0  0  0
  -21.6645   -6.8892   21.4245 O   0  0  0  0  0  0
  -22.3482  -14.5532   20.6751 O   0  0  0  0  0  0
  -24.6349  -31.8489   23.1933 C   0  0  0  0  0  0
  -25.9156  -32.4721   23.8282 C   0  0  1  0  0  0
  -27.2196  -27.2172   20.1187 C   0  0  0  0  0  0
  -25.5933  -33.8529   24.2198 N   0  0  0  0  0  0
  -23.4348  -30.4694   21.5369 C   0  0  2  0  0  0
  -24.8803  -28.9070   20.1051 C   0  0  0  0  0  0
  -22.7524  -29.4578   22.4906 C   0  0  0  0  0  0
  -18.0291  -28.1407   22.8474 C   0  0  0  0  0  0
  -24.1483  -36.7280   23.2639 C   0  0  0  0  0  0
  -25.9824  -30.7455   21.3793 C   0  0  0  0  0  0
  -26.0523  -29.3642   20.7190 C   0  0  0  0  0  0
  -27.2207  -28.5293   20.7179 C   0  0  0  0  0  0
  -26.0230  -26.8375   19.4742 C   0  0  0  0  0  0
  -24.8725  -27.6540   19.4734 C   0  0  0  0  0  0
  -23.6504  -29.7944   20.1552 C   0  0  0  0  0  0
  -25.4108  -36.3060   24.0313 C   0  0  1  0  0  0
  -20.5896  -28.3718   23.1259 C   0  0  2  0  0  0
  -20.6771  -26.9425   22.5430 C   0  0  0  0  0  0
  -19.5754  -26.6379   21.5233 C   0  0  0  0  0  0
  -18.1930  -26.7952   22.1613 C   0  0  0  0  0  0
  -19.1548  -28.8885   23.2852 C   0  0  0  0  0  0
  -18.9474  -30.1487   23.8872 C   0  0  0  0  0  0
  -17.6471  -30.6606   24.0571 C   0  0  0  0  0  0
  -25.9056  -34.9430   23.5057 C   0  0  0  0  0  0
  -16.5356  -29.9103   23.6346 C   0  0  0  0  0  0
  -16.7275  -28.6522   23.0363 C   0  0  0  0  0  0
  -26.4493  -31.6596   25.0720 C   0  0  0  0  0  0
  -25.3687  -31.3797   26.1442 C   0  0  0  0  0  0
  -27.0347  -30.2989   24.6271 C   0  0  0  0  0  0
  -27.6033  -32.4365   25.7479 C   0  0  0  0  0  0
  -27.5582  -37.1791   24.8454 C   0  0  0  0  0  0
  -21.4226  -29.3064   22.3661 N   0  0  0  0  0  0
  -26.4285  -37.3766   23.9404 N   0  0  0  0  0  0
  -24.7045  -31.0409   22.0926 N   0  0  0  0  0  0
  -23.4197  -28.8119   23.3028 O   0  0  0  0  0  0
  -28.2915  -26.2871   20.2297 O   0  0  0  0  0  0
  -26.5649  -34.8921   22.4638 O   0  0  0  0  0  0
  -23.5489  -32.1321   23.7208 O   0  0  0  0  0  0
  -30.8343  -18.6673   18.0312 C   0  0  0  0  0  0
  -30.2754  -19.8697   18.5032 C   0  0  0  0  0  0
  -30.6961  -17.4566   18.7351 C   0  0  0  0  0  0
  -29.4311  -18.6601   20.4335 C   0  0  0  0  0  0
  -29.5538  -19.9482   19.7185 C   0  0  0  0  0  0
  -29.9957  -17.3780   19.9606 C   0  0  0  0  0  0
  -28.5969  -23.7027   20.1095 C   0  0  0  0  0  0
  -28.8474  -23.2985   21.4825 C   0  0  0  0  0  0
  -28.7315  -22.4313   19.3277 C   0  0  0  0  0  0
  -28.3016  -24.9857   19.6115 C   0  0  0  0  0  0
  -29.0347  -21.7671   21.5342 C   0  0  0  0  0  0
  -29.0680  -21.3287   20.1300 N   0  0  0  0  0  0
  -29.8351  -16.0043   20.5700 N   0  0  0  0  0  0
  -28.8900  -24.0238   22.4812 O   0  0  0  0  0  0
  -28.5567  -22.3533   18.1051 O   0  0  0  0  0  0
  -31.4746  -12.6221   19.1914 H   0  0  0  0  0  0
  -30.3882  -11.5372   20.0062 H   0  0  0  0  0  0
  -29.8084  -11.7116   17.5651 H   0  0  0  0  0  0
  -29.6317  -13.4455   17.7072 H   0  0  0  0  0  0
  -27.9107  -11.2799   18.9448 H   0  0  0  0  0  0
  -27.3844  -12.4976   17.8133 H   0  0  0  0  0  0
  -27.6183  -14.2585   19.4496 H   0  0  0  0  0  0
  -28.7320  -12.2386   21.4542 H   0  0  0  0  0  0
  -28.4060  -13.9252   21.7772 H   0  0  0  0  0  0
  -25.2787   -9.5678   22.4776 H   0  0  0  0  0  0
  -24.0014   -7.4632   22.7466 H   0  0  0  0  0  0
  -21.0863   -8.8802   19.8944 H   0  0  0  0  0  0
  -22.3747  -10.9694   19.6177 H   0  0  0  0  0  0
  -21.1999   -7.6152   23.9721 H   0  0  0  0  0  0
  -21.1469   -6.0527   25.9077 H   0  0  0  0  0  0
  -22.0600   -2.7613   23.2840 H   0  0  0  0  0  0
  -22.4089  -11.9850   22.4800 H   0  0  0  0  0  0
  -21.1072  -13.1198   22.2660 H   0  0  0  0  0  0
  -24.6557  -15.8526   20.5350 H   0  0  0  0  0  0
  -26.2633  -15.6299   20.0661 H   0  0  0  0  0  0
  -26.7217  -32.5331   23.1009 H   0  0  0  0  0  0
  -25.0098  -33.9650   25.0366 H   0  0  0  0  0  0
  -22.7346  -31.2928   21.3825 H   0  0  0  0  0  0
  -23.3765  -35.9601   23.3278 H   0  0  0  0  0  0
  -24.3581  -36.8950   22.2072 H   0  0  0  0  0  0
  -23.7230  -37.6453   23.6695 H   0  0  0  0  0  0
  -26.1277  -31.5006   20.6062 H   0  0  0  0  0  0
  -26.8582  -30.7939   22.0143 H   0  0  0  0  0  0
  -28.1126  -28.8665   21.2260 H   0  0  0  0  0  0
  -25.9428  -25.8723   18.9978 H   0  0  0  0  0  0
  -23.9738  -27.3014   18.9888 H   0  0  0  0  0  0
  -23.7635  -30.5614   19.3890 H   0  0  0  0  0  0
  -22.7713  -29.2199   19.8597 H   0  0  0  0  0  0
  -25.1302  -36.1880   25.0804 H   0  0  0  0  0  0
  -20.9963  -28.3308   24.1385 H   0  0  0  0  0  0
  -20.5707  -26.2322   23.3648 H   0  0  0  0  0  0
  -21.6628  -26.7487   22.1181 H   0  0  0  0  0  0
  -19.6927  -25.6287   21.1274 H   0  0  0  0  0  0
  -19.6697  -27.3180   20.6756 H   0  0  0  0  0  0
  -17.4213  -26.6734   21.4011 H   0  0  0  0  0  0
  -18.0306  -26.0099   22.8996 H   0  0  0  0  0  0
  -19.7950  -30.7311   24.2211 H   0  0  0  0  0  0
  -17.5036  -31.6296   24.5179 H   0  0  0  0  0  0
  -15.5367  -30.3020   23.7713 H   0  0  0  0  0  0
  -15.8662  -28.0861   22.7094 H   0  0  0  0  0  0
  -24.5845  -30.7152   25.7791 H   0  0  0  0  0  0
  -24.8899  -32.2997   26.4815 H   0  0  0  0  0  0
  -25.7993  -30.9014   27.0247 H   0  0  0  0  0  0
  -26.2943  -29.6744   24.1262 H   0  0  0  0  0  0
  -27.3951  -29.7269   25.4825 H   0  0  0  0  0  0
  -27.8854  -30.4234   23.9567 H   0  0  0  0  0  0
  -27.2621  -33.3696   26.1962 H   0  0  0  0  0  0
  -28.3886  -32.6887   25.0345 H   0  0  0  0  0  0
  -28.0634  -31.8552   26.5475 H   0  0  0  0  0  0
  -28.2576  -38.0111   24.7530 H   0  0  0  0  0  0
  -28.1097  -36.2647   24.6226 H   0  0  0  0  0  0
  -27.2293  -37.1369   25.8852 H   0  0  0  0  0  0
  -20.9449  -29.8785   21.6833 H   0  0  0  0  0  0
  -26.0154  -38.2827   24.1443 H   0  0  0  0  0  0
  -31.3780  -18.6727   17.0973 H   0  0  0  0  0  0
  -30.4470  -20.7510   17.9023 H   0  0  0  0  0  0
  -31.1314  -16.5728   18.2905 H   0  0  0  0  0  0
  -28.8781  -18.6562   21.3627 H   0  0  0  0  0  0
  -28.1374  -25.0989   18.5476 H   0  0  0  0  0  0
  -28.1942  -21.3059   22.0528 H   0  0  0  0  0  0
  -29.9596  -21.5029   22.0451 H   0  0  0  0  0  0
  -28.9522  -15.8535   21.0333 H   0  0  0  0  0  0
  1 25  1  0  0  0
  1 30  2  0  0  0
  1 83  1  0  0  0
  2  3  1  0  0  0
  2 25  1  0  0  0
  2 86  1  0  0  0
  2 87  1  0  0  0
  3  4  1  0  0  0
  3 88  1  0  0  0
  3 89  1  0  0  0
  4  5  1  0  0  0
  4 90  1  0  0  0
  4 91  1  0  0  0
  5  6  1  0  0  0
  5 26  1  0  0  0
  5 92  1  0  0  0
  6 25  1  0  0  0
  6 93  1  0  0  0
  6 94  1  0  0  0
  7  8  2  0  0  0
  7 26  1  0  0  0
  7 29  1  0  0  0
  8  9  1  0  0  0
  8 22  1  0  0  0
  9 10  1  0  0  0
  9 27  2  0  0  0
 10 11  2  0  0  0
 10 15  1  0  0  0
 11 12  1  0  0  0
 11 95  1  0  0  0
 12 13  2  0  0  0
 12 96  1  0  0  0
 13 14  1  0  0  0
 13 31  1  0  0  0
 14 15  2  0  0  0
 14 97  1  0  0  0
 15 98  1  0  0  0
 16 17  2  0  0  0
 16 21  1  0  0  0
 16 31  1  0  0  0
 17 18  1  0  0  0
 17 99  1  0  0  0
 18 19  2  0  0  0
 18100  1  0  0  0
 19 20  1  0  0  0
 19 24  1  0  0  0
 20 21  2  0  0  0
 20101  1  0  0  0
 21 23  1  0  0  0
 22 28  1  0  0  0
 22 32  2  0  0  0
 26 27  1  0  0  0
 28102  1  0  0  0
 28103  1  0  0  0
 29104  1  0  0  0
 29105  1  0  0  0
 33 34  1  0  0  0
 33 66  1  0  0  0
 33 70  2  0  0  0
 34 36  1  0  0  0
 34 59  1  0  0  0
 34106  1  0  0  0
 35 44  2  0  0  0
 35 45  1  0  0  0
 35 68  1  0  0  0
 36 56  1  0  0  0
 36107  1  0  0  0
 37 39  1  0  0  0
 37 47  1  0  0  0
 37 66  1  0  0  0
 37108  1  0  0  0
 38 43  2  0  0  0
 38 46  1  0  0  0
 38 47  1  0  0  0
 39 64  1  0  0  0
 39 67  2  0  0  0
 40 52  1  0  0  0
 40 53  2  0  0  0
 40 58  1  0  0  0
 41109  1  0  0  0
 41110  1  0  0  0
 41111  1  0  0  0
 41 48  1  0  0  0
 42 43  1  0  0  0
 42 66  1  0  0  0
 42112  1  0  0  0
 42113  1  0  0  0
 43 44  1  0  0  0
 44114  1  0  0  0
 45 46  2  0  0  0
 45115  1  0  0  0
 46116  1  0  0  0
 47117  1  0  0  0
 47118  1  0  0  0
 48 56  1  0  0  0
 48 65  1  0  0  0
 48119  1  0  0  0
 49 50  1  0  0  0
 49 53  1  0  0  0
 49 64  1  0  0  0
 49120  1  0  0  0
 50 51  1  0  0  0
 50121  1  0  0  0
 50122  1  0  0  0
 51 52  1  0  0  0
 51123  1  0  0  0
 51124  1  0  0  0
 52125  1  0  0  0
 52126  1  0  0  0
 53 54  1  0  0  0
 54 55  2  0  0  0
 54127  1  0  0  0
 55 57  1  0  0  0
 55128  1  0  0  0
 56 69  2  0  0  0
 57 58  2  0  0  0
 57129  1  0  0  0
 58130  1  0  0  0
 59 60  1  0  0  0
 59 61  1  0  0  0
 59 62  1  0  0  0
 60131  1  0  0  0
 60132  1  0  0  0
 60133  1  0  0  0
 61134  1  0  0  0
 61135  1  0  0  0
 61136  1  0  0  0
 62137  1  0  0  0
 62138  1  0  0  0
 62139  1  0  0  0
 63 65  1  0  0  0
 63140  1  0  0  0
 63141  1  0  0  0
 63142  1  0  0  0
 64143  1  0  0  0
 65144  1  0  0  0
 68 80  1  0  0  0
 71 72  2  0  0  0
 71 73  1  0  0  0
 71145  1  0  0  0
 72 75  1  0  0  0
 72146  1  0  0  0
 73 76  2  0  0  0
 73147  1  0  0  0
 74 75  2  0  0  0
 74 76  1  0  0  0
 74148  1  0  0  0
 75 82  1  0  0  0
 76 83  1  0  0  0
 77 78  1  0  0  0
 77 79  1  0  0  0
 77 80  2  0  0  0
 78 81  1  0  0  0
 78 84  2  0  0  0
 79 82  1  0  0  0
 79 85  2  0  0  0
 80149  1  0  0  0
 81 82  1  0  0  0
 81150  1  0  0  0
 81151  1  0  0  0
 83152  1  0  0  0
M  ISO  4   1 100  68 101  80 101  83 100
M  END
> <chiral flag>
0

> <version>
0

> <s_m_source_file>
/data/baiqing/PycharmProjects/Reinvent-master-3.2/result/LINK_invent/BTK/process_docking_weight1_custom_product_contain_oxygen_bond_distance_aromatic_linkinvent_7_9_3/rearranged_h_0081.sdf

> <i_m_source_file_index>
31

> <r_mmod_Potential_Energy-OPLS-2005>
339.744689941406

> <r_mmod_Stretch_Energy-OPLS-2005>
161.887466430664

> <r_mmod_Bend_Energy-OPLS-2005>
228.064636230469

> <r_mmod_Torsional_Energy-OPLS-2005>
276.226654052734

> <r_mmod_Improper_Torsional_Energy-OPLS-2005>
4.80836629867554

> <r_mmod_Van_der_Waal_Energy-OPLS-2005>
134.818771362305

> <r_mmod_Electrostatic_Energy-OPLS-2005>
-349.664245605469

> <r_mmod_Solvation_Energy-OPLS-2005>
-240.70393371582

> <b_mmod_Minimization_Converged-OPLS-2005>
0

> <r_mmod_RMS_Derivative-OPLS-2005>
2.98117637634277

$$$$
31
                    3D
 Structure written by MMmdl.
147156  0  0  1  0            999 V2000
  -30.5614  -14.8516   20.4407 C   0  0  0  0  0  0
  -30.4431  -12.5214   19.4895 C   0  0  0  0  0  0
  -29.5197  -12.5213   18.2490 C   0  0  0  0  0  0
  -28.0484  -12.3250   18.6628 C   0  0  0  0  0  0
  -27.6392  -13.2378   19.8487 C   0  0  2  0  0  0
  -28.6830  -13.2075   20.9867 C   0  0  0  0  0  0
  -25.2502  -13.8203   20.5703 C   0  0  0  0  0  0
  -24.1800  -13.0440   20.9215 C   0  0  0  0  0  0
  -24.6399  -11.6920   20.8748 C   0  0  0  0  0  0
  -23.9077  -10.4294   21.0406 C   0  0  0  0  0  0
  -24.3625   -9.4208   21.9184 C   0  0  0  0  0  0
  -23.6297   -8.2244   22.0754 C   0  0  0  0  0  0
  -22.4279   -8.0283   21.3544 C   0  0  0  0  0  0
  -21.9916   -9.0257   20.4646 C   0  0  0  0  0  0
  -22.7248  -10.2135   20.3056 C   0  0  0  0  0  0
  -21.6855   -6.0736   22.5278 C   0  0  0  0  0  0
  -21.4015   -6.5640   23.8212 C   0  0  0  0  0  0
  -21.3660   -5.6793   24.9174 C   0  0  0  0  0  0
  -21.6044   -4.3056   24.7225 C   0  0  0  0  0  0
  -21.8819   -3.8147   23.4346 C   0  0  0  0  0  0
  -21.9193   -4.6964   22.3402 C   0  0  0  0  0  0
  -22.7820  -13.5217   21.1872 C   0  0  0  0  0  0
  -22.1662   -4.2149   21.0979 F   0  0  0  0  0  0
  -21.5628   -3.4539   25.7738 F   0  0  0  0  0  0
  -29.9744  -13.5958   20.4035 N   0  0  0  0  0  0
  -26.2928  -12.9417   20.3273 N   0  0  0  0  0  0
  -25.9332  -11.6555   20.5748 N   0  0  0  0  0  0
  -22.0469  -12.8205   22.0428 N   0  0  0  0  0  0
  -25.4180  -15.1931   20.4121 N   0  0  0  0  0  0
  -31.7510  -14.9546   20.1220 O   0  0  0  0  0  0
  -21.6642   -6.8880   21.4241 O   0  0  0  0  0  0
  -22.3503  -14.5522   20.6717 O   0  0  0  0  0  0
  -24.6384  -31.8491   23.1936 C   0  0  0  0  0  0
  -25.9178  -32.4723   23.8306 C   0  0  1  0  0  0
  -27.2181  -27.1909   20.1446 C   0  0  0  0  0  0
  -25.5945  -33.8528   24.2222 N   0  0  0  0  0  0
  -23.4404  -30.4700   21.5376 C   0  0  2  0  0  0
  -24.8919  -28.9089   20.1086 C   0  0  0  0  0  0
  -22.7547  -29.4568   22.4876 C   0  0  0  0  0  0
  -18.0301  -28.1393   22.8480 C   0  0  0  0  0  0
  -24.1491  -36.7269   23.2641 C   0  0  0  0  0  0
  -25.9930  -30.7383   21.3879 C   0  0  0  0  0  0
  -26.0663  -29.3545   20.7305 C   0  0  0  0  0  0
  -27.2328  -28.5081   20.7398 C   0  0  0  0  0  0
  -26.0262  -26.8427   19.4719 C   0  0  0  0  0  0
  -24.8808  -27.6631   19.4652 C   0  0  0  0  0  0
  -23.6651  -29.8035   20.1549 C   0  0  0  0  0  0
  -25.4121  -36.3050   24.0320 C   0  0  1  0  0  0
  -20.5911  -28.3714   23.1245 C   0  0  2  0  0  0
  -20.6788  -26.9422   22.5403 C   0  0  0  0  0  0
  -19.5759  -26.6382   21.5212 C   0  0  0  0  0  0
  -18.1942  -26.7931   22.1627 C   0  0  0  0  0  0
  -19.1557  -28.8871   23.2855 C   0  0  0  0  0  0
  -18.9475  -30.1469   23.8878 C   0  0  0  0  0  0
  -17.6472  -30.6590   24.0560 C   0  0  0  0  0  0
  -25.9066  -34.9422   23.5077 C   0  0  0  0  0  0
  -16.5363  -29.9084   23.6335 C   0  0  0  0  0  0
  -16.7286  -28.6503   23.0355 C   0  0  0  0  0  0
  -26.4518  -31.6573   25.0726 C   0  0  0  0  0  0
  -25.3716  -31.3746   26.1429 C   0  0  0  0  0  0
  -27.0381  -30.2976   24.6276 C   0  0  0  0  0  0
  -27.6053  -32.4333   25.7509 C   0  0  0  0  0  0
  -27.5576  -37.1793   24.8467 C   0  0  0  0  0  0
  -21.4244  -29.3048   22.3623 N   0  0  0  0  0  0
  -26.4290  -37.3756   23.9406 N   0  0  0  0  0  0
  -24.7098  -31.0389   22.0951 N   0  0  0  0  0  0
  -23.4210  -28.8110   23.3005 O   0  0  0  0  0  0
  -28.2485  -26.1974   20.1975 O   0  0  0  0  0  0
  -26.5646  -34.8909   22.4652 O   0  0  0  0  0  0
  -23.5513  -32.1346   23.7181 O   0  0  0  0  0  0
  -30.8136  -19.5836   19.9579 C   0  0  0  0  0  0
  -30.9874  -18.1322   20.0425 C   0  0  0  0  0  0
  -29.5898  -20.1090   20.3390 C   0  0  0  0  0  0
  -29.9092  -17.3883   20.4923 C   0  0  0  0  0  0
  -28.4270  -23.5421   20.4483 C   0  0  0  0  0  0
  -29.6488  -22.8783   19.9627 C   0  0  0  0  0  0
  -27.8730  -24.8394   20.5437 C   0  0  0  0  0  0
  -27.9037  -22.1250   20.8672 C   0  0  0  0  0  0
  -29.1676  -21.5700   20.3306 N   0  0  0  0  0  0
  -29.7480  -15.9787   20.6621 N   0  0  0  0  0  0
  -30.6551  -23.3340   19.4599 O   0  0  0  0  0  0
  -28.6364  -18.6485   20.8250 S   0  0  0  0  0  0
  -31.4799  -12.6685   19.1827 H   0  0  0  0  0  0
  -30.4164  -11.5536   19.9926 H   0  0  0  0  0  0
  -29.8205  -11.7371   17.5530 H   0  0  0  0  0  0
  -29.6265  -13.4651   17.7120 H   0  0  0  0  0  0
  -27.9241  -11.2788   18.9447 H   0  0  0  0  0  0
  -27.3885  -12.4904   17.8104 H   0  0  0  0  0  0
  -27.6211  -14.2520   19.4490 H   0  0  0  0  0  0
  -28.7435  -12.2147   21.4350 H   0  0  0  0  0  0
  -28.3984  -13.8883   21.7905 H   0  0  0  0  0  0
  -25.2769   -9.5683   22.4760 H   0  0  0  0  0  0
  -24.0004   -7.4636   22.7474 H   0  0  0  0  0  0
  -21.0847   -8.8778   19.8952 H   0  0  0  0  0  0
  -22.3705  -10.9675   19.6166 H   0  0  0  0  0  0
  -21.2009   -7.6149   23.9715 H   0  0  0  0  0  0
  -21.1482   -6.0523   25.9077 H   0  0  0  0  0  0
  -22.0598   -2.7609   23.2846 H   0  0  0  0  0  0
  -22.4092  -11.9870   22.4816 H   0  0  0  0  0  0
  -21.1085  -13.1224   22.2634 H   0  0  0  0  0  0
  -24.6459  -15.8422   20.5188 H   0  0  0  0  0  0
  -26.2558  -15.6336   20.0549 H   0  0  0  0  0  0
  -26.7244  -32.5351   23.1041 H   0  0  0  0  0  0
  -25.0075  -33.9653   25.0357 H   0  0  0  0  0  0
  -22.7404  -31.2945   21.3870 H   0  0  0  0  0  0
  -23.3755  -35.9600   23.3299 H   0  0  0  0  0  0
  -24.3577  -36.8902   22.2056 H   0  0  0  0  0  0
  -23.7245  -37.6466   23.6676 H   0  0  0  0  0  0
  -26.1431  -31.4950   20.6166 H   0  0  0  0  0  0
  -26.8656  -30.7880   22.0274 H   0  0  0  0  0  0
  -28.1260  -28.8381   21.2515 H   0  0  0  0  0  0
  -25.9603  -25.8863   18.9728 H   0  0  0  0  0  0
  -23.9862  -27.3187   18.9645 H   0  0  0  0  0  0
  -23.7964  -30.5801   19.4005 H   0  0  0  0  0  0
  -22.7819  -29.2418   19.8454 H   0  0  0  0  0  0
  -25.1307  -36.1887   25.0812 H   0  0  0  0  0  0
  -21.0004  -28.3300   24.1366 H   0  0  0  0  0  0
  -20.5687  -26.2326   23.3617 H   0  0  0  0  0  0
  -21.6653  -26.7436   22.1196 H   0  0  0  0  0  0
  -19.6921  -25.6288   21.1253 H   0  0  0  0  0  0
  -19.6693  -27.3183   20.6734 H   0  0  0  0  0  0
  -17.4208  -26.6671   21.4034 H   0  0  0  0  0  0
  -18.0346  -26.0079   22.9030 H   0  0  0  0  0  0
  -19.7950  -30.7291   24.2238 H   0  0  0  0  0  0
  -17.5025  -31.6269   24.5165 H   0  0  0  0  0  0
  -15.5362  -30.2980   23.7670 H   0  0  0  0  0  0
  -15.8687  -28.0816   22.7080 H   0  0  0  0  0  0
  -24.5890  -30.7103   25.7747 H   0  0  0  0  0  0
  -24.8912  -32.2925   26.4827 H   0  0  0  0  0  0
  -25.8008  -30.8932   27.0225 H   0  0  0  0  0  0
  -26.2992  -29.6704   24.1276 H   0  0  0  0  0  0
  -27.4003  -29.7265   25.4834 H   0  0  0  0  0  0
  -27.8895  -30.4226   23.9582 H   0  0  0  0  0  0
  -27.2646  -33.3645   26.2048 H   0  0  0  0  0  0
  -28.3884  -32.6876   25.0354 H   0  0  0  0  0  0
  -28.0699  -31.8486   26.5458 H   0  0  0  0  0  0
  -28.2592  -38.0090   24.7507 H   0  0  0  0  0  0
  -28.1073  -36.2619   24.6304 H   0  0  0  0  0  0
  -27.2291  -37.1452   25.8869 H   0  0  0  0  0  0
  -20.9445  -29.8766   21.6813 H   0  0  0  0  0  0
  -26.0162  -38.2827   24.1403 H   0  0  0  0  0  0
  -31.6290  -20.1996   19.6059 H   0  0  0  0  0  0
  -31.9287  -17.6877   19.7509 H   0  0  0  0  0  0
  -26.8997  -24.8685   21.0132 H   0  0  0  0  0  0
  -27.0363  -21.7343   20.3327 H   0  0  0  0  0  0
  -27.8019  -21.9273   21.9356 H   0  0  0  0  0  0
  -28.8161  -15.7116   20.9416 H   0  0  0  0  0  0
  1 25  1  0  0  0
  1 30  2  0  0  0
  1 80  1  0  0  0
  2  3  1  0  0  0
  2 25  1  0  0  0
  2 83  1  0  0  0
  2 84  1  0  0  0
  3  4  1  0  0  0
  3 85  1  0  0  0
  3 86  1  0  0  0
  4  5  1  0  0  0
  4 87  1  0  0  0
  4 88  1  0  0  0
  5  6  1  0  0  0
  5 26  1  0  0  0
  5 89  1  0  0  0
  6 25  1  0  0  0
  6 90  1  0  0  0
  6 91  1  0  0  0
  7  8  2  0  0  0
  7 26  1  0  0  0
  7 29  1  0  0  0
  8  9  1  0  0  0
  8 22  1  0  0  0
  9 10  1  0  0  0
  9 27  2  0  0  0
 10 11  2  0  0  0
 10 15  1  0  0  0
 11 12  1  0  0  0
 11 92  1  0  0  0
 12 13  2  0  0  0
 12 93  1  0  0  0
 13 14  1  0  0  0
 13 31  1  0  0  0
 14 15  2  0  0  0
 14 94  1  0  0  0
 15 95  1  0  0  0
 16 17  2  0  0  0
 16 21  1  0  0  0
 16 31  1  0  0  0
 17 18  1  0  0  0
 17 96  1  0  0  0
 18 19  2  0  0  0
 18 97  1  0  0  0
 19 20  1  0  0  0
 19 24  1  0  0  0
 20 21  2  0  0  0
 20 98  1  0  0  0
 21 23  1  0  0  0
 22 28  1  0  0  0
 22 32  2  0  0  0
 26 27  1  0  0  0
 28 99  1  0  0  0
 28100  1  0  0  0
 29101  1  0  0  0
 29102  1  0  0  0
 33 34  1  0  0  0
 33 66  1  0  0  0
 33 70  2  0  0  0
 34 36  1  0  0  0
 34 59  1  0  0  0
 34103  1  0  0  0
 35 44  2  0  0  0
 35 45  1  0  0  0
 35 68  1  0  0  0
 36 56  1  0  0  0
 36104  1  0  0  0
 37 39  1  0  0  0
 37 47  1  0  0  0
 37 66  1  0  0  0
 37105  1  0  0  0
 38 43  2  0  0  0
 38 46  1  0  0  0
 38 47  1  0  0  0
 39 64  1  0  0  0
 39 67  2  0  0  0
 40 52  1  0  0  0
 40 53  2  0  0  0
 40 58  1  0  0  0
 41106  1  0  0  0
 41107  1  0  0  0
 41108  1  0  0  0
 41 48  1  0  0  0
 42 43  1  0  0  0
 42 66  1  0  0  0
 42109  1  0  0  0
 42110  1  0  0  0
 43 44  1  0  0  0
 44111  1  0  0  0
 45 46  2  0  0  0
 45112  1  0  0  0
 46113  1  0  0  0
 47114  1  0  0  0
 47115  1  0  0  0
 48 56  1  0  0  0
 48 65  1  0  0  0
 48116  1  0  0  0
 49 50  1  0  0  0
 49 53  1  0  0  0
 49 64  1  0  0  0
 49117  1  0  0  0
 50 51  1  0  0  0
 50118  1  0  0  0
 50119  1  0  0  0
 51 52  1  0  0  0
 51120  1  0  0  0
 51121  1  0  0  0
 52122  1  0  0  0
 52123  1  0  0  0
 53 54  1  0  0  0
 54 55  2  0  0  0
 54124  1  0  0  0
 55 57  1  0  0  0
 55125  1  0  0  0
 56 69  2  0  0  0
 57 58  2  0  0  0
 57126  1  0  0  0
 58127  1  0  0  0
 59 60  1  0  0  0
 59 61  1  0  0  0
 59 62  1  0  0  0
 60128  1  0  0  0
 60129  1  0  0  0
 60130  1  0  0  0
 61131  1  0  0  0
 61132  1  0  0  0
 61133  1  0  0  0
 62134  1  0  0  0
 62135  1  0  0  0
 62136  1  0  0  0
 63 65  1  0  0  0
 63137  1  0  0  0
 63138  1  0  0  0
 63139  1  0  0  0
 64140  1  0  0  0
 65141  1  0  0  0
 68 77  1  0  0  0
 71 72  1  0  0  0
 71 73  2  0  0  0
 71142  1  0  0  0
 72 74  2  0  0  0
 72143  1  0  0  0
 73 79  1  0  0  0
 73 82  1  0  0  0
 74 80  1  0  0  0
 74 82  1  0  0  0
 75 76  1  0  0  0
 75 77  2  0  0  0
 75 78  1  0  0  0
 76 79  1  0  0  0
 76 81  2  0  0  0
 77144  1  0  0  0
 78 79  1  0  0  0
 78145  1  0  0  0
 78146  1  0  0  0
 80147  1  0  0  0
M  ISO  4   1 100  68 101  77 101  80 100
M  END
> <chiral flag>
0

> <version>
0

> <s_m_source_file>
/data/baiqing/PycharmProjects/Reinvent-master-3.2/result/LINK_invent/BTK/process_docking_weight1_custom_product_contain_oxygen_bond_distance_aromatic_linkinvent_7_9_3/rearranged_h_0081.sdf

> <i_m_source_file_index>
32

> <r_mmod_Potential_Energy-OPLS-2005>
332.723358154297

> <r_mmod_Stretch_Energy-OPLS-2005>
151.551712036133

> <r_mmod_Bend_Energy-OPLS-2005>
282.878509521484

> <r_mmod_Torsional_Energy-OPLS-2005>
216.682312011719

> <r_mmod_Improper_Torsional_Energy-OPLS-2005>
4.05678224563599

> <r_mmod_Van_der_Waal_Energy-OPLS-2005>
111.339981079102

> <r_mmod_Electrostatic_Energy-OPLS-2005>
-350.105133056641

> <r_mmod_Solvation_Energy-OPLS-2005>
-226.226470947266

> <b_mmod_Minimization_Converged-OPLS-2005>
0

> <r_mmod_RMS_Derivative-OPLS-2005>
0.158820033073425

$$$$
32
                    3D
 Structure written by MMmdl.
163172  0  0  1  0            999 V2000
  -30.6858  -14.7060   20.5454 C   0  0  0  0  0  0
  -30.4406  -12.4426   19.4897 C   0  0  0  0  0  0
  -29.5177  -12.5071   18.2505 C   0  0  0  0  0  0
  -28.0557  -12.2971   18.6792 C   0  0  0  0  0  0
  -27.6564  -13.2192   19.8622 C   0  0  2  0  0  0
  -28.6994  -13.1457   21.0050 C   0  0  0  0  0  0
  -25.2599  -13.8160   20.5688 C   0  0  0  0  0  0
  -24.1851  -13.0422   20.9132 C   0  0  0  0  0  0
  -24.6395  -11.6882   20.8659 C   0  0  0  0  0  0
  -23.9023  -10.4260   21.0326 C   0  0  0  0  0  0
  -24.3570   -9.4192   21.9114 C   0  0  0  0  0  0
  -23.6239   -8.2235   22.0724 C   0  0  0  0  0  0
  -22.4224   -8.0239   21.3519 C   0  0  0  0  0  0
  -21.9828   -9.0210   20.4631 C   0  0  0  0  0  0
  -22.7159  -10.2092   20.3012 C   0  0  0  0  0  0
  -21.6845   -6.0689   22.5252 C   0  0  0  0  0  0
  -21.4014   -6.5604   23.8178 C   0  0  0  0  0  0
  -21.3656   -5.6772   24.9145 C   0  0  0  0  0  0
  -21.6040   -4.3029   24.7208 C   0  0  0  0  0  0
  -21.8820   -3.8111   23.4332 C   0  0  0  0  0  0
  -21.9190   -4.6920   22.3385 C   0  0  0  0  0  0
  -22.7873  -13.5210   21.1769 C   0  0  0  0  0  0
  -22.1659   -4.2117   21.0953 F   0  0  0  0  0  0
  -21.5612   -3.4511   25.7724 F   0  0  0  0  0  0
  -30.0184  -13.4933   20.4524 N   0  0  0  0  0  0
  -26.3029  -12.9339   20.3324 N   0  0  0  0  0  0
  -25.9335  -11.6487   20.5742 N   0  0  0  0  0  0
  -22.0547  -12.8252   22.0382 N   0  0  0  0  0  0
  -25.4339  -15.1883   20.4163 N   0  0  0  0  0  0
  -31.7601  -14.8385   19.9489 O   0  0  0  0  0  0
  -21.6610   -6.8828   21.4208 O   0  0  0  0  0  0
  -22.3542  -14.5495   20.6602 O   0  0  0  0  0  0
  -24.6293  -31.8527   23.1944 C   0  0  0  0  0  0
  -25.9116  -32.4720   23.8268 C   0  0  1  0  0  0
  -27.2136  -27.2576   20.1007 C   0  0  0  0  0  0
  -25.5938  -33.8512   24.2232 N   0  0  0  0  0  0
  -23.4227  -30.4735   21.5407 C   0  0  2  0  0  0
  -24.8681  -28.9144   20.1138 C   0  0  0  0  0  0
  -22.7461  -29.4583   22.4934 C   0  0  0  0  0  0
  -18.0263  -28.1405   22.8467 C   0  0  0  0  0  0
  -24.1522  -36.7267   23.2622 C   0  0  0  0  0  0
  -25.9690  -30.7568   21.3772 C   0  0  0  0  0  0
  -26.0377  -29.3748   20.7283 C   0  0  0  0  0  0
  -27.2060  -28.5485   20.7327 C   0  0  0  0  0  0
  -26.0281  -26.8794   19.4408 C   0  0  0  0  0  0
  -24.8643  -27.6686   19.4682 C   0  0  0  0  0  0
  -23.6391  -29.7973   20.1617 C   0  0  0  0  0  0
  -25.4126  -36.3020   24.0318 C   0  0  1  0  0  0
  -20.5860  -28.3700   23.1316 C   0  0  2  0  0  0
  -20.6775  -26.9418   22.5444 C   0  0  0  0  0  0
  -19.5773  -26.6395   21.5211 C   0  0  0  0  0  0
  -18.1925  -26.7967   22.1570 C   0  0  0  0  0  0
  -19.1514  -28.8868   23.2882 C   0  0  0  0  0  0
  -18.9435  -30.1478   23.8899 C   0  0  0  0  0  0
  -17.6440  -30.6599   24.0579 C   0  0  0  0  0  0
  -25.9052  -34.9403   23.5067 C   0  0  0  0  0  0
  -16.5336  -29.9096   23.6341 C   0  0  0  0  0  0
  -16.7251  -28.6512   23.0354 C   0  0  0  0  0  0
  -26.4492  -31.6532   25.0654 C   0  0  0  0  0  0
  -25.3719  -31.3740   26.1407 C   0  0  0  0  0  0
  -27.0282  -30.2926   24.6117 C   0  0  0  0  0  0
  -27.6096  -32.4234   25.7392 C   0  0  0  0  0  0
  -27.5615  -37.1755   24.8430 C   0  0  0  0  0  0
  -21.4171  -29.3040   22.3701 N   0  0  0  0  0  0
  -26.4293  -37.3724   23.9418 N   0  0  0  0  0  0
  -24.6917  -31.0487   22.0923 N   0  0  0  0  0  0
  -23.4179  -28.8103   23.3006 O   0  0  0  0  0  0
  -28.3095  -26.3720   20.1836 O   0  0  0  0  0  0
  -26.5612  -34.8883   22.4639 O   0  0  0  0  0  0
  -23.5456  -32.1364   23.7259 O   0  0  0  0  0  0
  -30.1203  -19.3419   19.8171 C   0  0  0  0  0  0
  -28.3908  -19.1132   21.4504 C   0  0  0  0  0  0
  -30.4870  -17.9580   20.0150 C   0  0  0  0  0  0
  -28.7240  -17.7377   21.6136 C   0  0  0  0  0  0
  -29.0522  -19.9731   20.5327 C   0  0  0  0  0  0
  -29.8044  -17.1009   20.9367 C   0  0  0  0  0  0
  -27.0231  -22.9392   19.6806 C   0  0  0  0  0  0
  -28.1517  -23.6383   19.9047 C   0  0  0  0  0  0
  -27.2222  -21.5350   19.9830 C   0  0  0  0  0  0
  -29.1428  -22.5841   20.2832 C   0  0  0  0  0  0
  -30.6061  -15.6216   22.6892 C   0  0  0  0  0  0
  -25.7458  -23.3943   18.9945 C   0  0  0  0  0  0
  -31.8918  -16.7395   24.6677 C   0  0  0  0  0  0
  -28.4572  -25.1157   19.3710 C   0  0  0  0  0  0
  -30.8820  -16.9043   23.5218 C   0  0  0  0  0  0
  -28.5254  -21.3485   20.2743 N   0  0  0  0  0  0
  -30.2476  -15.7370   21.3721 N   0  0  0  0  0  0
  -26.3559  -20.6499   19.9490 O   0  0  0  0  0  0
  -30.3316  -22.7668   20.5676 O   0  0  0  0  0  0
  -30.7210  -14.5368   23.2794 O   0  0  0  0  0  0
  -31.4859  -12.5381   19.1939 H   0  0  0  0  0  0
  -30.3720  -11.4610   19.9592 H   0  0  0  0  0  0
  -29.8029  -11.7405   17.5283 H   0  0  0  0  0  0
  -29.6360  -13.4668   17.7460 H   0  0  0  0  0  0
  -27.9627  -11.2555   18.9915 H   0  0  0  0  0  0
  -27.3822  -12.4223   17.8306 H   0  0  0  0  0  0
  -27.6602  -14.2379   19.4753 H   0  0  0  0  0  0
  -28.7355  -12.1392   21.4254 H   0  0  0  0  0  0
  -28.4134  -13.8038   21.8235 H   0  0  0  0  0  0
  -25.2723   -9.5678   22.4668 H   0  0  0  0  0  0
  -23.9951   -7.4636   22.7459 H   0  0  0  0  0  0
  -21.0732   -8.8671   19.8979 H   0  0  0  0  0  0
  -22.3543  -10.9575   19.6105 H   0  0  0  0  0  0
  -21.2015   -7.6119   23.9673 H   0  0  0  0  0  0
  -21.1467   -6.0495   25.9044 H   0  0  0  0  0  0
  -22.0607   -2.7576   23.2839 H   0  0  0  0  0  0
  -22.4168  -11.9944   22.4825 H   0  0  0  0  0  0
  -21.1191  -13.1301   22.2592 H   0  0  0  0  0  0
  -24.6775  -15.8524   20.5348 H   0  0  0  0  0  0
  -26.3015  -15.6217   20.1275 H   0  0  0  0  0  0
  -26.7146  -32.5389   23.0966 H   0  0  0  0  0  0
  -25.0140  -33.9626   25.0416 H   0  0  0  0  0  0
  -22.7162  -31.2913   21.3852 H   0  0  0  0  0  0
  -23.3780  -35.9596   23.3207 H   0  0  0  0  0  0
  -24.3637  -36.8964   22.2048 H   0  0  0  0  0  0
  -23.7268  -37.6440   23.6706 H   0  0  0  0  0  0
  -26.1017  -31.5003   20.5913 H   0  0  0  0  0  0
  -26.8545  -30.8215   21.9963 H   0  0  0  0  0  0
  -28.0969  -28.8755   21.2495 H   0  0  0  0  0  0
  -25.9695  -25.9516   18.9038 H   0  0  0  0  0  0
  -23.9644  -27.3108   18.9859 H   0  0  0  0  0  0
  -23.7642  -30.5595   19.3930 H   0  0  0  0  0  0
  -22.7620  -29.2179   19.8672 H   0  0  0  0  0  0
  -25.1305  -36.1824   25.0803 H   0  0  0  0  0  0
  -20.9928  -28.3286   24.1453 H   0  0  0  0  0  0
  -20.5672  -26.2269   23.3622 H   0  0  0  0  0  0
  -21.6672  -26.7467   22.1265 H   0  0  0  0  0  0
  -19.6949  -25.6301   21.1258 H   0  0  0  0  0  0
  -19.6757  -27.3192   20.6730 H   0  0  0  0  0  0
  -17.4228  -26.6749   21.3942 H   0  0  0  0  0  0
  -18.0258  -26.0096   22.8930 H   0  0  0  0  0  0
  -19.7913  -30.7308   24.2259 H   0  0  0  0  0  0
  -17.4987  -31.6286   24.5168 H   0  0  0  0  0  0
  -15.5336  -30.2994   23.7692 H   0  0  0  0  0  0
  -15.8636  -28.0831   22.7100 H   0  0  0  0  0  0
  -24.5912  -30.7028   25.7811 H   0  0  0  0  0  0
  -24.8871  -32.2923   26.4725 H   0  0  0  0  0  0
  -25.8060  -30.9043   27.0235 H   0  0  0  0  0  0
  -26.2817  -29.6686   24.1188 H   0  0  0  0  0  0
  -27.3999  -29.7185   25.4611 H   0  0  0  0  0  0
  -27.8690  -30.4179   23.9291 H   0  0  0  0  0  0
  -27.2760  -33.3540   26.1988 H   0  0  0  0  0  0
  -28.3875  -32.6766   25.0176 H   0  0  0  0  0  0
  -28.0769  -31.8312   26.5267 H   0  0  0  0  0  0
  -28.2580  -38.0108   24.7537 H   0  0  0  0  0  0
  -28.1181  -36.2648   24.6160 H   0  0  0  0  0  0
  -27.2380  -37.1279   25.8843 H   0  0  0  0  0  0
  -20.9314  -29.8730   21.6906 H   0  0  0  0  0  0
  -26.0174  -38.2790   24.1445 H   0  0  0  0  0  0
  -30.6702  -19.9178   19.0850 H   0  0  0  0  0  0
  -27.5797  -19.5016   22.0507 H   0  0  0  0  0  0
  -31.3357  -17.5726   19.4677 H   0  0  0  0  0  0
  -28.1609  -17.1870   22.3529 H   0  0  0  0  0  0
  -25.1786  -24.0652   19.6385 H   0  0  0  0  0  0
  -25.0997  -22.5452   18.7617 H   0  0  0  0  0  0
  -25.9775  -23.8695   18.0405 H   0  0  0  0  0  0
  -32.1809  -17.7205   25.0460 H   0  0  0  0  0  0
  -32.7991  -16.2338   24.3365 H   0  0  0  0  0  0
  -31.4695  -16.1824   25.5023 H   0  0  0  0  0  0
  -27.9685  -25.2450   18.4054 H   0  0  0  0  0  0
  -29.5107  -25.0966   19.0944 H   0  0  0  0  0  0
  -29.9429  -17.2872   23.9271 H   0  0  0  0  0  0
  -31.2955  -17.6825   22.8785 H   0  0  0  0  0  0
  1 25  1  0  0  0
  1 30  2  0  0  0
  1 87  1  0  0  0
  2  3  1  0  0  0
  2 25  1  0  0  0
  2 91  1  0  0  0
  2 92  1  0  0  0
  3  4  1  0  0  0
  3 93  1  0  0  0
  3 94  1  0  0  0
  4  5  1  0  0  0
  4 95  1  0  0  0
  4 96  1  0  0  0
  5  6  1  0  0  0
  5 26  1  0  0  0
  5 97  1  0  0  0
  6 25  1  0  0  0
  6 98  1  0  0  0
  6 99  1  0  0  0
  7  8  2  0  0  0
  7 26  1  0  0  0
  7 29  1  0  0  0
  8  9  1  0  0  0
  8 22  1  0  0  0
  9 10  1  0  0  0
  9 27  2  0  0  0
 10 11  2  0  0  0
 10 15  1  0  0  0
 11 12  1  0  0  0
 11100  1  0  0  0
 12 13  2  0  0  0
 12101  1  0  0  0
 13 14  1  0  0  0
 13 31  1  0  0  0
 14 15  2  0  0  0
 14102  1  0  0  0
 15103  1  0  0  0
 16 17  2  0  0  0
 16 21  1  0  0  0
 16 31  1  0  0  0
 17 18  1  0  0  0
 17104  1  0  0  0
 18 19  2  0  0  0
 18105  1  0  0  0
 19 20  1  0  0  0
 19 24  1  0  0  0
 20 21  2  0  0  0
 20106  1  0  0  0
 21 23  1  0  0  0
 22 28  1  0  0  0
 22 32  2  0  0  0
 26 27  1  0  0  0
 28107  1  0  0  0
 28108  1  0  0  0
 29109  1  0  0  0
 29110  1  0  0  0
 33 34  1  0  0  0
 33 66  1  0  0  0
 33 70  2  0  0  0
 34 36  1  0  0  0
 34 59  1  0  0  0
 34111  1  0  0  0
 35 44  2  0  0  0
 35 45  1  0  0  0
 35 68  1  0  0  0
 36 56  1  0  0  0
 36112  1  0  0  0
 37 39  1  0  0  0
 37 47  1  0  0  0
 37 66  1  0  0  0
 37113  1  0  0  0
 38 43  2  0  0  0
 38 46  1  0  0  0
 38 47  1  0  0  0
 39 64  1  0  0  0
 39 67  2  0  0  0
 40 52  1  0  0  0
 40 53  2  0  0  0
 40 58  1  0  0  0
 41114  1  0  0  0
 41115  1  0  0  0
 41116  1  0  0  0
 41 48  1  0  0  0
 42 43  1  0  0  0
 42 66  1  0  0  0
 42117  1  0  0  0
 42118  1  0  0  0
 43 44  1  0  0  0
 44119  1  0  0  0
 45 46  2  0  0  0
 45120  1  0  0  0
 46121  1  0  0  0
 47122  1  0  0  0
 47123  1  0  0  0
 48 56  1  0  0  0
 48 65  1  0  0  0
 48124  1  0  0  0
 49 50  1  0  0  0
 49 53  1  0  0  0
 49 64  1  0  0  0
 49125  1  0  0  0
 50 51  1  0  0  0
 50126  1  0  0  0
 50127  1  0  0  0
 51 52  1  0  0  0
 51128  1  0  0  0
 51129  1  0  0  0
 52130  1  0  0  0
 52131  1  0  0  0
 53 54  1  0  0  0
 54 55  2  0  0  0
 54132  1  0  0  0
 55 57  1  0  0  0
 55133  1  0  0  0
 56 69  2  0  0  0
 57 58  2  0  0  0
 57134  1  0  0  0
 58135  1  0  0  0
 59 60  1  0  0  0
 59 61  1  0  0  0
 59 62  1  0  0  0
 60136  1  0  0  0
 60137  1  0  0  0
 60138  1  0  0  0
 61139  1  0  0  0
 61140  1  0  0  0
 61141  1  0  0  0
 62142  1  0  0  0
 62143  1  0  0  0
 62144  1  0  0  0
 63 65  1  0  0  0
 63145  1  0  0  0
 63146  1  0  0  0
 63147  1  0  0  0
 64148  1  0  0  0
 65149  1  0  0  0
 68 84  1  0  0  0
 71 73  2  0  0  0
 71 75  1  0  0  0
 71150  1  0  0  0
 72 74  1  0  0  0
 72 75  2  0  0  0
 72151  1  0  0  0
 73 76  1  0  0  0
 73152  1  0  0  0
 74 76  2  0  0  0
 74153  1  0  0  0
 75 86  1  0  0  0
 76 87  1  0  0  0
 77 78  2  0  0  0
 77 79  1  0  0  0
 77 82  1  0  0  0
 78 80  1  0  0  0
 78 84  1  0  0  0
 79 86  1  0  0  0
 79 88  2  0  0  0
 80 86  1  0  0  0
 80 89  2  0  0  0
 81 85  1  0  0  0
 81 87  1  0  0  0
 81 90  2  0  0  0
 82154  1  0  0  0
 82155  1  0  0  0
 82156  1  0  0  0
 83 85  1  0  0  0
 83157  1  0  0  0
 83158  1  0  0  0
 83159  1  0  0  0
 84160  1  0  0  0
 84161  1  0  0  0
 85162  1  0  0  0
 85163  1  0  0  0
M  ISO  4   1 100  68 101  84 101  87 100
M  END
> <chiral flag>
0

> <version>
0

> <s_m_source_file>
/data/baiqing/PycharmProjects/Reinvent-master-3.2/result/LINK_invent/BTK/process_docking_weight1_custom_product_contain_oxygen_bond_distance_aromatic_linkinvent_7_9_3/rearranged_h_0081.sdf

> <i_m_source_file_index>
33

> <r_mmod_Potential_Energy-OPLS-2005>
403.182800292969

> <r_mmod_Stretch_Energy-OPLS-2005>
125.643249511719

> <r_mmod_Bend_Energy-OPLS-2005>
234.682983398438

> <r_mmod_Torsional_Energy-OPLS-2005>
344.448883056641

> <r_mmod_Improper_Torsional_Energy-OPLS-2005>
7.1379075050354

> <r_mmod_Van_der_Waal_Energy-OPLS-2005>
158.489471435547

> <r_mmod_Electrostatic_Energy-OPLS-2005>
-329.11279296875

> <r_mmod_Solvation_Energy-OPLS-2005>
-216.455169677734

> <b_mmod_Minimization_Converged-OPLS-2005>
0

> <r_mmod_RMS_Derivative-OPLS-2005>
5.02762985229492

$$$$
33
                    3D
 Structure written by MMmdl.
156165  0  0  1  0            999 V2000
  -30.6637  -14.6308   20.4953 C   0  0  0  0  0  0
  -30.4242  -12.3915   19.4458 C   0  0  0  0  0  0
  -29.4984  -12.4974   18.2167 C   0  0  0  0  0  0
  -28.0241  -12.3353   18.6356 C   0  0  0  0  0  0
  -27.6447  -13.2219   19.8522 C   0  0  2  0  0  0
  -28.6919  -13.1164   20.9823 C   0  0  0  0  0  0
  -25.2525  -13.8183   20.5683 C   0  0  0  0  0  0
  -24.1813  -13.0431   20.9202 C   0  0  0  0  0  0
  -24.6398  -11.6910   20.8744 C   0  0  0  0  0  0
  -23.9076  -10.4288   21.0400 C   0  0  0  0  0  0
  -24.3629   -9.4206   21.9178 C   0  0  0  0  0  0
  -23.6304   -8.2242   22.0747 C   0  0  0  0  0  0
  -22.4282   -8.0281   21.3542 C   0  0  0  0  0  0
  -21.9921   -9.0252   20.4637 C   0  0  0  0  0  0
  -22.7249  -10.2132   20.3049 C   0  0  0  0  0  0
  -21.6860   -6.0734   22.5278 C   0  0  0  0  0  0
  -21.4011   -6.5638   23.8208 C   0  0  0  0  0  0
  -21.3662   -5.6796   24.9176 C   0  0  0  0  0  0
  -21.6048   -4.3057   24.7228 C   0  0  0  0  0  0
  -21.8819   -3.8145   23.4348 C   0  0  0  0  0  0
  -21.9189   -4.6961   22.3402 C   0  0  0  0  0  0
  -22.7835  -13.5220   21.1880 C   0  0  0  0  0  0
  -22.1661   -4.2149   21.0981 F   0  0  0  0  0  0
  -21.5645   -3.4538   25.7740 F   0  0  0  0  0  0
  -30.0000  -13.4371   20.3978 N   0  0  0  0  0  0
  -26.2950  -12.9377   20.3282 N   0  0  0  0  0  0
  -25.9323  -11.6527   20.5746 N   0  0  0  0  0  0
  -22.0481  -12.8191   22.0420 N   0  0  0  0  0  0
  -25.4179  -15.1914   20.4105 N   0  0  0  0  0  0
  -31.8631  -14.6927   20.2111 O   0  0  0  0  0  0
  -21.6645   -6.8877   21.4238 O   0  0  0  0  0  0
  -22.3509  -14.5521   20.6735 O   0  0  0  0  0  0
  -24.6213  -31.8633   23.2046 C   0  0  0  0  0  0
  -25.9079  -32.4799   23.8364 C   0  0  1  0  0  0
  -27.2205  -27.3541   20.1268 C   0  0  0  0  0  0
  -25.5902  -33.8598   24.2292 N   0  0  0  0  0  0
  -23.4139  -30.4866   21.5455 C   0  0  2  0  0  0
  -24.8633  -28.9423   20.1154 C   0  0  0  0  0  0
  -22.7440  -29.4645   22.4944 C   0  0  0  0  0  0
  -18.0288  -28.1360   22.8506 C   0  0  0  0  0  0
  -24.1490  -36.7310   23.2642 C   0  0  0  0  0  0
  -25.9517  -30.8043   21.3715 C   0  0  0  0  0  0
  -26.0280  -29.4303   20.7248 C   0  0  0  0  0  0
  -27.2134  -28.6430   20.7312 C   0  0  0  0  0  0
  -26.0444  -26.9037   19.4998 C   0  0  0  0  0  0
  -24.8699  -27.6800   19.4979 C   0  0  0  0  0  0
  -23.6299  -29.8198   20.1611 C   0  0  0  0  0  0
  -25.4113  -36.3095   24.0334 C   0  0  1  0  0  0
  -20.5889  -28.3675   23.1278 C   0  0  2  0  0  0
  -20.6792  -26.9404   22.5396 C   0  0  0  0  0  0
  -19.5750  -26.6366   21.5219 C   0  0  0  0  0  0
  -18.1932  -26.7908   22.1647 C   0  0  0  0  0  0
  -19.1544  -28.8831   23.2887 C   0  0  0  0  0  0
  -18.9468  -30.1436   23.8899 C   0  0  0  0  0  0
  -17.6471  -30.6579   24.0552 C   0  0  0  0  0  0
  -25.9040  -34.9464   23.5113 C   0  0  0  0  0  0
  -16.5360  -29.9084   23.6318 C   0  0  0  0  0  0
  -16.7279  -28.6490   23.0363 C   0  0  0  0  0  0
  -26.4480  -31.6593   25.0725 C   0  0  0  0  0  0
  -25.3726  -31.3724   26.1462 C   0  0  0  0  0  0
  -27.0317  -30.3021   24.6144 C   0  0  0  0  0  0
  -27.6040  -32.4323   25.7505 C   0  0  0  0  0  0
  -27.5581  -37.1811   24.8466 C   0  0  0  0  0  0
  -21.4162  -29.3045   22.3677 N   0  0  0  0  0  0
  -26.4295  -37.3784   23.9405 N   0  0  0  0  0  0
  -24.6812  -31.0676   22.0983 N   0  0  0  0  0  0
  -23.4179  -28.8176   23.3002 O   0  0  0  0  0  0
  -28.3091  -26.4909   20.1027 O   0  0  0  0  0  0
  -26.5610  -34.8926   22.4679 O   0  0  0  0  0  0
  -23.5384  -32.1411   23.7399 O   0  0  0  0  0  0
  -27.6351  -19.1000   18.8995 C   0  0  0  0  0  0
  -28.4019  -18.0206   19.3829 C   0  0  0  0  0  0
  -27.8421  -20.4128   19.3683 C   0  0  0  0  0  0
  -29.5796  -19.5709   20.8446 C   0  0  0  0  0  0
  -29.3981  -18.2227   20.3641 C   0  0  0  0  0  0
  -28.8121  -20.6915   20.3587 C   0  0  0  0  0  0
  -28.7056  -24.3368   21.3403 C   0  0  0  0  0  0
  -29.0067  -23.6603   22.5781 C   0  0  0  0  0  0
  -28.6610  -23.2737   20.3135 C   0  0  0  0  0  0
  -28.9817  -24.2031   23.8103 C   0  0  0  0  0  0
  -28.5176  -25.6970   21.2246 C   0  0  0  0  0  0
  -30.3269  -17.0609   20.7640 C   0  0  0  0  0  0
  -29.3063  -22.2135   22.3090 C   0  0  0  0  0  0
  -28.9394  -22.0495   20.9040 N   0  0  0  0  0  0
  -29.8979  -15.7617   20.6454 N   0  0  0  0  0  0
  -28.4195  -23.4395   19.1130 O   0  0  0  0  0  0
  -31.4486  -17.3567   21.1937 O   0  0  0  0  0  0
  -31.4670  -12.4992   19.1419 H   0  0  0  0  0  0
  -30.3472  -11.4050   19.9053 H   0  0  0  0  0  0
  -29.7642  -11.7410   17.4778 H   0  0  0  0  0  0
  -29.6410  -13.4627   17.7285 H   0  0  0  0  0  0
  -27.8680  -11.2843   18.8816 H   0  0  0  0  0  0
  -27.3676  -12.5479   17.7912 H   0  0  0  0  0  0
  -27.6494  -14.2498   19.4905 H   0  0  0  0  0  0
  -28.7057  -12.1123   21.4088 H   0  0  0  0  0  0
  -28.4470  -13.7921   21.8034 H   0  0  0  0  0  0
  -25.2772   -9.5694   22.4749 H   0  0  0  0  0  0
  -24.0015   -7.4637   22.7468 H   0  0  0  0  0  0
  -21.0854   -8.8778   19.8938 H   0  0  0  0  0  0
  -22.3708  -10.9678   19.6163 H   0  0  0  0  0  0
  -21.1990   -7.6143   23.9715 H   0  0  0  0  0  0
  -21.1495   -6.0522   25.9083 H   0  0  0  0  0  0
  -22.0589   -2.7602   23.2849 H   0  0  0  0  0  0
  -22.4116  -11.9858   22.4809 H   0  0  0  0  0  0
  -21.1094  -13.1193   22.2624 H   0  0  0  0  0  0
  -24.6419  -15.8365   20.5172 H   0  0  0  0  0  0
  -26.2542  -15.6402   20.0635 H   0  0  0  0  0  0
  -26.7149  -32.5494   23.1120 H   0  0  0  0  0  0
  -25.0049  -33.9742   25.0434 H   0  0  0  0  0  0
  -22.7063  -31.3058   21.4020 H   0  0  0  0  0  0
  -23.3743  -35.9651   23.3305 H   0  0  0  0  0  0
  -24.3583  -36.8931   22.2057 H   0  0  0  0  0  0
  -23.7250  -37.6521   23.6655 H   0  0  0  0  0  0
  -26.0737  -31.5636   20.5978 H   0  0  0  0  0  0
  -26.8360  -30.8596   21.9940 H   0  0  0  0  0  0
  -28.1089  -29.0113   21.2111 H   0  0  0  0  0  0
  -26.0373  -25.9311   19.0280 H   0  0  0  0  0  0
  -23.9774  -27.2973   19.0217 H   0  0  0  0  0  0
  -23.7477  -30.5961   19.4044 H   0  0  0  0  0  0
  -22.7501  -29.2483   19.8597 H   0  0  0  0  0  0
  -25.1287  -36.1957   25.0826 H   0  0  0  0  0  0
  -20.9988  -28.3249   24.1400 H   0  0  0  0  0  0
  -20.5712  -26.2282   23.3595 H   0  0  0  0  0  0
  -21.6653  -26.7453   22.1164 H   0  0  0  0  0  0
  -19.6898  -25.6272   21.1246 H   0  0  0  0  0  0
  -19.6666  -27.3179   20.6746 H   0  0  0  0  0  0
  -17.4191  -26.6637   21.4061 H   0  0  0  0  0  0
  -18.0341  -26.0049   22.9049 H   0  0  0  0  0  0
  -19.7945  -30.7253   24.2264 H   0  0  0  0  0  0
  -17.5038  -31.6273   24.5132 H   0  0  0  0  0  0
  -15.5361  -30.2994   23.7635 H   0  0  0  0  0  0
  -15.8681  -28.0799   22.7086 H   0  0  0  0  0  0
  -24.5884  -30.7090   25.7798 H   0  0  0  0  0  0
  -24.8945  -32.2899   26.4904 H   0  0  0  0  0  0
  -25.8068  -30.8892   27.0223 H   0  0  0  0  0  0
  -26.2884  -29.6788   24.1164 H   0  0  0  0  0  0
  -27.4026  -29.7253   25.4625 H   0  0  0  0  0  0
  -27.8740  -30.4321   23.9347 H   0  0  0  0  0  0
  -27.2629  -33.3602   26.2101 H   0  0  0  0  0  0
  -28.3845  -32.6916   25.0343 H   0  0  0  0  0  0
  -28.0702  -31.8440   26.5415 H   0  0  0  0  0  0
  -28.2599  -38.0108   24.7498 H   0  0  0  0  0  0
  -28.1070  -36.2635   24.6293 H   0  0  0  0  0  0
  -27.2296  -37.1469   25.8869 H   0  0  0  0  0  0
  -20.9317  -29.8773   21.6914 H   0  0  0  0  0  0
  -26.0180  -38.2863   24.1388 H   0  0  0  0  0  0
  -26.8759  -18.9178   18.1514 H   0  0  0  0  0  0
  -28.2330  -17.0383   18.9646 H   0  0  0  0  0  0
  -27.2158  -21.2000   18.9715 H   0  0  0  0  0  0
  -30.3466  -19.7463   21.5867 H   0  0  0  0  0  0
  -29.2052  -23.6029   24.6807 H   0  0  0  0  0  0
  -28.7399  -25.2410   23.9881 H   0  0  0  0  0  0
  -28.5795  -26.3309   22.0972 H   0  0  0  0  0  0
  -28.7163  -21.5585   22.9516 H   0  0  0  0  0  0
  -30.3668  -22.0112   22.4617 H   0  0  0  0  0  0
  -28.9054  -15.6321   20.5613 H   0  0  0  0  0  0
  1 25  1  0  0  0
  1 30  2  0  0  0
  1 85  1  0  0  0
  2  3  1  0  0  0
  2 25  1  0  0  0
  2 88  1  0  0  0
  2 89  1  0  0  0
  3  4  1  0  0  0
  3 90  1  0  0  0
  3 91  1  0  0  0
  4  5  1  0  0  0
  4 92  1  0  0  0
  4 93  1  0  0  0
  5  6  1  0  0  0
  5 26  1  0  0  0
  5 94  1  0  0  0
  6 25  1  0  0  0
  6 95  1  0  0  0
  6 96  1  0  0  0
  7  8  2  0  0  0
  7 26  1  0  0  0
  7 29  1  0  0  0
  8  9  1  0  0  0
  8 22  1  0  0  0
  9 10  1  0  0  0
  9 27  2  0  0  0
 10 11  2  0  0  0
 10 15  1  0  0  0
 11 12  1  0  0  0
 11 97  1  0  0  0
 12 13  2  0  0  0
 12 98  1  0  0  0
 13 14  1  0  0  0
 13 31  1  0  0  0
 14 15  2  0  0  0
 14 99  1  0  0  0
 15100  1  0  0  0
 16 17  2  0  0  0
 16 21  1  0  0  0
 16 31  1  0  0  0
 17 18  1  0  0  0
 17101  1  0  0  0
 18 19  2  0  0  0
 18102  1  0  0  0
 19 20  1  0  0  0
 19 24  1  0  0  0
 20 21  2  0  0  0
 20103  1  0  0  0
 21 23  1  0  0  0
 22 28  1  0  0  0
 22 32  2  0  0  0
 26 27  1  0  0  0
 28104  1  0  0  0
 28105  1  0  0  0
 29106  1  0  0  0
 29107  1  0  0  0
 33 34  1  0  0  0
 33 66  1  0  0  0
 33 70  2  0  0  0
 34 36  1  0  0  0
 34 59  1  0  0  0
 34108  1  0  0  0
 35 44  2  0  0  0
 35 45  1  0  0  0
 35 68  1  0  0  0
 36 56  1  0  0  0
 36109  1  0  0  0
 37 39  1  0  0  0
 37 47  1  0  0  0
 37 66  1  0  0  0
 37110  1  0  0  0
 38 43  2  0  0  0
 38 46  1  0  0  0
 38 47  1  0  0  0
 39 64  1  0  0  0
 39 67  2  0  0  0
 40 52  1  0  0  0
 40 53  2  0  0  0
 40 58  1  0  0  0
 41111  1  0  0  0
 41112  1  0  0  0
 41113  1  0  0  0
 41 48  1  0  0  0
 42 43  1  0  0  0
 42 66  1  0  0  0
 42114  1  0  0  0
 42115  1  0  0  0
 43 44  1  0  0  0
 44116  1  0  0  0
 45 46  2  0  0  0
 45117  1  0  0  0
 46118  1  0  0  0
 47119  1  0  0  0
 47120  1  0  0  0
 48 56  1  0  0  0
 48 65  1  0  0  0
 48121  1  0  0  0
 49 50  1  0  0  0
 49 53  1  0  0  0
 49 64  1  0  0  0
 49122  1  0  0  0
 50 51  1  0  0  0
 50123  1  0  0  0
 50124  1  0  0  0
 51 52  1  0  0  0
 51125  1  0  0  0
 51126  1  0  0  0
 52127  1  0  0  0
 52128  1  0  0  0
 53 54  1  0  0  0
 54 55  2  0  0  0
 54129  1  0  0  0
 55 57  1  0  0  0
 55130  1  0  0  0
 56 69  2  0  0  0
 57 58  2  0  0  0
 57131  1  0  0  0
 58132  1  0  0  0
 59 60  1  0  0  0
 59 61  1  0  0  0
 59 62  1  0  0  0
 60133  1  0  0  0
 60134  1  0  0  0
 60135  1  0  0  0
 61136  1  0  0  0
 61137  1  0  0  0
 61138  1  0  0  0
 62139  1  0  0  0
 62140  1  0  0  0
 62141  1  0  0  0
 63 65  1  0  0  0
 63142  1  0  0  0
 63143  1  0  0  0
 63144  1  0  0  0
 64145  1  0  0  0
 65146  1  0  0  0
 68 81  1  0  0  0
 71 72  2  0  0  0
 71 73  1  0  0  0
 71147  1  0  0  0
 72 75  1  0  0  0
 72148  1  0  0  0
 73 76  2  0  0  0
 73149  1  0  0  0
 74 75  2  0  0  0
 74 76  1  0  0  0
 74150  1  0  0  0
 75 82  1  0  0  0
 76 84  1  0  0  0
 77 78  1  0  0  0
 77 79  1  0  0  0
 77 81  2  0  0  0
 78 80  2  0  0  0
 78 83  1  0  0  0
 79 84  1  0  0  0
 79 86  2  0  0  0
 80151  1  0  0  0
 80152  1  0  0  0
 81153  1  0  0  0
 82 85  1  0  0  0
 82 87  2  0  0  0
 83 84  1  0  0  0
 83154  1  0  0  0
 83155  1  0  0  0
 85156  1  0  0  0
M  ISO  4   1 100  68 101  81 101  85 100
M  END
> <chiral flag>
0

> <version>
0

> <s_m_source_file>
/data/baiqing/PycharmProjects/Reinvent-master-3.2/result/LINK_invent/BTK/process_docking_weight1_custom_product_contain_oxygen_bond_distance_aromatic_linkinvent_7_9_3/rearranged_h_0081.sdf

> <i_m_source_file_index>
34

> <r_mmod_Potential_Energy-OPLS-2005>
138.477096557617

> <r_mmod_Stretch_Energy-OPLS-2005>
71.7891006469727

> <r_mmod_Bend_Energy-OPLS-2005>
178.136917114258

> <r_mmod_Torsional_Energy-OPLS-2005>
292.836151123047

> <r_mmod_Improper_Torsional_Energy-OPLS-2005>
7.13942623138428

> <r_mmod_Van_der_Waal_Energy-OPLS-2005>
141.674560546875

> <r_mmod_Electrostatic_Energy-OPLS-2005>
-366.961975097656

> <r_mmod_Solvation_Energy-OPLS-2005>
-231.754653930664

> <b_mmod_Minimization_Converged-OPLS-2005>
0

> <r_mmod_RMS_Derivative-OPLS-2005>
1.84472501277924

$$$$
34
                    3D
 Structure written by MMmdl.
154163  0  0  1  0            999 V2000
  -30.5937  -14.6869   20.4966 C   0  0  0  0  0  0
  -30.4457  -12.4209   19.4629 C   0  0  0  0  0  0
  -29.5156  -12.5150   18.2318 C   0  0  0  0  0  0
  -28.0379  -12.3437   18.6404 C   0  0  0  0  0  0
  -27.6533  -13.2176   19.8637 C   0  0  2  0  0  0
  -28.6969  -13.0819   20.9955 C   0  0  0  0  0  0
  -25.2563  -13.8173   20.5685 C   0  0  0  0  0  0
  -24.1828  -13.0441   20.9185 C   0  0  0  0  0  0
  -24.6392  -11.6912   20.8732 C   0  0  0  0  0  0
  -23.9060  -10.4296   21.0401 C   0  0  0  0  0  0
  -24.3613   -9.4211   21.9178 C   0  0  0  0  0  0
  -23.6287   -8.2248   22.0755 C   0  0  0  0  0  0
  -22.4268   -8.0285   21.3548 C   0  0  0  0  0  0
  -21.9901   -9.0258   20.4649 C   0  0  0  0  0  0
  -22.7231  -10.2134   20.3053 C   0  0  0  0  0  0
  -21.6858   -6.0733   22.5275 C   0  0  0  0  0  0
  -21.4018   -6.5635   23.8210 C   0  0  0  0  0  0
  -21.3660   -5.6786   24.9171 C   0  0  0  0  0  0
  -21.6043   -4.3049   24.7222 C   0  0  0  0  0  0
  -21.8820   -3.8143   23.4342 C   0  0  0  0  0  0
  -21.9195   -4.6960   22.3397 C   0  0  0  0  0  0
  -22.7849  -13.5238   21.1848 C   0  0  0  0  0  0
  -22.1663   -4.2148   21.0974 F   0  0  0  0  0  0
  -21.5627   -3.4531   25.7735 F   0  0  0  0  0  0
  -30.0091  -13.4445   20.4356 N   0  0  0  0  0  0
  -26.2985  -12.9350   20.3306 N   0  0  0  0  0  0
  -25.9322  -11.6505   20.5743 N   0  0  0  0  0  0
  -22.0484  -12.8240   22.0403 N   0  0  0  0  0  0
  -25.4283  -15.1894   20.4109 N   0  0  0  0  0  0
  -31.7518  -14.8608   20.1032 O   0  0  0  0  0  0
  -21.6640   -6.8876   21.4239 O   0  0  0  0  0  0
  -22.3538  -14.5548   20.6695 O   0  0  0  0  0  0
  -24.6280  -31.8580   23.2012 C   0  0  0  0  0  0
  -25.9119  -32.4770   23.8347 C   0  0  1  0  0  0
  -27.2250  -27.2997   20.1263 C   0  0  0  0  0  0
  -25.5922  -33.8573   24.2269 N   0  0  0  0  0  0
  -23.4235  -30.4802   21.5438 C   0  0  2  0  0  0
  -24.8721  -28.9318   20.1110 C   0  0  0  0  0  0
  -22.7487  -29.4612   22.4929 C   0  0  0  0  0  0
  -18.0291  -28.1382   22.8487 C   0  0  0  0  0  0
  -24.1487  -36.7296   23.2637 C   0  0  0  0  0  0
  -25.9658  -30.7811   21.3771 C   0  0  0  0  0  0
  -26.0407  -29.4059   20.7221 C   0  0  0  0  0  0
  -27.2207  -28.6000   20.7237 C   0  0  0  0  0  0
  -26.0387  -26.8879   19.4797 C   0  0  0  0  0  0
  -24.8732  -27.6778   19.4808 C   0  0  0  0  0  0
  -23.6401  -29.8137   20.1596 C   0  0  0  0  0  0
  -25.4108  -36.3080   24.0328 C   0  0  1  0  0  0
  -20.5892  -28.3691   23.1278 C   0  0  2  0  0  0
  -20.6782  -26.9413   22.5405 C   0  0  0  0  0  0
  -19.5754  -26.6380   21.5213 C   0  0  0  0  0  0
  -18.1934  -26.7924   22.1628 C   0  0  0  0  0  0
  -19.1543  -28.8854   23.2876 C   0  0  0  0  0  0
  -18.9464  -30.1456   23.8891 C   0  0  0  0  0  0
  -17.6464  -30.6585   24.0559 C   0  0  0  0  0  0
  -25.9047  -34.9449   23.5100 C   0  0  0  0  0  0
  -16.5356  -29.9080   23.6329 C   0  0  0  0  0  0
  -16.7278  -28.6498   23.0351 C   0  0  0  0  0  0
  -26.4492  -31.6592   25.0730 C   0  0  0  0  0  0
  -25.3718  -31.3748   26.1456 C   0  0  0  0  0  0
  -27.0344  -30.3012   24.6209 C   0  0  0  0  0  0
  -27.6046  -32.4331   25.7504 C   0  0  0  0  0  0
  -27.5581  -37.1794   24.8455 C   0  0  0  0  0  0
  -21.4198  -29.3044   22.3672 N   0  0  0  0  0  0
  -26.4283  -37.3778   23.9413 N   0  0  0  0  0  0
  -24.6912  -31.0569   22.0974 N   0  0  0  0  0  0
  -23.4199  -28.8153   23.3019 O   0  0  0  0  0  0
  -28.3171  -26.4129   20.1582 O   0  0  0  0  0  0
  -26.5618  -34.8922   22.4669 O   0  0  0  0  0  0
  -23.5438  -32.1389   23.7326 O   0  0  0  0  0  0
  -28.5738  -19.3587   21.0983 C   0  0  0  0  0  0
  -30.6724  -19.3915   19.9566 C   0  0  0  0  0  0
  -28.6813  -17.9380   21.2258 C   0  0  0  0  0  0
  -30.7823  -17.9658   20.0834 C   0  0  0  0  0  0
  -29.5644  -20.1527   20.4518 C   0  0  0  0  0  0
  -29.7807  -17.1864   20.7242 C   0  0  0  0  0  0
  -28.8670  -23.9310   20.2720 C   0  0  0  0  0  0
  -30.1820  -23.8284   19.7056 C   0  0  0  0  0  0
  -28.4868  -22.5343   20.6300 C   0  0  0  0  0  0
  -30.9410  -24.8539   19.2820 C   0  0  0  0  0  0
  -28.0703  -25.0478   20.4636 C   0  0  0  0  0  0
  -30.6089  -22.3770   19.6777 C   0  0  0  0  0  0
  -29.4919  -21.6375   20.2925 N   0  0  0  0  0  0
  -29.7677  -15.7195   20.8819 N   0  0  0  0  0  0
  -27.4147  -22.2150   21.1542 O   0  0  0  0  0  0
  -31.4860  -12.5568   19.1624 H   0  0  0  0  0  0
  -30.3926  -11.4276   19.9111 H   0  0  0  0  0  0
  -29.7893  -11.7597   17.4939 H   0  0  0  0  0  0
  -29.6508  -13.4813   17.7439 H   0  0  0  0  0  0
  -27.8808  -11.2906   18.8760 H   0  0  0  0  0  0
  -27.3850  -12.5670   17.7958 H   0  0  0  0  0  0
  -27.6681  -14.2511   19.5175 H   0  0  0  0  0  0
  -28.7190  -12.0590   21.3746 H   0  0  0  0  0  0
  -28.4320  -13.7070   21.8496 H   0  0  0  0  0  0
  -25.2760   -9.5692   22.4748 H   0  0  0  0  0  0
  -24.0003   -7.4640   22.7475 H   0  0  0  0  0  0
  -21.0833   -8.8774   19.8953 H   0  0  0  0  0  0
  -22.3689  -10.9673   19.6159 H   0  0  0  0  0  0
  -21.2013   -7.6144   23.9714 H   0  0  0  0  0  0
  -21.1479   -6.0514   25.9074 H   0  0  0  0  0  0
  -22.0599   -2.7606   23.2843 H   0  0  0  0  0  0
  -22.4093  -11.9903   22.4801 H   0  0  0  0  0  0
  -21.1107  -13.1282   22.2608 H   0  0  0  0  0  0
  -24.6596  -15.8430   20.5138 H   0  0  0  0  0  0
  -26.2718  -15.6257   20.0604 H   0  0  0  0  0  0
  -26.7193  -32.5430   23.1098 H   0  0  0  0  0  0
  -25.0059  -33.9716   25.0408 H   0  0  0  0  0  0
  -22.7187  -31.3015   21.3991 H   0  0  0  0  0  0
  -23.3751  -35.9626   23.3286 H   0  0  0  0  0  0
  -24.3584  -36.8931   22.2054 H   0  0  0  0  0  0
  -23.7243  -37.6494   23.6670 H   0  0  0  0  0  0
  -26.0987  -31.5420   20.6068 H   0  0  0  0  0  0
  -26.8459  -30.8321   22.0066 H   0  0  0  0  0  0
  -28.1157  -28.9540   21.2151 H   0  0  0  0  0  0
  -26.0014  -25.9259   18.9878 H   0  0  0  0  0  0
  -23.9798  -27.3100   18.9947 H   0  0  0  0  0  0
  -23.7595  -30.5895   19.4025 H   0  0  0  0  0  0
  -22.7598  -29.2437   19.8565 H   0  0  0  0  0  0
  -25.1288  -36.1924   25.0820 H   0  0  0  0  0  0
  -20.9985  -28.3266   24.1399 H   0  0  0  0  0  0
  -20.5689  -26.2299   23.3606 H   0  0  0  0  0  0
  -21.6650  -26.7442   22.1195 H   0  0  0  0  0  0
  -19.6912  -25.6289   21.1250 H   0  0  0  0  0  0
  -19.6685  -27.3187   20.6739 H   0  0  0  0  0  0
  -17.4201  -26.6670   21.4034 H   0  0  0  0  0  0
  -18.0332  -26.0064   22.9023 H   0  0  0  0  0  0
  -19.7938  -30.7275   24.2256 H   0  0  0  0  0  0
  -17.5016  -31.6267   24.5159 H   0  0  0  0  0  0
  -15.5356  -30.2978   23.7655 H   0  0  0  0  0  0
  -15.8679  -28.0814   22.7071 H   0  0  0  0  0  0
  -24.5855  -30.7144   25.7779 H   0  0  0  0  0  0
  -24.8957  -32.2930   26.4908 H   0  0  0  0  0  0
  -25.8024  -30.8886   27.0219 H   0  0  0  0  0  0
  -26.2935  -29.6756   24.1219 H   0  0  0  0  0  0
  -27.4020  -29.7277   25.4730 H   0  0  0  0  0  0
  -27.8811  -30.4299   23.9462 H   0  0  0  0  0  0
  -27.2645  -33.3617   26.2102 H   0  0  0  0  0  0
  -28.3845  -32.6917   25.0329 H   0  0  0  0  0  0
  -28.0729  -31.8448   26.5406 H   0  0  0  0  0  0
  -28.2575  -38.0115   24.7537 H   0  0  0  0  0  0
  -28.1103  -36.2650   24.6230 H   0  0  0  0  0  0
  -27.2308  -37.1381   25.8858 H   0  0  0  0  0  0
  -20.9378  -29.8765   21.6878 H   0  0  0  0  0  0
  -26.0162  -38.2849   24.1427 H   0  0  0  0  0  0
  -27.6947  -19.8228   21.5192 H   0  0  0  0  0  0
  -31.4812  -19.8985   19.4508 H   0  0  0  0  0  0
  -27.8770  -17.4185   21.7279 H   0  0  0  0  0  0
  -31.6526  -17.4774   19.6680 H   0  0  0  0  0  0
  -30.5999  -25.8776   19.3309 H   0  0  0  0  0  0
  -31.9287  -24.6833   18.8782 H   0  0  0  0  0  0
  -27.0987  -24.9246   20.9244 H   0  0  0  0  0  0
  -31.5281  -22.2385   20.2487 H   0  0  0  0  0  0
  -30.7724  -22.0521   18.6492 H   0  0  0  0  0  0
  -28.9002  -15.3650   21.2552 H   0  0  0  0  0  0
  1 25  1  0  0  0
  1 30  2  0  0  0
  1 84  1  0  0  0
  2  3  1  0  0  0
  2 25  1  0  0  0
  2 86  1  0  0  0
  2 87  1  0  0  0
  3  4  1  0  0  0
  3 88  1  0  0  0
  3 89  1  0  0  0
  4  5  1  0  0  0
  4 90  1  0  0  0
  4 91  1  0  0  0
  5  6  1  0  0  0
  5 26  1  0  0  0
  5 92  1  0  0  0
  6 25  1  0  0  0
  6 93  1  0  0  0
  6 94  1  0  0  0
  7  8  2  0  0  0
  7 26  1  0  0  0
  7 29  1  0  0  0
  8  9  1  0  0  0
  8 22  1  0  0  0
  9 10  1  0  0  0
  9 27  2  0  0  0
 10 11  2  0  0  0
 10 15  1  0  0  0
 11 12  1  0  0  0
 11 95  1  0  0  0
 12 13  2  0  0  0
 12 96  1  0  0  0
 13 14  1  0  0  0
 13 31  1  0  0  0
 14 15  2  0  0  0
 14 97  1  0  0  0
 15 98  1  0  0  0
 16 17  2  0  0  0
 16 21  1  0  0  0
 16 31  1  0  0  0
 17 18  1  0  0  0
 17 99  1  0  0  0
 18 19  2  0  0  0
 18100  1  0  0  0
 19 20  1  0  0  0
 19 24  1  0  0  0
 20 21  2  0  0  0
 20101  1  0  0  0
 21 23  1  0  0  0
 22 28  1  0  0  0
 22 32  2  0  0  0
 26 27  1  0  0  0
 28102  1  0  0  0
 28103  1  0  0  0
 29104  1  0  0  0
 29105  1  0  0  0
 33 34  1  0  0  0
 33 66  1  0  0  0
 33 70  2  0  0  0
 34 36  1  0  0  0
 34 59  1  0  0  0
 34106  1  0  0  0
 35 44  2  0  0  0
 35 45  1  0  0  0
 35 68  1  0  0  0
 36 56  1  0  0  0
 36107  1  0  0  0
 37 39  1  0  0  0
 37 47  1  0  0  0
 37 66  1  0  0  0
 37108  1  0  0  0
 38 43  2  0  0  0
 38 46  1  0  0  0
 38 47  1  0  0  0
 39 64  1  0  0  0
 39 67  2  0  0  0
 40 52  1  0  0  0
 40 53  2  0  0  0
 40 58  1  0  0  0
 41109  1  0  0  0
 41110  1  0  0  0
 41111  1  0  0  0
 41 48  1  0  0  0
 42 43  1  0  0  0
 42 66  1  0  0  0
 42112  1  0  0  0
 42113  1  0  0  0
 43 44  1  0  0  0
 44114  1  0  0  0
 45 46  2  0  0  0
 45115  1  0  0  0
 46116  1  0  0  0
 47117  1  0  0  0
 47118  1  0  0  0
 48 56  1  0  0  0
 48 65  1  0  0  0
 48119  1  0  0  0
 49 50  1  0  0  0
 49 53  1  0  0  0
 49 64  1  0  0  0
 49120  1  0  0  0
 50 51  1  0  0  0
 50121  1  0  0  0
 50122  1  0  0  0
 51 52  1  0  0  0
 51123  1  0  0  0
 51124  1  0  0  0
 52125  1  0  0  0
 52126  1  0  0  0
 53 54  1  0  0  0
 54 55  2  0  0  0
 54127  1  0  0  0
 55 57  1  0  0  0
 55128  1  0  0  0
 56 69  2  0  0  0
 57 58  2  0  0  0
 57129  1  0  0  0
 58130  1  0  0  0
 59 60  1  0  0  0
 59 61  1  0  0  0
 59 62  1  0  0  0
 60131  1  0  0  0
 60132  1  0  0  0
 60133  1  0  0  0
 61134  1  0  0  0
 61135  1  0  0  0
 61136  1  0  0  0
 62137  1  0  0  0
 62138  1  0  0  0
 62139  1  0  0  0
 63 65  1  0  0  0
 63140  1  0  0  0
 63141  1  0  0  0
 63142  1  0  0  0
 64143  1  0  0  0
 65144  1  0  0  0
 68 81  1  0  0  0
 71 73  2  0  0  0
 71 75  1  0  0  0
 71145  1  0  0  0
 72 74  1  0  0  0
 72 75  2  0  0  0
 72146  1  0  0  0
 73 76  1  0  0  0
 73147  1  0  0  0
 74 76  2  0  0  0
 74148  1  0  0  0
 75 83  1  0  0  0
 76 84  1  0  0  0
 77 78  1  0  0  0
 77 79  1  0  0  0
 77 81  2  0  0  0
 78 80  2  0  0  0
 78 82  1  0  0  0
 79 83  1  0  0  0
 79 85  2  0  0  0
 80149  1  0  0  0
 80150  1  0  0  0
 81151  1  0  0  0
 82 83  1  0  0  0
 82152  1  0  0  0
 82153  1  0  0  0
 84154  1  0  0  0
M  ISO  4   1 100  68 101  81 101  84 100
M  END
> <chiral flag>
0

> <version>
0

> <s_m_source_file>
/data/baiqing/PycharmProjects/Reinvent-master-3.2/result/LINK_invent/BTK/process_docking_weight1_custom_product_contain_oxygen_bond_distance_aromatic_linkinvent_7_9_3/rearranged_h_0081.sdf

> <i_m_source_file_index>
35

> <r_mmod_Potential_Energy-OPLS-2005>
213.749710083008

> <r_mmod_Stretch_Energy-OPLS-2005>
94.9645385742188

> <r_mmod_Bend_Energy-OPLS-2005>
196.454376220703

> <r_mmod_Torsional_Energy-OPLS-2005>
246.572250366211

> <r_mmod_Improper_Torsional_Energy-OPLS-2005>
3.60927796363831

> <r_mmod_Van_der_Waal_Energy-OPLS-2005>
143.749618530273

> <r_mmod_Electrostatic_Energy-OPLS-2005>
-326.163909912109

> <r_mmod_Solvation_Energy-OPLS-2005>
-208.378356933594

> <b_mmod_Minimization_Converged-OPLS-2005>
0

> <r_mmod_RMS_Derivative-OPLS-2005>
0.686327934265137

$$$$
35
                    3D
 Structure written by MMmdl.
152161  0  0  1  0            999 V2000
  -30.5101  -14.9204   20.4492 C   0  0  0  0  0  0
  -30.4511  -12.5689   19.4948 C   0  0  0  0  0  0
  -29.5250  -12.5377   18.2548 C   0  0  0  0  0  0
  -28.0555  -12.3228   18.6662 C   0  0  0  0  0  0
  -27.6369  -13.2373   19.8462 C   0  0  2  0  0  0
  -28.6793  -13.2199   20.9854 C   0  0  0  0  0  0
  -25.2510  -13.8191   20.5697 C   0  0  0  0  0  0
  -24.1817  -13.0442   20.9234 C   0  0  0  0  0  0
  -24.6399  -11.6920   20.8751 C   0  0  0  0  0  0
  -23.9071  -10.4296   21.0411 C   0  0  0  0  0  0
  -24.3614   -9.4207   21.9188 C   0  0  0  0  0  0
  -23.6293   -8.2244   22.0747 C   0  0  0  0  0  0
  -22.4282   -8.0281   21.3530 C   0  0  0  0  0  0
  -21.9907   -9.0257   20.4635 C   0  0  0  0  0  0
  -22.7232  -10.2146   20.3060 C   0  0  0  0  0  0
  -21.6857   -6.0744   22.5279 C   0  0  0  0  0  0
  -21.4015   -6.5652   23.8210 C   0  0  0  0  0  0
  -21.3653   -5.6797   24.9168 C   0  0  0  0  0  0
  -21.6042   -4.3059   24.7222 C   0  0  0  0  0  0
  -21.8818   -3.8153   23.4341 C   0  0  0  0  0  0
  -21.9186   -4.6969   22.3394 C   0  0  0  0  0  0
  -22.7835  -13.5231   21.1877 C   0  0  0  0  0  0
  -22.1665   -4.2155   21.0973 F   0  0  0  0  0  0
  -21.5604   -3.4544   25.7736 F   0  0  0  0  0  0
  -29.9637  -13.6411   20.4058 N   0  0  0  0  0  0
  -26.2919  -12.9394   20.3239 N   0  0  0  0  0  0
  -25.9334  -11.6542   20.5744 N   0  0  0  0  0  0
  -22.0464  -12.8227   22.0432 N   0  0  0  0  0  0
  -25.4198  -15.1912   20.4068 N   0  0  0  0  0  0
  -31.7005  -15.0572   20.1416 O   0  0  0  0  0  0
  -21.6643   -6.8887   21.4243 O   0  0  0  0  0  0
  -22.3528  -14.5535   20.6714 O   0  0  0  0  0  0
  -24.6436  -31.8445   23.1897 C   0  0  0  0  0  0
  -25.9205  -32.4692   23.8288 C   0  0  1  0  0  0
  -27.2200  -27.1355   20.1580 C   0  0  0  0  0  0
  -25.5957  -33.8497   24.2204 N   0  0  0  0  0  0
  -23.4485  -30.4650   21.5337 C   0  0  2  0  0  0
  -24.9002  -28.8948   20.1117 C   0  0  0  0  0  0
  -22.7567  -29.4545   22.4836 C   0  0  0  0  0  0
  -18.0311  -28.1384   22.8473 C   0  0  0  0  0  0
  -24.1494  -36.7255   23.2643 C   0  0  0  0  0  0
  -26.0058  -30.7192   21.3896 C   0  0  0  0  0  0
  -26.0787  -29.3309   20.7308 C   0  0  0  0  0  0
  -27.2402  -28.4686   20.7376 C   0  0  0  0  0  0
  -26.0146  -26.8070   19.4957 C   0  0  0  0  0  0
  -24.8810  -27.6447   19.4794 C   0  0  0  0  0  0
  -23.6776  -29.7977   20.1526 C   0  0  0  0  0  0
  -25.4127  -36.3029   24.0316 C   0  0  1  0  0  0
  -20.5924  -28.3718   23.1218 C   0  0  2  0  0  0
  -20.6788  -26.9415   22.5390 C   0  0  0  0  0  0
  -19.5762  -26.6367   21.5196 C   0  0  0  0  0  0
  -18.1951  -26.7917   22.1621 C   0  0  0  0  0  0
  -19.1568  -28.8869   23.2841 C   0  0  0  0  0  0
  -18.9480  -30.1458   23.8879 C   0  0  0  0  0  0
  -17.6478  -30.6577   24.0556 C   0  0  0  0  0  0
  -25.9071  -34.9402   23.5069 C   0  0  0  0  0  0
  -16.5371  -29.9072   23.6325 C   0  0  0  0  0  0
  -16.7295  -28.6486   23.0357 C   0  0  0  0  0  0
  -26.4526  -31.6549   25.0726 C   0  0  0  0  0  0
  -25.3713  -31.3745   26.1425 C   0  0  0  0  0  0
  -27.0391  -30.2943   24.6303 C   0  0  0  0  0  0
  -27.6054  -32.4322   25.7510 C   0  0  0  0  0  0
  -27.5568  -37.1797   24.8470 C   0  0  0  0  0  0
  -21.4260  -29.3050   22.3590 N   0  0  0  0  0  0
  -26.4296  -37.3732   23.9389 N   0  0  0  0  0  0
  -24.7189  -31.0307   22.0927 N   0  0  0  0  0  0
  -23.4209  -28.8092   23.2989 O   0  0  0  0  0  0
  -28.2586  -26.1318   20.2391 O   0  0  0  0  0  0
  -26.5650  -34.8894   22.4640 O   0  0  0  0  0  0
  -23.5551  -32.1324   23.7109 O   0  0  0  0  0  0
  -30.3547  -19.9912   20.4910 C   0  0  0  0  0  0
  -30.5953  -18.5404   20.5364 C   0  0  0  0  0  0
  -28.2584  -18.1548   20.5563 C   0  0  0  0  0  0
  -28.0366  -19.5811   20.5028 C   0  0  0  0  0  0
  -29.0367  -20.5722   20.4674 C   0  0  0  0  0  0
  -29.5540  -17.5352   20.5694 C   0  0  0  0  0  0
  -28.8964  -23.3285   20.3636 C   0  0  0  0  0  0
  -26.6861  -20.2417   20.4767 C   0  0  0  0  0  0
  -26.9707  -21.7677   20.4112 C   0  0  0  0  0  0
  -27.8800  -24.6232   20.1135 C   0  0  0  0  0  0
  -28.4316  -21.9749   20.4016 N   0  0  0  0  0  0
  -29.6279  -16.0062   20.6718 N   0  0  0  0  0  0
  -30.1009  -23.5697   20.4995 O   0  0  0  0  0  0
  -31.4825  -12.7434   19.1856 H   0  0  0  0  0  0
  -30.4488  -11.6037   20.0046 H   0  0  0  0  0  0
  -29.8376  -11.7521   17.5658 H   0  0  0  0  0  0
  -29.6169  -13.4780   17.7070 H   0  0  0  0  0  0
  -27.9441  -11.2756   18.9526 H   0  0  0  0  0  0
  -27.3951  -12.4778   17.8122 H   0  0  0  0  0  0
  -27.6108  -14.2481   19.4389 H   0  0  0  0  0  0
  -28.7592  -12.2258   21.4280 H   0  0  0  0  0  0
  -28.3788  -13.8903   21.7925 H   0  0  0  0  0  0
  -25.2752   -9.5690   22.4778 H   0  0  0  0  0  0
  -23.9984   -7.4646   22.7483 H   0  0  0  0  0  0
  -21.0819   -8.8796   19.8954 H   0  0  0  0  0  0
  -22.3679  -10.9702   19.6190 H   0  0  0  0  0  0
  -21.2036   -7.6165   23.9722 H   0  0  0  0  0  0
  -21.1463   -6.0527   25.9071 H   0  0  0  0  0  0
  -22.0601   -2.7613   23.2843 H   0  0  0  0  0  0
  -22.4070  -11.9887   22.4818 H   0  0  0  0  0  0
  -21.1086  -13.1270   22.2640 H   0  0  0  0  0  0
  -24.6399  -15.8341   20.4932 H   0  0  0  0  0  0
  -26.2325  -15.6110   19.9770 H   0  0  0  0  0  0
  -26.7277  -32.5305   23.1022 H   0  0  0  0  0  0
  -25.0079  -33.9616   25.0336 H   0  0  0  0  0  0
  -22.7506  -31.2913   21.3796 H   0  0  0  0  0  0
  -23.3724  -35.9623   23.3354 H   0  0  0  0  0  0
  -24.3561  -36.8826   22.2043 H   0  0  0  0  0  0
  -23.7296  -37.6490   23.6641 H   0  0  0  0  0  0
  -26.1633  -31.4740   20.6186 H   0  0  0  0  0  0
  -26.8752  -30.7693   22.0329 H   0  0  0  0  0  0
  -28.1346  -28.7970   21.2483 H   0  0  0  0  0  0
  -25.9003  -25.8556   19.0005 H   0  0  0  0  0  0
  -23.9813  -27.3030   18.9859 H   0  0  0  0  0  0
  -23.8196  -30.5757   19.4014 H   0  0  0  0  0  0
  -22.7920  -29.2441   19.8352 H   0  0  0  0  0  0
  -25.1316  -36.1869   25.0809 H   0  0  0  0  0  0
  -21.0024  -28.3309   24.1336 H   0  0  0  0  0  0
  -20.5654  -26.2335   23.3612 H   0  0  0  0  0  0
  -21.6657  -26.7400   22.1209 H   0  0  0  0  0  0
  -19.6928  -25.6273   21.1234 H   0  0  0  0  0  0
  -19.6697  -27.3161   20.6712 H   0  0  0  0  0  0
  -17.4212  -26.6648   21.4033 H   0  0  0  0  0  0
  -18.0373  -26.0061   22.9024 H   0  0  0  0  0  0
  -19.7959  -30.7271   24.2246 H   0  0  0  0  0  0
  -17.5032  -31.6253   24.5162 H   0  0  0  0  0  0
  -15.5372  -30.2973   23.7645 H   0  0  0  0  0  0
  -15.8694  -28.0787   22.7100 H   0  0  0  0  0  0
  -24.5897  -30.7081   25.7757 H   0  0  0  0  0  0
  -24.8902  -32.2929   26.4797 H   0  0  0  0  0  0
  -25.8000  -30.8957   27.0236 H   0  0  0  0  0  0
  -26.3011  -29.6663   24.1296 H   0  0  0  0  0  0
  -27.3988  -29.7244   25.4878 H   0  0  0  0  0  0
  -27.8926  -30.4177   23.9636 H   0  0  0  0  0  0
  -27.2630  -33.3621   26.2060 H   0  0  0  0  0  0
  -28.3875  -32.6878   25.0351 H   0  0  0  0  0  0
  -28.0707  -31.8471   26.5450 H   0  0  0  0  0  0
  -28.2617  -38.0059   24.7441 H   0  0  0  0  0  0
  -28.1032  -36.2583   24.6393 H   0  0  0  0  0  0
  -27.2269  -37.1557   25.8872 H   0  0  0  0  0  0
  -20.9466  -29.8783   21.6787 H   0  0  0  0  0  0
  -26.0162  -38.2808   24.1350 H   0  0  0  0  0  0
  -31.2073  -20.6552   20.4781 H   0  0  0  0  0  0
  -31.6223  -18.2029   20.5608 H   0  0  0  0  0  0
  -27.3851  -17.5187   20.5897 H   0  0  0  0  0  0
  -26.1226  -19.9795   21.3741 H   0  0  0  0  0  0
  -26.1168  -19.9043   19.6099 H   0  0  0  0  0  0
  -26.5264  -22.2553   21.2800 H   0  0  0  0  0  0
  -26.5134  -22.1968   19.5187 H   0  0  0  0  0  0
  -27.0104  -24.4711   20.7530 H   0  0  0  0  0  0
  -27.5372  -24.4752   19.0901 H   0  0  0  0  0  0
  -28.7215  -15.6180   20.8851 H   0  0  0  0  0  0
  1 25  1  0  0  0
  1 30  2  0  0  0
  1 82  1  0  0  0
  2  3  1  0  0  0
  2 25  1  0  0  0
  2 84  1  0  0  0
  2 85  1  0  0  0
  3  4  1  0  0  0
  3 86  1  0  0  0
  3 87  1  0  0  0
  4  5  1  0  0  0
  4 88  1  0  0  0
  4 89  1  0  0  0
  5  6  1  0  0  0
  5 26  1  0  0  0
  5 90  1  0  0  0
  6 25  1  0  0  0
  6 91  1  0  0  0
  6 92  1  0  0  0
  7  8  2  0  0  0
  7 26  1  0  0  0
  7 29  1  0  0  0
  8  9  1  0  0  0
  8 22  1  0  0  0
  9 10  1  0  0  0
  9 27  2  0  0  0
 10 11  2  0  0  0
 10 15  1  0  0  0
 11 12  1  0  0  0
 11 93  1  0  0  0
 12 13  2  0  0  0
 12 94  1  0  0  0
 13 14  1  0  0  0
 13 31  1  0  0  0
 14 15  2  0  0  0
 14 95  1  0  0  0
 15 96  1  0  0  0
 16 17  2  0  0  0
 16 21  1  0  0  0
 16 31  1  0  0  0
 17 18  1  0  0  0
 17 97  1  0  0  0
 18 19  2  0  0  0
 18 98  1  0  0  0
 19 20  1  0  0  0
 19 24  1  0  0  0
 20 21  2  0  0  0
 20 99  1  0  0  0
 21 23  1  0  0  0
 22 28  1  0  0  0
 22 32  2  0  0  0
 26 27  1  0  0  0
 28100  1  0  0  0
 28101  1  0  0  0
 29102  1  0  0  0
 29103  1  0  0  0
 33 34  1  0  0  0
 33 66  1  0  0  0
 33 70  2  0  0  0
 34 36  1  0  0  0
 34 59  1  0  0  0
 34104  1  0  0  0
 35 44  2  0  0  0
 35 45  1  0  0  0
 35 68  1  0  0  0
 36 56  1  0  0  0
 36105  1  0  0  0
 37 39  1  0  0  0
 37 47  1  0  0  0
 37 66  1  0  0  0
 37106  1  0  0  0
 38 43  2  0  0  0
 38 46  1  0  0  0
 38 47  1  0  0  0
 39 64  1  0  0  0
 39 67  2  0  0  0
 40 52  1  0  0  0
 40 53  2  0  0  0
 40 58  1  0  0  0
 41107  1  0  0  0
 41108  1  0  0  0
 41109  1  0  0  0
 41 48  1  0  0  0
 42 43  1  0  0  0
 42 66  1  0  0  0
 42110  1  0  0  0
 42111  1  0  0  0
 43 44  1  0  0  0
 44112  1  0  0  0
 45 46  2  0  0  0
 45113  1  0  0  0
 46114  1  0  0  0
 47115  1  0  0  0
 47116  1  0  0  0
 48 56  1  0  0  0
 48 65  1  0  0  0
 48117  1  0  0  0
 49 50  1  0  0  0
 49 53  1  0  0  0
 49 64  1  0  0  0
 49118  1  0  0  0
 50 51  1  0  0  0
 50119  1  0  0  0
 50120  1  0  0  0
 51 52  1  0  0  0
 51121  1  0  0  0
 51122  1  0  0  0
 52123  1  0  0  0
 52124  1  0  0  0
 53 54  1  0  0  0
 54 55  2  0  0  0
 54125  1  0  0  0
 55 57  1  0  0  0
 55126  1  0  0  0
 56 69  2  0  0  0
 57 58  2  0  0  0
 57127  1  0  0  0
 58128  1  0  0  0
 59 60  1  0  0  0
 59 61  1  0  0  0
 59 62  1  0  0  0
 60129  1  0  0  0
 60130  1  0  0  0
 60131  1  0  0  0
 61132  1  0  0  0
 61133  1  0  0  0
 61134  1  0  0  0
 62135  1  0  0  0
 62136  1  0  0  0
 62137  1  0  0  0
 63 65  1  0  0  0
 63138  1  0  0  0
 63139  1  0  0  0
 63140  1  0  0  0
 64141  1  0  0  0
 65142  1  0  0  0
 68 80  1  0  0  0
 71 72  2  0  0  0
 71 75  1  0  0  0
 71143  1  0  0  0
 72 76  1  0  0  0
 72144  1  0  0  0
 73 74  1  0  0  0
 73 76  2  0  0  0
 73145  1  0  0  0
 74 75  2  0  0  0
 74 78  1  0  0  0
 75 81  1  0  0  0
 76 82  1  0  0  0
 77 80  1  0  0  0
 77 81  1  0  0  0
 77 83  2  0  0  0
 78 79  1  0  0  0
 78146  1  0  0  0
 78147  1  0  0  0
 79 81  1  0  0  0
 79148  1  0  0  0
 79149  1  0  0  0
 80150  1  0  0  0
 80151  1  0  0  0
 82152  1  0  0  0
M  ISO  4   1 100  68 101  80 101  82 100
M  END
> <chiral flag>
0

> <version>
0

> <s_m_source_file>
/data/baiqing/PycharmProjects/Reinvent-master-3.2/result/LINK_invent/BTK/process_docking_weight1_custom_product_contain_oxygen_bond_distance_aromatic_linkinvent_7_9_3/rearranged_h_0081.sdf

> <i_m_source_file_index>
36

> <r_mmod_Potential_Energy-OPLS-2005>
561.807312011719

> <r_mmod_Stretch_Energy-OPLS-2005>
227.751708984375

> <r_mmod_Bend_Energy-OPLS-2005>
318.708404541016

> <r_mmod_Torsional_Energy-OPLS-2005>
254.939788818359

> <r_mmod_Improper_Torsional_Energy-OPLS-2005>
4.67992830276489

> <r_mmod_Van_der_Waal_Energy-OPLS-2005>
128.686401367188

> <r_mmod_Electrostatic_Energy-OPLS-2005>
-319.160461425781

> <r_mmod_Solvation_Energy-OPLS-2005>
-240.119125366211

> <b_mmod_Minimization_Converged-OPLS-2005>
0

> <r_mmod_RMS_Derivative-OPLS-2005>
1.77582001686096

$$$$
36
                    3D
 Structure written by MMmdl.
150159  0  0  1  0            999 V2000
  -30.5685  -14.7424   20.4852 C   0  0  0  0  0  0
  -30.4511  -12.4558   19.4667 C   0  0  0  0  0  0
  -29.5165  -12.5188   18.2354 C   0  0  0  0  0  0
  -28.0413  -12.3378   18.6472 C   0  0  0  0  0  0
  -27.6514  -13.2208   19.8617 C   0  0  2  0  0  0
  -28.6967  -13.1050   20.9940 C   0  0  0  0  0  0
  -25.2558  -13.8172   20.5689 C   0  0  0  0  0  0
  -24.1828  -13.0436   20.9197 C   0  0  0  0  0  0
  -24.6402  -11.6908   20.8741 C   0  0  0  0  0  0
  -23.9069  -10.4291   21.0407 C   0  0  0  0  0  0
  -24.3619   -9.4205   21.9183 C   0  0  0  0  0  0
  -23.6293   -8.2242   22.0753 C   0  0  0  0  0  0
  -22.4275   -8.0281   21.3544 C   0  0  0  0  0  0
  -21.9911   -9.0256   20.4648 C   0  0  0  0  0  0
  -22.7240  -10.2135   20.3057 C   0  0  0  0  0  0
  -21.6852   -6.0735   22.5279 C   0  0  0  0  0  0
  -21.4013   -6.5638   23.8212 C   0  0  0  0  0  0
  -21.3661   -5.6792   24.9175 C   0  0  0  0  0  0
  -21.6044   -4.3055   24.7226 C   0  0  0  0  0  0
  -21.8820   -3.8146   23.4348 C   0  0  0  0  0  0
  -21.9194   -4.6962   22.3403 C   0  0  0  0  0  0
  -22.7850  -13.5228   21.1859 C   0  0  0  0  0  0
  -22.1662   -4.2147   21.0981 F   0  0  0  0  0  0
  -21.5631   -3.4540   25.7739 F   0  0  0  0  0  0
  -30.0024  -13.4862   20.4306 N   0  0  0  0  0  0
  -26.2984  -12.9356   20.3312 N   0  0  0  0  0  0
  -25.9332  -11.6510   20.5754 N   0  0  0  0  0  0
  -22.0494  -12.8220   22.0416 N   0  0  0  0  0  0
  -25.4273  -15.1895   20.4100 N   0  0  0  0  0  0
  -31.7262  -14.9243   20.0934 O   0  0  0  0  0  0
  -21.6641   -6.8877   21.4240 O   0  0  0  0  0  0
  -22.3535  -14.5535   20.6705 O   0  0  0  0  0  0
  -24.6313  -31.8551   23.1983 C   0  0  0  0  0  0
  -25.9135  -32.4756   23.8333 C   0  0  1  0  0  0
  -27.2249  -27.2672   20.1291 C   0  0  0  0  0  0
  -25.5927  -33.8559   24.2254 N   0  0  0  0  0  0
  -23.4298  -30.4767   21.5413 C   0  0  2  0  0  0
  -24.8811  -28.9258   20.1087 C   0  0  0  0  0  0
  -22.7509  -29.4597   22.4906 C   0  0  0  0  0  0
  -18.0294  -28.1384   22.8486 C   0  0  0  0  0  0
  -24.1490  -36.7287   23.2640 C   0  0  0  0  0  0
  -25.9760  -30.7685   21.3802 C   0  0  0  0  0  0
  -26.0525  -29.3914   20.7220 C   0  0  0  0  0  0
  -27.2300  -28.5734   20.7249 C   0  0  0  0  0  0
  -26.0355  -26.8731   19.4795 C   0  0  0  0  0  0
  -24.8770  -27.6736   19.4759 C   0  0  0  0  0  0
  -23.6498  -29.8106   20.1575 C   0  0  0  0  0  0
  -25.4117  -36.3072   24.0325 C   0  0  1  0  0  0
  -20.5900  -28.3699   23.1264 C   0  0  2  0  0  0
  -20.6780  -26.9416   22.5406 C   0  0  0  0  0  0
  -19.5754  -26.6381   21.5212 C   0  0  0  0  0  0
  -18.1937  -26.7924   22.1630 C   0  0  0  0  0  0
  -19.1549  -28.8859   23.2870 C   0  0  0  0  0  0
  -18.9469  -30.1459   23.8888 C   0  0  0  0  0  0
  -17.6468  -30.6587   24.0562 C   0  0  0  0  0  0
  -25.9054  -34.9442   23.5094 C   0  0  0  0  0  0
  -16.5359  -29.9084   23.6331 C   0  0  0  0  0  0
  -16.7280  -28.6501   23.0354 C   0  0  0  0  0  0
  -26.4500  -31.6581   25.0723 C   0  0  0  0  0  0
  -25.3721  -31.3739   26.1442 C   0  0  0  0  0  0
  -27.0350  -30.2994   24.6218 C   0  0  0  0  0  0
  -27.6046  -32.4328   25.7500 C   0  0  0  0  0  0
  -27.5578  -37.1801   24.8467 C   0  0  0  0  0  0
  -21.4214  -29.3046   22.3651 N   0  0  0  0  0  0
  -26.4293  -37.3769   23.9405 N   0  0  0  0  0  0
  -24.6978  -31.0511   22.0963 N   0  0  0  0  0  0
  -23.4203  -28.8138   23.3011 O   0  0  0  0  0  0
  -28.2747  -26.3196   20.1796 O   0  0  0  0  0  0
  -26.5633  -34.8915   22.4667 O   0  0  0  0  0  0
  -23.5460  -32.1373   23.7272 O   0  0  0  0  0  0
  -28.4029  -19.3345   21.3720 C   0  0  0  0  0  0
  -30.2787  -19.5677   19.9757 C   0  0  0  0  0  0
  -28.6085  -17.9214   21.4327 C   0  0  0  0  0  0
  -30.5100  -18.1383   20.0304 C   0  0  0  0  0  0
  -29.2087  -20.2590   20.6419 C   0  0  0  0  0  0
  -29.6683  -17.2520   20.7675 C   0  0  0  0  0  0
  -28.4293  -23.7432   20.6065 C   0  0  0  0  0  0
  -27.9214  -22.5499   21.2755 C   0  0  0  0  0  0
  -27.9438  -25.0462   20.7318 C   0  0  0  0  0  0
  -29.4924  -22.8480   19.8987 C   0  0  0  0  0  0
  -28.8783  -21.7167   20.6595 N   0  0  0  0  0  0
  -29.7251  -15.7689   20.8757 N   0  0  0  0  0  0
  -27.0000  -22.4088   22.0534 O   0  0  0  0  0  0
  -31.4873  -12.6094   19.1601 H   0  0  0  0  0  0
  -30.4196  -11.4667   19.9265 H   0  0  0  0  0  0
  -29.7978  -11.7551   17.5089 H   0  0  0  0  0  0
  -29.6389  -13.4788   17.7316 H   0  0  0  0  0  0
  -27.8959  -11.2860   18.8961 H   0  0  0  0  0  0
  -27.3834  -12.5432   17.8020 H   0  0  0  0  0  0
  -27.6590  -14.2507   19.5044 H   0  0  0  0  0  0
  -28.7336  -12.0849   21.3792 H   0  0  0  0  0  0
  -28.4235  -13.7320   21.8440 H   0  0  0  0  0  0
  -25.2765   -9.5679   22.4756 H   0  0  0  0  0  0
  -24.0002   -7.4632   22.7472 H   0  0  0  0  0  0
  -21.0841   -8.8775   19.8954 H   0  0  0  0  0  0
  -22.3699  -10.9675   19.6168 H   0  0  0  0  0  0
  -21.2003   -7.6146   23.9714 H   0  0  0  0  0  0
  -21.1482   -6.0523   25.9077 H   0  0  0  0  0  0
  -22.0598   -2.7608   23.2849 H   0  0  0  0  0  0
  -22.4112  -11.9883   22.4805 H   0  0  0  0  0  0
  -21.1112  -13.1244   22.2625 H   0  0  0  0  0  0
  -24.6575  -15.8417   20.5130 H   0  0  0  0  0  0
  -26.2695  -15.6261   20.0572 H   0  0  0  0  0  0
  -26.7203  -32.5413   23.1078 H   0  0  0  0  0  0
  -25.0056  -33.9694   25.0388 H   0  0  0  0  0  0
  -22.7267  -31.2991   21.3942 H   0  0  0  0  0  0
  -23.3748  -35.9624   23.3310 H   0  0  0  0  0  0
  -24.3576  -36.8903   22.2053 H   0  0  0  0  0  0
  -23.7250  -37.6493   23.6660 H   0  0  0  0  0  0
  -26.1151  -31.5291   20.6108 H   0  0  0  0  0  0
  -26.8527  -30.8178   22.0143 H   0  0  0  0  0  0
  -28.1239  -28.9182   21.2254 H   0  0  0  0  0  0
  -25.9908  -25.9067   18.9974 H   0  0  0  0  0  0
  -23.9817  -27.3114   18.9890 H   0  0  0  0  0  0
  -23.7723  -30.5871   19.4016 H   0  0  0  0  0  0
  -22.7691  -29.2423   19.8529 H   0  0  0  0  0  0
  -25.1300  -36.1921   25.0818 H   0  0  0  0  0  0
  -20.9994  -28.3279   24.1384 H   0  0  0  0  0  0
  -20.5679  -26.2312   23.3613 H   0  0  0  0  0  0
  -21.6647  -26.7435   22.1201 H   0  0  0  0  0  0
  -19.6917  -25.6289   21.1246 H   0  0  0  0  0  0
  -19.6687  -27.3188   20.6739 H   0  0  0  0  0  0
  -17.4203  -26.6666   21.4037 H   0  0  0  0  0  0
  -18.0347  -26.0068   22.9029 H   0  0  0  0  0  0
  -19.7945  -30.7279   24.2251 H   0  0  0  0  0  0
  -17.5022  -31.6265   24.5167 H   0  0  0  0  0  0
  -15.5359  -30.2985   23.7655 H   0  0  0  0  0  0
  -15.8682  -28.0815   22.7074 H   0  0  0  0  0  0
  -24.5878  -30.7113   25.7763 H   0  0  0  0  0  0
  -24.8937  -32.2916   26.4871 H   0  0  0  0  0  0
  -25.8026  -30.8900   27.0217 H   0  0  0  0  0  0
  -26.2939  -29.6739   24.1226 H   0  0  0  0  0  0
  -27.4008  -29.7259   25.4745 H   0  0  0  0  0  0
  -27.8828  -30.4263   23.9482 H   0  0  0  0  0  0
  -27.2638  -33.3623   26.2072 H   0  0  0  0  0  0
  -28.3859  -32.6897   25.0335 H   0  0  0  0  0  0
  -28.0713  -31.8462   26.5425 H   0  0  0  0  0  0
  -28.2602  -38.0091   24.7498 H   0  0  0  0  0  0
  -28.1067  -36.2621   24.6314 H   0  0  0  0  0  0
  -27.2292  -37.1474   25.8869 H   0  0  0  0  0  0
  -20.9401  -29.8772   21.6857 H   0  0  0  0  0  0
  -26.0174  -38.2846   24.1392 H   0  0  0  0  0  0
  -27.5585  -19.7204   21.9252 H   0  0  0  0  0  0
  -30.9661  -20.1570   19.3856 H   0  0  0  0  0  0
  -27.9079  -17.3412   22.0169 H   0  0  0  0  0  0
  -31.3442  -17.7292   19.4781 H   0  0  0  0  0  0
  -27.1101  -25.1709   21.4114 H   0  0  0  0  0  0
  -30.5386  -22.9973   20.1702 H   0  0  0  0  0  0
  -29.3951  -22.7088   18.8208 H   0  0  0  0  0  0
  -28.8810  -15.3792   21.2665 H   0  0  0  0  0  0
  1 25  1  0  0  0
  1 30  2  0  0  0
  1 82  1  0  0  0
  2  3  1  0  0  0
  2 25  1  0  0  0
  2 84  1  0  0  0
  2 85  1  0  0  0
  3  4  1  0  0  0
  3 86  1  0  0  0
  3 87  1  0  0  0
  4  5  1  0  0  0
  4 88  1  0  0  0
  4 89  1  0  0  0
  5  6  1  0  0  0
  5 26  1  0  0  0
  5 90  1  0  0  0
  6 25  1  0  0  0
  6 91  1  0  0  0
  6 92  1  0  0  0
  7  8  2  0  0  0
  7 26  1  0  0  0
  7 29  1  0  0  0
  8  9  1  0  0  0
  8 22  1  0  0  0
  9 10  1  0  0  0
  9 27  2  0  0  0
 10 11  2  0  0  0
 10 15  1  0  0  0
 11 12  1  0  0  0
 11 93  1  0  0  0
 12 13  2  0  0  0
 12 94  1  0  0  0
 13 14  1  0  0  0
 13 31  1  0  0  0
 14 15  2  0  0  0
 14 95  1  0  0  0
 15 96  1  0  0  0
 16 17  2  0  0  0
 16 21  1  0  0  0
 16 31  1  0  0  0
 17 18  1  0  0  0
 17 97  1  0  0  0
 18 19  2  0  0  0
 18 98  1  0  0  0
 19 20  1  0  0  0
 19 24  1  0  0  0
 20 21  2  0  0  0
 20 99  1  0  0  0
 21 23  1  0  0  0
 22 28  1  0  0  0
 22 32  2  0  0  0
 26 27  1  0  0  0
 28100  1  0  0  0
 28101  1  0  0  0
 29102  1  0  0  0
 29103  1  0  0  0
 33 34  1  0  0  0
 33 66  1  0  0  0
 33 70  2  0  0  0
 34 36  1  0  0  0
 34 59  1  0  0  0
 34104  1  0  0  0
 35 44  2  0  0  0
 35 45  1  0  0  0
 35 68  1  0  0  0
 36 56  1  0  0  0
 36105  1  0  0  0
 37 39  1  0  0  0
 37 47  1  0  0  0
 37 66  1  0  0  0
 37106  1  0  0  0
 38 43  2  0  0  0
 38 46  1  0  0  0
 38 47  1  0  0  0
 39 64  1  0  0  0
 39 67  2  0  0  0
 40 52  1  0  0  0
 40 53  2  0  0  0
 40 58  1  0  0  0
 41107  1  0  0  0
 41108  1  0  0  0
 41109  1  0  0  0
 41 48  1  0  0  0
 42 43  1  0  0  0
 42 66  1  0  0  0
 42110  1  0  0  0
 42111  1  0  0  0
 43 44  1  0  0  0
 44112  1  0  0  0
 45 46  2  0  0  0
 45113  1  0  0  0
 46114  1  0  0  0
 47115  1  0  0  0
 47116  1  0  0  0
 48 56  1  0  0  0
 48 65  1  0  0  0
 48117  1  0  0  0
 49 50  1  0  0  0
 49 53  1  0  0  0
 49 64  1  0  0  0
 49118  1  0  0  0
 50 51  1  0  0  0
 50119  1  0  0  0
 50120  1  0  0  0
 51 52  1  0  0  0
 51121  1  0  0  0
 51122  1  0  0  0
 52123  1  0  0  0
 52124  1  0  0  0
 53 54  1  0  0  0
 54 55  2  0  0  0
 54125  1  0  0  0
 55 57  1  0  0  0
 55126  1  0  0  0
 56 69  2  0  0  0
 57 58  2  0  0  0
 57127  1  0  0  0
 58128  1  0  0  0
 59 60  1  0  0  0
 59 61  1  0  0  0
 59 62  1  0  0  0
 60129  1  0  0  0
 60130  1  0  0  0
 60131  1  0  0  0
 61132  1  0  0  0
 61133  1  0  0  0
 61134  1  0  0  0
 62135  1  0  0  0
 62136  1  0  0  0
 62137  1  0  0  0
 63 65  1  0  0  0
 63138  1  0  0  0
 63139  1  0  0  0
 63140  1  0  0  0
 64141  1  0  0  0
 65142  1  0  0  0
 68 79  1  0  0  0
 71 73  2  0  0  0
 71 75  1  0  0  0
 71143  1  0  0  0
 72 74  1  0  0  0
 72 75  2  0  0  0
 72144  1  0  0  0
 73 76  1  0  0  0
 73145  1  0  0  0
 74 76  2  0  0  0
 74146  1  0  0  0
 75 81  1  0  0  0
 76 82  1  0  0  0
 77 78  1  0  0  0
 77 79  2  0  0  0
 77 80  1  0  0  0
 78 81  1  0  0  0
 78 83  2  0  0  0
 79147  1  0  0  0
 80 81  1  0  0  0
 80148  1  0  0  0
 80149  1  0  0  0
 82150  1  0  0  0
M  ISO  4   1 100  68 101  79 101  82 100
M  END
> <chiral flag>
0

> <version>
0

> <s_m_source_file>
/data/baiqing/PycharmProjects/Reinvent-master-3.2/result/LINK_invent/BTK/process_docking_weight1_custom_product_contain_oxygen_bond_distance_aromatic_linkinvent_7_9_3/rearranged_h_0081.sdf

> <i_m_source_file_index>
37

> <r_mmod_Potential_Energy-OPLS-2005>
216.110015869141

> <r_mmod_Stretch_Energy-OPLS-2005>
106.537666320801

> <r_mmod_Bend_Energy-OPLS-2005>
270.702850341797

> <r_mmod_Torsional_Energy-OPLS-2005>
219.89909362793

> <r_mmod_Improper_Torsional_Energy-OPLS-2005>
3.45828318595886

> <r_mmod_Van_der_Waal_Energy-OPLS-2005>
134.482055664062

> <r_mmod_Electrostatic_Energy-OPLS-2005>
-389.401977539062

> <r_mmod_Solvation_Energy-OPLS-2005>
-217.736526489258

> <b_mmod_Minimization_Converged-OPLS-2005>
0

> <r_mmod_RMS_Derivative-OPLS-2005>
0.385791778564453

$$$$
37
                    3D
 Structure written by MMmdl.
152161  0  0  1  0            999 V2000
  -30.4352  -15.1477   20.3954 C   0  0  0  0  0  0
  -30.4516  -12.7155   19.5394 C   0  0  0  0  0  0
  -29.5489  -12.5724   18.2872 C   0  0  0  0  0  0
  -28.0813  -12.3245   18.6882 C   0  0  0  0  0  0
  -27.6224  -13.2697   19.8284 C   0  0  2  0  0  0
  -28.6515  -13.3627   20.9715 C   0  0  0  0  0  0
  -25.2427  -13.8246   20.5719 C   0  0  0  0  0  0
  -24.1751  -13.0441   20.9195 C   0  0  0  0  0  0
  -24.6399  -11.6936   20.8714 C   0  0  0  0  0  0
  -23.9092  -10.4298   21.0379 C   0  0  0  0  0  0
  -24.3639   -9.4217   21.9172 C   0  0  0  0  0  0
  -23.6303   -8.2254   22.0761 C   0  0  0  0  0  0
  -22.4287   -8.0290   21.3545 C   0  0  0  0  0  0
  -21.9913   -9.0266   20.4651 C   0  0  0  0  0  0
  -22.7252  -10.2138   20.3042 C   0  0  0  0  0  0
  -21.6852   -6.0738   22.5272 C   0  0  0  0  0  0
  -21.4027   -6.5637   23.8209 C   0  0  0  0  0  0
  -21.3667   -5.6788   24.9167 C   0  0  0  0  0  0
  -21.6044   -4.3051   24.7218 C   0  0  0  0  0  0
  -21.8818   -3.8142   23.4338 C   0  0  0  0  0  0
  -21.9193   -4.6962   22.3395 C   0  0  0  0  0  0
  -22.7769  -13.5210   21.1853 C   0  0  0  0  0  0
  -22.1653   -4.2147   21.0970 F   0  0  0  0  0  0
  -21.5629   -3.4536   25.7731 F   0  0  0  0  0  0
  -29.9174  -13.8319   20.3893 N   0  0  0  0  0  0
  -26.2854  -12.9515   20.3170 N   0  0  0  0  0  0
  -25.9333  -11.6621   20.5644 N   0  0  0  0  0  0
  -22.0418  -12.8229   22.0429 N   0  0  0  0  0  0
  -25.4109  -15.1983   20.4274 N   0  0  0  0  0  0
  -31.6289  -15.2081   20.0834 O   0  0  0  0  0  0
  -21.6647   -6.8892   21.4239 O   0  0  0  0  0  0
  -22.3442  -14.5497   20.6674 O   0  0  0  0  0  0
  -24.6551  -31.8321   23.1767 C   0  0  0  0  0  0
  -25.9273  -32.4628   23.8208 C   0  0  1  0  0  0
  -27.2236  -27.0135   20.1555 C   0  0  0  0  0  0
  -25.5970  -33.8442   24.2120 N   0  0  0  0  0  0
  -23.4647  -30.4479   21.5234 C   0  0  2  0  0  0
  -24.9167  -28.8507   20.1068 C   0  0  0  0  0  0
  -22.7625  -29.4498   22.4795 C   0  0  0  0  0  0
  -18.0320  -28.1407   22.8464 C   0  0  0  0  0  0
  -24.1501  -36.7224   23.2646 C   0  0  0  0  0  0
  -26.0301  -30.6640   21.3960 C   0  0  0  0  0  0
  -26.0982  -29.2644   20.7337 C   0  0  0  0  0  0
  -27.2439  -28.3631   20.7411 C   0  0  0  0  0  0
  -26.0061  -26.7292   19.4961 C   0  0  0  0  0  0
  -24.8901  -27.5993   19.4722 C   0  0  0  0  0  0
  -23.7000  -29.7692   20.1466 C   0  0  0  0  0  0
  -25.4139  -36.2994   24.0308 C   0  0  1  0  0  0
  -20.5940  -28.3751   23.1197 C   0  0  2  0  0  0
  -20.6802  -26.9442   22.5399 C   0  0  0  0  0  0
  -19.5777  -26.6377   21.5211 C   0  0  0  0  0  0
  -18.1959  -26.7938   22.1615 C   0  0  0  0  0  0
  -19.1580  -28.8893   23.2820 C   0  0  0  0  0  0
  -18.9493  -30.1483   23.8860 C   0  0  0  0  0  0
  -17.6490  -30.6596   24.0555 C   0  0  0  0  0  0
  -25.9098  -34.9373   23.5035 C   0  0  0  0  0  0
  -16.5379  -29.9088   23.6340 C   0  0  0  0  0  0
  -16.7306  -28.6505   23.0358 C   0  0  0  0  0  0
  -26.4544  -31.6537   25.0704 C   0  0  0  0  0  0
  -25.3682  -31.3775   26.1368 C   0  0  0  0  0  0
  -27.0432  -30.2907   24.6397 C   0  0  0  0  0  0
  -27.6043  -32.4332   25.7504 C   0  0  0  0  0  0
  -27.5584  -37.1770   24.8464 C   0  0  0  0  0  0
  -21.4306  -29.3052   22.3550 N   0  0  0  0  0  0
  -26.4292  -37.3722   23.9410 N   0  0  0  0  0  0
  -24.7371  -31.0061   22.0857 N   0  0  0  0  0  0
  -23.4210  -28.8074   23.3008 O   0  0  0  0  0  0
  -28.2467  -25.9588   20.2879 O   0  0  0  0  0  0
  -26.5702  -34.8893   22.4627 O   0  0  0  0  0  0
  -23.5637  -32.1257   23.6901 O   0  0  0  0  0  0
  -30.5251  -21.2311   21.6964 C   0  0  0  0  0  0
  -29.2857  -20.7445   22.2308 C   0  0  0  0  0  0
  -30.3168  -21.0757   20.3487 C   0  0  0  0  0  0
  -28.6395  -20.3902   21.0759 C   0  0  0  0  0  0
  -30.8786  -19.8880   19.6342 C   0  0  0  0  0  0
  -30.7039  -18.5100   19.7005 C   0  0  0  0  0  0
  -29.6215  -17.7194   20.4096 C   0  0  0  0  0  0
  -27.9745  -24.3488   18.4879 C   0  0  0  0  0  0
  -28.2413  -24.5319   19.7912 C   0  0  0  0  0  0
  -28.4098  -18.8277   20.6569 C   0  0  1  0  0  0
  -28.6194  -23.1622   20.7143 C   0  0  0  0  0  0
  -29.5352  -16.3427   20.6437 N   0  0  0  0  0  0
  -28.9882  -21.5856   20.3061 N   0  0  0  0  0  0
  -27.5132  -18.2849   21.4841 F   0  0  0  0  0  0
  -31.4816  -12.8974   19.2305 H   0  0  0  0  0  0
  -30.4793  -11.7837   20.1072 H   0  0  0  0  0  0
  -29.9095  -11.7618   17.6524 H   0  0  0  0  0  0
  -29.6154  -13.4831   17.6887 H   0  0  0  0  0  0
  -27.9987  -11.2881   19.0164 H   0  0  0  0  0  0
  -27.4291  -12.4273   17.8198 H   0  0  0  0  0  0
  -27.5664  -14.2615   19.3766 H   0  0  0  0  0  0
  -28.7710  -12.4017   21.4744 H   0  0  0  0  0  0
  -28.3076  -14.0682   21.7293 H   0  0  0  0  0  0
  -25.2783   -9.5697   22.4755 H   0  0  0  0  0  0
  -23.9997   -7.4653   22.7504 H   0  0  0  0  0  0
  -21.0831   -8.8795   19.8968 H   0  0  0  0  0  0
  -22.3705  -10.9682   19.6150 H   0  0  0  0  0  0
  -21.2030   -7.6144   23.9714 H   0  0  0  0  0  0
  -21.1486   -6.0512   25.9070 H   0  0  0  0  0  0
  -22.0592   -2.7604   23.2828 H   0  0  0  0  0  0
  -22.4028  -11.9909   22.4859 H   0  0  0  0  0  0
  -21.1030  -13.1267   22.2612 H   0  0  0  0  0  0
  -24.6602  -15.8612   20.5866 H   0  0  0  0  0  0
  -26.2949  -15.6409   20.2067 H   0  0  0  0  0  0
  -26.7346  -32.5189   23.0931 H   0  0  0  0  0  0
  -25.0057  -33.9542   25.0227 H   0  0  0  0  0  0
  -22.7729  -31.2779   21.3605 H   0  0  0  0  0  0
  -23.3779  -35.9539   23.3273 H   0  0  0  0  0  0
  -24.3577  -36.8896   22.2065 H   0  0  0  0  0  0
  -23.7244  -37.6399   23.6713 H   0  0  0  0  0  0
  -26.2080  -31.4150   20.6248 H   0  0  0  0  0  0
  -26.8911  -30.7112   22.0513 H   0  0  0  0  0  0
  -28.1356  -28.6712   21.2676 H   0  0  0  0  0  0
  -25.8651  -25.7633   19.0371 H   0  0  0  0  0  0
  -23.9855  -27.2697   18.9791 H   0  0  0  0  0  0
  -23.8500  -30.5416   19.3923 H   0  0  0  0  0  0
  -22.8111  -29.2223   19.8280 H   0  0  0  0  0  0
  -25.1337  -36.1801   25.0801 H   0  0  0  0  0  0
  -21.0032  -28.3367   24.1318 H   0  0  0  0  0  0
  -20.5688  -26.2384   23.3640 H   0  0  0  0  0  0
  -21.6675  -26.7440   22.1211 H   0  0  0  0  0  0
  -19.6945  -25.6271   21.1278 H   0  0  0  0  0  0
  -19.6712  -27.3162   20.6718 H   0  0  0  0  0  0
  -17.4230  -26.6684   21.4010 H   0  0  0  0  0  0
  -18.0355  -26.0089   22.9022 H   0  0  0  0  0  0
  -19.7973  -30.7299   24.2216 H   0  0  0  0  0  0
  -17.5049  -31.6273   24.5166 H   0  0  0  0  0  0
  -15.5378  -30.2979   23.7677 H   0  0  0  0  0  0
  -15.8710  -28.0807   22.7099 H   0  0  0  0  0  0
  -24.5848  -30.7152   25.7658 H   0  0  0  0  0  0
  -24.8893  -32.2978   26.4717 H   0  0  0  0  0  0
  -25.7911  -30.8962   27.0196 H   0  0  0  0  0  0
  -26.3082  -29.6584   24.1398 H   0  0  0  0  0  0
  -27.3977  -29.7268   25.5038 H   0  0  0  0  0  0
  -27.9026  -30.4102   23.9796 H   0  0  0  0  0  0
  -27.2610  -33.3649   26.2018 H   0  0  0  0  0  0
  -28.3889  -32.6867   25.0359 H   0  0  0  0  0  0
  -28.0684  -31.8503   26.5475 H   0  0  0  0  0  0
  -28.2580  -38.0088   24.7526 H   0  0  0  0  0  0
  -28.1103  -36.2615   24.6274 H   0  0  0  0  0  0
  -27.2301  -37.1398   25.8866 H   0  0  0  0  0  0
  -20.9544  -29.8741   21.6695 H   0  0  0  0  0  0
  -26.0144  -38.2786   24.1399 H   0  0  0  0  0  0
  -31.4656  -21.1493   22.2248 H   0  0  0  0  0  0
  -29.2021  -20.2657   23.1965 H   0  0  0  0  0  0
  -31.7112  -20.1721   19.0064 H   0  0  0  0  0  0
  -31.3568  -17.8887   19.1064 H   0  0  0  0  0  0
  -27.7599  -25.1786   17.8302 H   0  0  0  0  0  0
  -27.9730  -23.3579   18.0550 H   0  0  0  0  0  0
  -27.8705  -18.8566   19.7103 H   0  0  0  0  0  0
  -27.7849  -23.0844   21.4113 H   0  0  0  0  0  0
  -29.4397  -23.5249   21.3331 H   0  0  0  0  0  0
  1 25  1  0  0  0
  1 30  2  0  0  0
  1 82  1  0  0  0
  2  3  1  0  0  0
  2 25  1  0  0  0
  2 85  1  0  0  0
  2 86  1  0  0  0
  3  4  1  0  0  0
  3 87  1  0  0  0
  3 88  1  0  0  0
  4  5  1  0  0  0
  4 89  1  0  0  0
  4 90  1  0  0  0
  5  6  1  0  0  0
  5 26  1  0  0  0
  5 91  1  0  0  0
  6 25  1  0  0  0
  6 92  1  0  0  0
  6 93  1  0  0  0
  7  8  2  0  0  0
  7 26  1  0  0  0
  7 29  1  0  0  0
  8  9  1  0  0  0
  8 22  1  0  0  0
  9 10  1  0  0  0
  9 27  2  0  0  0
 10 11  2  0  0  0
 10 15  1  0  0  0
 11 12  1  0  0  0
 11 94  1  0  0  0
 12 13  2  0  0  0
 12 95  1  0  0  0
 13 14  1  0  0  0
 13 31  1  0  0  0
 14 15  2  0  0  0
 14 96  1  0  0  0
 15 97  1  0  0  0
 16 17  2  0  0  0
 16 21  1  0  0  0
 16 31  1  0  0  0
 17 18  1  0  0  0
 17 98  1  0  0  0
 18 19  2  0  0  0
 18 99  1  0  0  0
 19 20  1  0  0  0
 19 24  1  0  0  0
 20 21  2  0  0  0
 20100  1  0  0  0
 21 23  1  0  0  0
 22 28  1  0  0  0
 22 32  2  0  0  0
 26 27  1  0  0  0
 28101  1  0  0  0
 28102  1  0  0  0
 29103  1  0  0  0
 29104  1  0  0  0
 33 34  1  0  0  0
 33 66  1  0  0  0
 33 70  2  0  0  0
 34 36  1  0  0  0
 34 59  1  0  0  0
 34105  1  0  0  0
 35 44  2  0  0  0
 35 45  1  0  0  0
 35 68  1  0  0  0
 36 56  1  0  0  0
 36106  1  0  0  0
 37 39  1  0  0  0
 37 47  1  0  0  0
 37 66  1  0  0  0
 37107  1  0  0  0
 38 43  2  0  0  0
 38 46  1  0  0  0
 38 47  1  0  0  0
 39 64  1  0  0  0
 39 67  2  0  0  0
 40 52  1  0  0  0
 40 53  2  0  0  0
 40 58  1  0  0  0
 41108  1  0  0  0
 41109  1  0  0  0
 41110  1  0  0  0
 41 48  1  0  0  0
 42 43  1  0  0  0
 42 66  1  0  0  0
 42111  1  0  0  0
 42112  1  0  0  0
 43 44  1  0  0  0
 44113  1  0  0  0
 45 46  2  0  0  0
 45114  1  0  0  0
 46115  1  0  0  0
 47116  1  0  0  0
 47117  1  0  0  0
 48 56  1  0  0  0
 48 65  1  0  0  0
 48118  1  0  0  0
 49 50  1  0  0  0
 49 53  1  0  0  0
 49 64  1  0  0  0
 49119  1  0  0  0
 50 51  1  0  0  0
 50120  1  0  0  0
 50121  1  0  0  0
 51 52  1  0  0  0
 51122  1  0  0  0
 51123  1  0  0  0
 52124  1  0  0  0
 52125  1  0  0  0
 53 54  1  0  0  0
 54 55  2  0  0  0
 54126  1  0  0  0
 55 57  1  0  0  0
 55127  1  0  0  0
 56 69  2  0  0  0
 57 58  2  0  0  0
 57128  1  0  0  0
 58129  1  0  0  0
 59 60  1  0  0  0
 59 61  1  0  0  0
 59 62  1  0  0  0
 60130  1  0  0  0
 60131  1  0  0  0
 60132  1  0  0  0
 61133  1  0  0  0
 61134  1  0  0  0
 61135  1  0  0  0
 62136  1  0  0  0
 62137  1  0  0  0
 62138  1  0  0  0
 63 65  1  0  0  0
 63139  1  0  0  0
 63140  1  0  0  0
 63141  1  0  0  0
 64142  1  0  0  0
 65143  1  0  0  0
 68 79  1  0  0  0
 71 72  1  0  0  0
 71 73  2  0  0  0
 71144  1  0  0  0
 72 74  2  0  0  0
 72145  1  0  0  0
 73 75  1  0  0  0
 73 83  1  0  0  0
 74 80  1  0  0  0
 74 83  1  0  0  0
 75 76  2  0  0  0
 75146  1  0  0  0
 76 77  1  0  0  0
 76147  1  0  0  0
 77 80  1  0  0  0
 77 82  2  0  0  0
 78 79  2  0  0  0
 78148  1  0  0  0
 78149  1  0  0  0
 79 81  1  0  0  0
 80 84  1  0  0  0
 80150  1  0  0  0
 81 83  1  0  0  0
 81151  1  0  0  0
 81152  1  0  0  0
M  ISO  4   1 100  68 101  79 101  82 100
M  END
> <chiral flag>
0

> <version>
0

> <s_m_source_file>
/data/baiqing/PycharmProjects/Reinvent-master-3.2/result/LINK_invent/BTK/process_docking_weight1_custom_product_contain_oxygen_bond_distance_aromatic_linkinvent_7_9_3/rearranged_h_0081.sdf

> <i_m_source_file_index>
38

> <r_mmod_Potential_Energy-OPLS-2005>
1456.54675292969

> <r_mmod_Stretch_Energy-OPLS-2005>
410.668182373047

> <r_mmod_Bend_Energy-OPLS-2005>
454.952911376953

> <r_mmod_Torsional_Energy-OPLS-2005>
526.284545898438

> <r_mmod_Improper_Torsional_Energy-OPLS-2005>
66.8640747070312

> <r_mmod_Van_der_Waal_Energy-OPLS-2005>
137.3798828125

> <r_mmod_Electrostatic_Energy-OPLS-2005>
-309.935699462891

> <r_mmod_Solvation_Energy-OPLS-2005>
-173.150314331055

> <b_mmod_Minimization_Converged-OPLS-2005>
0

> <r_mmod_RMS_Derivative-OPLS-2005>
1.72042322158813

$$$$
38
                    3D
 Structure written by MMmdl.
154163  0  0  1  0            999 V2000
  -30.6844  -14.5327   20.5222 C   0  0  0  0  0  0
  -30.4106  -12.3255   19.4464 C   0  0  0  0  0  0
  -29.5014  -12.5160   18.2154 C   0  0  0  0  0  0
  -28.0204  -12.3624   18.6167 C   0  0  0  0  0  0
  -27.6492  -13.2195   19.8572 C   0  0  2  0  0  0
  -28.6873  -13.0601   20.9883 C   0  0  0  0  0  0
  -25.2548  -13.8183   20.5666 C   0  0  0  0  0  0
  -24.1826  -13.0432   20.9188 C   0  0  0  0  0  0
  -24.6402  -11.6916   20.8730 C   0  0  0  0  0  0
  -23.9061  -10.4306   21.0414 C   0  0  0  0  0  0
  -24.3628   -9.4216   21.9177 C   0  0  0  0  0  0
  -23.6299   -8.2244   22.0747 C   0  0  0  0  0  0
  -22.4277   -8.0287   21.3549 C   0  0  0  0  0  0
  -21.9908   -9.0266   20.4666 C   0  0  0  0  0  0
  -22.7238  -10.2145   20.3068 C   0  0  0  0  0  0
  -21.6849   -6.0748   22.5287 C   0  0  0  0  0  0
  -21.4022   -6.5644   23.8227 C   0  0  0  0  0  0
  -21.3656   -5.6791   24.9184 C   0  0  0  0  0  0
  -21.6037   -4.3056   24.7233 C   0  0  0  0  0  0
  -21.8812   -3.8154   23.4353 C   0  0  0  0  0  0
  -21.9192   -4.6974   22.3412 C   0  0  0  0  0  0
  -22.7850  -13.5230   21.1847 C   0  0  0  0  0  0
  -22.1664   -4.2156   21.0988 F   0  0  0  0  0  0
  -21.5619   -3.4545   25.7744 F   0  0  0  0  0  0
  -30.0151  -13.3463   20.4330 N   0  0  0  0  0  0
  -26.2965  -12.9373   20.3270 N   0  0  0  0  0  0
  -25.9319  -11.6526   20.5704 N   0  0  0  0  0  0
  -22.0488  -12.8241   22.0423 N   0  0  0  0  0  0
  -25.4250  -15.1903   20.4084 N   0  0  0  0  0  0
  -31.8394  -14.6306   20.1042 O   0  0  0  0  0  0
  -21.6633   -6.8894   21.4254 O   0  0  0  0  0  0
  -22.3530  -14.5519   20.6678 O   0  0  0  0  0  0
  -24.6231  -31.8641   23.2077 C   0  0  0  0  0  0
  -25.9124  -32.4789   23.8369 C   0  0  1  0  0  0
  -27.2219  -27.3784   20.0913 C   0  0  0  0  0  0
  -25.5976  -33.8572   24.2330 N   0  0  0  0  0  0
  -23.4098  -30.4883   21.5503 C   0  0  2  0  0  0
  -24.8548  -28.9518   20.1097 C   0  0  0  0  0  0
  -22.7465  -29.4624   22.4989 C   0  0  0  0  0  0
  -18.0287  -28.1344   22.8479 C   0  0  0  0  0  0
  -24.1496  -36.7283   23.2635 C   0  0  0  0  0  0
  -25.9479  -30.8093   21.3718 C   0  0  0  0  0  0
  -26.0215  -29.4438   20.7096 C   0  0  0  0  0  0
  -27.2096  -28.6663   20.6938 C   0  0  0  0  0  0
  -26.0220  -26.9074   19.5099 C   0  0  0  0  0  0
  -24.8508  -27.6845   19.5062 C   0  0  0  0  0  0
  -23.6187  -29.8246   20.1641 C   0  0  0  0  0  0
  -25.4098  -36.3076   24.0363 C   0  0  1  0  0  0
  -20.5871  -28.3619   23.1306 C   0  0  2  0  0  0
  -20.6748  -26.9346   22.5414 C   0  0  0  0  0  0
  -19.5746  -26.6340   21.5183 C   0  0  0  0  0  0
  -18.1925  -26.7909   22.1584 C   0  0  0  0  0  0
  -19.1536  -28.8801   23.2889 C   0  0  0  0  0  0
  -18.9458  -30.1409   23.8893 C   0  0  0  0  0  0
  -17.6447  -30.6548   24.0530 C   0  0  0  0  0  0
  -25.9041  -34.9446   23.5137 C   0  0  0  0  0  0
  -16.5332  -29.9025   23.6327 C   0  0  0  0  0  0
  -16.7268  -28.6439   23.0364 C   0  0  0  0  0  0
  -26.4502  -31.6593   25.0731 C   0  0  0  0  0  0
  -25.3777  -31.3865   26.1534 C   0  0  0  0  0  0
  -27.0247  -30.2978   24.6182 C   0  0  0  0  0  0
  -27.6118  -32.4293   25.7437 C   0  0  0  0  0  0
  -27.5613  -37.1768   24.8443 C   0  0  0  0  0  0
  -21.4184  -29.2999   22.3745 N   0  0  0  0  0  0
  -26.4291  -37.3759   23.9433 N   0  0  0  0  0  0
  -24.6780  -31.0708   22.0995 N   0  0  0  0  0  0
  -23.4233  -28.8164   23.3029 O   0  0  0  0  0  0
  -28.3531  -26.5674   20.1234 O   0  0  0  0  0  0
  -26.5562  -34.8919   22.4668 O   0  0  0  0  0  0
  -23.5414  -32.1394   23.7462 O   0  0  0  0  0  0
  -29.0935  -18.6863   21.1297 C   0  0  0  0  0  0
  -29.1600  -18.6178   18.7330 C   0  0  0  0  0  0
  -28.8534  -20.0903   21.0685 C   0  0  0  0  0  0
  -28.9225  -20.0129   18.6857 C   0  0  0  0  0  0
  -29.2802  -17.9191   19.9555 C   0  0  0  0  0  0
  -28.7858  -20.8186   19.8467 C   0  0  0  0  0  0
  -28.5836  -24.2327   19.4060 C   0  0  0  0  0  0
  -28.5414  -23.3909   20.5886 C   0  0  0  0  0  0
  -29.6779  -16.4637   19.9258 C   0  0  0  0  0  0
  -28.5186  -25.5755   19.1611 C   0  0  0  0  0  0
  -28.7306  -23.0053   18.5153 C   0  0  0  0  0  0
  -28.6405  -26.1481   17.7581 C   0  0  0  0  0  0
  -29.9534  -15.6681   20.9037 N   0  0  0  0  0  0
  -28.5860  -22.2512   19.7694 N   0  0  0  0  0  0
  -28.5579  -23.6452   21.7772 O   0  0  0  0  0  0
  -31.4616  -12.3889   19.1602 H   0  0  0  0  0  0
  -30.2790  -11.3276   19.8668 H   0  0  0  0  0  0
  -29.7592  -11.7993   17.4351 H   0  0  0  0  0  0
  -29.6654  -13.5063   17.7858 H   0  0  0  0  0  0
  -27.8416  -11.3062   18.8255 H   0  0  0  0  0  0
  -27.3726  -12.6142   17.7750 H   0  0  0  0  0  0
  -27.6733  -14.2592   19.5341 H   0  0  0  0  0  0
  -28.6660  -12.0465   21.3900 H   0  0  0  0  0  0
  -28.4490  -13.7193   21.8242 H   0  0  0  0  0  0
  -25.2807   -9.5666   22.4729 H   0  0  0  0  0  0
  -24.0026   -7.4621   22.7451 H   0  0  0  0  0  0
  -21.0828   -8.8800   19.8978 H   0  0  0  0  0  0
  -22.3713  -10.9679   19.6169 H   0  0  0  0  0  0
  -21.2025   -7.6160   23.9729 H   0  0  0  0  0  0
  -21.1476   -6.0530   25.9084 H   0  0  0  0  0  0
  -22.0594   -2.7614   23.2853 H   0  0  0  0  0  0
  -22.4115  -11.9902   22.4816 H   0  0  0  0  0  0
  -21.1111  -13.1308   22.2634 H   0  0  0  0  0  0
  -24.6617  -15.8500   20.5251 H   0  0  0  0  0  0
  -26.2938  -15.6305   20.1288 H   0  0  0  0  0  0
  -26.7171  -32.5481   23.1100 H   0  0  0  0  0  0
  -25.0277  -33.9699   25.0589 H   0  0  0  0  0  0
  -22.6958  -31.3044   21.4139 H   0  0  0  0  0  0
  -23.3766  -35.9610   23.3254 H   0  0  0  0  0  0
  -24.3622  -36.8936   22.2065 H   0  0  0  0  0  0
  -23.7243  -37.6464   23.6679 H   0  0  0  0  0  0
  -26.0882  -31.5762   20.6085 H   0  0  0  0  0  0
  -26.8272  -30.8480   22.0029 H   0  0  0  0  0  0
  -28.1100  -29.0375   21.1632 H   0  0  0  0  0  0
  -25.9719  -25.9228   19.0672 H   0  0  0  0  0  0
  -23.9520  -27.2902   19.0537 H   0  0  0  0  0  0
  -23.7222  -30.5990   19.4022 H   0  0  0  0  0  0
  -22.7420  -29.2420   19.8733 H   0  0  0  0  0  0
  -25.1271  -36.1917   25.0856 H   0  0  0  0  0  0
  -20.9963  -28.3169   24.1435 H   0  0  0  0  0  0
  -20.5565  -26.2228   23.3603 H   0  0  0  0  0  0
  -21.6640  -26.7336   22.1264 H   0  0  0  0  0  0
  -19.6871  -25.6245   21.1248 H   0  0  0  0  0  0
  -19.6726  -27.3121   20.6701 H   0  0  0  0  0  0
  -17.4217  -26.6700   21.3958 H   0  0  0  0  0  0
  -18.0273  -26.0032   22.8947 H   0  0  0  0  0  0
  -19.7930  -30.7219   24.2282 H   0  0  0  0  0  0
  -17.4994  -31.6250   24.5102 H   0  0  0  0  0  0
  -15.5328  -30.2888   23.7656 H   0  0  0  0  0  0
  -15.8679  -28.0707   22.7100 H   0  0  0  0  0  0
  -24.5983  -30.7088   25.8040 H   0  0  0  0  0  0
  -24.8880  -32.3060   26.4737 H   0  0  0  0  0  0
  -25.8144  -30.9313   27.0432 H   0  0  0  0  0  0
  -26.2739  -29.6806   24.1224 H   0  0  0  0  0  0
  -27.3910  -29.7203   25.4679 H   0  0  0  0  0  0
  -27.8663  -30.4192   23.9364 H   0  0  0  0  0  0
  -27.2793  -33.3647   26.1939 H   0  0  0  0  0  0
  -28.3917  -32.6769   25.0230 H   0  0  0  0  0  0
  -28.0776  -31.8458   26.5387 H   0  0  0  0  0  0
  -28.2630  -38.0060   24.7466 H   0  0  0  0  0  0
  -28.1110  -36.2601   24.6241 H   0  0  0  0  0  0
  -27.2388  -37.1415   25.8862 H   0  0  0  0  0  0
  -20.9346  -29.8748   21.6985 H   0  0  0  0  0  0
  -26.0200  -38.2858   24.1368 H   0  0  0  0  0  0
  -29.1616  -18.2009   22.0932 H   0  0  0  0  0  0
  -29.2824  -18.0871   17.8000 H   0  0  0  0  0  0
  -28.7336  -20.6245   22.0003 H   0  0  0  0  0  0
  -28.8608  -20.4692   17.7082 H   0  0  0  0  0  0
  -29.7647  -16.0876   18.8985 H   0  0  0  0  0  0
  -29.7002  -22.8543   18.0356 H   0  0  0  0  0  0
  -27.9176  -22.7989   17.8157 H   0  0  0  0  0  0
  -29.4713  -25.6877   17.2211 H   0  0  0  0  0  0
  -28.8284  -27.2223   17.7921 H   0  0  0  0  0  0
  -27.7252  -25.9787   17.1891 H   0  0  0  0  0  0
  1 25  1  0  0  0
  1 30  2  0  0  0
  1 83  1  0  0  0
  2  3  1  0  0  0
  2 25  1  0  0  0
  2 86  1  0  0  0
  2 87  1  0  0  0
  3  4  1  0  0  0
  3 88  1  0  0  0
  3 89  1  0  0  0
  4  5  1  0  0  0
  4 90  1  0  0  0
  4 91  1  0  0  0
  5  6  1  0  0  0
  5 26  1  0  0  0
  5 92  1  0  0  0
  6 25  1  0  0  0
  6 93  1  0  0  0
  6 94  1  0  0  0
  7  8  2  0  0  0
  7 26  1  0  0  0
  7 29  1  0  0  0
  8  9  1  0  0  0
  8 22  1  0  0  0
  9 10  1  0  0  0
  9 27  2  0  0  0
 10 11  2  0  0  0
 10 15  1  0  0  0
 11 12  1  0  0  0
 11 95  1  0  0  0
 12 13  2  0  0  0
 12 96  1  0  0  0
 13 14  1  0  0  0
 13 31  1  0  0  0
 14 15  2  0  0  0
 14 97  1  0  0  0
 15 98  1  0  0  0
 16 17  2  0  0  0
 16 21  1  0  0  0
 16 31  1  0  0  0
 17 18  1  0  0  0
 17 99  1  0  0  0
 18 19  2  0  0  0
 18100  1  0  0  0
 19 20  1  0  0  0
 19 24  1  0  0  0
 20 21  2  0  0  0
 20101  1  0  0  0
 21 23  1  0  0  0
 22 28  1  0  0  0
 22 32  2  0  0  0
 26 27  1  0  0  0
 28102  1  0  0  0
 28103  1  0  0  0
 29104  1  0  0  0
 29105  1  0  0  0
 33 34  1  0  0  0
 33 66  1  0  0  0
 33 70  2  0  0  0
 34 36  1  0  0  0
 34 59  1  0  0  0
 34106  1  0  0  0
 35 44  2  0  0  0
 35 45  1  0  0  0
 35 68  1  0  0  0
 36 56  1  0  0  0
 36107  1  0  0  0
 37 39  1  0  0  0
 37 47  1  0  0  0
 37 66  1  0  0  0
 37108  1  0  0  0
 38 43  2  0  0  0
 38 46  1  0  0  0
 38 47  1  0  0  0
 39 64  1  0  0  0
 39 67  2  0  0  0
 40 52  1  0  0  0
 40 53  2  0  0  0
 40 58  1  0  0  0
 41109  1  0  0  0
 41110  1  0  0  0
 41111  1  0  0  0
 41 48  1  0  0  0
 42 43  1  0  0  0
 42 66  1  0  0  0
 42112  1  0  0  0
 42113  1  0  0  0
 43 44  1  0  0  0
 44114  1  0  0  0
 45 46  2  0  0  0
 45115  1  0  0  0
 46116  1  0  0  0
 47117  1  0  0  0
 47118  1  0  0  0
 48 56  1  0  0  0
 48 65  1  0  0  0
 48119  1  0  0  0
 49 50  1  0  0  0
 49 53  1  0  0  0
 49 64  1  0  0  0
 49120  1  0  0  0
 50 51  1  0  0  0
 50121  1  0  0  0
 50122  1  0  0  0
 51 52  1  0  0  0
 51123  1  0  0  0
 51124  1  0  0  0
 52125  1  0  0  0
 52126  1  0  0  0
 53 54  1  0  0  0
 54 55  2  0  0  0
 54127  1  0  0  0
 55 57  1  0  0  0
 55128  1  0  0  0
 56 69  2  0  0  0
 57 58  2  0  0  0
 57129  1  0  0  0
 58130  1  0  0  0
 59 60  1  0  0  0
 59 61  1  0  0  0
 59 62  1  0  0  0
 60131  1  0  0  0
 60132  1  0  0  0
 60133  1  0  0  0
 61134  1  0  0  0
 61135  1  0  0  0
 61136  1  0  0  0
 62137  1  0  0  0
 62138  1  0  0  0
 62139  1  0  0  0
 63 65  1  0  0  0
 63140  1  0  0  0
 63141  1  0  0  0
 63142  1  0  0  0
 64143  1  0  0  0
 65144  1  0  0  0
 68 80  1  0  0  0
 71 73  2  0  0  0
 71 75  1  0  0  0
 71145  1  0  0  0
 72 74  1  0  0  0
 72 75  2  0  0  0
 72146  1  0  0  0
 73 76  1  0  0  0
 73147  1  0  0  0
 74 76  2  0  0  0
 74148  1  0  0  0
 75 79  1  0  0  0
 76 84  1  0  0  0
 77 78  1  0  0  0
 77 80  2  0  0  0
 77 81  1  0  0  0
 78 84  1  0  0  0
 78 85  2  0  0  0
 79 83  2  0  0  0
 79149  1  0  0  0
 80 82  1  0  0  0
 81 84  1  0  0  0
 81150  1  0  0  0
 81151  1  0  0  0
 82152  1  0  0  0
 82153  1  0  0  0
 82154  1  0  0  0
M  ISO  4   1 100  68 101  80 101  83 100
M  END
> <chiral flag>
0

> <version>
0

> <s_m_source_file>
/data/baiqing/PycharmProjects/Reinvent-master-3.2/result/LINK_invent/BTK/process_docking_weight1_custom_product_contain_oxygen_bond_distance_aromatic_linkinvent_7_9_3/rearranged_h_0081.sdf

> <i_m_source_file_index>
39

> <r_mmod_Potential_Energy-OPLS-2005>
96.8946380615234

> <r_mmod_Stretch_Energy-OPLS-2005>
51.4280395507812

> <r_mmod_Bend_Energy-OPLS-2005>
185.401275634766

> <r_mmod_Torsional_Energy-OPLS-2005>
193.846420288086

> <r_mmod_Improper_Torsional_Energy-OPLS-2005>
6.04068088531494

> <r_mmod_Van_der_Waal_Energy-OPLS-2005>
150.272354125977

> <r_mmod_Electrostatic_Energy-OPLS-2005>
-315.106140136719

> <r_mmod_Solvation_Energy-OPLS-2005>
-201.451385498047

> <b_mmod_Minimization_Converged-OPLS-2005>
0

> <r_mmod_RMS_Derivative-OPLS-2005>
4.12321519851685

$$$$
39
                    3D
 Structure written by MMmdl.
149158  0  0  1  0            999 V2000
  -30.5740  -14.7508   20.4693 C   0  0  0  0  0  0
  -30.4506  -12.4588   19.4657 C   0  0  0  0  0  0
  -29.5165  -12.5143   18.2341 C   0  0  0  0  0  0
  -28.0419  -12.3314   18.6477 C   0  0  0  0  0  0
  -27.6485  -13.2211   19.8559 C   0  0  2  0  0  0
  -28.6960  -13.1241   20.9884 C   0  0  0  0  0  0
  -25.2539  -13.8158   20.5679 C   0  0  0  0  0  0
  -24.1822  -13.0423   20.9209 C   0  0  0  0  0  0
  -24.6400  -11.6899   20.8750 C   0  0  0  0  0  0
  -23.9069  -10.4284   21.0411 C   0  0  0  0  0  0
  -24.3618   -9.4199   21.9188 C   0  0  0  0  0  0
  -23.6291   -8.2236   22.0756 C   0  0  0  0  0  0
  -22.4274   -8.0277   21.3545 C   0  0  0  0  0  0
  -21.9911   -9.0252   20.4648 C   0  0  0  0  0  0
  -22.7242  -10.2131   20.3059 C   0  0  0  0  0  0
  -21.6851   -6.0734   22.5279 C   0  0  0  0  0  0
  -21.4013   -6.5639   23.8212 C   0  0  0  0  0  0
  -21.3659   -5.6792   24.9174 C   0  0  0  0  0  0
  -21.6044   -4.3054   24.7225 C   0  0  0  0  0  0
  -21.8819   -3.8146   23.4346 C   0  0  0  0  0  0
  -21.9192   -4.6962   22.3402 C   0  0  0  0  0  0
  -22.7844  -13.5218   21.1865 C   0  0  0  0  0  0
  -22.1661   -4.2148   21.0980 F   0  0  0  0  0  0
  -21.5629   -3.4538   25.7739 F   0  0  0  0  0  0
  -30.0001  -13.4984   20.4176 N   0  0  0  0  0  0
  -26.2969  -12.9349   20.3289 N   0  0  0  0  0  0
  -25.9329  -11.6504   20.5754 N   0  0  0  0  0  0
  -22.0483  -12.8214   22.0421 N   0  0  0  0  0  0
  -25.4218  -15.1876   20.4051 N   0  0  0  0  0  0
  -31.7526  -14.9133   20.1371 O   0  0  0  0  0  0
  -21.6636   -6.8876   21.4241 O   0  0  0  0  0  0
  -22.3533  -14.5525   20.6709 O   0  0  0  0  0  0
  -24.6337  -31.8549   23.1986 C   0  0  0  0  0  0
  -25.9156  -32.4753   23.8334 C   0  0  1  0  0  0
  -27.2260  -27.2543   20.1117 C   0  0  0  0  0  0
  -25.5944  -33.8555   24.2254 N   0  0  0  0  0  0
  -23.4307  -30.4797   21.5433 C   0  0  2  0  0  0
  -24.8773  -28.9302   20.1106 C   0  0  0  0  0  0
  -22.7516  -29.4605   22.4908 C   0  0  0  0  0  0
  -18.0295  -28.1389   22.8483 C   0  0  0  0  0  0
  -24.1490  -36.7281   23.2639 C   0  0  0  0  0  0
  -25.9800  -30.7651   21.3805 C   0  0  0  0  0  0
  -26.0531  -29.3889   20.7176 C   0  0  0  0  0  0
  -27.2276  -28.5641   20.7084 C   0  0  0  0  0  0
  -26.0092  -26.8626   19.4989 C   0  0  0  0  0  0
  -24.8609  -27.6740   19.4930 C   0  0  0  0  0  0
  -23.6493  -29.8182   20.1588 C   0  0  0  0  0  0
  -25.4118  -36.3068   24.0324 C   0  0  1  0  0  0
  -20.5902  -28.3706   23.1261 C   0  0  2  0  0  0
  -20.6784  -26.9421   22.5404 C   0  0  0  0  0  0
  -19.5755  -26.6385   21.5211 C   0  0  0  0  0  0
  -18.1937  -26.7930   22.1626 C   0  0  0  0  0  0
  -19.1549  -28.8863   23.2867 C   0  0  0  0  0  0
  -18.9469  -30.1463   23.8887 C   0  0  0  0  0  0
  -17.6467  -30.6589   24.0562 C   0  0  0  0  0  0
  -25.9061  -34.9439   23.5091 C   0  0  0  0  0  0
  -16.5358  -29.9084   23.6333 C   0  0  0  0  0  0
  -16.7281  -28.6502   23.0354 C   0  0  0  0  0  0
  -26.4511  -31.6582   25.0731 C   0  0  0  0  0  0
  -25.3724  -31.3738   26.1443 C   0  0  0  0  0  0
  -27.0363  -30.2995   24.6234 C   0  0  0  0  0  0
  -27.6058  -32.4328   25.7509 C   0  0  0  0  0  0
  -27.5579  -37.1797   24.8465 C   0  0  0  0  0  0
  -21.4221  -29.3051   22.3650 N   0  0  0  0  0  0
  -26.4290  -37.3769   23.9408 N   0  0  0  0  0  0
  -24.7009  -31.0507   22.0969 N   0  0  0  0  0  0
  -23.4209  -28.8139   23.3006 O   0  0  0  0  0  0
  -28.3164  -26.3407   20.1783 O   0  0  0  0  0  0
  -26.5633  -34.8915   22.4660 O   0  0  0  0  0  0
  -23.5483  -32.1375   23.7273 O   0  0  0  0  0  0
  -28.3545  -19.3300   19.9913 C   0  0  0  0  0  0
  -30.5668  -19.6337   20.7255 C   0  0  0  0  0  0
  -28.5010  -17.9112   20.1167 C   0  0  0  0  0  0
  -30.7469  -18.2015   20.8233 C   0  0  0  0  0  0
  -29.3636  -20.2939   20.2959 C   0  0  0  0  0  0
  -29.7042  -17.2759   20.5266 C   0  0  0  0  0  0
  -28.6488  -23.7647   19.8539 C   0  0  0  0  0  0
  -28.4603  -22.5188   19.1304 C   0  0  0  0  0  0
  -29.3401  -22.9801   20.8743 C   0  0  0  0  0  0
  -28.2379  -25.0630   19.5412 C   0  0  0  0  0  0
  -29.1311  -21.7616   20.1292 N   0  0  0  0  0  0
  -29.7050  -15.8007   20.7201 N   0  0  0  0  0  0
  -27.9000  -22.2909   18.0756 O   0  0  0  0  0  0
  -29.8478  -23.3033   21.9306 O   0  0  0  0  0  0
  -31.4871  -12.6099   19.1590 H   0  0  0  0  0  0
  -30.4166  -11.4739   19.9340 H   0  0  0  0  0  0
  -29.7994  -11.7480   17.5112 H   0  0  0  0  0  0
  -29.6368  -13.4724   17.7258 H   0  0  0  0  0  0
  -27.8998  -11.2808   18.9035 H   0  0  0  0  0  0
  -27.3835  -12.5292   17.8011 H   0  0  0  0  0  0
  -27.6488  -14.2464   19.4862 H   0  0  0  0  0  0
  -28.7344  -12.1114   21.3927 H   0  0  0  0  0  0
  -28.4265  -13.7698   21.8258 H   0  0  0  0  0  0
  -25.2763   -9.5673   22.4762 H   0  0  0  0  0  0
  -23.9998   -7.4627   22.7474 H   0  0  0  0  0  0
  -21.0841   -8.8774   19.8952 H   0  0  0  0  0  0
  -22.3702  -10.9671   19.6168 H   0  0  0  0  0  0
  -21.2005   -7.6147   23.9715 H   0  0  0  0  0  0
  -21.1481   -6.0522   25.9078 H   0  0  0  0  0  0
  -22.0599   -2.7608   23.2847 H   0  0  0  0  0  0
  -22.4096  -11.9876   22.4812 H   0  0  0  0  0  0
  -21.1101  -13.1243   22.2624 H   0  0  0  0  0  0
  -24.6449  -15.8332   20.4974 H   0  0  0  0  0  0
  -26.2473  -15.6169   20.0115 H   0  0  0  0  0  0
  -26.7223  -32.5398   23.1075 H   0  0  0  0  0  0
  -25.0085  -33.9690   25.0395 H   0  0  0  0  0  0
  -22.7278  -31.3028   21.3986 H   0  0  0  0  0  0
  -23.3755  -35.9611   23.3296 H   0  0  0  0  0  0
  -24.3580  -36.8912   22.2055 H   0  0  0  0  0  0
  -23.7241  -37.6478   23.6670 H   0  0  0  0  0  0
  -26.1229  -31.5281   20.6140 H   0  0  0  0  0  0
  -26.8558  -30.8104   22.0163 H   0  0  0  0  0  0
  -28.1265  -28.9115   21.1980 H   0  0  0  0  0  0
  -25.8875  -25.8929   19.0430 H   0  0  0  0  0  0
  -23.9563  -27.3098   19.0253 H   0  0  0  0  0  0
  -23.7762  -30.5966   19.4055 H   0  0  0  0  0  0
  -22.7667  -29.2545   19.8510 H   0  0  0  0  0  0
  -25.1300  -36.1911   25.0817 H   0  0  0  0  0  0
  -20.9994  -28.3284   24.1382 H   0  0  0  0  0  0
  -20.5686  -26.2315   23.3611 H   0  0  0  0  0  0
  -21.6651  -26.7443   22.1196 H   0  0  0  0  0  0
  -19.6919  -25.6292   21.1246 H   0  0  0  0  0  0
  -19.6691  -27.3190   20.6736 H   0  0  0  0  0  0
  -17.4206  -26.6674   21.4031 H   0  0  0  0  0  0
  -18.0342  -26.0075   22.9025 H   0  0  0  0  0  0
  -19.7944  -30.7283   24.2252 H   0  0  0  0  0  0
  -17.5020  -31.6268   24.5165 H   0  0  0  0  0  0
  -15.5358  -30.2983   23.7663 H   0  0  0  0  0  0
  -15.8681  -28.0818   22.7075 H   0  0  0  0  0  0
  -24.5904  -30.7082   25.7767 H   0  0  0  0  0  0
  -24.8910  -32.2909   26.4847 H   0  0  0  0  0  0
  -25.8032  -30.8927   27.0233 H   0  0  0  0  0  0
  -26.2957  -29.6736   24.1241 H   0  0  0  0  0  0
  -27.4018  -29.7265   25.4766 H   0  0  0  0  0  0
  -27.8847  -30.4261   23.9504 H   0  0  0  0  0  0
  -27.2660  -33.3635   26.2065 H   0  0  0  0  0  0
  -28.3881  -32.6878   25.0348 H   0  0  0  0  0  0
  -28.0711  -31.8468   26.5444 H   0  0  0  0  0  0
  -28.2592  -38.0099   24.7515 H   0  0  0  0  0  0
  -28.1080  -36.2629   24.6288 H   0  0  0  0  0  0
  -27.2296  -37.1441   25.8868 H   0  0  0  0  0  0
  -20.9409  -29.8778   21.6857 H   0  0  0  0  0  0
  -26.0167  -38.2841   24.1411 H   0  0  0  0  0  0
  -27.3918  -19.6921   19.6584 H   0  0  0  0  0  0
  -31.4144  -20.2538   20.9801 H   0  0  0  0  0  0
  -27.6402  -17.3007   19.8860 H   0  0  0  0  0  0
  -31.7001  -17.8230   21.1645 H   0  0  0  0  0  0
  -27.7683  -25.1745   18.5753 H   0  0  0  0  0  0
  -28.7878  -15.4347   20.9226 H   0  0  0  0  0  0
  1 25  1  0  0  0
  1 30  2  0  0  0
  1 82  1  0  0  0
  2  3  1  0  0  0
  2 25  1  0  0  0
  2 85  1  0  0  0
  2 86  1  0  0  0
  3  4  1  0  0  0
  3 87  1  0  0  0
  3 88  1  0  0  0
  4  5  1  0  0  0
  4 89  1  0  0  0
  4 90  1  0  0  0
  5  6  1  0  0  0
  5 26  1  0  0  0
  5 91  1  0  0  0
  6 25  1  0  0  0
  6 92  1  0  0  0
  6 93  1  0  0  0
  7  8  2  0  0  0
  7 26  1  0  0  0
  7 29  1  0  0  0
  8  9  1  0  0  0
  8 22  1  0  0  0
  9 10  1  0  0  0
  9 27  2  0  0  0
 10 11  2  0  0  0
 10 15  1  0  0  0
 11 12  1  0  0  0
 11 94  1  0  0  0
 12 13  2  0  0  0
 12 95  1  0  0  0
 13 14  1  0  0  0
 13 31  1  0  0  0
 14 15  2  0  0  0
 14 96  1  0  0  0
 15 97  1  0  0  0
 16 17  2  0  0  0
 16 21  1  0  0  0
 16 31  1  0  0  0
 17 18  1  0  0  0
 17 98  1  0  0  0
 18 19  2  0  0  0
 18 99  1  0  0  0
 19 20  1  0  0  0
 19 24  1  0  0  0
 20 21  2  0  0  0
 20100  1  0  0  0
 21 23  1  0  0  0
 22 28  1  0  0  0
 22 32  2  0  0  0
 26 27  1  0  0  0
 28101  1  0  0  0
 28102  1  0  0  0
 29103  1  0  0  0
 29104  1  0  0  0
 33 34  1  0  0  0
 33 66  1  0  0  0
 33 70  2  0  0  0
 34 36  1  0  0  0
 34 59  1  0  0  0
 34105  1  0  0  0
 35 44  2  0  0  0
 35 45  1  0  0  0
 35 68  1  0  0  0
 36 56  1  0  0  0
 36106  1  0  0  0
 37 39  1  0  0  0
 37 47  1  0  0  0
 37 66  1  0  0  0
 37107  1  0  0  0
 38 43  2  0  0  0
 38 46  1  0  0  0
 38 47  1  0  0  0
 39 64  1  0  0  0
 39 67  2  0  0  0
 40 52  1  0  0  0
 40 53  2  0  0  0
 40 58  1  0  0  0
 41108  1  0  0  0
 41109  1  0  0  0
 41110  1  0  0  0
 41 48  1  0  0  0
 42 43  1  0  0  0
 42 66  1  0  0  0
 42111  1  0  0  0
 42112  1  0  0  0
 43 44  1  0  0  0
 44113  1  0  0  0
 45 46  2  0  0  0
 45114  1  0  0  0
 46115  1  0  0  0
 47116  1  0  0  0
 47117  1  0  0  0
 48 56  1  0  0  0
 48 65  1  0  0  0
 48118  1  0  0  0
 49 50  1  0  0  0
 49 53  1  0  0  0
 49 64  1  0  0  0
 49119  1  0  0  0
 50 51  1  0  0  0
 50120  1  0  0  0
 50121  1  0  0  0
 51 52  1  0  0  0
 51122  1  0  0  0
 51123  1  0  0  0
 52124  1  0  0  0
 52125  1  0  0  0
 53 54  1  0  0  0
 54 55  2  0  0  0
 54126  1  0  0  0
 55 57  1  0  0  0
 55127  1  0  0  0
 56 69  2  0  0  0
 57 58  2  0  0  0
 57128  1  0  0  0
 58129  1  0  0  0
 59 60  1  0  0  0
 59 61  1  0  0  0
 59 62  1  0  0  0
 60130  1  0  0  0
 60131  1  0  0  0
 60132  1  0  0  0
 61133  1  0  0  0
 61134  1  0  0  0
 61135  1  0  0  0
 62136  1  0  0  0
 62137  1  0  0  0
 62138  1  0  0  0
 63 65  1  0  0  0
 63139  1  0  0  0
 63140  1  0  0  0
 63141  1  0  0  0
 64142  1  0  0  0
 65143  1  0  0  0
 68 80  1  0  0  0
 71 73  2  0  0  0
 71 75  1  0  0  0
 71144  1  0  0  0
 72 74  1  0  0  0
 72 75  2  0  0  0
 72145  1  0  0  0
 73 76  1  0  0  0
 73146  1  0  0  0
 74 76  2  0  0  0
 74147  1  0  0  0
 75 81  1  0  0  0
 76 82  1  0  0  0
 77 78  1  0  0  0
 77 79  1  0  0  0
 77 80  2  0  0  0
 78 81  1  0  0  0
 78 83  2  0  0  0
 79 81  1  0  0  0
 79 84  2  0  0  0
 80148  1  0  0  0
 82149  1  0  0  0
M  ISO  4   1 100  68 101  80 101  82 100
M  END
> <chiral flag>
0

> <version>
0

> <s_m_source_file>
/data/baiqing/PycharmProjects/Reinvent-master-3.2/result/LINK_invent/BTK/process_docking_weight1_custom_product_contain_oxygen_bond_distance_aromatic_linkinvent_7_9_3/rearranged_h_0081.sdf

> <i_m_source_file_index>
40

> <r_mmod_Potential_Energy-OPLS-2005>
205.04655456543

> <r_mmod_Stretch_Energy-OPLS-2005>
112.029167175293

> <r_mmod_Bend_Energy-OPLS-2005>
265.751098632812

> <r_mmod_Torsional_Energy-OPLS-2005>
227.429061889648

> <r_mmod_Improper_Torsional_Energy-OPLS-2005>
5.86768484115601

> <r_mmod_Van_der_Waal_Energy-OPLS-2005>
136.00553894043

> <r_mmod_Electrostatic_Energy-OPLS-2005>
-398.190032958984

> <r_mmod_Solvation_Energy-OPLS-2005>
-233.616638183594

> <b_mmod_Minimization_Converged-OPLS-2005>
0

> <r_mmod_RMS_Derivative-OPLS-2005>
0.452697724103928

$$$$
40
                    3D
 Structure written by MMmdl.
155164  0  0  1  0            999 V2000
  -30.6334  -14.7634   20.4523 C   0  0  0  0  0  0
  -30.4197  -12.4726   19.4630 C   0  0  0  0  0  0
  -29.5045  -12.5022   18.2236 C   0  0  0  0  0  0
  -28.0316  -12.3275   18.6412 C   0  0  0  0  0  0
  -27.6309  -13.2396   19.8319 C   0  0  2  0  0  0
  -28.6772  -13.2132   20.9648 C   0  0  0  0  0  0
  -25.2469  -13.8216   20.5675 C   0  0  0  0  0  0
  -24.1784  -13.0446   20.9221 C   0  0  0  0  0  0
  -24.6382  -11.6933   20.8738 C   0  0  0  0  0  0
  -23.9062  -10.4299   21.0387 C   0  0  0  0  0  0
  -24.3614   -9.4211   21.9164 C   0  0  0  0  0  0
  -23.6292   -8.2245   22.0746 C   0  0  0  0  0  0
  -22.4272   -8.0277   21.3545 C   0  0  0  0  0  0
  -21.9895   -9.0244   20.4647 C   0  0  0  0  0  0
  -22.7223  -10.2121   20.3046 C   0  0  0  0  0  0
  -21.6860   -6.0721   22.5277 C   0  0  0  0  0  0
  -21.4023   -6.5631   23.8210 C   0  0  0  0  0  0
  -21.3659   -5.6783   24.9171 C   0  0  0  0  0  0
  -21.6049   -4.3047   24.7221 C   0  0  0  0  0  0
  -21.8820   -3.8134   23.4344 C   0  0  0  0  0  0
  -21.9195   -4.6949   22.3396 C   0  0  0  0  0  0
  -22.7798  -13.5215   21.1877 C   0  0  0  0  0  0
  -22.1662   -4.2137   21.0974 F   0  0  0  0  0  0
  -21.5621   -3.4530   25.7731 F   0  0  0  0  0  0
  -29.9664  -13.5608   20.3616 N   0  0  0  0  0  0
  -26.2889  -12.9431   20.3199 N   0  0  0  0  0  0
  -25.9309  -11.6567   20.5705 N   0  0  0  0  0  0
  -22.0439  -12.8219   22.0439 N   0  0  0  0  0  0
  -25.4140  -15.1947   20.4098 N   0  0  0  0  0  0
  -31.8431  -14.7621   20.2045 O   0  0  0  0  0  0
  -21.6646   -6.8864   21.4239 O   0  0  0  0  0  0
  -22.3487  -14.5514   20.6711 O   0  0  0  0  0  0
  -24.6350  -31.8508   23.1981 C   0  0  0  0  0  0
  -25.9169  -32.4733   23.8316 C   0  0  1  0  0  0
  -27.2148  -27.2454   20.1109 C   0  0  0  0  0  0
  -25.5956  -33.8534   24.2247 N   0  0  0  0  0  0
  -23.4319  -30.4756   21.5412 C   0  0  2  0  0  0
  -24.8771  -28.9231   20.1049 C   0  0  0  0  0  0
  -22.7529  -29.4573   22.4896 C   0  0  0  0  0  0
  -18.0300  -28.1374   22.8476 C   0  0  0  0  0  0
  -24.1493  -36.7267   23.2638 C   0  0  0  0  0  0
  -25.9813  -30.7582   21.3809 C   0  0  0  0  0  0
  -26.0525  -29.3810   20.7160 C   0  0  0  0  0  0
  -27.2231  -28.5524   20.7125 C   0  0  0  0  0  0
  -26.0104  -26.8547   19.4833 C   0  0  0  0  0  0
  -24.8620  -27.6683   19.4786 C   0  0  0  0  0  0
  -23.6492  -29.8112   20.1565 C   0  0  0  0  0  0
  -25.4123  -36.3053   24.0320 C   0  0  1  0  0  0
  -20.5906  -28.3683   23.1260 C   0  0  2  0  0  0
  -20.6790  -26.9396   22.5396 C   0  0  0  0  0  0
  -19.5763  -26.6368   21.5205 C   0  0  0  0  0  0
  -18.1944  -26.7921   22.1613 C   0  0  0  0  0  0
  -19.1555  -28.8849   23.2859 C   0  0  0  0  0  0
  -18.9470  -30.1455   23.8872 C   0  0  0  0  0  0
  -17.6465  -30.6579   24.0555 C   0  0  0  0  0  0
  -25.9060  -34.9419   23.5080 C   0  0  0  0  0  0
  -16.5357  -29.9068   23.6326 C   0  0  0  0  0  0
  -16.7284  -28.6479   23.0357 C   0  0  0  0  0  0
  -26.4532  -31.6576   25.0716 C   0  0  0  0  0  0
  -25.3752  -31.3729   26.1436 C   0  0  0  0  0  0
  -27.0393  -30.2996   24.6220 C   0  0  0  0  0  0
  -27.6076  -32.4329   25.7496 C   0  0  0  0  0  0
  -27.5577  -37.1792   24.8470 C   0  0  0  0  0  0
  -21.4231  -29.3032   22.3650 N   0  0  0  0  0  0
  -26.4299  -37.3751   23.9398 N   0  0  0  0  0  0
  -24.7019  -31.0459   22.0964 N   0  0  0  0  0  0
  -23.4220  -28.8095   23.2985 O   0  0  0  0  0  0
  -28.2646  -26.2979   20.2107 O   0  0  0  0  0  0
  -26.5604  -34.8889   22.4638 O   0  0  0  0  0  0
  -23.5499  -32.1331   23.7273 O   0  0  0  0  0  0
  -29.8028  -19.5561   21.7759 C   0  0  0  0  0  0
  -29.2397  -19.1967   19.4920 C   0  0  0  0  0  0
  -29.5684  -20.9629   21.6267 C   0  0  0  0  0  0
  -28.9970  -20.6169   19.3420 C   0  0  0  0  0  0
  -29.7188  -18.6163   20.7071 C   0  0  0  0  0  0
  -29.2491  -21.5795   20.3806 C   0  0  0  0  0  0
  -28.8864  -23.9599   19.2104 C   0  0  0  0  0  0
  -30.7806  -23.2235   19.9864 C   0  0  0  0  0  0
  -28.4105  -25.2789   19.2375 C   0  0  0  0  0  0
  -30.4391  -17.2247   20.8376 C   0  0  0  0  0  0
  -29.6337  -23.6040   17.9396 C   0  0  0  0  0  0
  -31.0478  -23.3800   18.4906 C   0  0  0  0  0  0
  -29.4614  -23.0680   20.2053 N   0  0  0  0  0  0
  -29.9168  -15.9618   20.5690 N   0  0  0  0  0  0
  -31.6863  -23.1684   20.8277 O   0  0  0  0  0  0
  -31.5912  -17.3270   21.2747 O   0  0  0  0  0  0
  -31.4626  -12.5798   19.1605 H   0  0  0  0  0  0
  -30.3546  -11.5075   19.9666 H   0  0  0  0  0  0
  -29.7895  -11.7166   17.5224 H   0  0  0  0  0  0
  -29.6305  -13.4466   17.6921 H   0  0  0  0  0  0
  -27.8932  -11.2808   18.9141 H   0  0  0  0  0  0
  -27.3752  -12.5068   17.7892 H   0  0  0  0  0  0
  -27.6106  -14.2533   19.4310 H   0  0  0  0  0  0
  -28.7216  -12.2298   21.4360 H   0  0  0  0  0  0
  -28.4131  -13.9242   21.7490 H   0  0  0  0  0  0
  -25.2751   -9.5695   22.4742 H   0  0  0  0  0  0
  -24.0003   -7.4637   22.7468 H   0  0  0  0  0  0
  -21.0820   -8.8754   19.8958 H   0  0  0  0  0  0
  -22.3666  -10.9652   19.6161 H   0  0  0  0  0  0
  -21.2021   -7.6139   23.9712 H   0  0  0  0  0  0
  -21.1486   -6.0510   25.9076 H   0  0  0  0  0  0
  -22.0599   -2.7598   23.2847 H   0  0  0  0  0  0
  -22.4043  -11.9898   22.4872 H   0  0  0  0  0  0
  -21.1047  -13.1246   22.2606 H   0  0  0  0  0  0
  -24.6423  -15.8437   20.5210 H   0  0  0  0  0  0
  -26.2512  -15.6354   20.0525 H   0  0  0  0  0  0
  -26.7224  -32.5365   23.1037 H   0  0  0  0  0  0
  -25.0171  -33.9656   25.0444 H   0  0  0  0  0  0
  -22.7289  -31.2986   21.3969 H   0  0  0  0  0  0
  -23.3746  -35.9613   23.3334 H   0  0  0  0  0  0
  -24.3575  -36.8845   22.2045 H   0  0  0  0  0  0
  -23.7250  -37.6480   23.6640 H   0  0  0  0  0  0
  -26.1270  -31.5214   20.6153 H   0  0  0  0  0  0
  -26.8578  -30.8020   22.0168 H   0  0  0  0  0  0
  -28.1203  -28.8910   21.2114 H   0  0  0  0  0  0
  -25.9259  -25.8777   19.0291 H   0  0  0  0  0  0
  -23.9567  -27.3071   19.0085 H   0  0  0  0  0  0
  -23.7739  -30.5888   19.4019 H   0  0  0  0  0  0
  -22.7677  -29.2440   19.8506 H   0  0  0  0  0  0
  -25.1314  -36.1904   25.0813 H   0  0  0  0  0  0
  -20.9994  -28.3259   24.1386 H   0  0  0  0  0  0
  -20.5694  -26.2284   23.3601 H   0  0  0  0  0  0
  -21.6654  -26.7414   22.1189 H   0  0  0  0  0  0
  -19.6919  -25.6276   21.1242 H   0  0  0  0  0  0
  -19.6716  -27.3170   20.6735 H   0  0  0  0  0  0
  -17.4217  -26.6667   21.4016 H   0  0  0  0  0  0
  -18.0343  -26.0069   22.9014 H   0  0  0  0  0  0
  -19.7945  -30.7281   24.2230 H   0  0  0  0  0  0
  -17.5014  -31.6259   24.5157 H   0  0  0  0  0  0
  -15.5350  -30.2959   23.7665 H   0  0  0  0  0  0
  -15.8690  -28.0787   22.7096 H   0  0  0  0  0  0
  -24.5942  -30.7059   25.7766 H   0  0  0  0  0  0
  -24.8931  -32.2899   26.4833 H   0  0  0  0  0  0
  -25.8072  -30.8928   27.0223 H   0  0  0  0  0  0
  -26.2981  -29.6724   24.1252 H   0  0  0  0  0  0
  -27.4087  -29.7278   25.4739 H   0  0  0  0  0  0
  -27.8856  -30.4276   23.9468 H   0  0  0  0  0  0
  -27.2683  -33.3642   26.2044 H   0  0  0  0  0  0
  -28.3914  -32.6861   25.0345 H   0  0  0  0  0  0
  -28.0726  -31.8470   26.5434 H   0  0  0  0  0  0
  -28.2615  -38.0068   24.7485 H   0  0  0  0  0  0
  -28.1046  -36.2589   24.6359 H   0  0  0  0  0  0
  -27.2274  -37.1518   25.8866 H   0  0  0  0  0  0
  -20.9430  -29.8757   21.6853 H   0  0  0  0  0  0
  -26.0178  -38.2824   24.1393 H   0  0  0  0  0  0
  -30.1676  -19.2087   22.7326 H   0  0  0  0  0  0
  -29.1600  -18.5684   18.6154 H   0  0  0  0  0  0
  -29.7659  -21.5989   22.4792 H   0  0  0  0  0  0
  -28.7207  -20.9542   18.3570 H   0  0  0  0  0  0
  -28.2846  -25.7595   18.2764 H   0  0  0  0  0  0
  -29.6463  -24.4133   17.2083 H   0  0  0  0  0  0
  -29.2227  -22.7352   17.4328 H   0  0  0  0  0  0
  -31.5152  -22.4847   18.0797 H   0  0  0  0  0  0
  -31.6991  -24.2353   18.3132 H   0  0  0  0  0  0
  -28.9212  -15.9111   20.4411 H   0  0  0  0  0  0
  1 25  1  0  0  0
  1 30  2  0  0  0
  1 84  1  0  0  0
  2  3  1  0  0  0
  2 25  1  0  0  0
  2 87  1  0  0  0
  2 88  1  0  0  0
  3  4  1  0  0  0
  3 89  1  0  0  0
  3 90  1  0  0  0
  4  5  1  0  0  0
  4 91  1  0  0  0
  4 92  1  0  0  0
  5  6  1  0  0  0
  5 26  1  0  0  0
  5 93  1  0  0  0
  6 25  1  0  0  0
  6 94  1  0  0  0
  6 95  1  0  0  0
  7  8  2  0  0  0
  7 26  1  0  0  0
  7 29  1  0  0  0
  8  9  1  0  0  0
  8 22  1  0  0  0
  9 10  1  0  0  0
  9 27  2  0  0  0
 10 11  2  0  0  0
 10 15  1  0  0  0
 11 12  1  0  0  0
 11 96  1  0  0  0
 12 13  2  0  0  0
 12 97  1  0  0  0
 13 14  1  0  0  0
 13 31  1  0  0  0
 14 15  2  0  0  0
 14 98  1  0  0  0
 15 99  1  0  0  0
 16 17  2  0  0  0
 16 21  1  0  0  0
 16 31  1  0  0  0
 17 18  1  0  0  0
 17100  1  0  0  0
 18 19  2  0  0  0
 18101  1  0  0  0
 19 20  1  0  0  0
 19 24  1  0  0  0
 20 21  2  0  0  0
 20102  1  0  0  0
 21 23  1  0  0  0
 22 28  1  0  0  0
 22 32  2  0  0  0
 26 27  1  0  0  0
 28103  1  0  0  0
 28104  1  0  0  0
 29105  1  0  0  0
 29106  1  0  0  0
 33 34  1  0  0  0
 33 66  1  0  0  0
 33 70  2  0  0  0
 34 36  1  0  0  0
 34 59  1  0  0  0
 34107  1  0  0  0
 35 44  2  0  0  0
 35 45  1  0  0  0
 35 68  1  0  0  0
 36 56  1  0  0  0
 36108  1  0  0  0
 37 39  1  0  0  0
 37 47  1  0  0  0
 37 66  1  0  0  0
 37109  1  0  0  0
 38 43  2  0  0  0
 38 46  1  0  0  0
 38 47  1  0  0  0
 39 64  1  0  0  0
 39 67  2  0  0  0
 40 52  1  0  0  0
 40 53  2  0  0  0
 40 58  1  0  0  0
 41110  1  0  0  0
 41111  1  0  0  0
 41112  1  0  0  0
 41 48  1  0  0  0
 42 43  1  0  0  0
 42 66  1  0  0  0
 42113  1  0  0  0
 42114  1  0  0  0
 43 44  1  0  0  0
 44115  1  0  0  0
 45 46  2  0  0  0
 45116  1  0  0  0
 46117  1  0  0  0
 47118  1  0  0  0
 47119  1  0  0  0
 48 56  1  0  0  0
 48 65  1  0  0  0
 48120  1  0  0  0
 49 50  1  0  0  0
 49 53  1  0  0  0
 49 64  1  0  0  0
 49121  1  0  0  0
 50 51  1  0  0  0
 50122  1  0  0  0
 50123  1  0  0  0
 51 52  1  0  0  0
 51124  1  0  0  0
 51125  1  0  0  0
 52126  1  0  0  0
 52127  1  0  0  0
 53 54  1  0  0  0
 54 55  2  0  0  0
 54128  1  0  0  0
 55 57  1  0  0  0
 55129  1  0  0  0
 56 69  2  0  0  0
 57 58  2  0  0  0
 57130  1  0  0  0
 58131  1  0  0  0
 59 60  1  0  0  0
 59 61  1  0  0  0
 59 62  1  0  0  0
 60132  1  0  0  0
 60133  1  0  0  0
 60134  1  0  0  0
 61135  1  0  0  0
 61136  1  0  0  0
 61137  1  0  0  0
 62138  1  0  0  0
 62139  1  0  0  0
 62140  1  0  0  0
 63 65  1  0  0  0
 63141  1  0  0  0
 63142  1  0  0  0
 63143  1  0  0  0
 64144  1  0  0  0
 65145  1  0  0  0
 68 79  1  0  0  0
 71 73  2  0  0  0
 71 75  1  0  0  0
 71146  1  0  0  0
 72 74  1  0  0  0
 72 75  2  0  0  0
 72147  1  0  0  0
 73 76  1  0  0  0
 73148  1  0  0  0
 74 76  2  0  0  0
 74149  1  0  0  0
 75 80  1  0  0  0
 76 83  1  0  0  0
 77 79  2  0  0  0
 77 81  1  0  0  0
 77 83  1  0  0  0
 78 82  1  0  0  0
 78 83  1  0  0  0
 78 85  2  0  0  0
 79150  1  0  0  0
 80 84  1  0  0  0
 80 86  2  0  0  0
 81 82  1  0  0  0
 81151  1  0  0  0
 81152  1  0  0  0
 82153  1  0  0  0
 82154  1  0  0  0
 84155  1  0  0  0
M  ISO  4   1 100  68 101  79 101  84 100
M  END
> <chiral flag>
0

> <version>
0

> <s_m_source_file>
/data/baiqing/PycharmProjects/Reinvent-master-3.2/result/LINK_invent/BTK/process_docking_weight1_custom_product_contain_oxygen_bond_distance_aromatic_linkinvent_7_9_3/rearranged_h_0081.sdf

> <i_m_source_file_index>
41

> <r_mmod_Potential_Energy-OPLS-2005>
520.422668457031

> <r_mmod_Stretch_Energy-OPLS-2005>
127.795845031738

> <r_mmod_Bend_Energy-OPLS-2005>
304.160217285156

> <r_mmod_Torsional_Energy-OPLS-2005>
409.924102783203

> <r_mmod_Improper_Torsional_Energy-OPLS-2005>
18.9020957946777

> <r_mmod_Van_der_Waal_Energy-OPLS-2005>
154.878128051758

> <r_mmod_Electrostatic_Energy-OPLS-2005>
-358.977569580078

> <r_mmod_Solvation_Energy-OPLS-2005>
-240.357345581055

> <b_mmod_Minimization_Converged-OPLS-2005>
0

> <r_mmod_RMS_Derivative-OPLS-2005>
2.02208709716797

$$$$
41
                    3D
 Structure written by MMmdl.
144151  0  0  1  0            999 V2000
  -30.4008  -15.3633   20.3600 C   0  0  0  0  0  0
  -30.4344  -12.8652   19.5643 C   0  0  0  0  0  0
  -29.5495  -12.6112   18.3149 C   0  0  0  0  0  0
  -28.0989  -12.3144   18.7280 C   0  0  0  0  0  0
  -27.6087  -13.2924   19.8230 C   0  0  2  0  0  0
  -28.6285  -13.5043   20.9625 C   0  0  0  0  0  0
  -25.2371  -13.8282   20.5758 C   0  0  0  0  0  0
  -24.1730  -13.0448   20.9237 C   0  0  0  0  0  0
  -24.6407  -11.6950   20.8735 C   0  0  0  0  0  0
  -23.9109  -10.4300   21.0388 C   0  0  0  0  0  0
  -24.3650   -9.4215   21.9173 C   0  0  0  0  0  0
  -23.6315   -8.2254   22.0751 C   0  0  0  0  0  0
  -22.4294   -8.0290   21.3543 C   0  0  0  0  0  0
  -21.9935   -9.0264   20.4643 C   0  0  0  0  0  0
  -22.7273  -10.2137   20.3045 C   0  0  0  0  0  0
  -21.6860   -6.0743   22.5279 C   0  0  0  0  0  0
  -21.4020   -6.5644   23.8214 C   0  0  0  0  0  0
  -21.3663   -5.6794   24.9175 C   0  0  0  0  0  0
  -21.6046   -4.3057   24.7223 C   0  0  0  0  0  0
  -21.8818   -3.8150   23.4344 C   0  0  0  0  0  0
  -21.9195   -4.6969   22.3401 C   0  0  0  0  0  0
  -22.7747  -13.5185   21.1900 C   0  0  0  0  0  0
  -22.1661   -4.2156   21.0977 F   0  0  0  0  0  0
  -21.5628   -3.4540   25.7733 F   0  0  0  0  0  0
  -29.8669  -14.0284   20.3603 N   0  0  0  0  0  0
  -26.2806  -12.9585   20.3205 N   0  0  0  0  0  0
  -25.9348  -11.6669   20.5682 N   0  0  0  0  0  0
  -22.0420  -12.8158   22.0459 N   0  0  0  0  0  0
  -25.4028  -15.2023   20.4268 N   0  0  0  0  0  0
  -31.5958  -15.3334   20.0380 O   0  0  0  0  0  0
  -21.6651   -6.8889   21.4242 O   0  0  0  0  0  0
  -22.3415  -14.5487   20.6752 O   0  0  0  0  0  0
  -24.6680  -31.8162   23.1643 C   0  0  0  0  0  0
  -25.9335  -32.4548   23.8134 C   0  0  1  0  0  0
  -27.2228  -26.8613   20.1904 C   0  0  0  0  0  0
  -25.5977  -33.8366   24.2032 N   0  0  0  0  0  0
  -23.4866  -30.4237   21.5140 C   0  0  2  0  0  0
  -24.9427  -28.7975   20.1086 C   0  0  0  0  0  0
  -22.7694  -29.4396   22.4754 C   0  0  0  0  0  0
  -18.0326  -28.1412   22.8463 C   0  0  0  0  0  0
  -24.1493  -36.7190   23.2648 C   0  0  0  0  0  0
  -26.0581  -30.5993   21.4064 C   0  0  0  0  0  0
  -26.1244  -29.1818   20.7527 C   0  0  0  0  0  0
  -27.2516  -28.2333   20.7730 C   0  0  0  0  0  0
  -26.0152  -26.6491   19.4849 C   0  0  0  0  0  0
  -24.9172  -27.5536   19.4544 C   0  0  0  0  0  0
  -23.7307  -29.7327   20.1422 C   0  0  0  0  0  0
  -25.4137  -36.2944   24.0294 C   0  0  1  0  0  0
  -20.5953  -28.3760   23.1174 C   0  0  2  0  0  0
  -20.6797  -26.9434   22.5403 C   0  0  0  0  0  0
  -19.5772  -26.6374   21.5214 C   0  0  0  0  0  0
  -18.1955  -26.7943   22.1622 C   0  0  0  0  0  0
  -19.1589  -28.8908   23.2803 C   0  0  0  0  0  0
  -18.9499  -30.1496   23.8841 C   0  0  0  0  0  0
  -17.6492  -30.6600   24.0554 C   0  0  0  0  0  0
  -25.9107  -34.9329   23.4991 C   0  0  0  0  0  0
  -16.5381  -29.9085   23.6345 C   0  0  0  0  0  0
  -16.7308  -28.6506   23.0363 C   0  0  0  0  0  0
  -26.4566  -31.6522   25.0693 C   0  0  0  0  0  0
  -25.3676  -31.3797   26.1340 C   0  0  0  0  0  0
  -27.0475  -30.2877   24.6484 C   0  0  0  0  0  0
  -27.6042  -32.4350   25.7502 C   0  0  0  0  0  0
  -27.5570  -37.1749   24.8464 C   0  0  0  0  0  0
  -21.4356  -29.3036   22.3511 N   0  0  0  0  0  0
  -26.4276  -37.3689   23.9410 N   0  0  0  0  0  0
  -24.7593  -30.9758   22.0813 N   0  0  0  0  0  0
  -23.4211  -28.7981   23.3030 O   0  0  0  0  0  0
  -28.2131  -25.7267   20.3179 O   0  0  0  0  0  0
  -26.5732  -34.8878   22.4597 O   0  0  0  0  0  0
  -23.5735  -32.1167   23.6693 O   0  0  0  0  0  0
  -28.7234  -22.9273   20.4673 C   0  0  0  0  0  0
  -28.1331  -24.2084   19.9657 C   0  0  0  0  0  0
  -28.7831  -21.2728   19.9553 C   0  0  0  0  0  0
  -29.7778  -18.0607   20.2078 C   0  0  0  0  0  0
  -30.7625  -18.2767   19.0766 C   0  0  0  0  0  0
  -29.1409  -19.6999   20.7315 C   0  0  0  0  0  0
  -29.6165  -16.7020   20.6480 N   0  0  0  0  0  0
  -28.4959  -21.1188   18.7654 O   0  0  0  0  0  0
  -31.4591  -13.0527   19.2418 H   0  0  0  0  0  0
  -30.4929  -11.9661   20.1804 H   0  0  0  0  0  0
  -29.9491  -11.7862   17.7237 H   0  0  0  0  0  0
  -29.5739  -13.4919   17.6715 H   0  0  0  0  0  0
  -28.0652  -11.2924   19.1072 H   0  0  0  0  0  0
  -27.4384  -12.3434   17.8605 H   0  0  0  0  0  0
  -27.5147  -14.2527   19.3141 H   0  0  0  0  0  0
  -28.8008  -12.5835   21.5217 H   0  0  0  0  0  0
  -28.2438  -14.2324   21.6786 H   0  0  0  0  0  0
  -25.2790   -9.5693   22.4754 H   0  0  0  0  0  0
  -24.0021   -7.4647   22.7474 H   0  0  0  0  0  0
  -21.0864   -8.8788   19.8950 H   0  0  0  0  0  0
  -22.3729  -10.9678   19.6157 H   0  0  0  0  0  0
  -21.2014   -7.6152   23.9719 H   0  0  0  0  0  0
  -21.1487   -6.0523   25.9078 H   0  0  0  0  0  0
  -22.0593   -2.7612   23.2839 H   0  0  0  0  0  0
  -22.4064  -11.9832   22.4847 H   0  0  0  0  0  0
  -21.1030  -13.1156   22.2669 H   0  0  0  0  0  0
  -24.6459  -15.8629   20.5656 H   0  0  0  0  0  0
  -26.2754  -15.6448   20.1636 H   0  0  0  0  0  0
  -26.7407  -32.5064   23.0846 H   0  0  0  0  0  0
  -25.0054  -33.9432   25.0137 H   0  0  0  0  0  0
  -22.8032  -31.2568   21.3370 H   0  0  0  0  0  0
  -23.3770  -35.9504   23.3268 H   0  0  0  0  0  0
  -24.3569  -36.8884   22.2072 H   0  0  0  0  0  0
  -23.7235  -37.6356   23.6739 H   0  0  0  0  0  0
  -26.2459  -31.3355   20.6238 H   0  0  0  0  0  0
  -26.9150  -30.6595   22.0652 H   0  0  0  0  0  0
  -28.1399  -28.5219   21.3168 H   0  0  0  0  0  0
  -25.8767  -25.6995   18.9895 H   0  0  0  0  0  0
  -24.0207  -27.2533   18.9294 H   0  0  0  0  0  0
  -23.8901  -30.4986   19.3823 H   0  0  0  0  0  0
  -22.8394  -29.1893   19.8239 H   0  0  0  0  0  0
  -25.1338  -36.1729   25.0784 H   0  0  0  0  0  0
  -21.0040  -28.3374   24.1298 H   0  0  0  0  0  0
  -20.5666  -26.2384   23.3652 H   0  0  0  0  0  0
  -21.6661  -26.7395   22.1218 H   0  0  0  0  0  0
  -19.6930  -25.6270   21.1281 H   0  0  0  0  0  0
  -19.6712  -27.3153   20.6719 H   0  0  0  0  0  0
  -17.4223  -26.6683   21.4027 H   0  0  0  0  0  0
  -18.0350  -26.0099   22.9032 H   0  0  0  0  0  0
  -19.7975  -30.7327   24.2185 H   0  0  0  0  0  0
  -17.5043  -31.6273   24.5168 H   0  0  0  0  0  0
  -15.5379  -30.2970   23.7700 H   0  0  0  0  0  0
  -15.8709  -28.0807   22.7109 H   0  0  0  0  0  0
  -24.5865  -30.7142   25.7647 H   0  0  0  0  0  0
  -24.8862  -32.3009   26.4633 H   0  0  0  0  0  0
  -25.7892  -30.9046   27.0207 H   0  0  0  0  0  0
  -26.3157  -29.6530   24.1473 H   0  0  0  0  0  0
  -27.3955  -29.7272   25.5171 H   0  0  0  0  0  0
  -27.9119  -30.4035   23.9944 H   0  0  0  0  0  0
  -27.2595  -33.3698   26.1936 H   0  0  0  0  0  0
  -28.3928  -32.6838   25.0388 H   0  0  0  0  0  0
  -28.0628  -31.8576   26.5539 H   0  0  0  0  0  0
  -28.2556  -38.0075   24.7524 H   0  0  0  0  0  0
  -28.1097  -36.2600   24.6274 H   0  0  0  0  0  0
  -27.2288  -37.1369   25.8866 H   0  0  0  0  0  0
  -20.9625  -29.8715   21.6620 H   0  0  0  0  0  0
  -26.0115  -38.2742   24.1427 H   0  0  0  0  0  0
  -29.3082  -23.0653   21.3642 H   0  0  0  0  0  0
  -27.5214  -24.1134   19.0803 H   0  0  0  0  0  0
  -30.7029  -19.2943   18.6926 H   0  0  0  0  0  0
  -30.5531  -17.5953   18.2520 H   0  0  0  0  0  0
  -31.7813  -18.1044   19.4233 H   0  0  0  0  0  0
  -28.2026  -19.4706   21.2351 H   0  0  0  0  0  0
  -29.8006  -19.9900   21.5484 H   0  0  0  0  0  0
  1 25  1  0  0  0
  1 30  2  0  0  0
  1 77  1  0  0  0
  2  3  1  0  0  0
  2 25  1  0  0  0
  2 79  1  0  0  0
  2 80  1  0  0  0
  3  4  1  0  0  0
  3 81  1  0  0  0
  3 82  1  0  0  0
  4  5  1  0  0  0
  4 83  1  0  0  0
  4 84  1  0  0  0
  5  6  1  0  0  0
  5 26  1  0  0  0
  5 85  1  0  0  0
  6 25  1  0  0  0
  6 86  1  0  0  0
  6 87  1  0  0  0
  7  8  2  0  0  0
  7 26  1  0  0  0
  7 29  1  0  0  0
  8  9  1  0  0  0
  8 22  1  0  0  0
  9 10  1  0  0  0
  9 27  2  0  0  0
 10 11  2  0  0  0
 10 15  1  0  0  0
 11 12  1  0  0  0
 11 88  1  0  0  0
 12 13  2  0  0  0
 12 89  1  0  0  0
 13 14  1  0  0  0
 13 31  1  0  0  0
 14 15  2  0  0  0
 14 90  1  0  0  0
 15 91  1  0  0  0
 16 17  2  0  0  0
 16 21  1  0  0  0
 16 31  1  0  0  0
 17 18  1  0  0  0
 17 92  1  0  0  0
 18 19  2  0  0  0
 18 93  1  0  0  0
 19 20  1  0  0  0
 19 24  1  0  0  0
 20 21  2  0  0  0
 20 94  1  0  0  0
 21 23  1  0  0  0
 22 28  1  0  0  0
 22 32  2  0  0  0
 26 27  1  0  0  0
 28 95  1  0  0  0
 28 96  1  0  0  0
 29 97  1  0  0  0
 29 98  1  0  0  0
 33 34  1  0  0  0
 33 66  1  0  0  0
 33 70  2  0  0  0
 34 36  1  0  0  0
 34 59  1  0  0  0
 34 99  1  0  0  0
 35 44  2  0  0  0
 35 45  1  0  0  0
 35 68  1  0  0  0
 36 56  1  0  0  0
 36100  1  0  0  0
 37 39  1  0  0  0
 37 47  1  0  0  0
 37 66  1  0  0  0
 37101  1  0  0  0
 38 43  2  0  0  0
 38 46  1  0  0  0
 38 47  1  0  0  0
 39 64  1  0  0  0
 39 67  2  0  0  0
 40 52  1  0  0  0
 40 53  2  0  0  0
 40 58  1  0  0  0
 41102  1  0  0  0
 41103  1  0  0  0
 41104  1  0  0  0
 41 48  1  0  0  0
 42 43  1  0  0  0
 42 66  1  0  0  0
 42105  1  0  0  0
 42106  1  0  0  0
 43 44  1  0  0  0
 44107  1  0  0  0
 45 46  2  0  0  0
 45108  1  0  0  0
 46109  1  0  0  0
 47110  1  0  0  0
 47111  1  0  0  0
 48 56  1  0  0  0
 48 65  1  0  0  0
 48112  1  0  0  0
 49 50  1  0  0  0
 49 53  1  0  0  0
 49 64  1  0  0  0
 49113  1  0  0  0
 50 51  1  0  0  0
 50114  1  0  0  0
 50115  1  0  0  0
 51 52  1  0  0  0
 51116  1  0  0  0
 51117  1  0  0  0
 52118  1  0  0  0
 52119  1  0  0  0
 53 54  1  0  0  0
 54 55  2  0  0  0
 54120  1  0  0  0
 55 57  1  0  0  0
 55121  1  0  0  0
 56 69  2  0  0  0
 57 58  2  0  0  0
 57122  1  0  0  0
 58123  1  0  0  0
 59 60  1  0  0  0
 59 61  1  0  0  0
 59 62  1  0  0  0
 60124  1  0  0  0
 60125  1  0  0  0
 60126  1  0  0  0
 61127  1  0  0  0
 61128  1  0  0  0
 61129  1  0  0  0
 62130  1  0  0  0
 62131  1  0  0  0
 62132  1  0  0  0
 63 65  1  0  0  0
 63133  1  0  0  0
 63134  1  0  0  0
 63135  1  0  0  0
 64136  1  0  0  0
 65137  1  0  0  0
 68 72  1  0  0  0
 71 72  2  0  0  0
 71 73  1  0  0  0
 71138  1  0  0  0
 72139  1  0  0  0
 73 76  1  0  0  0
 73 78  2  0  0  0
 74 75  1  0  0  0
 74 76  1  0  0  0
 74 77  2  0  0  0
 75140  1  0  0  0
 75141  1  0  0  0
 75142  1  0  0  0
 76143  1  0  0  0
 76144  1  0  0  0
M  ISO  4   1 100  68 101  72 101  77 100
M  END
> <chiral flag>
0

> <version>
0

> <s_m_source_file>
/data/baiqing/PycharmProjects/Reinvent-master-3.2/result/LINK_invent/BTK/process_docking_weight1_custom_product_contain_oxygen_bond_distance_aromatic_linkinvent_7_9_3/rearranged_h_0081.sdf

> <i_m_source_file_index>
42

> <r_mmod_Potential_Energy-OPLS-2005>
1505.96667480469

> <r_mmod_Stretch_Energy-OPLS-2005>
722.0078125

> <r_mmod_Bend_Energy-OPLS-2005>
462.696868896484

> <r_mmod_Torsional_Energy-OPLS-2005>
176.22102355957

> <r_mmod_Improper_Torsional_Energy-OPLS-2005>
2.84892344474792

> <r_mmod_Van_der_Waal_Energy-OPLS-2005>
110.052047729492

> <r_mmod_Electrostatic_Energy-OPLS-2005>
-336.267028808594

> <r_mmod_Solvation_Energy-OPLS-2005>
-194.346176147461

> <b_mmod_Minimization_Converged-OPLS-2005>
0

> <r_mmod_RMS_Derivative-OPLS-2005>
0.268063366413116

$$$$
42
                    3D
 Structure written by MMmdl.
145153  0  0  1  0            999 V2000
  -30.3810  -15.4117   20.3393 C   0  0  0  0  0  0
  -30.4312  -12.8998   19.5656 C   0  0  0  0  0  0
  -29.5493  -12.6207   18.3180 C   0  0  0  0  0  0
  -28.1014  -12.3142   18.7320 C   0  0  0  0  0  0
  -27.6054  -13.2954   19.8216 C   0  0  2  0  0  0
  -28.6232  -13.5269   20.9608 C   0  0  0  0  0  0
  -25.2360  -13.8285   20.5767 C   0  0  0  0  0  0
  -24.1727  -13.0447   20.9258 C   0  0  0  0  0  0
  -24.6404  -11.6952   20.8742 C   0  0  0  0  0  0
  -23.9106  -10.4300   21.0387 C   0  0  0  0  0  0
  -24.3648   -9.4215   21.9170 C   0  0  0  0  0  0
  -23.6316   -8.2252   22.0746 C   0  0  0  0  0  0
  -22.4298   -8.0287   21.3539 C   0  0  0  0  0  0
  -21.9936   -9.0259   20.4637 C   0  0  0  0  0  0
  -22.7271  -10.2136   20.3042 C   0  0  0  0  0  0
  -21.6860   -6.0744   22.5281 C   0  0  0  0  0  0
  -21.4019   -6.5641   23.8218 C   0  0  0  0  0  0
  -21.3664   -5.6791   24.9176 C   0  0  0  0  0  0
  -21.6046   -4.3054   24.7223 C   0  0  0  0  0  0
  -21.8818   -3.8149   23.4342 C   0  0  0  0  0  0
  -21.9195   -4.6970   22.3402 C   0  0  0  0  0  0
  -22.7742  -13.5188   21.1907 C   0  0  0  0  0  0
  -22.1662   -4.2158   21.0978 F   0  0  0  0  0  0
  -21.5629   -3.4535   25.7732 F   0  0  0  0  0  0
  -29.8541  -14.0679   20.3544 N   0  0  0  0  0  0
  -26.2791  -12.9591   20.3200 N   0  0  0  0  0  0
  -25.9348  -11.6677   20.5683 N   0  0  0  0  0  0
  -22.0400  -12.8167   22.0456 N   0  0  0  0  0  0
  -25.4001  -15.2026   20.4267 N   0  0  0  0  0  0
  -31.5858  -15.3705   20.0380 O   0  0  0  0  0  0
  -21.6654   -6.8888   21.4245 O   0  0  0  0  0  0
  -22.3414  -14.5486   20.6741 O   0  0  0  0  0  0
  -24.6696  -31.8134   23.1615 C   0  0  0  0  0  0
  -25.9338  -32.4532   23.8120 C   0  0  1  0  0  0
  -27.2264  -26.8408   20.1950 C   0  0  0  0  0  0
  -25.5977  -33.8356   24.2021 N   0  0  0  0  0  0
  -23.4891  -30.4180   21.5117 C   0  0  2  0  0  0
  -24.9452  -28.7842   20.1087 C   0  0  0  0  0  0
  -22.7696  -29.4375   22.4752 C   0  0  0  0  0  0
  -18.0325  -28.1410   22.8462 C   0  0  0  0  0  0
  -24.1498  -36.7185   23.2650 C   0  0  0  0  0  0
  -26.0606  -30.5890   21.4066 C   0  0  0  0  0  0
  -26.1260  -29.1688   20.7539 C   0  0  0  0  0  0
  -27.2514  -28.2164   20.7745 C   0  0  0  0  0  0
  -26.0207  -26.6284   19.4881 C   0  0  0  0  0  0
  -24.9228  -27.5377   19.4552 C   0  0  0  0  0  0
  -23.7339  -29.7223   20.1413 C   0  0  0  0  0  0
  -25.4143  -36.2939   24.0293 C   0  0  1  0  0  0
  -20.5952  -28.3761   23.1174 C   0  0  2  0  0  0
  -20.6796  -26.9433   22.5406 C   0  0  0  0  0  0
  -19.5773  -26.6371   21.5214 C   0  0  0  0  0  0
  -18.1956  -26.7942   22.1617 C   0  0  0  0  0  0
  -19.1587  -28.8909   23.2803 C   0  0  0  0  0  0
  -18.9497  -30.1497   23.8840 C   0  0  0  0  0  0
  -17.6489  -30.6597   24.0553 C   0  0  0  0  0  0
  -25.9108  -34.9322   23.4985 C   0  0  0  0  0  0
  -16.5379  -29.9081   23.6346 C   0  0  0  0  0  0
  -16.7307  -28.6503   23.0363 C   0  0  0  0  0  0
  -26.4568  -31.6515   25.0687 C   0  0  0  0  0  0
  -25.3671  -31.3796   26.1327 C   0  0  0  0  0  0
  -27.0481  -30.2868   24.6492 C   0  0  0  0  0  0
  -27.6043  -32.4349   25.7495 C   0  0  0  0  0  0
  -27.5572  -37.1751   24.8464 C   0  0  0  0  0  0
  -21.4357  -29.3027   22.3504 N   0  0  0  0  0  0
  -26.4283  -37.3682   23.9402 N   0  0  0  0  0  0
  -24.7614  -30.9708   22.0794 N   0  0  0  0  0  0
  -23.4204  -28.7966   23.3041 O   0  0  0  0  0  0
  -28.2418  -25.7247   20.3278 O   0  0  0  0  0  0
  -26.5735  -34.8872   22.4593 O   0  0  0  0  0  0
  -23.5747  -32.1150   23.6653 O   0  0  0  0  0  0
  -28.1362  -21.2623   22.4655 C   0  0  0  0  0  0
  -28.5901  -20.0301   21.9031 C   0  0  0  0  0  0
  -28.0809  -22.5204   21.7949 C   0  0  0  0  0  0
  -28.9643  -21.3021   19.9100 C   0  0  0  0  0  0
  -29.0927  -19.8887   20.5878 C   0  0  0  0  0  0
  -28.4562  -22.6925   20.4464 C   0  0  0  0  0  0
  -29.6990  -18.2902   20.2047 C   0  0  0  0  0  0
  -29.5978  -16.8521   20.6363 C   0  0  0  0  0  0
  -28.1619  -24.0971   19.7898 N   0  0  0  0  0  0
  -31.4519  -13.0978   19.2384 H   0  0  0  0  0  0
  -30.5045  -12.0084   20.1907 H   0  0  0  0  0  0
  -29.9605  -11.7949   17.7362 H   0  0  0  0  0  0
  -29.5648  -13.4954   17.6657 H   0  0  0  0  0  0
  -28.0739  -11.2932   19.1150 H   0  0  0  0  0  0
  -27.4414  -12.3351   17.8638 H   0  0  0  0  0  0
  -27.5040  -14.2505   19.3043 H   0  0  0  0  0  0
  -28.8100  -12.6109   21.5228 H   0  0  0  0  0  0
  -28.2289  -14.2507   21.6753 H   0  0  0  0  0  0
  -25.2786   -9.5701   22.4752 H   0  0  0  0  0  0
  -24.0024   -7.4647   22.7468 H   0  0  0  0  0  0
  -21.0864   -8.8776   19.8947 H   0  0  0  0  0  0
  -22.3714  -10.9674   19.6154 H   0  0  0  0  0  0
  -21.2012   -7.6150   23.9727 H   0  0  0  0  0  0
  -21.1488   -6.0517   25.9081 H   0  0  0  0  0  0
  -22.0593   -2.7611   23.2839 H   0  0  0  0  0  0
  -22.4040  -11.9854   22.4875 H   0  0  0  0  0  0
  -21.0998  -13.1163   22.2635 H   0  0  0  0  0  0
  -24.6337  -15.8547   20.5527 H   0  0  0  0  0  0
  -26.2547  -15.6499   20.1192 H   0  0  0  0  0  0
  -26.7410  -32.5044   23.0831 H   0  0  0  0  0  0
  -25.0063  -33.9422   25.0132 H   0  0  0  0  0  0
  -22.8072  -31.2514   21.3316 H   0  0  0  0  0  0
  -23.3774  -35.9501   23.3277 H   0  0  0  0  0  0
  -24.3566  -36.8872   22.2070 H   0  0  0  0  0  0
  -23.7240  -37.6355   23.6735 H   0  0  0  0  0  0
  -26.2516  -31.3238   20.6234 H   0  0  0  0  0  0
  -26.9163  -30.6495   22.0670 H   0  0  0  0  0  0
  -28.1410  -28.5058   21.3156 H   0  0  0  0  0  0
  -25.8922  -25.6753   18.9952 H   0  0  0  0  0  0
  -24.0273  -27.2370   18.9289 H   0  0  0  0  0  0
  -23.8939  -30.4859   19.3792 H   0  0  0  0  0  0
  -22.8424  -29.1783   19.8248 H   0  0  0  0  0  0
  -25.1347  -36.1727   25.0785 H   0  0  0  0  0  0
  -21.0042  -28.3377   24.1298 H   0  0  0  0  0  0
  -20.5665  -26.2381   23.3655 H   0  0  0  0  0  0
  -21.6660  -26.7391   22.1221 H   0  0  0  0  0  0
  -19.6929  -25.6267   21.1283 H   0  0  0  0  0  0
  -19.6718  -27.3151   20.6722 H   0  0  0  0  0  0
  -17.4226  -26.6693   21.4019 H   0  0  0  0  0  0
  -18.0342  -26.0097   22.9025 H   0  0  0  0  0  0
  -19.7974  -30.7329   24.2184 H   0  0  0  0  0  0
  -17.5038  -31.6269   24.5165 H   0  0  0  0  0  0
  -15.5376  -30.2961   23.7700 H   0  0  0  0  0  0
  -15.8710  -28.0798   22.7110 H   0  0  0  0  0  0
  -24.5869  -30.7131   25.7632 H   0  0  0  0  0  0
  -24.8843  -32.3008   26.4602 H   0  0  0  0  0  0
  -25.7876  -30.9058   27.0206 H   0  0  0  0  0  0
  -26.3168  -29.6512   24.1488 H   0  0  0  0  0  0
  -27.3961  -29.7274   25.5186 H   0  0  0  0  0  0
  -27.9130  -30.4024   23.9957 H   0  0  0  0  0  0
  -27.2598  -33.3702   26.1921 H   0  0  0  0  0  0
  -28.3930  -32.6827   25.0378 H   0  0  0  0  0  0
  -28.0629  -31.8580   26.5537 H   0  0  0  0  0  0
  -28.2564  -38.0072   24.7510 H   0  0  0  0  0  0
  -28.1095  -36.2593   24.6296 H   0  0  0  0  0  0
  -27.2285  -37.1393   25.8866 H   0  0  0  0  0  0
  -20.9629  -29.8700   21.6606 H   0  0  0  0  0  0
  -26.0126  -38.2741   24.1401 H   0  0  0  0  0  0
  -27.7965  -21.2403   23.4915 H   0  0  0  0  0  0
  -28.5835  -19.1576   22.5419 H   0  0  0  0  0  0
  -27.6868  -23.3711   22.3325 H   0  0  0  0  0  0
  -29.2837  -21.3202   18.8782 H   0  0  0  0  0  0
  -30.4500  -18.3857   19.4331 H   0  0  0  0  0  0
  -28.8395  -16.7191   21.3931 H   0  0  0  0  0  0
  -28.4367  -24.1113   18.8095 H   0  0  0  0  0  0
  1 25  1  0  0  0
  1 30  2  0  0  0
  1 78  1  0  0  0
  2  3  1  0  0  0
  2 25  1  0  0  0
  2 80  1  0  0  0
  2 81  1  0  0  0
  3  4  1  0  0  0
  3 82  1  0  0  0
  3 83  1  0  0  0
  4  5  1  0  0  0
  4 84  1  0  0  0
  4 85  1  0  0  0
  5  6  1  0  0  0
  5 26  1  0  0  0
  5 86  1  0  0  0
  6 25  1  0  0  0
  6 87  1  0  0  0
  6 88  1  0  0  0
  7  8  2  0  0  0
  7 26  1  0  0  0
  7 29  1  0  0  0
  8  9  1  0  0  0
  8 22  1  0  0  0
  9 10  1  0  0  0
  9 27  2  0  0  0
 10 11  2  0  0  0
 10 15  1  0  0  0
 11 12  1  0  0  0
 11 89  1  0  0  0
 12 13  2  0  0  0
 12 90  1  0  0  0
 13 14  1  0  0  0
 13 31  1  0  0  0
 14 15  2  0  0  0
 14 91  1  0  0  0
 15 92  1  0  0  0
 16 17  2  0  0  0
 16 21  1  0  0  0
 16 31  1  0  0  0
 17 18  1  0  0  0
 17 93  1  0  0  0
 18 19  2  0  0  0
 18 94  1  0  0  0
 19 20  1  0  0  0
 19 24  1  0  0  0
 20 21  2  0  0  0
 20 95  1  0  0  0
 21 23  1  0  0  0
 22 28  1  0  0  0
 22 32  2  0  0  0
 26 27  1  0  0  0
 28 96  1  0  0  0
 28 97  1  0  0  0
 29 98  1  0  0  0
 29 99  1  0  0  0
 33 34  1  0  0  0
 33 66  1  0  0  0
 33 70  2  0  0  0
 34 36  1  0  0  0
 34 59  1  0  0  0
 34100  1  0  0  0
 35 44  2  0  0  0
 35 45  1  0  0  0
 35 68  1  0  0  0
 36 56  1  0  0  0
 36101  1  0  0  0
 37 39  1  0  0  0
 37 47  1  0  0  0
 37 66  1  0  0  0
 37102  1  0  0  0
 38 43  2  0  0  0
 38 46  1  0  0  0
 38 47  1  0  0  0
 39 64  1  0  0  0
 39 67  2  0  0  0
 40 52  1  0  0  0
 40 53  2  0  0  0
 40 58  1  0  0  0
 41103  1  0  0  0
 41104  1  0  0  0
 41105  1  0  0  0
 41 48  1  0  0  0
 42 43  1  0  0  0
 42 66  1  0  0  0
 42106  1  0  0  0
 42107  1  0  0  0
 43 44  1  0  0  0
 44108  1  0  0  0
 45 46  2  0  0  0
 45109  1  0  0  0
 46110  1  0  0  0
 47111  1  0  0  0
 47112  1  0  0  0
 48 56  1  0  0  0
 48 65  1  0  0  0
 48113  1  0  0  0
 49 50  1  0  0  0
 49 53  1  0  0  0
 49 64  1  0  0  0
 49114  1  0  0  0
 50 51  1  0  0  0
 50115  1  0  0  0
 50116  1  0  0  0
 51 52  1  0  0  0
 51117  1  0  0  0
 51118  1  0  0  0
 52119  1  0  0  0
 52120  1  0  0  0
 53 54  1  0  0  0
 54 55  2  0  0  0
 54121  1  0  0  0
 55 57  1  0  0  0
 55122  1  0  0  0
 56 69  2  0  0  0
 57 58  2  0  0  0
 57123  1  0  0  0
 58124  1  0  0  0
 59 60  1  0  0  0
 59 61  1  0  0  0
 59 62  1  0  0  0
 60125  1  0  0  0
 60126  1  0  0  0
 60127  1  0  0  0
 61128  1  0  0  0
 61129  1  0  0  0
 61130  1  0  0  0
 62131  1  0  0  0
 62132  1  0  0  0
 62133  1  0  0  0
 63 65  1  0  0  0
 63134  1  0  0  0
 63135  1  0  0  0
 63136  1  0  0  0
 64137  1  0  0  0
 65138  1  0  0  0
 68 79  1  0  0  0
 71 72  2  0  0  0
 71 73  1  0  0  0
 71139  1  0  0  0
 72 75  1  0  0  0
 72140  1  0  0  0
 73 76  2  0  0  0
 73141  1  0  0  0
 74 75  2  0  0  0
 74 76  1  0  0  0
 74142  1  0  0  0
 75 77  1  0  0  0
 76 79  1  0  0  0
 77 78  2  0  0  0
 77143  1  0  0  0
 78144  1  0  0  0
 79145  1  0  0  0
M  ISO  4   1 100  68 101  78 100  79 101
M  END
> <chiral flag>
0

> <version>
0

> <s_m_source_file>
/data/baiqing/PycharmProjects/Reinvent-master-3.2/result/LINK_invent/BTK/process_docking_weight1_custom_product_contain_oxygen_bond_distance_aromatic_linkinvent_7_9_3/rearranged_h_0081.sdf

> <i_m_source_file_index>
43

> <r_mmod_Potential_Energy-OPLS-2005>
1552.11962890625

> <r_mmod_Stretch_Energy-OPLS-2005>
706.390625

> <r_mmod_Bend_Energy-OPLS-2005>
472.440979003906

> <r_mmod_Torsional_Energy-OPLS-2005>
184.134246826172

> <r_mmod_Improper_Torsional_Energy-OPLS-2005>
6.02667188644409

> <r_mmod_Van_der_Waal_Energy-OPLS-2005>
124.836944580078

> <r_mmod_Electrostatic_Energy-OPLS-2005>
-337.047973632812

> <r_mmod_Solvation_Energy-OPLS-2005>
-209.683959960938

> <b_mmod_Minimization_Converged-OPLS-2005>
0

> <r_mmod_RMS_Derivative-OPLS-2005>
0.774021148681641

$$$$
43
                    3D
 Structure written by MMmdl.
157165  0  0  1  0            999 V2000
  -30.5915  -14.6253   20.5623 C   0  0  0  0  0  0
  -30.4424  -12.3875   19.4677 C   0  0  0  0  0  0
  -29.5169  -12.4988   18.2343 C   0  0  0  0  0  0
  -28.0367  -12.3337   18.6369 C   0  0  0  0  0  0
  -27.6544  -13.2011   19.8659 C   0  0  2  0  0  0
  -28.6876  -13.0206   20.9998 C   0  0  0  0  0  0
  -25.2530  -13.8114   20.5611 C   0  0  0  0  0  0
  -24.1811  -13.0432   20.9132 C   0  0  0  0  0  0
  -24.6341  -11.6887   20.8689 C   0  0  0  0  0  0
  -23.8980  -10.4296   21.0359 C   0  0  0  0  0  0
  -24.3564   -9.4225   21.9138 C   0  0  0  0  0  0
  -23.6267   -8.2233   22.0762 C   0  0  0  0  0  0
  -22.4234   -8.0244   21.3553 C   0  0  0  0  0  0
  -21.9844   -9.0195   20.4644 C   0  0  0  0  0  0
  -22.7143  -10.2098   20.3029 C   0  0  0  0  0  0
  -21.6851   -6.0670   22.5252 C   0  0  0  0  0  0
  -21.4006   -6.5617   23.8163 C   0  0  0  0  0  0
  -21.3670   -5.6788   24.9149 C   0  0  0  0  0  0
  -21.6063   -4.3039   24.7219 C   0  0  0  0  0  0
  -21.8825   -3.8107   23.4340 C   0  0  0  0  0  0
  -21.9181   -4.6904   22.3377 C   0  0  0  0  0  0
  -22.7856  -13.5257   21.1808 C   0  0  0  0  0  0
  -22.1653   -4.2107   21.0953 F   0  0  0  0  0  0
  -21.5636   -3.4534   25.7723 F   0  0  0  0  0  0
  -30.0087  -13.3897   20.4636 N   0  0  0  0  0  0
  -26.2959  -12.9285   20.3247 N   0  0  0  0  0  0
  -25.9271  -11.6457   20.5708 N   0  0  0  0  0  0
  -22.0497  -12.8245   22.0376 N   0  0  0  0  0  0
  -25.4354  -15.1833   20.4148 N   0  0  0  0  0  0
  -31.7250  -14.8365   20.1126 O   0  0  0  0  0  0
  -21.6632   -6.8834   21.4220 O   0  0  0  0  0  0
  -22.3544  -14.5561   20.6676 O   0  0  0  0  0  0
  -24.6384  -31.8591   23.2022 C   0  0  0  0  0  0
  -25.9180  -32.4748   23.8346 C   0  0  1  0  0  0
  -27.1853  -27.2543   20.0981 C   0  0  0  0  0  0
  -25.5945  -33.8524   24.2245 N   0  0  0  0  0  0
  -23.4314  -30.4883   21.5476 C   0  0  2  0  0  0
  -24.8612  -28.9236   20.1253 C   0  0  0  0  0  0
  -22.7581  -29.4642   22.4943 C   0  0  0  0  0  0
  -18.0404  -28.1400   22.8454 C   0  0  0  0  0  0
  -24.1487  -36.7284   23.2642 C   0  0  0  0  0  0
  -25.9812  -30.7558   21.3891 C   0  0  0  0  0  0
  -26.0412  -29.3757   20.7334 C   0  0  0  0  0  0
  -27.2138  -28.5498   20.7118 C   0  0  0  0  0  0
  -25.9790  -26.8638   19.4901 C   0  0  0  0  0  0
  -24.8338  -27.6708   19.5012 C   0  0  0  0  0  0
  -23.6487  -29.8307   20.1621 C   0  0  0  0  0  0
  -25.4108  -36.3037   24.0344 C   0  0  1  0  0  0
  -20.5962  -28.3725   23.1265 C   0  0  2  0  0  0
  -20.6909  -26.9481   22.5305 C   0  0  0  0  0  0
  -19.5875  -26.6552   21.5061 C   0  0  0  0  0  0
  -18.2035  -26.7986   22.1493 C   0  0  0  0  0  0
  -19.1590  -28.8896   23.2893 C   0  0  0  0  0  0
  -18.9466  -30.1500   23.8920 C   0  0  0  0  0  0
  -17.6455  -30.6603   24.0558 C   0  0  0  0  0  0
  -25.9072  -34.9419   23.5090 C   0  0  0  0  0  0
  -16.5379  -29.9032   23.6322 C   0  0  0  0  0  0
  -16.7366  -28.6445   23.0361 C   0  0  0  0  0  0
  -26.4528  -31.6597   25.0782 C   0  0  0  0  0  0
  -25.3725  -31.3791   26.1506 C   0  0  0  0  0  0
  -27.0359  -30.2998   24.6305 C   0  0  0  0  0  0
  -27.6092  -32.4330   25.7569 C   0  0  0  0  0  0
  -27.5539  -37.1795   24.8459 C   0  0  0  0  0  0
  -21.4291  -29.3123   22.3765 N   0  0  0  0  0  0
  -26.4255  -37.3751   23.9389 N   0  0  0  0  0  0
  -24.7015  -31.0537   22.1027 N   0  0  0  0  0  0
  -23.4288  -28.8105   23.2966 O   0  0  0  0  0  0
  -28.2937  -26.4170   19.8937 O   0  0  0  0  0  0
  -26.5636  -34.8891   22.4661 O   0  0  0  0  0  0
  -23.5523  -32.1483   23.7315 O   0  0  0  0  0  0
  -28.2147  -19.0294   20.4181 C   0  0  0  0  0  0
  -30.5919  -19.2722   20.1884 C   0  0  0  0  0  0
  -28.4069  -17.6619   20.7905 C   0  0  0  0  0  0
  -30.7846  -17.9041   20.5384 C   0  0  0  0  0  0
  -29.3047  -19.8843   20.0890 C   0  0  0  0  0  0
  -29.6892  -17.0424   20.8037 C   0  0  0  0  0  0
  -28.1925  -23.9677   19.9541 C   0  0  0  0  0  0
  -27.3335  -23.7499   18.7112 C   0  0  0  0  0  0
  -28.8088  -22.5855   20.4580 C   0  0  0  0  0  0
  -26.0129  -22.9794   18.9105 C   0  0  0  0  0  0
  -30.2263  -21.6958   18.4998 C   0  0  0  0  0  0
  -29.0799  -21.3422   19.4900 C   0  0  1  0  0  0
  -28.3735  -25.1167   20.5885 N   0  0  0  0  0  0
  -29.7995  -15.6117   21.0982 N   0  0  0  0  0  0
  -27.6178  -24.1910   17.5914 O   0  0  0  0  0  0
  -29.1748  -22.4692   21.6371 O   0  0  0  0  0  0
  -31.4866  -12.5161   19.1766 H   0  0  0  0  0  0
  -30.3770  -11.3901   19.9000 H   0  0  0  0  0  0
  -29.7908  -11.7428   17.4971 H   0  0  0  0  0  0
  -29.6593  -13.4619   17.7424 H   0  0  0  0  0  0
  -27.8757  -11.2824   18.8735 H   0  0  0  0  0  0
  -27.3887  -12.5529   17.7872 H   0  0  0  0  0  0
  -27.6880  -14.2409   19.5415 H   0  0  0  0  0  0
  -28.6987  -11.9801   21.3264 H   0  0  0  0  0  0
  -28.4130  -13.5972   21.8827 H   0  0  0  0  0  0
  -25.2735   -9.5690   22.4706 H   0  0  0  0  0  0
  -23.9950   -7.4660   22.7540 H   0  0  0  0  0  0
  -21.0753   -8.8714   19.8999 H   0  0  0  0  0  0
  -22.3583  -10.9619   19.6134 H   0  0  0  0  0  0
  -21.1998   -7.6144   23.9652 H   0  0  0  0  0  0
  -21.1499   -6.0526   25.9048 H   0  0  0  0  0  0
  -22.0595   -2.7575   23.2847 H   0  0  0  0  0  0
  -22.4162  -11.9934   22.4771 H   0  0  0  0  0  0
  -21.1120  -13.1334   22.2623 H   0  0  0  0  0  0
  -24.6791  -15.8479   20.5451 H   0  0  0  0  0  0
  -26.2830  -15.6103   20.0722 H   0  0  0  0  0  0
  -26.7257  -32.5373   23.1100 H   0  0  0  0  0  0
  -25.0038  -33.9648   25.0350 H   0  0  0  0  0  0
  -22.7297  -31.3114   21.4074 H   0  0  0  0  0  0
  -23.3680  -35.9659   23.3341 H   0  0  0  0  0  0
  -24.3574  -36.8910   22.2035 H   0  0  0  0  0  0
  -23.7327  -37.6554   23.6654 H   0  0  0  0  0  0
  -26.1223  -31.5042   20.6045 H   0  0  0  0  0  0
  -26.8638  -30.8113   22.0185 H   0  0  0  0  0  0
  -28.1315  -28.9049   21.1671 H   0  0  0  0  0  0
  -25.9113  -25.9289   18.9647 H   0  0  0  0  0  0
  -23.9292  -27.3153   19.0164 H   0  0  0  0  0  0
  -23.8004  -30.6177   19.4202 H   0  0  0  0  0  0
  -22.7619  -29.2825   19.8383 H   0  0  0  0  0  0
  -25.1255  -36.1895   25.0841 H   0  0  0  0  0  0
  -21.0035  -28.3242   24.1368 H   0  0  0  0  0  0
  -20.6063  -26.2237   23.3446 H   0  0  0  0  0  0
  -21.6748  -26.7682   22.0937 H   0  0  0  0  0  0
  -19.7120  -25.6585   21.0758 H   0  0  0  0  0  0
  -19.6780  -27.3611   20.6784 H   0  0  0  0  0  0
  -17.4365  -26.6897   21.3841 H   0  0  0  0  0  0
  -18.0337  -26.0021   22.8733 H   0  0  0  0  0  0
  -19.7980  -30.7385   24.2313 H   0  0  0  0  0  0
  -17.4998  -31.6325   24.5034 H   0  0  0  0  0  0
  -15.5359  -30.2989   23.7478 H   0  0  0  0  0  0
  -15.8835  -28.0798   22.6977 H   0  0  0  0  0  0
  -24.5840  -30.7221   25.7832 H   0  0  0  0  0  0
  -24.8984  -32.3001   26.4917 H   0  0  0  0  0  0
  -25.8012  -30.8965   27.0302 H   0  0  0  0  0  0
  -26.2957  -29.6794   24.1262 H   0  0  0  0  0  0
  -27.3967  -29.7241   25.4839 H   0  0  0  0  0  0
  -27.8865  -30.4265   23.9597 H   0  0  0  0  0  0
  -27.2656  -33.3588   26.2174 H   0  0  0  0  0  0
  -28.3865  -32.6976   25.0390 H   0  0  0  0  0  0
  -28.0783  -31.8461   26.5487 H   0  0  0  0  0  0
  -28.2575  -38.0063   24.7382 H   0  0  0  0  0  0
  -28.1012  -36.2584   24.6373 H   0  0  0  0  0  0
  -27.2258  -37.1563   25.8875 H   0  0  0  0  0  0
  -20.9433  -29.8932   21.7111 H   0  0  0  0  0  0
  -26.0132  -38.2834   24.1375 H   0  0  0  0  0  0
  -27.2020  -19.4009   20.3361 H   0  0  0  0  0  0
  -31.4779  -19.8405   19.9583 H   0  0  0  0  0  0
  -27.5299  -17.0859   21.0429 H   0  0  0  0  0  0
  -31.7928  -17.5192   20.6019 H   0  0  0  0  0  0
  -25.2074  -23.6576   19.1948 H   0  0  0  0  0  0
  -25.7108  -22.4525   18.0038 H   0  0  0  0  0  0
  -26.0933  -22.2288   19.7062 H   0  0  0  0  0  0
  -30.3396  -20.9257   17.7303 H   0  0  0  0  0  0
  -31.1866  -21.7894   19.0066 H   0  0  0  0  0  0
  -30.0681  -22.6414   17.9820 H   0  0  0  0  0  0
  -28.1982  -21.2231   18.8605 H   0  0  0  0  0  0
  -28.9832  -15.2202   21.5432 H   0  0  0  0  0  0
  1 25  1  0  0  0
  1 30  2  0  0  0
  1 84  1  0  0  0
  2  3  1  0  0  0
  2 25  1  0  0  0
  2 87  1  0  0  0
  2 88  1  0  0  0
  3  4  1  0  0  0
  3 89  1  0  0  0
  3 90  1  0  0  0
  4  5  1  0  0  0
  4 91  1  0  0  0
  4 92  1  0  0  0
  5  6  1  0  0  0
  5 26  1  0  0  0
  5 93  1  0  0  0
  6 25  1  0  0  0
  6 94  1  0  0  0
  6 95  1  0  0  0
  7  8  2  0  0  0
  7 26  1  0  0  0
  7 29  1  0  0  0
  8  9  1  0  0  0
  8 22  1  0  0  0
  9 10  1  0  0  0
  9 27  2  0  0  0
 10 11  2  0  0  0
 10 15  1  0  0  0
 11 12  1  0  0  0
 11 96  1  0  0  0
 12 13  2  0  0  0
 12 97  1  0  0  0
 13 14  1  0  0  0
 13 31  1  0  0  0
 14 15  2  0  0  0
 14 98  1  0  0  0
 15 99  1  0  0  0
 16 17  2  0  0  0
 16 21  1  0  0  0
 16 31  1  0  0  0
 17 18  1  0  0  0
 17100  1  0  0  0
 18 19  2  0  0  0
 18101  1  0  0  0
 19 20  1  0  0  0
 19 24  1  0  0  0
 20 21  2  0  0  0
 20102  1  0  0  0
 21 23  1  0  0  0
 22 28  1  0  0  0
 22 32  2  0  0  0
 26 27  1  0  0  0
 28103  1  0  0  0
 28104  1  0  0  0
 29105  1  0  0  0
 29106  1  0  0  0
 33 34  1  0  0  0
 33 66  1  0  0  0
 33 70  2  0  0  0
 34 36  1  0  0  0
 34 59  1  0  0  0
 34107  1  0  0  0
 35 44  2  0  0  0
 35 45  1  0  0  0
 35 68  1  0  0  0
 36 56  1  0  0  0
 36108  1  0  0  0
 37 39  1  0  0  0
 37 47  1  0  0  0
 37 66  1  0  0  0
 37109  1  0  0  0
 38 43  2  0  0  0
 38 46  1  0  0  0
 38 47  1  0  0  0
 39 64  1  0  0  0
 39 67  2  0  0  0
 40 52  1  0  0  0
 40 53  2  0  0  0
 40 58  1  0  0  0
 41110  1  0  0  0
 41111  1  0  0  0
 41112  1  0  0  0
 41 48  1  0  0  0
 42 43  1  0  0  0
 42 66  1  0  0  0
 42113  1  0  0  0
 42114  1  0  0  0
 43 44  1  0  0  0
 44115  1  0  0  0
 45 46  2  0  0  0
 45116  1  0  0  0
 46117  1  0  0  0
 47118  1  0  0  0
 47119  1  0  0  0
 48 56  1  0  0  0
 48 65  1  0  0  0
 48120  1  0  0  0
 49 50  1  0  0  0
 49 53  1  0  0  0
 49 64  1  0  0  0
 49121  1  0  0  0
 50 51  1  0  0  0
 50122  1  0  0  0
 50123  1  0  0  0
 51 52  1  0  0  0
 51124  1  0  0  0
 51125  1  0  0  0
 52126  1  0  0  0
 52127  1  0  0  0
 53 54  1  0  0  0
 54 55  2  0  0  0
 54128  1  0  0  0
 55 57  1  0  0  0
 55129  1  0  0  0
 56 69  2  0  0  0
 57 58  2  0  0  0
 57130  1  0  0  0
 58131  1  0  0  0
 59 60  1  0  0  0
 59 61  1  0  0  0
 59 62  1  0  0  0
 60132  1  0  0  0
 60133  1  0  0  0
 60134  1  0  0  0
 61135  1  0  0  0
 61136  1  0  0  0
 61137  1  0  0  0
 62138  1  0  0  0
 62139  1  0  0  0
 62140  1  0  0  0
 63 65  1  0  0  0
 63141  1  0  0  0
 63142  1  0  0  0
 63143  1  0  0  0
 64144  1  0  0  0
 65145  1  0  0  0
 68 83  1  0  0  0
 71 73  2  0  0  0
 71 75  1  0  0  0
 71146  1  0  0  0
 72 74  1  0  0  0
 72 75  2  0  0  0
 72147  1  0  0  0
 73 76  1  0  0  0
 73148  1  0  0  0
 74 76  2  0  0  0
 74149  1  0  0  0
 75 82  1  0  0  0
 76 84  1  0  0  0
 77 78  1  0  0  0
 77 79  1  0  0  0
 77 83  2  0  0  0
 78 80  1  0  0  0
 78 85  2  0  0  0
 79 82  1  0  0  0
 79 86  2  0  0  0
 80150  1  0  0  0
 80151  1  0  0  0
 80152  1  0  0  0
 81153  1  0  0  0
 81154  1  0  0  0
 81155  1  0  0  0
 81 82  1  0  0  0
 82156  1  0  0  0
 84157  1  0  0  0
M  ISO  4   1 100  68 101  83 101  84 100
M  END
> <chiral flag>
0

> <version>
0

> <s_m_source_file>
/data/baiqing/PycharmProjects/Reinvent-master-3.2/result/LINK_invent/BTK/process_docking_weight1_custom_product_contain_oxygen_bond_distance_aromatic_linkinvent_7_9_3/rearranged_h_0081.sdf

> <i_m_source_file_index>
44

> <r_mmod_Potential_Energy-OPLS-2005>
269.933868408203

> <r_mmod_Stretch_Energy-OPLS-2005>
105.243835449219

> <r_mmod_Bend_Energy-OPLS-2005>
166.187942504883

> <r_mmod_Torsional_Energy-OPLS-2005>
297.134979248047

> <r_mmod_Improper_Torsional_Energy-OPLS-2005>
6.08799314498901

> <r_mmod_Van_der_Waal_Energy-OPLS-2005>
134.483520507812

> <r_mmod_Electrostatic_Energy-OPLS-2005>
-248.865112304688

> <r_mmod_Solvation_Energy-OPLS-2005>
-251.27799987793

> <b_mmod_Minimization_Converged-OPLS-2005>
0

> <r_mmod_RMS_Derivative-OPLS-2005>
9.6193675994873

$$$$
44
                    3D
 Structure written by MMmdl.
156165  0  0  1  0            999 V2000
  -30.5644  -14.7405   20.4914 C   0  0  0  0  0  0
  -30.4522  -12.4556   19.4659 C   0  0  0  0  0  0
  -29.5178  -12.5243   18.2348 C   0  0  0  0  0  0
  -28.0419  -12.3439   18.6447 C   0  0  0  0  0  0
  -27.6532  -13.2207   19.8641 C   0  0  2  0  0  0
  -28.6982  -13.0955   20.9957 C   0  0  0  0  0  0
  -25.2564  -13.8172   20.5657 C   0  0  0  0  0  0
  -24.1844  -13.0443   20.9214 C   0  0  0  0  0  0
  -24.6413  -11.6915   20.8758 C   0  0  0  0  0  0
  -23.9074  -10.4296   21.0416 C   0  0  0  0  0  0
  -24.3623   -9.4207   21.9190 C   0  0  0  0  0  0
  -23.6296   -8.2242   22.0756 C   0  0  0  0  0  0
  -22.4277   -8.0284   21.3546 C   0  0  0  0  0  0
  -21.9916   -9.0260   20.4648 C   0  0  0  0  0  0
  -22.7246  -10.2141   20.3062 C   0  0  0  0  0  0
  -21.6854   -6.0737   22.5278 C   0  0  0  0  0  0
  -21.4013   -6.5641   23.8212 C   0  0  0  0  0  0
  -21.3659   -5.6794   24.9174 C   0  0  0  0  0  0
  -21.6044   -4.3057   24.7225 C   0  0  0  0  0  0
  -21.8820   -3.8148   23.4347 C   0  0  0  0  0  0
  -21.9192   -4.6964   22.3402 C   0  0  0  0  0  0
  -22.7867  -13.5242   21.1864 C   0  0  0  0  0  0
  -22.1662   -4.2150   21.0980 F   0  0  0  0  0  0
  -21.5628   -3.4540   25.7738 F   0  0  0  0  0  0
  -30.0044  -13.4813   20.4355 N   0  0  0  0  0  0
  -26.2996  -12.9356   20.3313 N   0  0  0  0  0  0
  -25.9343  -11.6511   20.5766 N   0  0  0  0  0  0
  -22.0503  -12.8231   22.0416 N   0  0  0  0  0  0
  -25.4250  -15.1875   20.3933 N   0  0  0  0  0  0
  -31.7143  -14.9327   20.0820 O   0  0  0  0  0  0
  -21.6641   -6.8881   21.4241 O   0  0  0  0  0  0
  -22.3552  -14.5542   20.6702 O   0  0  0  0  0  0
  -24.6319  -31.8550   23.1980 C   0  0  0  0  0  0
  -25.9139  -32.4755   23.8334 C   0  0  1  0  0  0
  -27.2271  -27.2658   20.1322 C   0  0  0  0  0  0
  -25.5929  -33.8555   24.2258 N   0  0  0  0  0  0
  -23.4305  -30.4758   21.5412 C   0  0  2  0  0  0
  -24.8820  -28.9232   20.1104 C   0  0  0  0  0  0
  -22.7514  -29.4594   22.4909 C   0  0  0  0  0  0
  -18.0293  -28.1384   22.8487 C   0  0  0  0  0  0
  -24.1488  -36.7284   23.2637 C   0  0  0  0  0  0
  -25.9764  -30.7683   21.3794 C   0  0  0  0  0  0
  -26.0536  -29.3904   20.7223 C   0  0  0  0  0  0
  -27.2320  -28.5736   20.7247 C   0  0  0  0  0  0
  -26.0369  -26.8679   19.4875 C   0  0  0  0  0  0
  -24.8782  -27.6685   19.4815 C   0  0  0  0  0  0
  -23.6513  -29.8090   20.1578 C   0  0  0  0  0  0
  -25.4112  -36.3069   24.0328 C   0  0  1  0  0  0
  -20.5900  -28.3699   23.1263 C   0  0  2  0  0  0
  -20.6781  -26.9416   22.5404 C   0  0  0  0  0  0
  -19.5752  -26.6383   21.5213 C   0  0  0  0  0  0
  -18.1937  -26.7924   22.1634 C   0  0  0  0  0  0
  -19.1547  -28.8858   23.2871 C   0  0  0  0  0  0
  -18.9466  -30.1459   23.8890 C   0  0  0  0  0  0
  -17.6464  -30.6586   24.0561 C   0  0  0  0  0  0
  -25.9056  -34.9440   23.5099 C   0  0  0  0  0  0
  -16.5356  -29.9082   23.6330 C   0  0  0  0  0  0
  -16.7280  -28.6500   23.0355 C   0  0  0  0  0  0
  -26.4501  -31.6574   25.0722 C   0  0  0  0  0  0
  -25.3719  -31.3721   26.1439 C   0  0  0  0  0  0
  -27.0347  -30.2986   24.6213 C   0  0  0  0  0  0
  -27.6054  -32.4314   25.7500 C   0  0  0  0  0  0
  -27.5582  -37.1790   24.8460 C   0  0  0  0  0  0
  -21.4218  -29.3043   22.3654 N   0  0  0  0  0  0
  -26.4284  -37.3773   23.9420 N   0  0  0  0  0  0
  -24.6984  -31.0510   22.0960 N   0  0  0  0  0  0
  -23.4207  -28.8144   23.3023 O   0  0  0  0  0  0
  -28.2804  -26.3223   20.1764 O   0  0  0  0  0  0
  -26.5637  -34.8919   22.4673 O   0  0  0  0  0  0
  -23.5466  -32.1368   23.7270 O   0  0  0  0  0  0
  -30.1926  -19.5375   19.9453 C   0  0  0  0  0  0
  -30.4048  -18.1090   20.0188 C   0  0  0  0  0  0
  -28.4658  -19.3697   21.5210 C   0  0  0  0  0  0
  -28.6293  -17.9428   21.6167 C   0  0  0  0  0  0
  -29.2048  -20.2615   20.6908 C   0  0  0  0  0  0
  -29.6305  -17.2455   20.8525 C   0  0  0  0  0  0
  -28.4464  -23.7536   20.6410 C   0  0  0  0  0  0
  -27.9837  -22.5775   21.3700 C   0  0  0  0  0  0
  -25.4884  -17.2538   23.6445 C   0  0  0  0  0  0
  -27.9757  -25.0623   20.7720 C   0  0  0  0  0  0
  -26.3223  -17.7236   22.6990 C   0  0  0  0  0  0
  -27.7002  -17.2075   22.5460 C   0  0  0  0  0  0
  -29.4538  -22.8362   19.8792 C   0  0  0  0  0  0
  -28.8889  -21.7239   20.7040 N   0  0  0  0  0  0
  -29.7233  -15.7541   20.9170 N   0  0  0  0  0  0
  -27.1206  -22.4580   22.2156 O   0  0  0  0  0  0
  -28.0588  -16.1868   23.1440 O   0  0  0  0  0  0
  -31.4887  -12.6098   19.1611 H   0  0  0  0  0  0
  -30.4198  -11.4640   19.9200 H   0  0  0  0  0  0
  -29.7984  -11.7638   17.5049 H   0  0  0  0  0  0
  -29.6420  -13.4864   17.7353 H   0  0  0  0  0  0
  -27.8924  -11.2909   18.8854 H   0  0  0  0  0  0
  -27.3857  -12.5573   17.7998 H   0  0  0  0  0  0
  -27.6638  -14.2529   19.5138 H   0  0  0  0  0  0
  -28.7352  -12.0719   21.3715 H   0  0  0  0  0  0
  -28.4233  -13.7122   21.8526 H   0  0  0  0  0  0
  -25.2769   -9.5679   22.4765 H   0  0  0  0  0  0
  -24.0002   -7.4634   22.7475 H   0  0  0  0  0  0
  -21.0846   -8.8784   19.8955 H   0  0  0  0  0  0
  -22.3708  -10.9683   19.6172 H   0  0  0  0  0  0
  -21.2006   -7.6149   23.9716 H   0  0  0  0  0  0
  -21.1480   -6.0524   25.9078 H   0  0  0  0  0  0
  -22.0599   -2.7609   23.2848 H   0  0  0  0  0  0
  -22.4118  -11.9896   22.4810 H   0  0  0  0  0  0
  -21.1118  -13.1253   22.2607 H   0  0  0  0  0  0
  -24.6435  -15.8282   20.4713 H   0  0  0  0  0  0
  -26.2408  -15.6059   19.9672 H   0  0  0  0  0  0
  -26.7212  -32.5411   23.1086 H   0  0  0  0  0  0
  -25.0052  -33.9692   25.0386 H   0  0  0  0  0  0
  -22.7266  -31.2976   21.3933 H   0  0  0  0  0  0
  -23.3757  -35.9609   23.3283 H   0  0  0  0  0  0
  -24.3584  -36.8922   22.2055 H   0  0  0  0  0  0
  -23.7235  -37.6478   23.6670 H   0  0  0  0  0  0
  -26.1141  -31.5283   20.6090 H   0  0  0  0  0  0
  -26.8538  -30.8191   22.0126 H   0  0  0  0  0  0
  -28.1268  -28.9213   21.2218 H   0  0  0  0  0  0
  -25.9940  -25.8990   19.0102 H   0  0  0  0  0  0
  -23.9825  -27.3029   18.9977 H   0  0  0  0  0  0
  -23.7757  -30.5851   19.4016 H   0  0  0  0  0  0
  -22.7705  -29.2413   19.8532 H   0  0  0  0  0  0
  -25.1290  -36.1912   25.0819 H   0  0  0  0  0  0
  -20.9989  -28.3278   24.1387 H   0  0  0  0  0  0
  -20.5678  -26.2313   23.3613 H   0  0  0  0  0  0
  -21.6647  -26.7439   22.1198 H   0  0  0  0  0  0
  -19.6915  -25.6294   21.1243 H   0  0  0  0  0  0
  -19.6680  -27.3193   20.6743 H   0  0  0  0  0  0
  -17.4200  -26.6663   21.4045 H   0  0  0  0  0  0
  -18.0349  -26.0067   22.9035 H   0  0  0  0  0  0
  -19.7941  -30.7278   24.2259 H   0  0  0  0  0  0
  -17.5017  -31.6263   24.5165 H   0  0  0  0  0  0
  -15.5356  -30.2981   23.7651 H   0  0  0  0  0  0
  -15.8683  -28.0812   22.7076 H   0  0  0  0  0  0
  -24.5894  -30.7077   25.7758 H   0  0  0  0  0  0
  -24.8912  -32.2886   26.4864 H   0  0  0  0  0  0
  -25.8026  -30.8889   27.0216 H   0  0  0  0  0  0
  -26.2933  -29.6735   24.1222 H   0  0  0  0  0  0
  -27.4006  -29.7249   25.4739 H   0  0  0  0  0  0
  -27.8823  -30.4258   23.9474 H   0  0  0  0  0  0
  -27.2661  -33.3620   26.2064 H   0  0  0  0  0  0
  -28.3869  -32.6863   25.0330 H   0  0  0  0  0  0
  -28.0714  -31.8444   26.5425 H   0  0  0  0  0  0
  -28.2569  -38.0118   24.7550 H   0  0  0  0  0  0
  -28.1109  -36.2651   24.6228 H   0  0  0  0  0  0
  -27.2310  -37.1366   25.8864 H   0  0  0  0  0  0
  -20.9410  -29.8760   21.6849 H   0  0  0  0  0  0
  -26.0159  -38.2841   24.1443 H   0  0  0  0  0  0
  -30.8275  -20.0982   19.2741 H   0  0  0  0  0  0
  -31.1741  -17.6758   19.3951 H   0  0  0  0  0  0
  -27.7174  -19.8312   22.1482 H   0  0  0  0  0  0
  -24.4848  -17.6421   23.7368 H   0  0  0  0  0  0
  -25.7875  -16.4793   24.3373 H   0  0  0  0  0  0
  -27.1899  -25.2085   21.5026 H   0  0  0  0  0  0
  -25.9784  -18.4936   22.0250 H   0  0  0  0  0  0
  -30.5173  -22.9832   20.0728 H   0  0  0  0  0  0
  -29.2807  -22.6766   18.8135 H   0  0  0  0  0  0
  -28.9227  -15.3453   21.3788 H   0  0  0  0  0  0
  1 25  1  0  0  0
  1 30  2  0  0  0
  1 85  1  0  0  0
  2  3  1  0  0  0
  2 25  1  0  0  0
  2 88  1  0  0  0
  2 89  1  0  0  0
  3  4  1  0  0  0
  3 90  1  0  0  0
  3 91  1  0  0  0
  4  5  1  0  0  0
  4 92  1  0  0  0
  4 93  1  0  0  0
  5  6  1  0  0  0
  5 26  1  0  0  0
  5 94  1  0  0  0
  6 25  1  0  0  0
  6 95  1  0  0  0
  6 96  1  0  0  0
  7  8  2  0  0  0
  7 26  1  0  0  0
  7 29  1  0  0  0
  8  9  1  0  0  0
  8 22  1  0  0  0
  9 10  1  0  0  0
  9 27  2  0  0  0
 10 11  2  0  0  0
 10 15  1  0  0  0
 11 12  1  0  0  0
 11 97  1  0  0  0
 12 13  2  0  0  0
 12 98  1  0  0  0
 13 14  1  0  0  0
 13 31  1  0  0  0
 14 15  2  0  0  0
 14 99  1  0  0  0
 15100  1  0  0  0
 16 17  2  0  0  0
 16 21  1  0  0  0
 16 31  1  0  0  0
 17 18  1  0  0  0
 17101  1  0  0  0
 18 19  2  0  0  0
 18102  1  0  0  0
 19 20  1  0  0  0
 19 24  1  0  0  0
 20 21  2  0  0  0
 20103  1  0  0  0
 21 23  1  0  0  0
 22 28  1  0  0  0
 22 32  2  0  0  0
 26 27  1  0  0  0
 28104  1  0  0  0
 28105  1  0  0  0
 29106  1  0  0  0
 29107  1  0  0  0
 33 34  1  0  0  0
 33 66  1  0  0  0
 33 70  2  0  0  0
 34 36  1  0  0  0
 34 59  1  0  0  0
 34108  1  0  0  0
 35 44  2  0  0  0
 35 45  1  0  0  0
 35 68  1  0  0  0
 36 56  1  0  0  0
 36109  1  0  0  0
 37 39  1  0  0  0
 37 47  1  0  0  0
 37 66  1  0  0  0
 37110  1  0  0  0
 38 43  2  0  0  0
 38 46  1  0  0  0
 38 47  1  0  0  0
 39 64  1  0  0  0
 39 67  2  0  0  0
 40 52  1  0  0  0
 40 53  2  0  0  0
 40 58  1  0  0  0
 41111  1  0  0  0
 41112  1  0  0  0
 41113  1  0  0  0
 41 48  1  0  0  0
 42 43  1  0  0  0
 42 66  1  0  0  0
 42114  1  0  0  0
 42115  1  0  0  0
 43 44  1  0  0  0
 44116  1  0  0  0
 45 46  2  0  0  0
 45117  1  0  0  0
 46118  1  0  0  0
 47119  1  0  0  0
 47120  1  0  0  0
 48 56  1  0  0  0
 48 65  1  0  0  0
 48121  1  0  0  0
 49 50  1  0  0  0
 49 53  1  0  0  0
 49 64  1  0  0  0
 49122  1  0  0  0
 50 51  1  0  0  0
 50123  1  0  0  0
 50124  1  0  0  0
 51 52  1  0  0  0
 51125  1  0  0  0
 51126  1  0  0  0
 52127  1  0  0  0
 52128  1  0  0  0
 53 54  1  0  0  0
 54 55  2  0  0  0
 54129  1  0  0  0
 55 57  1  0  0  0
 55130  1  0  0  0
 56 69  2  0  0  0
 57 58  2  0  0  0
 57131  1  0  0  0
 58132  1  0  0  0
 59 60  1  0  0  0
 59 61  1  0  0  0
 59 62  1  0  0  0
 60133  1  0  0  0
 60134  1  0  0  0
 60135  1  0  0  0
 61136  1  0  0  0
 61137  1  0  0  0
 61138  1  0  0  0
 62139  1  0  0  0
 62140  1  0  0  0
 62141  1  0  0  0
 63 65  1  0  0  0
 63142  1  0  0  0
 63143  1  0  0  0
 63144  1  0  0  0
 64145  1  0  0  0
 65146  1  0  0  0
 68 80  1  0  0  0
 71 72  2  0  0  0
 71 75  1  0  0  0
 71147  1  0  0  0
 72 76  1  0  0  0
 72148  1  0  0  0
 73 74  1  0  0  0
 73 75  2  0  0  0
 73149  1  0  0  0
 74 76  2  0  0  0
 74 82  1  0  0  0
 75 84  1  0  0  0
 76 85  1  0  0  0
 77 78  1  0  0  0
 77 80  2  0  0  0
 77 83  1  0  0  0
 78 84  1  0  0  0
 78 86  2  0  0  0
 79 81  2  0  0  0
 79150  1  0  0  0
 79151  1  0  0  0
 80152  1  0  0  0
 81 82  1  0  0  0
 81153  1  0  0  0
 82 87  2  0  0  0
 83 84  1  0  0  0
 83154  1  0  0  0
 83155  1  0  0  0
 85156  1  0  0  0
M  ISO  4   1 100  68 101  80 101  85 100
M  END
> <chiral flag>
0

> <version>
0

> <s_m_source_file>
/data/baiqing/PycharmProjects/Reinvent-master-3.2/result/LINK_invent/BTK/process_docking_weight1_custom_product_contain_oxygen_bond_distance_aromatic_linkinvent_7_9_3/rearranged_h_0081.sdf

> <i_m_source_file_index>
45

> <r_mmod_Potential_Energy-OPLS-2005>
265.190551757812

> <r_mmod_Stretch_Energy-OPLS-2005>
114.074729919434

> <r_mmod_Bend_Energy-OPLS-2005>
273.861480712891

> <r_mmod_Torsional_Energy-OPLS-2005>
228.75114440918

> <r_mmod_Improper_Torsional_Energy-OPLS-2005>
3.81935048103333

> <r_mmod_Van_der_Waal_Energy-OPLS-2005>
139.669036865234

> <r_mmod_Electrostatic_Energy-OPLS-2005>
-366.335327148438

> <r_mmod_Solvation_Energy-OPLS-2005>
-216.136505126953

> <b_mmod_Minimization_Converged-OPLS-2005>
0

> <r_mmod_RMS_Derivative-OPLS-2005>
0.713640809059143

$$$$
45
                    3D
 Structure written by MMmdl.
153162  0  0  1  0            999 V2000
  -30.5876  -14.7695   20.4706 C   0  0  0  0  0  0
  -30.4378  -12.4853   19.4411 C   0  0  0  0  0  0
  -29.5021  -12.5174   18.2132 C   0  0  0  0  0  0
  -28.0303  -12.3351   18.6364 C   0  0  0  0  0  0
  -27.6362  -13.2318   19.8425 C   0  0  2  0  0  0
  -28.6878  -13.1680   20.9698 C   0  0  0  0  0  0
  -25.2487  -13.8185   20.5669 C   0  0  0  0  0  0
  -24.1782  -13.0426   20.9213 C   0  0  0  0  0  0
  -24.6387  -11.6902   20.8733 C   0  0  0  0  0  0
  -23.9062  -10.4278   21.0389 C   0  0  0  0  0  0
  -24.3626   -9.4191   21.9167 C   0  0  0  0  0  0
  -23.6295   -8.2228   22.0747 C   0  0  0  0  0  0
  -22.4275   -8.0271   21.3539 C   0  0  0  0  0  0
  -21.9908   -9.0237   20.4636 C   0  0  0  0  0  0
  -22.7238  -10.2114   20.3033 C   0  0  0  0  0  0
  -21.6855   -6.0730   22.5273 C   0  0  0  0  0  0
  -21.4022   -6.5632   23.8210 C   0  0  0  0  0  0
  -21.3657   -5.6785   24.9173 C   0  0  0  0  0  0
  -21.6045   -4.3045   24.7220 C   0  0  0  0  0  0
  -21.8823   -3.8140   23.4339 C   0  0  0  0  0  0
  -21.9197   -4.6958   22.3400 C   0  0  0  0  0  0
  -22.7811  -13.5188   21.1878 C   0  0  0  0  0  0
  -22.1660   -4.2147   21.0975 F   0  0  0  0  0  0
  -21.5628   -3.4526   25.7730 F   0  0  0  0  0  0
  -29.9741  -13.5404   20.3695 N   0  0  0  0  0  0
  -26.2918  -12.9396   20.3262 N   0  0  0  0  0  0
  -25.9322  -11.6532   20.5744 N   0  0  0  0  0  0
  -22.0469  -12.8178   22.0439 N   0  0  0  0  0  0
  -25.4103  -15.1917   20.4050 N   0  0  0  0  0  0
  -31.7970  -14.8688   20.2447 O   0  0  0  0  0  0
  -21.6639   -6.8868   21.4231 O   0  0  0  0  0  0
  -22.3483  -14.5498   20.6729 O   0  0  0  0  0  0
  -24.6312  -31.8536   23.1965 C   0  0  0  0  0  0
  -25.9133  -32.4746   23.8301 C   0  0  1  0  0  0
  -27.2150  -27.2450   20.1543 C   0  0  0  0  0  0
  -25.5920  -33.8547   24.2226 N   0  0  0  0  0  0
  -23.4299  -30.4739   21.5384 C   0  0  2  0  0  0
  -24.8814  -28.9179   20.1095 C   0  0  0  0  0  0
  -22.7503  -29.4597   22.4894 C   0  0  0  0  0  0
  -18.0309  -28.1379   22.8493 C   0  0  0  0  0  0
  -24.1491  -36.7301   23.2639 C   0  0  0  0  0  0
  -25.9763  -30.7635   21.3788 C   0  0  0  0  0  0
  -26.0514  -29.3830   20.7248 C   0  0  0  0  0  0
  -27.2265  -28.5608   20.7332 C   0  0  0  0  0  0
  -26.0307  -26.8537   19.4989 C   0  0  0  0  0  0
  -24.8772  -27.6622   19.4817 C   0  0  0  0  0  0
  -23.6508  -29.8052   20.1559 C   0  0  0  0  0  0
  -25.4119  -36.3063   24.0312 C   0  0  1  0  0  0
  -20.5907  -28.3712   23.1263 C   0  0  2  0  0  0
  -20.6789  -26.9423   22.5416 C   0  0  0  0  0  0
  -19.5763  -26.6382   21.5222 C   0  0  0  0  0  0
  -18.1949  -26.7927   22.1625 C   0  0  0  0  0  0
  -19.1553  -28.8870   23.2856 C   0  0  0  0  0  0
  -18.9465  -30.1466   23.8866 C   0  0  0  0  0  0
  -17.6460  -30.6577   24.0561 C   0  0  0  0  0  0
  -25.9057  -34.9435   23.5075 C   0  0  0  0  0  0
  -16.5360  -29.9068   23.6332 C   0  0  0  0  0  0
  -16.7290  -28.6498   23.0339 C   0  0  0  0  0  0
  -26.4492  -31.6584   25.0706 C   0  0  0  0  0  0
  -25.3710  -31.3756   26.1426 C   0  0  0  0  0  0
  -27.0344  -30.2980   24.6241 C   0  0  0  0  0  0
  -27.6009  -32.4356   25.7515 C   0  0  0  0  0  0
  -27.5576  -37.1812   24.8456 C   0  0  0  0  0  0
  -21.4213  -29.3055   22.3645 N   0  0  0  0  0  0
  -26.4292  -37.3763   23.9397 N   0  0  0  0  0  0
  -24.6975  -31.0499   22.0939 N   0  0  0  0  0  0
  -23.4206  -28.8130   23.2989 O   0  0  0  0  0  0
  -28.2716  -26.3044   20.2029 O   0  0  0  0  0  0
  -26.5632  -34.8916   22.4650 O   0  0  0  0  0  0
  -23.5462  -32.1363   23.7255 O   0  0  0  0  0  0
  -30.5633  -18.6145   22.9824 C   0  0  0  0  0  0
  -30.0692  -19.7999   22.4006 C   0  0  0  0  0  0
  -30.5279  -17.3820   22.3023 C   0  0  0  0  0  0
  -29.4861  -18.5291   20.4157 C   0  0  0  0  0  0
  -29.5467  -19.8346   21.0865 C   0  0  0  0  0  0
  -29.9673  -17.2767   21.0140 C   0  0  0  0  0  0
  -28.9533  -23.1085   19.2550 C   0  0  0  0  0  0
  -28.5747  -23.5704   20.4525 C   0  0  0  0  0  0
  -29.3123  -21.6768   19.3081 C   0  0  0  0  0  0
  -28.6800  -22.3569   21.4070 C   0  0  0  0  0  0
  -27.9699  -24.9914   20.8848 C   0  0  0  0  0  0
  -29.1295  -21.1854   20.5666 N   0  0  0  0  0  0
  -29.7705  -15.8980   20.4862 N   0  0  0  0  0  0
  -29.7180  -21.0102   18.3517 O   0  0  0  0  0  0
  -31.4695  -12.6419   19.1223 H   0  0  0  0  0  0
  -30.4110  -11.5068   19.9234 H   0  0  0  0  0  0
  -29.7868  -11.7419   17.5006 H   0  0  0  0  0  0
  -29.6148  -13.4693   17.6918 H   0  0  0  0  0  0
  -27.8897  -11.2854   18.8945 H   0  0  0  0  0  0
  -27.3691  -12.5312   17.7910 H   0  0  0  0  0  0
  -27.6233  -14.2529   19.4619 H   0  0  0  0  0  0
  -28.7406  -12.1682   21.4009 H   0  0  0  0  0  0
  -28.4239  -13.8427   21.7863 H   0  0  0  0  0  0
  -25.2776   -9.5683   22.4736 H   0  0  0  0  0  0
  -24.0011   -7.4623   22.7476 H   0  0  0  0  0  0
  -21.0840   -8.8749   19.8940 H   0  0  0  0  0  0
  -22.3693  -10.9650   19.6131 H   0  0  0  0  0  0
  -21.2017   -7.6143   23.9708 H   0  0  0  0  0  0
  -21.1475   -6.0519   25.9078 H   0  0  0  0  0  0
  -22.0610   -2.7604   23.2839 H   0  0  0  0  0  0
  -22.4111  -11.9844   22.4828 H   0  0  0  0  0  0
  -21.1069  -13.1154   22.2619 H   0  0  0  0  0  0
  -24.6303  -15.8324   20.5033 H   0  0  0  0  0  0
  -26.2482  -15.6433   20.0629 H   0  0  0  0  0  0
  -26.7201  -32.5404   23.1037 H   0  0  0  0  0  0
  -25.0049  -33.9665   25.0358 H   0  0  0  0  0  0
  -22.7267  -31.2950   21.3914 H   0  0  0  0  0  0
  -23.3737  -35.9650   23.3300 H   0  0  0  0  0  0
  -24.3572  -36.8938   22.2055 H   0  0  0  0  0  0
  -23.7270  -37.6507   23.6686 H   0  0  0  0  0  0
  -26.1155  -31.5216   20.6072 H   0  0  0  0  0  0
  -26.8531  -30.8150   22.0129 H   0  0  0  0  0  0
  -28.1199  -28.9096   21.2317 H   0  0  0  0  0  0
  -25.9873  -25.8852   19.0183 H   0  0  0  0  0  0
  -23.9848  -27.3015   18.9893 H   0  0  0  0  0  0
  -23.7729  -30.5792   19.3973 H   0  0  0  0  0  0
  -22.7703  -29.2340   19.8546 H   0  0  0  0  0  0
  -25.1311  -36.1893   25.0802 H   0  0  0  0  0  0
  -20.9982  -28.3292   24.1392 H   0  0  0  0  0  0
  -20.5708  -26.2345   23.3651 H   0  0  0  0  0  0
  -21.6661  -26.7425   22.1219 H   0  0  0  0  0  0
  -19.6917  -25.6294   21.1253 H   0  0  0  0  0  0
  -19.6727  -27.3186   20.6758 H   0  0  0  0  0  0
  -17.4222  -26.6691   21.4017 H   0  0  0  0  0  0
  -18.0353  -26.0063   22.9021 H   0  0  0  0  0  0
  -19.7949  -30.7299   24.2187 H   0  0  0  0  0  0
  -17.5016  -31.6253   24.5158 H   0  0  0  0  0  0
  -15.5366  -30.2970   23.7649 H   0  0  0  0  0  0
  -15.8689  -28.0830   22.7047 H   0  0  0  0  0  0
  -24.5873  -30.7113   25.7771 H   0  0  0  0  0  0
  -24.8918  -32.2942   26.4826 H   0  0  0  0  0  0
  -25.8019  -30.8949   27.0215 H   0  0  0  0  0  0
  -26.2944  -29.6722   24.1243 H   0  0  0  0  0  0
  -27.3959  -29.7258   25.4799 H   0  0  0  0  0  0
  -27.8850  -30.4213   23.9534 H   0  0  0  0  0  0
  -27.2549  -33.3644   26.2062 H   0  0  0  0  0  0
  -28.3845  -32.6942   25.0387 H   0  0  0  0  0  0
  -28.0647  -31.8510   26.5467 H   0  0  0  0  0  0
  -28.2587  -38.0113   24.7486 H   0  0  0  0  0  0
  -28.1072  -36.2639   24.6302 H   0  0  0  0  0  0
  -27.2286  -37.1490   25.8855 H   0  0  0  0  0  0
  -20.9403  -29.8785   21.6846 H   0  0  0  0  0  0
  -26.0160  -38.2836   24.1380 H   0  0  0  0  0  0
  -30.9661  -18.6492   23.9859 H   0  0  0  0  0  0
  -30.1274  -20.7024   22.9896 H   0  0  0  0  0  0
  -30.8860  -16.4994   22.8141 H   0  0  0  0  0  0
  -29.0493  -18.4844   19.4290 H   0  0  0  0  0  0
  -28.9501  -23.6965   18.3511 H   0  0  0  0  0  0
  -27.7052  -22.1491   21.8508 H   0  0  0  0  0  0
  -29.3847  -22.5909   22.2046 H   0  0  0  0  0  0
  -28.2840  -25.1352   21.9188 H   0  0  0  0  0  0
  -26.8916  -24.8414   20.9540 H   0  0  0  0  0  0
  -28.8092  -15.6789   20.2795 H   0  0  0  0  0  0
  1 25  1  0  0  0
  1 30  2  0  0  0
  1 83  1  0  0  0
  2  3  1  0  0  0
  2 25  1  0  0  0
  2 85  1  0  0  0
  2 86  1  0  0  0
  3  4  1  0  0  0
  3 87  1  0  0  0
  3 88  1  0  0  0
  4  5  1  0  0  0
  4 89  1  0  0  0
  4 90  1  0  0  0
  5  6  1  0  0  0
  5 26  1  0  0  0
  5 91  1  0  0  0
  6 25  1  0  0  0
  6 92  1  0  0  0
  6 93  1  0  0  0
  7  8  2  0  0  0
  7 26  1  0  0  0
  7 29  1  0  0  0
  8  9  1  0  0  0
  8 22  1  0  0  0
  9 10  1  0  0  0
  9 27  2  0  0  0
 10 11  2  0  0  0
 10 15  1  0  0  0
 11 12  1  0  0  0
 11 94  1  0  0  0
 12 13  2  0  0  0
 12 95  1  0  0  0
 13 14  1  0  0  0
 13 31  1  0  0  0
 14 15  2  0  0  0
 14 96  1  0  0  0
 15 97  1  0  0  0
 16 17  2  0  0  0
 16 21  1  0  0  0
 16 31  1  0  0  0
 17 18  1  0  0  0
 17 98  1  0  0  0
 18 19  2  0  0  0
 18 99  1  0  0  0
 19 20  1  0  0  0
 19 24  1  0  0  0
 20 21  2  0  0  0
 20100  1  0  0  0
 21 23  1  0  0  0
 22 28  1  0  0  0
 22 32  2  0  0  0
 26 27  1  0  0  0
 28101  1  0  0  0
 28102  1  0  0  0
 29103  1  0  0  0
 29104  1  0  0  0
 33 34  1  0  0  0
 33 66  1  0  0  0
 33 70  2  0  0  0
 34 36  1  0  0  0
 34 59  1  0  0  0
 34105  1  0  0  0
 35 44  2  0  0  0
 35 45  1  0  0  0
 35 68  1  0  0  0
 36 56  1  0  0  0
 36106  1  0  0  0
 37 39  1  0  0  0
 37 47  1  0  0  0
 37 66  1  0  0  0
 37107  1  0  0  0
 38 43  2  0  0  0
 38 46  1  0  0  0
 38 47  1  0  0  0
 39 64  1  0  0  0
 39 67  2  0  0  0
 40 52  1  0  0  0
 40 53  2  0  0  0
 40 58  1  0  0  0
 41108  1  0  0  0
 41109  1  0  0  0
 41110  1  0  0  0
 41 48  1  0  0  0
 42 43  1  0  0  0
 42 66  1  0  0  0
 42111  1  0  0  0
 42112  1  0  0  0
 43 44  1  0  0  0
 44113  1  0  0  0
 45 46  2  0  0  0
 45114  1  0  0  0
 46115  1  0  0  0
 47116  1  0  0  0
 47117  1  0  0  0
 48 56  1  0  0  0
 48 65  1  0  0  0
 48118  1  0  0  0
 49 50  1  0  0  0
 49 53  1  0  0  0
 49 64  1  0  0  0
 49119  1  0  0  0
 50 51  1  0  0  0
 50120  1  0  0  0
 50121  1  0  0  0
 51 52  1  0  0  0
 51122  1  0  0  0
 51123  1  0  0  0
 52124  1  0  0  0
 52125  1  0  0  0
 53 54  1  0  0  0
 54 55  2  0  0  0
 54126  1  0  0  0
 55 57  1  0  0  0
 55127  1  0  0  0
 56 69  2  0  0  0
 57 58  2  0  0  0
 57128  1  0  0  0
 58129  1  0  0  0
 59 60  1  0  0  0
 59 61  1  0  0  0
 59 62  1  0  0  0
 60130  1  0  0  0
 60131  1  0  0  0
 60132  1  0  0  0
 61133  1  0  0  0
 61134  1  0  0  0
 61135  1  0  0  0
 62136  1  0  0  0
 62137  1  0  0  0
 62138  1  0  0  0
 63 65  1  0  0  0
 63139  1  0  0  0
 63140  1  0  0  0
 63141  1  0  0  0
 64142  1  0  0  0
 65143  1  0  0  0
 68 81  1  0  0  0
 71 72  2  0  0  0
 71 73  1  0  0  0
 71144  1  0  0  0
 72 75  1  0  0  0
 72145  1  0  0  0
 73 76  2  0  0  0
 73146  1  0  0  0
 74 75  2  0  0  0
 74 76  1  0  0  0
 74147  1  0  0  0
 75 82  1  0  0  0
 76 83  1  0  0  0
 77 78  2  0  0  0
 77 79  1  0  0  0
 77148  1  0  0  0
 78 80  1  0  0  0
 78 81  1  0  0  0
 79 82  1  0  0  0
 79 84  2  0  0  0
 80 82  1  0  0  0
 80149  1  0  0  0
 80150  1  0  0  0
 81151  1  0  0  0
 81152  1  0  0  0
 83153  1  0  0  0
M  ISO  4   1 100  68 101  81 101  83 100
M  END
> <chiral flag>
0

> <version>
0

> <s_m_source_file>
/data/baiqing/PycharmProjects/Reinvent-master-3.2/result/LINK_invent/BTK/process_docking_weight1_custom_product_contain_oxygen_bond_distance_aromatic_linkinvent_7_9_3/rearranged_h_0081.sdf

> <i_m_source_file_index>
46

> <r_mmod_Potential_Energy-OPLS-2005>
321.159210205078

> <r_mmod_Stretch_Energy-OPLS-2005>
132.20002746582

> <r_mmod_Bend_Energy-OPLS-2005>
216.463333129883

> <r_mmod_Torsional_Energy-OPLS-2005>
302.182708740234

> <r_mmod_Improper_Torsional_Energy-OPLS-2005>
10.4497356414795

> <r_mmod_Van_der_Waal_Energy-OPLS-2005>
129.757873535156

> <r_mmod_Electrostatic_Energy-OPLS-2005>
-347.527374267578

> <r_mmod_Solvation_Energy-OPLS-2005>
-225.586853027344

> <b_mmod_Minimization_Converged-OPLS-2005>
0

> <r_mmod_RMS_Derivative-OPLS-2005>
2.89182114601135

$$$$
46
                    3D
 Structure written by MMmdl.
156165  0  0  1  0            999 V2000
  -30.6580  -14.6690   20.4835 C   0  0  0  0  0  0
  -30.4224  -12.4111   19.4614 C   0  0  0  0  0  0
  -29.5020  -12.5004   18.2266 C   0  0  0  0  0  0
  -28.0275  -12.3374   18.6415 C   0  0  0  0  0  0
  -27.6438  -13.2291   19.8533 C   0  0  2  0  0  0
  -28.6898  -13.1412   20.9866 C   0  0  0  0  0  0
  -25.2514  -13.8199   20.5698 C   0  0  0  0  0  0
  -24.1803  -13.0444   20.9207 C   0  0  0  0  0  0
  -24.6391  -11.6921   20.8748 C   0  0  0  0  0  0
  -23.9070  -10.4297   21.0406 C   0  0  0  0  0  0
  -24.3621   -9.4212   21.9183 C   0  0  0  0  0  0
  -23.6297   -8.2246   22.0751 C   0  0  0  0  0  0
  -22.4278   -8.0282   21.3543 C   0  0  0  0  0  0
  -21.9913   -9.0256   20.4646 C   0  0  0  0  0  0
  -22.7241  -10.2137   20.3056 C   0  0  0  0  0  0
  -21.6854   -6.0737   22.5280 C   0  0  0  0  0  0
  -21.4015   -6.5641   23.8214 C   0  0  0  0  0  0
  -21.3659   -5.6792   24.9175 C   0  0  0  0  0  0
  -21.6042   -4.3055   24.7226 C   0  0  0  0  0  0
  -21.8819   -3.8148   23.4347 C   0  0  0  0  0  0
  -21.9195   -4.6965   22.3404 C   0  0  0  0  0  0
  -22.7822  -13.5225   21.1865 C   0  0  0  0  0  0
  -22.1662   -4.2151   21.0981 F   0  0  0  0  0  0
  -21.5628   -3.4538   25.7739 F   0  0  0  0  0  0
  -29.9965  -13.4688   20.4037 N   0  0  0  0  0  0
  -26.2946  -12.9404   20.3299 N   0  0  0  0  0  0
  -25.9322  -11.6546   20.5756 N   0  0  0  0  0  0
  -22.0471  -12.8216   22.0424 N   0  0  0  0  0  0
  -25.4194  -15.1924   20.4117 N   0  0  0  0  0  0
  -31.8404  -14.7370   20.1396 O   0  0  0  0  0  0
  -21.6639   -6.8881   21.4242 O   0  0  0  0  0  0
  -22.3504  -14.5529   20.6712 O   0  0  0  0  0  0
  -24.6270  -31.8586   23.2019 C   0  0  0  0  0  0
  -25.9114  -32.4772   23.8347 C   0  0  1  0  0  0
  -27.2188  -27.3145   20.1217 C   0  0  0  0  0  0
  -25.5927  -33.8572   24.2278 N   0  0  0  0  0  0
  -23.4215  -30.4820   21.5442 C   0  0  2  0  0  0
  -24.8699  -28.9385   20.1087 C   0  0  0  0  0  0
  -22.7482  -29.4610   22.4927 C   0  0  0  0  0  0
  -18.0289  -28.1379   22.8485 C   0  0  0  0  0  0
  -24.1488  -36.7287   23.2635 C   0  0  0  0  0  0
  -25.9633  -30.7889   21.3747 C   0  0  0  0  0  0
  -26.0397  -29.4162   20.7162 C   0  0  0  0  0  0
  -27.2218  -28.6146   20.7155 C   0  0  0  0  0  0
  -26.0326  -26.8921   19.4864 C   0  0  0  0  0  0
  -24.8678  -27.6817   19.4839 C   0  0  0  0  0  0
  -23.6376  -29.8183   20.1589 C   0  0  0  0  0  0
  -25.4109  -36.3077   24.0331 C   0  0  1  0  0  0
  -20.5890  -28.3681   23.1279 C   0  0  2  0  0  0
  -20.6777  -26.9403   22.5407 C   0  0  0  0  0  0
  -19.5751  -26.6382   21.5207 C   0  0  0  0  0  0
  -18.1933  -26.7922   22.1622 C   0  0  0  0  0  0
  -19.1543  -28.8847   23.2877 C   0  0  0  0  0  0
  -18.9465  -30.1454   23.8886 C   0  0  0  0  0  0
  -17.6464  -30.6581   24.0560 C   0  0  0  0  0  0
  -25.9047  -34.9447   23.5102 C   0  0  0  0  0  0
  -16.5354  -29.9077   23.6333 C   0  0  0  0  0  0
  -16.7274  -28.6496   23.0349 C   0  0  0  0  0  0
  -26.4500  -31.6580   25.0718 C   0  0  0  0  0  0
  -25.3735  -31.3729   26.1448 C   0  0  0  0  0  0
  -27.0339  -30.2997   24.6179 C   0  0  0  0  0  0
  -27.6055  -32.4317   25.7494 C   0  0  0  0  0  0
  -27.5584  -37.1789   24.8459 C   0  0  0  0  0  0
  -21.4195  -29.3031   22.3670 N   0  0  0  0  0  0
  -26.4283  -37.3776   23.9421 N   0  0  0  0  0  0
  -24.6892  -31.0594   22.0972 N   0  0  0  0  0  0
  -23.4202  -28.8152   23.3010 O   0  0  0  0  0  0
  -28.2849  -26.4053   20.1654 O   0  0  0  0  0  0
  -26.5613  -34.8916   22.4668 O   0  0  0  0  0  0
  -23.5431  -32.1388   23.7342 O   0  0  0  0  0  0
  -32.1690  -18.8104   21.3641 C   0  0  0  0  0  0
  -31.3427  -19.9081   21.0691 C   0  0  0  0  0  0
  -31.6932  -17.4932   21.2469 C   0  0  0  0  0  0
  -30.0029  -19.7394   20.6575 C   0  0  0  0  0  0
  -30.3730  -17.2181   20.8178 C   0  0  0  0  0  0
  -29.5268  -18.3674   20.5459 C   0  0  0  0  0  0
  -27.9198  -22.7797   21.3545 C   0  0  0  0  0  0
  -28.2938  -21.4742   21.2728 C   0  0  0  0  0  0
  -28.4719  -23.8697   20.5353 C   0  0  0  0  0  0
  -29.4636  -23.4118   19.5454 C   0  0  0  0  0  0
  -30.0883  -24.2839   18.7344 C   0  0  0  0  0  0
  -27.9999  -25.1541   20.7575 C   0  0  0  0  0  0
  -29.8200  -21.8966   19.4036 C   0  0  0  0  0  0
  -29.2518  -20.9508   20.4022 N   0  0  0  0  0  0
  -29.9221  -15.8135   20.7200 N   0  0  0  0  0  0
  -28.2462  -18.1412   20.1606 F   0  0  0  0  0  0
  -31.4657  -12.5134   19.1582 H   0  0  0  0  0  0
  -30.3443  -11.4297   19.9316 H   0  0  0  0  0  0
  -29.7725  -11.7361   17.4967 H   0  0  0  0  0  0
  -29.6421  -13.4618   17.7298 H   0  0  0  0  0  0
  -27.8725  -11.2874   18.8920 H   0  0  0  0  0  0
  -27.3718  -12.5469   17.7955 H   0  0  0  0  0  0
  -27.6454  -14.2550   19.4844 H   0  0  0  0  0  0
  -28.7082  -12.1406   21.4209 H   0  0  0  0  0  0
  -28.4376  -13.8225   21.8010 H   0  0  0  0  0  0
  -25.2767   -9.5687   22.4758 H   0  0  0  0  0  0
  -24.0009   -7.4635   22.7466 H   0  0  0  0  0  0
  -21.0847   -8.8775   19.8950 H   0  0  0  0  0  0
  -22.3698  -10.9676   19.6166 H   0  0  0  0  0  0
  -21.2006   -7.6149   23.9718 H   0  0  0  0  0  0
  -21.1480   -6.0522   25.9078 H   0  0  0  0  0  0
  -22.0598   -2.7610   23.2846 H   0  0  0  0  0  0
  -22.4089  -11.9883   22.4821 H   0  0  0  0  0  0
  -21.1085  -13.1233   22.2623 H   0  0  0  0  0  0
  -24.6494  -15.8429   20.5244 H   0  0  0  0  0  0
  -26.2651  -15.6401   20.0824 H   0  0  0  0  0  0
  -26.7183  -32.5448   23.1096 H   0  0  0  0  0  0
  -25.0085  -33.9711   25.0430 H   0  0  0  0  0  0
  -22.7156  -31.3026   21.4013 H   0  0  0  0  0  0
  -23.3754  -35.9615   23.3288 H   0  0  0  0  0  0
  -24.3586  -36.8911   22.2051 H   0  0  0  0  0  0
  -23.7233  -37.6483   23.6661 H   0  0  0  0  0  0
  -26.0954  -31.5541   20.6083 H   0  0  0  0  0  0
  -26.8427  -30.8366   22.0055 H   0  0  0  0  0  0
  -28.1180  -28.9687   21.2055 H   0  0  0  0  0  0
  -26.0000  -25.9201   19.0149 H   0  0  0  0  0  0
  -23.9719  -27.3087   19.0065 H   0  0  0  0  0  0
  -23.7565  -30.5956   19.4032 H   0  0  0  0  0  0
  -22.7579  -29.2477   19.8557 H   0  0  0  0  0  0
  -25.1285  -36.1923   25.0822 H   0  0  0  0  0  0
  -20.9981  -28.3254   24.1400 H   0  0  0  0  0  0
  -20.5671  -26.2284   23.3604 H   0  0  0  0  0  0
  -21.6647  -26.7429   22.1201 H   0  0  0  0  0  0
  -19.6908  -25.6293   21.1235 H   0  0  0  0  0  0
  -19.6687  -27.3195   20.6738 H   0  0  0  0  0  0
  -17.4198  -26.6663   21.4029 H   0  0  0  0  0  0
  -18.0337  -26.0069   22.9025 H   0  0  0  0  0  0
  -19.7943  -30.7276   24.2244 H   0  0  0  0  0  0
  -17.5017  -31.6261   24.5163 H   0  0  0  0  0  0
  -15.5351  -30.2968   23.7667 H   0  0  0  0  0  0
  -15.8679  -28.0811   22.7064 H   0  0  0  0  0  0
  -24.5905  -30.7077   25.7787 H   0  0  0  0  0  0
  -24.8935  -32.2902   26.4868 H   0  0  0  0  0  0
  -25.8062  -30.8915   27.0226 H   0  0  0  0  0  0
  -26.2913  -29.6749   24.1204 H   0  0  0  0  0  0
  -27.4027  -29.7253   25.4687 H   0  0  0  0  0  0
  -27.8787  -30.4272   23.9407 H   0  0  0  0  0  0
  -27.2659  -33.3617   26.2067 H   0  0  0  0  0  0
  -28.3870  -32.6874   25.0328 H   0  0  0  0  0  0
  -28.0716  -31.8445   26.5415 H   0  0  0  0  0  0
  -28.2573  -38.0115   24.7552 H   0  0  0  0  0  0
  -28.1107  -36.2647   24.6226 H   0  0  0  0  0  0
  -27.2313  -37.1371   25.8863 H   0  0  0  0  0  0
  -20.9371  -29.8747   21.6877 H   0  0  0  0  0  0
  -26.0162  -38.2842   24.1451 H   0  0  0  0  0  0
  -33.1832  -18.9834   21.6954 H   0  0  0  0  0  0
  -31.7491  -20.9014   21.1938 H   0  0  0  0  0  0
  -32.3725  -16.6960   21.5096 H   0  0  0  0  0  0
  -27.1569  -23.0248   22.0813 H   0  0  0  0  0  0
  -27.8355  -20.7276   21.9094 H   0  0  0  0  0  0
  -29.9046  -25.3464   18.7643 H   0  0  0  0  0  0
  -30.8124  -23.9394   18.0101 H   0  0  0  0  0  0
  -27.2581  -25.2951   21.5333 H   0  0  0  0  0  0
  -30.9063  -21.8160   19.3643 H   0  0  0  0  0  0
  -29.4710  -21.5755   18.4213 H   0  0  0  0  0  0
  -28.9262  -15.6767   20.7921 H   0  0  0  0  0  0
  1 25  1  0  0  0
  1 30  2  0  0  0
  1 85  1  0  0  0
  2  3  1  0  0  0
  2 25  1  0  0  0
  2 87  1  0  0  0
  2 88  1  0  0  0
  3  4  1  0  0  0
  3 89  1  0  0  0
  3 90  1  0  0  0
  4  5  1  0  0  0
  4 91  1  0  0  0
  4 92  1  0  0  0
  5  6  1  0  0  0
  5 26  1  0  0  0
  5 93  1  0  0  0
  6 25  1  0  0  0
  6 94  1  0  0  0
  6 95  1  0  0  0
  7  8  2  0  0  0
  7 26  1  0  0  0
  7 29  1  0  0  0
  8  9  1  0  0  0
  8 22  1  0  0  0
  9 10  1  0  0  0
  9 27  2  0  0  0
 10 11  2  0  0  0
 10 15  1  0  0  0
 11 12  1  0  0  0
 11 96  1  0  0  0
 12 13  2  0  0  0
 12 97  1  0  0  0
 13 14  1  0  0  0
 13 31  1  0  0  0
 14 15  2  0  0  0
 14 98  1  0  0  0
 15 99  1  0  0  0
 16 17  2  0  0  0
 16 21  1  0  0  0
 16 31  1  0  0  0
 17 18  1  0  0  0
 17100  1  0  0  0
 18 19  2  0  0  0
 18101  1  0  0  0
 19 20  1  0  0  0
 19 24  1  0  0  0
 20 21  2  0  0  0
 20102  1  0  0  0
 21 23  1  0  0  0
 22 28  1  0  0  0
 22 32  2  0  0  0
 26 27  1  0  0  0
 28103  1  0  0  0
 28104  1  0  0  0
 29105  1  0  0  0
 29106  1  0  0  0
 33 34  1  0  0  0
 33 66  1  0  0  0
 33 70  2  0  0  0
 34 36  1  0  0  0
 34 59  1  0  0  0
 34107  1  0  0  0
 35 44  2  0  0  0
 35 45  1  0  0  0
 35 68  1  0  0  0
 36 56  1  0  0  0
 36108  1  0  0  0
 37 39  1  0  0  0
 37 47  1  0  0  0
 37 66  1  0  0  0
 37109  1  0  0  0
 38 43  2  0  0  0
 38 46  1  0  0  0
 38 47  1  0  0  0
 39 64  1  0  0  0
 39 67  2  0  0  0
 40 52  1  0  0  0
 40 53  2  0  0  0
 40 58  1  0  0  0
 41110  1  0  0  0
 41111  1  0  0  0
 41112  1  0  0  0
 41 48  1  0  0  0
 42 43  1  0  0  0
 42 66  1  0  0  0
 42113  1  0  0  0
 42114  1  0  0  0
 43 44  1  0  0  0
 44115  1  0  0  0
 45 46  2  0  0  0
 45116  1  0  0  0
 46117  1  0  0  0
 47118  1  0  0  0
 47119  1  0  0  0
 48 56  1  0  0  0
 48 65  1  0  0  0
 48120  1  0  0  0
 49 50  1  0  0  0
 49 53  1  0  0  0
 49 64  1  0  0  0
 49121  1  0  0  0
 50 51  1  0  0  0
 50122  1  0  0  0
 50123  1  0  0  0
 51 52  1  0  0  0
 51124  1  0  0  0
 51125  1  0  0  0
 52126  1  0  0  0
 52127  1  0  0  0
 53 54  1  0  0  0
 54 55  2  0  0  0
 54128  1  0  0  0
 55 57  1  0  0  0
 55129  1  0  0  0
 56 69  2  0  0  0
 57 58  2  0  0  0
 57130  1  0  0  0
 58131  1  0  0  0
 59 60  1  0  0  0
 59 61  1  0  0  0
 59 62  1  0  0  0
 60132  1  0  0  0
 60133  1  0  0  0
 60134  1  0  0  0
 61135  1  0  0  0
 61136  1  0  0  0
 61137  1  0  0  0
 62138  1  0  0  0
 62139  1  0  0  0
 62140  1  0  0  0
 63 65  1  0  0  0
 63141  1  0  0  0
 63142  1  0  0  0
 63143  1  0  0  0
 64144  1  0  0  0
 65145  1  0  0  0
 68 82  1  0  0  0
 71 72  2  0  0  0
 71 73  1  0  0  0
 71146  1  0  0  0
 72 74  1  0  0  0
 72147  1  0  0  0
 73 75  2  0  0  0
 73148  1  0  0  0
 74 76  2  0  0  0
 74 84  1  0  0  0
 75 76  1  0  0  0
 75 85  1  0  0  0
 76 86  1  0  0  0
 77 78  2  0  0  0
 77 79  1  0  0  0
 77149  1  0  0  0
 78 84  1  0  0  0
 78150  1  0  0  0
 79 80  1  0  0  0
 79 82  2  0  0  0
 80 81  2  0  0  0
 80 83  1  0  0  0
 81151  1  0  0  0
 81152  1  0  0  0
 82153  1  0  0  0
 83 84  1  0  0  0
 83154  1  0  0  0
 83155  1  0  0  0
 85156  1  0  0  0
M  ISO  4   1 100  68 101  82 101  85 100
M  END
> <chiral flag>
0

> <version>
0

> <s_m_source_file>
/data/baiqing/PycharmProjects/Reinvent-master-3.2/result/LINK_invent/BTK/process_docking_weight1_custom_product_contain_oxygen_bond_distance_aromatic_linkinvent_7_9_3/rearranged_h_0081.sdf

> <i_m_source_file_index>
47

> <r_mmod_Potential_Energy-OPLS-2005>
193.624374389648

> <r_mmod_Stretch_Energy-OPLS-2005>
89.4046249389648

> <r_mmod_Bend_Energy-OPLS-2005>
151.654022216797

> <r_mmod_Torsional_Energy-OPLS-2005>
266.250701904297

> <r_mmod_Improper_Torsional_Energy-OPLS-2005>
6.27232027053833

> <r_mmod_Van_der_Waal_Energy-OPLS-2005>
160.869125366211

> <r_mmod_Electrostatic_Energy-OPLS-2005>
-345.225891113281

> <r_mmod_Solvation_Energy-OPLS-2005>
-196.517471313477

> <b_mmod_Minimization_Converged-OPLS-2005>
0

> <r_mmod_RMS_Derivative-OPLS-2005>
0.649421453475952

$$$$
47
                    3D
 Structure written by MMmdl.
153162  0  0  1  0            999 V2000
  -30.5592  -14.7660   20.4614 C   0  0  0  0  0  0
  -30.4479  -12.4659   19.4720 C   0  0  0  0  0  0
  -29.5163  -12.5182   18.2383 C   0  0  0  0  0  0
  -28.0415  -12.3352   18.6502 C   0  0  0  0  0  0
  -27.6479  -13.2247   19.8595 C   0  0  2  0  0  0
  -28.6931  -13.1268   20.9929 C   0  0  0  0  0  0
  -25.2537  -13.8175   20.5690 C   0  0  0  0  0  0
  -24.1816  -13.0434   20.9194 C   0  0  0  0  0  0
  -24.6396  -11.6908   20.8742 C   0  0  0  0  0  0
  -23.9068  -10.4290   21.0406 C   0  0  0  0  0  0
  -24.3619   -9.4205   21.9184 C   0  0  0  0  0  0
  -23.6291   -8.2241   22.0753 C   0  0  0  0  0  0
  -22.4274   -8.0280   21.3544 C   0  0  0  0  0  0
  -21.9911   -9.0254   20.4647 C   0  0  0  0  0  0
  -22.7240  -10.2132   20.3055 C   0  0  0  0  0  0
  -21.6852   -6.0735   22.5279 C   0  0  0  0  0  0
  -21.4014   -6.5639   23.8213 C   0  0  0  0  0  0
  -21.3660   -5.6792   24.9174 C   0  0  0  0  0  0
  -21.6044   -4.3055   24.7224 C   0  0  0  0  0  0
  -21.8819   -3.8147   23.4347 C   0  0  0  0  0  0
  -21.9192   -4.6963   22.3403 C   0  0  0  0  0  0
  -22.7841  -13.5225   21.1861 C   0  0  0  0  0  0
  -22.1661   -4.2149   21.0980 F   0  0  0  0  0  0
  -21.5629   -3.4538   25.7738 F   0  0  0  0  0  0
  -29.9955  -13.5070   20.4237 N   0  0  0  0  0  0
  -26.2969  -12.9370   20.3309 N   0  0  0  0  0  0
  -25.9330  -11.6517   20.5759 N   0  0  0  0  0  0
  -22.0487  -12.8212   22.0420 N   0  0  0  0  0  0
  -25.4231  -15.1892   20.4110 N   0  0  0  0  0  0
  -31.7246  -14.9335   20.0861 O   0  0  0  0  0  0
  -21.6639   -6.8878   21.4240 O   0  0  0  0  0  0
  -22.3519  -14.5532   20.6714 O   0  0  0  0  0  0
  -24.6323  -31.8524   23.1951 C   0  0  0  0  0  0
  -25.9143  -32.4739   23.8312 C   0  0  1  0  0  0
  -27.2328  -27.2544   20.1196 C   0  0  0  0  0  0
  -25.5925  -33.8546   24.2236 N   0  0  0  0  0  0
  -23.4312  -30.4729   21.5377 C   0  0  2  0  0  0
  -24.8820  -28.9176   20.1027 C   0  0  0  0  0  0
  -22.7513  -29.4583   22.4890 C   0  0  0  0  0  0
  -18.0295  -28.1391   22.8484 C   0  0  0  0  0  0
  -24.1489  -36.7278   23.2641 C   0  0  0  0  0  0
  -25.9773  -30.7618   21.3769 C   0  0  0  0  0  0
  -26.0516  -29.3841   20.7152 C   0  0  0  0  0  0
  -27.2255  -28.5627   20.7165 C   0  0  0  0  0  0
  -26.0383  -26.8530   19.4812 C   0  0  0  0  0  0
  -24.8814  -27.6610   19.4750 C   0  0  0  0  0  0
  -23.6512  -29.8033   20.1539 C   0  0  0  0  0  0
  -25.4117  -36.3061   24.0324 C   0  0  1  0  0  0
  -20.5899  -28.3702   23.1263 C   0  0  2  0  0  0
  -20.6778  -26.9417   22.5410 C   0  0  0  0  0  0
  -19.5754  -26.6383   21.5213 C   0  0  0  0  0  0
  -18.1935  -26.7929   22.1622 C   0  0  0  0  0  0
  -19.1548  -28.8864   23.2867 C   0  0  0  0  0  0
  -18.9466  -30.1460   23.8887 C   0  0  0  0  0  0
  -17.6467  -30.6589   24.0562 C   0  0  0  0  0  0
  -25.9060  -34.9431   23.5086 C   0  0  0  0  0  0
  -16.5358  -29.9087   23.6332 C   0  0  0  0  0  0
  -16.7280  -28.6504   23.0352 C   0  0  0  0  0  0
  -26.4502  -31.6578   25.0713 C   0  0  0  0  0  0
  -25.3720  -31.3733   26.1428 C   0  0  0  0  0  0
  -27.0359  -30.2994   24.6220 C   0  0  0  0  0  0
  -27.6048  -32.4328   25.7489 C   0  0  0  0  0  0
  -27.5579  -37.1795   24.8467 C   0  0  0  0  0  0
  -21.4215  -29.3042   22.3643 N   0  0  0  0  0  0
  -26.4292  -37.3764   23.9407 N   0  0  0  0  0  0
  -24.6990  -31.0474   22.0931 N   0  0  0  0  0  0
  -23.4205  -28.8129   23.3005 O   0  0  0  0  0  0
  -28.3098  -26.3415   20.2526 O   0  0  0  0  0  0
  -26.5638  -34.8914   22.4661 O   0  0  0  0  0  0
  -23.5469  -32.1351   23.7239 O   0  0  0  0  0  0
  -30.2449  -19.5057   19.5852 C   0  0  0  0  0  0
  -30.4400  -18.0844   19.7465 C   0  0  0  0  0  0
  -28.6004  -19.5007   21.2555 C   0  0  0  0  0  0
  -28.7445  -18.0739   21.4238 C   0  0  0  0  0  0
  -29.3160  -20.3144   20.3246 C   0  0  0  0  0  0
  -29.6841  -17.3014   20.6650 C   0  0  0  0  0  0
  -28.6868  -23.8067   19.8209 C   0  0  0  0  0  0
  -28.9477  -22.6302   19.0007 C   0  0  0  0  0  0
  -28.8331  -22.9317   20.9803 C   0  0  0  0  0  0
  -26.6189  -17.7881   22.7372 C   0  0  0  0  0  0
  -27.8412  -17.3729   22.3613 C   0  0  0  0  0  0
  -28.4276  -25.1423   19.4880 C   0  0  0  0  0  0
  -29.0935  -21.7875   20.1413 N   0  0  0  0  0  0
  -29.7142  -15.8122   20.8080 N   0  0  0  0  0  0
  -28.9923  -22.4983   17.7927 O   0  0  0  0  0  0
  -28.7344  -23.1559   22.1713 O   0  0  0  0  0  0
  -31.4849  -12.6148   19.1675 H   0  0  0  0  0  0
  -30.4128  -11.4814   19.9412 H   0  0  0  0  0  0
  -29.8007  -11.7509   17.5172 H   0  0  0  0  0  0
  -29.6367  -13.4757   17.7287 H   0  0  0  0  0  0
  -27.8991  -11.2850   18.9054 H   0  0  0  0  0  0
  -27.3836  -12.5340   17.8036 H   0  0  0  0  0  0
  -27.6493  -14.2515   19.4930 H   0  0  0  0  0  0
  -28.7337  -12.1123   21.3927 H   0  0  0  0  0  0
  -28.4190  -13.7666   21.8328 H   0  0  0  0  0  0
  -25.2764   -9.5681   22.4758 H   0  0  0  0  0  0
  -24.0002   -7.4632   22.7473 H   0  0  0  0  0  0
  -21.0841   -8.8773   19.8951 H   0  0  0  0  0  0
  -22.3699  -10.9672   19.6164 H   0  0  0  0  0  0
  -21.2006   -7.6148   23.9716 H   0  0  0  0  0  0
  -21.1482   -6.0523   25.9078 H   0  0  0  0  0  0
  -22.0598   -2.7609   23.2846 H   0  0  0  0  0  0
  -22.4105  -11.9873   22.4800 H   0  0  0  0  0  0
  -21.1106  -13.1237   22.2633 H   0  0  0  0  0  0
  -24.6635  -15.8455   20.5488 H   0  0  0  0  0  0
  -26.2811  -15.6385   20.1164 H   0  0  0  0  0  0
  -26.7207  -32.5384   23.1051 H   0  0  0  0  0  0
  -25.0062  -33.9673   25.0372 H   0  0  0  0  0  0
  -22.7287  -31.2950   21.3892 H   0  0  0  0  0  0
  -23.3753  -35.9610   23.3300 H   0  0  0  0  0  0
  -24.3577  -36.8908   22.2057 H   0  0  0  0  0  0
  -23.7242  -37.6477   23.6673 H   0  0  0  0  0  0
  -26.1189  -31.5235   20.6092 H   0  0  0  0  0  0
  -26.8529  -30.8097   22.0125 H   0  0  0  0  0  0
  -28.1159  -28.9075   21.2232 H   0  0  0  0  0  0
  -25.9693  -25.8790   19.0205 H   0  0  0  0  0  0
  -23.9834  -27.2949   18.9959 H   0  0  0  0  0  0
  -23.7734  -30.5794   19.3971 H   0  0  0  0  0  0
  -22.7698  -29.2358   19.8500 H   0  0  0  0  0  0
  -25.1302  -36.1904   25.0818 H   0  0  0  0  0  0
  -20.9994  -28.3286   24.1381 H   0  0  0  0  0  0
  -20.5671  -26.2315   23.3619 H   0  0  0  0  0  0
  -21.6647  -26.7431   22.1207 H   0  0  0  0  0  0
  -19.6915  -25.6290   21.1249 H   0  0  0  0  0  0
  -19.6692  -27.3187   20.6738 H   0  0  0  0  0  0
  -17.4205  -26.6677   21.4028 H   0  0  0  0  0  0
  -18.0336  -26.0076   22.9023 H   0  0  0  0  0  0
  -19.7946  -30.7282   24.2256 H   0  0  0  0  0  0
  -17.5021  -31.6268   24.5166 H   0  0  0  0  0  0
  -15.5359  -30.2985   23.7659 H   0  0  0  0  0  0
  -15.8680  -28.0820   22.7071 H   0  0  0  0  0  0
  -24.5900  -30.7074   25.7755 H   0  0  0  0  0  0
  -24.8901  -32.2903   26.4833 H   0  0  0  0  0  0
  -25.8029  -30.8925   27.0220 H   0  0  0  0  0  0
  -26.2952  -29.6729   24.1236 H   0  0  0  0  0  0
  -27.4026  -29.7269   25.4751 H   0  0  0  0  0  0
  -27.8834  -30.4263   23.9479 H   0  0  0  0  0  0
  -27.2650  -33.3637   26.2045 H   0  0  0  0  0  0
  -28.3871  -32.6878   25.0327 H   0  0  0  0  0  0
  -28.0706  -31.8470   26.5426 H   0  0  0  0  0  0
  -28.2595  -38.0092   24.7509 H   0  0  0  0  0  0
  -28.1074  -36.2623   24.6298 H   0  0  0  0  0  0
  -27.2295  -37.1451   25.8869 H   0  0  0  0  0  0
  -20.9408  -29.8763   21.6843 H   0  0  0  0  0  0
  -26.0167  -38.2838   24.1404 H   0  0  0  0  0  0
  -30.8547  -19.9999   18.8418 H   0  0  0  0  0  0
  -31.1666  -17.5924   19.1155 H   0  0  0  0  0  0
  -27.8712  -20.0101   21.8677 H   0  0  0  0  0  0
  -26.0363  -17.2118   23.4419 H   0  0  0  0  0  0
  -26.1688  -18.6922   22.3543 H   0  0  0  0  0  0
  -28.2091  -16.4568   22.8004 H   0  0  0  0  0  0
  -28.3942  -25.3976   18.4377 H   0  0  0  0  0  0
  -28.8613  -15.4505   21.2046 H   0  0  0  0  0  0
  1 25  1  0  0  0
  1 30  2  0  0  0
  1 84  1  0  0  0
  2  3  1  0  0  0
  2 25  1  0  0  0
  2 87  1  0  0  0
  2 88  1  0  0  0
  3  4  1  0  0  0
  3 89  1  0  0  0
  3 90  1  0  0  0
  4  5  1  0  0  0
  4 91  1  0  0  0
  4 92  1  0  0  0
  5  6  1  0  0  0
  5 26  1  0  0  0
  5 93  1  0  0  0
  6 25  1  0  0  0
  6 94  1  0  0  0
  6 95  1  0  0  0
  7  8  2  0  0  0
  7 26  1  0  0  0
  7 29  1  0  0  0
  8  9  1  0  0  0
  8 22  1  0  0  0
  9 10  1  0  0  0
  9 27  2  0  0  0
 10 11  2  0  0  0
 10 15  1  0  0  0
 11 12  1  0  0  0
 11 96  1  0  0  0
 12 13  2  0  0  0
 12 97  1  0  0  0
 13 14  1  0  0  0
 13 31  1  0  0  0
 14 15  2  0  0  0
 14 98  1  0  0  0
 15 99  1  0  0  0
 16 17  2  0  0  0
 16 21  1  0  0  0
 16 31  1  0  0  0
 17 18  1  0  0  0
 17100  1  0  0  0
 18 19  2  0  0  0
 18101  1  0  0  0
 19 20  1  0  0  0
 19 24  1  0  0  0
 20 21  2  0  0  0
 20102  1  0  0  0
 21 23  1  0  0  0
 22 28  1  0  0  0
 22 32  2  0  0  0
 26 27  1  0  0  0
 28103  1  0  0  0
 28104  1  0  0  0
 29105  1  0  0  0
 29106  1  0  0  0
 33 34  1  0  0  0
 33 66  1  0  0  0
 33 70  2  0  0  0
 34 36  1  0  0  0
 34 59  1  0  0  0
 34107  1  0  0  0
 35 44  2  0  0  0
 35 45  1  0  0  0
 35 68  1  0  0  0
 36 56  1  0  0  0
 36108  1  0  0  0
 37 39  1  0  0  0
 37 47  1  0  0  0
 37 66  1  0  0  0
 37109  1  0  0  0
 38 43  2  0  0  0
 38 46  1  0  0  0
 38 47  1  0  0  0
 39 64  1  0  0  0
 39 67  2  0  0  0
 40 52  1  0  0  0
 40 53  2  0  0  0
 40 58  1  0  0  0
 41110  1  0  0  0
 41111  1  0  0  0
 41112  1  0  0  0
 41 48  1  0  0  0
 42 43  1  0  0  0
 42 66  1  0  0  0
 42113  1  0  0  0
 42114  1  0  0  0
 43 44  1  0  0  0
 44115  1  0  0  0
 45 46  2  0  0  0
 45116  1  0  0  0
 46117  1  0  0  0
 47118  1  0  0  0
 47119  1  0  0  0
 48 56  1  0  0  0
 48 65  1  0  0  0
 48120  1  0  0  0
 49 50  1  0  0  0
 49 53  1  0  0  0
 49 64  1  0  0  0
 49121  1  0  0  0
 50 51  1  0  0  0
 50122  1  0  0  0
 50123  1  0  0  0
 51 52  1  0  0  0
 51124  1  0  0  0
 51125  1  0  0  0
 52126  1  0  0  0
 52127  1  0  0  0
 53 54  1  0  0  0
 54 55  2  0  0  0
 54128  1  0  0  0
 55 57  1  0  0  0
 55129  1  0  0  0
 56 69  2  0  0  0
 57 58  2  0  0  0
 57130  1  0  0  0
 58131  1  0  0  0
 59 60  1  0  0  0
 59 61  1  0  0  0
 59 62  1  0  0  0
 60132  1  0  0  0
 60133  1  0  0  0
 60134  1  0  0  0
 61135  1  0  0  0
 61136  1  0  0  0
 61137  1  0  0  0
 62138  1  0  0  0
 62139  1  0  0  0
 62140  1  0  0  0
 63 65  1  0  0  0
 63141  1  0  0  0
 63142  1  0  0  0
 63143  1  0  0  0
 64144  1  0  0  0
 65145  1  0  0  0
 68 82  1  0  0  0
 71 72  2  0  0  0
 71 75  1  0  0  0
 71146  1  0  0  0
 72 76  1  0  0  0
 72147  1  0  0  0
 73 74  1  0  0  0
 73 75  2  0  0  0
 73148  1  0  0  0
 74 76  2  0  0  0
 74 81  1  0  0  0
 75 83  1  0  0  0
 76 84  1  0  0  0
 77 78  1  0  0  0
 77 79  1  0  0  0
 77 82  2  0  0  0
 78 83  1  0  0  0
 78 85  2  0  0  0
 79 83  1  0  0  0
 79 86  2  0  0  0
 80 81  2  0  0  0
 80149  1  0  0  0
 80150  1  0  0  0
 81151  1  0  0  0
 82152  1  0  0  0
 84153  1  0  0  0
M  ISO  4   1 100  68 101  82 101  84 100
M  END
> <chiral flag>
0

> <version>
0

> <s_m_source_file>
/data/baiqing/PycharmProjects/Reinvent-master-3.2/result/LINK_invent/BTK/process_docking_weight1_custom_product_contain_oxygen_bond_distance_aromatic_linkinvent_7_9_3/rearranged_h_0081.sdf

> <i_m_source_file_index>
48

> <r_mmod_Potential_Energy-OPLS-2005>
203.112411499023

> <r_mmod_Stretch_Energy-OPLS-2005>
118.713218688965

> <r_mmod_Bend_Energy-OPLS-2005>
262.256774902344

> <r_mmod_Torsional_Energy-OPLS-2005>
231.759689331055

> <r_mmod_Improper_Torsional_Energy-OPLS-2005>
4.19463491439819

> <r_mmod_Van_der_Waal_Energy-OPLS-2005>
130.960525512695

> <r_mmod_Electrostatic_Energy-OPLS-2005>
-413.212249755859

> <r_mmod_Solvation_Energy-OPLS-2005>
-228.507522583008

> <b_mmod_Minimization_Converged-OPLS-2005>
0

> <r_mmod_RMS_Derivative-OPLS-2005>
1.23025798797607

$$$$
48
                    3D
 Structure written by MMmdl.
151159  0  0  1  0            999 V2000
  -30.6689  -14.5349   20.5259 C   0  0  0  0  0  0
  -30.4284  -12.3294   19.4411 C   0  0  0  0  0  0
  -29.5016  -12.4969   18.2171 C   0  0  0  0  0  0
  -28.0230  -12.3503   18.6286 C   0  0  0  0  0  0
  -27.6589  -13.2084   19.8698 C   0  0  2  0  0  0
  -28.7008  -13.0187   20.9958 C   0  0  0  0  0  0
  -25.2592  -13.8160   20.5698 C   0  0  0  0  0  0
  -24.1842  -13.0437   20.9186 C   0  0  0  0  0  0
  -24.6398  -11.6903   20.8743 C   0  0  0  0  0  0
  -23.9073  -10.4290   21.0417 C   0  0  0  0  0  0
  -24.3619   -9.4198   21.9194 C   0  0  0  0  0  0
  -23.6281   -8.2239   22.0759 C   0  0  0  0  0  0
  -22.4262   -8.0291   21.3550 C   0  0  0  0  0  0
  -21.9910   -9.0272   20.4650 C   0  0  0  0  0  0
  -22.7253  -10.2140   20.3058 C   0  0  0  0  0  0
  -21.6846   -6.0750   22.5289 C   0  0  0  0  0  0
  -21.4010   -6.5655   23.8226 C   0  0  0  0  0  0
  -21.3650   -5.6802   24.9190 C   0  0  0  0  0  0
  -21.6037   -4.3064   24.7233 C   0  0  0  0  0  0
  -21.8815   -3.8158   23.4353 C   0  0  0  0  0  0
  -21.9187   -4.6978   22.3410 C   0  0  0  0  0  0
  -22.7867  -13.5241   21.1844 C   0  0  0  0  0  0
  -22.1654   -4.2166   21.0985 F   0  0  0  0  0  0
  -21.5625   -3.4540   25.7741 F   0  0  0  0  0  0
  -30.0280  -13.3328   20.4420 N   0  0  0  0  0  0
  -26.3015  -12.9328   20.3344 N   0  0  0  0  0  0
  -25.9324  -11.6492   20.5762 N   0  0  0  0  0  0
  -22.0487  -12.8245   22.0390 N   0  0  0  0  0  0
  -25.4348  -15.1880   20.4165 N   0  0  0  0  0  0
  -31.8199  -14.6855   20.1085 O   0  0  0  0  0  0
  -21.6623   -6.8892   21.4249 O   0  0  0  0  0  0
  -22.3565  -14.5559   20.6703 O   0  0  0  0  0  0
  -24.6196  -31.8644   23.2067 C   0  0  0  0  0  0
  -25.9078  -32.4797   23.8376 C   0  0  1  0  0  0
  -27.2334  -27.4043   20.1034 C   0  0  0  0  0  0
  -25.5926  -33.8595   24.2316 N   0  0  0  0  0  0
  -23.4104  -30.4877   21.5466 C   0  0  2  0  0  0
  -24.8598  -28.9498   20.1099 C   0  0  0  0  0  0
  -22.7444  -29.4645   22.4961 C   0  0  0  0  0  0
  -18.0270  -28.1382   22.8483 C   0  0  0  0  0  0
  -24.1489  -36.7302   23.2637 C   0  0  0  0  0  0
  -25.9425  -30.8215   21.3639 C   0  0  0  0  0  0
  -26.0221  -29.4538   20.7103 C   0  0  0  0  0  0
  -27.2158  -28.6881   20.7060 C   0  0  0  0  0  0
  -26.0585  -26.9256   19.4903 C   0  0  0  0  0  0
  -24.8739  -27.6860   19.4951 C   0  0  0  0  0  0
  -23.6217  -29.8191   20.1612 C   0  0  0  0  0  0
  -25.4105  -36.3095   24.0343 C   0  0  1  0  0  0
  -20.5870  -28.3673   23.1305 C   0  0  2  0  0  0
  -20.6760  -26.9403   22.5417 C   0  0  0  0  0  0
  -19.5736  -26.6385   21.5216 C   0  0  0  0  0  0
  -18.1914  -26.7920   22.1622 C   0  0  0  0  0  0
  -19.1523  -28.8842   23.2889 C   0  0  0  0  0  0
  -18.9451  -30.1452   23.8892 C   0  0  0  0  0  0
  -17.6453  -30.6585   24.0563 C   0  0  0  0  0  0
  -25.9046  -34.9467   23.5125 C   0  0  0  0  0  0
  -16.5340  -29.9086   23.6333 C   0  0  0  0  0  0
  -16.7261  -28.6511   23.0335 C   0  0  0  0  0  0
  -26.4487  -31.6570   25.0712 C   0  0  0  0  0  0
  -25.3762  -31.3694   26.1478 C   0  0  0  0  0  0
  -27.0295  -30.2999   24.6094 C   0  0  0  0  0  0
  -27.6074  -32.4275   25.7464 C   0  0  0  0  0  0
  -27.5584  -37.1793   24.8457 C   0  0  0  0  0  0
  -21.4165  -29.3036   22.3707 N   0  0  0  0  0  0
  -26.4275  -37.3797   23.9437 N   0  0  0  0  0  0
  -24.6760  -31.0723   22.0975 N   0  0  0  0  0  0
  -23.4202  -28.8185   23.3015 O   0  0  0  0  0  0
  -28.3283  -26.5623   20.1520 O   0  0  0  0  0  0
  -26.5607  -34.8926   22.4685 O   0  0  0  0  0  0
  -23.5383  -32.1406   23.7445 O   0  0  0  0  0  0
  -31.0743  -18.9923   19.7286 C   0  0  0  0  0  0
  -28.8673  -19.2010   20.6882 C   0  0  0  0  0  0
  -31.1021  -17.6147   20.0547 C   0  0  0  0  0  0
  -28.8927  -17.8172   21.0144 C   0  0  0  0  0  0
  -29.9567  -19.8125   20.0205 C   0  0  0  0  0  0
  -29.9951  -16.9880   20.6819 C   0  0  0  0  0  0
  -28.5811  -24.2691   21.0933 C   0  0  0  0  0  0
  -28.2349  -25.5868   21.1319 C   0  0  0  0  0  0
  -29.9159  -21.2453   19.4966 C   0  0  0  0  0  0
  -29.1644  -23.5324   19.9708 C   0  0  0  0  0  0
  -29.9087  -15.5711   20.9663 N   0  0  0  0  0  0
  -29.3317  -22.2081   20.2543 N   0  0  0  0  0  0
  -30.4657  -21.4678   18.4110 O   0  0  0  0  0  0
  -29.4673  -24.0608   18.8949 O   0  0  0  0  0  0
  -31.4735  -12.4289   19.1435 H   0  0  0  0  0  0
  -30.3348  -11.3262   19.8598 H   0  0  0  0  0  0
  -29.7505  -11.7586   17.4536 H   0  0  0  0  0  0
  -29.6612  -13.4749   17.7604 H   0  0  0  0  0  0
  -27.8487  -11.2966   18.8474 H   0  0  0  0  0  0
  -27.3698  -12.5968   17.7912 H   0  0  0  0  0  0
  -27.6931  -14.2508   19.5521 H   0  0  0  0  0  0
  -28.6855  -11.9877   21.3526 H   0  0  0  0  0  0
  -28.4569  -13.6326   21.8640 H   0  0  0  0  0  0
  -25.2770   -9.5661   22.4770 H   0  0  0  0  0  0
  -23.9984   -7.4625   22.7480 H   0  0  0  0  0  0
  -21.0840   -8.8807   19.8954 H   0  0  0  0  0  0
  -22.3734  -10.9684   19.6158 H   0  0  0  0  0  0
  -21.1999   -7.6163   23.9739 H   0  0  0  0  0  0
  -21.1475   -6.0532   25.9095 H   0  0  0  0  0  0
  -22.0597   -2.7622   23.2851 H   0  0  0  0  0  0
  -22.4066  -11.9885   22.4761 H   0  0  0  0  0  0
  -21.1114  -13.1301   22.2598 H   0  0  0  0  0  0
  -24.6752  -15.8480   20.5400 H   0  0  0  0  0  0
  -26.2931  -15.6258   20.1058 H   0  0  0  0  0  0
  -26.7151  -32.5496   23.1140 H   0  0  0  0  0  0
  -25.0105  -33.9736   25.0482 H   0  0  0  0  0  0
  -22.7014  -31.3065   21.4047 H   0  0  0  0  0  0
  -23.3766  -35.9612   23.3243 H   0  0  0  0  0  0
  -24.3618  -36.8973   22.2064 H   0  0  0  0  0  0
  -23.7206  -37.6479   23.6681 H   0  0  0  0  0  0
  -26.0596  -31.5847   20.5935 H   0  0  0  0  0  0
  -26.8301  -30.8756   21.9821 H   0  0  0  0  0  0
  -28.1085  -29.0617   21.1885 H   0  0  0  0  0  0
  -26.0588  -25.9468   19.0313 H   0  0  0  0  0  0
  -23.9810  -27.2890   19.0319 H   0  0  0  0  0  0
  -23.7324  -30.5942   19.4020 H   0  0  0  0  0  0
  -22.7452  -29.2408   19.8629 H   0  0  0  0  0  0
  -25.1270  -36.1944   25.0830 H   0  0  0  0  0  0
  -20.9956  -28.3229   24.1429 H   0  0  0  0  0  0
  -20.5661  -26.2278   23.3607 H   0  0  0  0  0  0
  -21.6626  -26.7437   22.1207 H   0  0  0  0  0  0
  -19.6898  -25.6304   21.1223 H   0  0  0  0  0  0
  -19.6673  -27.3213   20.6761 H   0  0  0  0  0  0
  -17.4190  -26.6676   21.4015 H   0  0  0  0  0  0
  -18.0304  -26.0058   22.9011 H   0  0  0  0  0  0
  -19.7939  -30.7264   24.2241 H   0  0  0  0  0  0
  -17.5022  -31.6261   24.5168 H   0  0  0  0  0  0
  -15.5347  -30.2990   23.7671 H   0  0  0  0  0  0
  -15.8655  -28.0851   22.7024 H   0  0  0  0  0  0
  -24.5904  -30.7066   25.7838 H   0  0  0  0  0  0
  -24.8991  -32.2852   26.4972 H   0  0  0  0  0  0
  -25.8131  -30.8833   27.0209 H   0  0  0  0  0  0
  -26.2821  -29.6764   24.1170 H   0  0  0  0  0  0
  -27.4077  -29.7235   25.4549 H   0  0  0  0  0  0
  -27.8665  -30.4298   23.9231 H   0  0  0  0  0  0
  -27.2721  -33.3599   26.2014 H   0  0  0  0  0  0
  -28.3900  -32.6779   25.0289 H   0  0  0  0  0  0
  -28.0710  -31.8397   26.5395 H   0  0  0  0  0  0
  -28.2562  -38.0132   24.7574 H   0  0  0  0  0  0
  -28.1119  -36.2672   24.6172 H   0  0  0  0  0  0
  -27.2329  -37.1306   25.8864 H   0  0  0  0  0  0
  -20.9326  -29.8792   21.6954 H   0  0  0  0  0  0
  -26.0154  -38.2863   24.1476 H   0  0  0  0  0  0
  -31.9247  -19.4172   19.2132 H   0  0  0  0  0  0
  -27.9814  -19.7769   20.9163 H   0  0  0  0  0  0
  -31.9854  -17.0576   19.7815 H   0  0  0  0  0  0
  -28.0268  -17.3877   21.4996 H   0  0  0  0  0  0
  -28.3957  -23.7183   22.0040 H   0  0  0  0  0  0
  -27.8091  -25.9957   22.0388 H   0  0  0  0  0  0
  -29.0314  -15.2718   21.3632 H   0  0  0  0  0  0
  -29.0002  -21.8979   21.1530 H   0  0  0  0  0  0
  1 25  1  0  0  0
  1 30  2  0  0  0
  1 81  1  0  0  0
  2  3  1  0  0  0
  2 25  1  0  0  0
  2 85  1  0  0  0
  2 86  1  0  0  0
  3  4  1  0  0  0
  3 87  1  0  0  0
  3 88  1  0  0  0
  4  5  1  0  0  0
  4 89  1  0  0  0
  4 90  1  0  0  0
  5  6  1  0  0  0
  5 26  1  0  0  0
  5 91  1  0  0  0
  6 25  1  0  0  0
  6 92  1  0  0  0
  6 93  1  0  0  0
  7  8  2  0  0  0
  7 26  1  0  0  0
  7 29  1  0  0  0
  8  9  1  0  0  0
  8 22  1  0  0  0
  9 10  1  0  0  0
  9 27  2  0  0  0
 10 11  2  0  0  0
 10 15  1  0  0  0
 11 12  1  0  0  0
 11 94  1  0  0  0
 12 13  2  0  0  0
 12 95  1  0  0  0
 13 14  1  0  0  0
 13 31  1  0  0  0
 14 15  2  0  0  0
 14 96  1  0  0  0
 15 97  1  0  0  0
 16 17  2  0  0  0
 16 21  1  0  0  0
 16 31  1  0  0  0
 17 18  1  0  0  0
 17 98  1  0  0  0
 18 19  2  0  0  0
 18 99  1  0  0  0
 19 20  1  0  0  0
 19 24  1  0  0  0
 20 21  2  0  0  0
 20100  1  0  0  0
 21 23  1  0  0  0
 22 28  1  0  0  0
 22 32  2  0  0  0
 26 27  1  0  0  0
 28101  1  0  0  0
 28102  1  0  0  0
 29103  1  0  0  0
 29104  1  0  0  0
 33 34  1  0  0  0
 33 66  1  0  0  0
 33 70  2  0  0  0
 34 36  1  0  0  0
 34 59  1  0  0  0
 34105  1  0  0  0
 35 44  2  0  0  0
 35 45  1  0  0  0
 35 68  1  0  0  0
 36 56  1  0  0  0
 36106  1  0  0  0
 37 39  1  0  0  0
 37 47  1  0  0  0
 37 66  1  0  0  0
 37107  1  0  0  0
 38 43  2  0  0  0
 38 46  1  0  0  0
 38 47  1  0  0  0
 39 64  1  0  0  0
 39 67  2  0  0  0
 40 52  1  0  0  0
 40 53  2  0  0  0
 40 58  1  0  0  0
 41108  1  0  0  0
 41109  1  0  0  0
 41110  1  0  0  0
 41 48  1  0  0  0
 42 43  1  0  0  0
 42 66  1  0  0  0
 42111  1  0  0  0
 42112  1  0  0  0
 43 44  1  0  0  0
 44113  1  0  0  0
 45 46  2  0  0  0
 45114  1  0  0  0
 46115  1  0  0  0
 47116  1  0  0  0
 47117  1  0  0  0
 48 56  1  0  0  0
 48 65  1  0  0  0
 48118  1  0  0  0
 49 50  1  0  0  0
 49 53  1  0  0  0
 49 64  1  0  0  0
 49119  1  0  0  0
 50 51  1  0  0  0
 50120  1  0  0  0
 50121  1  0  0  0
 51 52  1  0  0  0
 51122  1  0  0  0
 51123  1  0  0  0
 52124  1  0  0  0
 52125  1  0  0  0
 53 54  1  0  0  0
 54 55  2  0  0  0
 54126  1  0  0  0
 55 57  1  0  0  0
 55127  1  0  0  0
 56 69  2  0  0  0
 57 58  2  0  0  0
 57128  1  0  0  0
 58129  1  0  0  0
 59 60  1  0  0  0
 59 61  1  0  0  0
 59 62  1  0  0  0
 60130  1  0  0  0
 60131  1  0  0  0
 60132  1  0  0  0
 61133  1  0  0  0
 61134  1  0  0  0
 61135  1  0  0  0
 62136  1  0  0  0
 62137  1  0  0  0
 62138  1  0  0  0
 63 65  1  0  0  0
 63139  1  0  0  0
 63140  1  0  0  0
 63141  1  0  0  0
 64142  1  0  0  0
 65143  1  0  0  0
 68 78  1  0  0  0
 71 73  2  0  0  0
 71 75  1  0  0  0
 71144  1  0  0  0
 72 74  1  0  0  0
 72 75  2  0  0  0
 72145  1  0  0  0
 73 76  1  0  0  0
 73146  1  0  0  0
 74 76  2  0  0  0
 74147  1  0  0  0
 75 79  1  0  0  0
 76 81  1  0  0  0
 77 78  2  0  0  0
 77 80  1  0  0  0
 77148  1  0  0  0
 78149  1  0  0  0
 79 82  1  0  0  0
 79 83  2  0  0  0
 80 82  1  0  0  0
 80 84  2  0  0  0
 81150  1  0  0  0
 82151  1  0  0  0
M  ISO  4   1 100  68 101  78 101  81 100
M  END
> <chiral flag>
0

> <version>
0

> <s_m_source_file>
/data/baiqing/PycharmProjects/Reinvent-master-3.2/result/LINK_invent/BTK/process_docking_weight1_custom_product_contain_oxygen_bond_distance_aromatic_linkinvent_7_9_3/rearranged_h_0081.sdf

> <i_m_source_file_index>
49

> <r_mmod_Potential_Energy-OPLS-2005>
-126.637298583984

> <r_mmod_Stretch_Energy-OPLS-2005>
47.7020263671875

> <r_mmod_Bend_Energy-OPLS-2005>
122.66480255127

> <r_mmod_Torsional_Energy-OPLS-2005>
235.770004272461

> <r_mmod_Improper_Torsional_Energy-OPLS-2005>
4.65158271789551

> <r_mmod_Van_der_Waal_Energy-OPLS-2005>
154.391845703125

> <r_mmod_Electrostatic_Energy-OPLS-2005>
-436.145172119141

> <r_mmod_Solvation_Energy-OPLS-2005>
-279.576538085938

> <b_mmod_Minimization_Converged-OPLS-2005>
0

> <r_mmod_RMS_Derivative-OPLS-2005>
1.27324020862579

$$$$
49
                    3D
 Structure written by MMmdl.
157166  0  0  1  0            999 V2000
  -30.6126  -14.7069   20.4790 C   0  0  0  0  0  0
  -30.4418  -12.4345   19.4637 C   0  0  0  0  0  0
  -29.5141  -12.5122   18.2299 C   0  0  0  0  0  0
  -28.0401  -12.3369   18.6422 C   0  0  0  0  0  0
  -27.6508  -13.2242   19.8561 C   0  0  2  0  0  0
  -28.6961  -13.1184   20.9893 C   0  0  0  0  0  0
  -25.2562  -13.8172   20.5706 C   0  0  0  0  0  0
  -24.1835  -13.0434   20.9202 C   0  0  0  0  0  0
  -24.6405  -11.6903   20.8720 C   0  0  0  0  0  0
  -23.9066  -10.4296   21.0385 C   0  0  0  0  0  0
  -24.3620   -9.4216   21.9173 C   0  0  0  0  0  0
  -23.6289   -8.2251   22.0745 C   0  0  0  0  0  0
  -22.4266   -8.0285   21.3547 C   0  0  0  0  0  0
  -21.9902   -9.0261   20.4656 C   0  0  0  0  0  0
  -22.7229  -10.2137   20.3045 C   0  0  0  0  0  0
  -21.6863   -6.0730   22.5278 C   0  0  0  0  0  0
  -21.4028   -6.5628   23.8209 C   0  0  0  0  0  0
  -21.3655   -5.6781   24.9167 C   0  0  0  0  0  0
  -21.6037   -4.3049   24.7216 C   0  0  0  0  0  0
  -21.8824   -3.8142   23.4343 C   0  0  0  0  0  0
  -21.9207   -4.6962   22.3402 C   0  0  0  0  0  0
  -22.7851  -13.5230   21.1840 C   0  0  0  0  0  0
  -22.1677   -4.2150   21.0979 F   0  0  0  0  0  0
  -21.5620   -3.4532   25.7729 F   0  0  0  0  0  0
  -30.0053  -13.4739   20.4215 N   0  0  0  0  0  0
  -26.2980  -12.9366   20.3282 N   0  0  0  0  0  0
  -25.9333  -11.6512   20.5716 N   0  0  0  0  0  0
  -22.0489  -12.8233   22.0400 N   0  0  0  0  0  0
  -25.4251  -15.1900   20.4156 N   0  0  0  0  0  0
  -31.7845  -14.8397   20.1177 O   0  0  0  0  0  0
  -21.6633   -6.8874   21.4245 O   0  0  0  0  0  0
  -22.3526  -14.5525   20.6675 O   0  0  0  0  0  0
  -24.6289  -31.8575   23.1992 C   0  0  0  0  0  0
  -25.9119  -32.4764   23.8339 C   0  0  1  0  0  0
  -27.2426  -27.3044   20.1292 C   0  0  0  0  0  0
  -25.5920  -33.8567   24.2272 N   0  0  0  0  0  0
  -23.4248  -30.4769   21.5427 C   0  0  2  0  0  0
  -24.8764  -28.9238   20.1134 C   0  0  0  0  0  0
  -22.7484  -29.4608   22.4949 C   0  0  0  0  0  0
  -18.0290  -28.1390   22.8480 C   0  0  0  0  0  0
  -24.1489  -36.7284   23.2647 C   0  0  0  0  0  0
  -25.9644  -30.7840   21.3719 C   0  0  0  0  0  0
  -26.0428  -29.4067   20.7205 C   0  0  0  0  0  0
  -27.2269  -28.6078   20.7193 C   0  0  0  0  0  0
  -26.0563  -26.8774   19.4929 C   0  0  0  0  0  0
  -24.8850  -27.6641   19.4901 C   0  0  0  0  0  0
  -23.6426  -29.8046   20.1602 C   0  0  0  0  0  0
  -25.4105  -36.3086   24.0353 C   0  0  1  0  0  0
  -20.5885  -28.3690   23.1294 C   0  0  2  0  0  0
  -20.6770  -26.9415   22.5425 C   0  0  0  0  0  0
  -19.5753  -26.6398   21.5206 C   0  0  0  0  0  0
  -18.1933  -26.7935   22.1620 C   0  0  0  0  0  0
  -19.1540  -28.8860   23.2880 C   0  0  0  0  0  0
  -18.9466  -30.1460   23.8906 C   0  0  0  0  0  0
  -17.6461  -30.6577   24.0571 C   0  0  0  0  0  0
  -25.9043  -34.9450   23.5115 C   0  0  0  0  0  0
  -16.5352  -29.9078   23.6323 C   0  0  0  0  0  0
  -16.7275  -28.6499   23.0335 C   0  0  0  0  0  0
  -26.4480  -31.6572   25.0718 C   0  0  0  0  0  0
  -25.3705  -31.3719   26.1445 C   0  0  0  0  0  0
  -27.0302  -30.2992   24.6177 C   0  0  0  0  0  0
  -27.6078  -32.4283   25.7459 C   0  0  0  0  0  0
  -27.5579  -37.1804   24.8464 C   0  0  0  0  0  0
  -21.4197  -29.3029   22.3670 N   0  0  0  0  0  0
  -26.4286  -37.3777   23.9423 N   0  0  0  0  0  0
  -24.6913  -31.0563   22.0952 N   0  0  0  0  0  0
  -23.4194  -28.8180   23.3065 O   0  0  0  0  0  0
  -28.3717  -26.4635   20.1403 O   0  0  0  0  0  0
  -26.5606  -34.8928   22.4683 O   0  0  0  0  0  0
  -23.5448  -32.1381   23.7308 O   0  0  0  0  0  0
  -29.1709  -19.5367   21.4042 C   0  0  0  0  0  0
  -29.1815  -18.1074   21.5364 C   0  0  0  0  0  0
  -30.6437  -19.3396   19.5315 C   0  0  0  0  0  0
  -29.9083  -20.2170   20.3940 C   0  0  0  0  0  0
  -29.9264  -17.2422   20.6788 C   0  0  0  0  0  0
  -30.6498  -17.9117   19.6519 C   0  0  0  0  0  0
  -29.2174  -24.1035   20.1589 C   0  0  0  0  0  0
  -28.9581  -22.6254   20.4052 C   0  0  0  0  0  0
  -31.6487  -23.6255   20.1949 C   0  0  0  0  0  0
  -32.7415  -24.0581   20.8469 C   0  0  0  0  0  0
  -28.2400  -25.0635   20.3474 C   0  0  0  0  0  0
  -30.5857  -24.5524   19.6737 C   0  0  0  0  0  0
  -31.3661  -22.1657   19.9069 C   0  0  0  0  0  0
  -30.0085  -21.7048   20.2730 N   0  0  0  0  0  0
  -29.8169  -15.7746   20.8413 N   0  0  0  0  0  0
  -27.8290  -22.2241   20.7084 O   0  0  0  0  0  0
  -31.3373  -17.1958   18.7309 F   0  0  0  0  0  0
  -31.4820  -12.5650   19.1588 H   0  0  0  0  0  0
  -30.3846  -11.4496   19.9283 H   0  0  0  0  0  0
  -29.7941  -11.7531   17.4986 H   0  0  0  0  0  0
  -29.6439  -13.4756   17.7328 H   0  0  0  0  0  0
  -27.8922  -11.2857   18.8939 H   0  0  0  0  0  0
  -27.3840  -12.5441   17.7956 H   0  0  0  0  0  0
  -27.6567  -14.2526   19.4935 H   0  0  0  0  0  0
  -28.7242  -12.1062   21.3953 H   0  0  0  0  0  0
  -28.4286  -13.7683   21.8233 H   0  0  0  0  0  0
  -25.2772   -9.5691   22.4737 H   0  0  0  0  0  0
  -24.0015   -7.4639   22.7451 H   0  0  0  0  0  0
  -21.0828   -8.8784   19.8959 H   0  0  0  0  0  0
  -22.3693  -10.9669   19.6143 H   0  0  0  0  0  0
  -21.2021   -7.6139   23.9711 H   0  0  0  0  0  0
  -21.1460   -6.0507   25.9069 H   0  0  0  0  0  0
  -22.0603   -2.7608   23.2846 H   0  0  0  0  0  0
  -22.4094  -11.9913   22.4830 H   0  0  0  0  0  0
  -21.1110  -13.1271   22.2582 H   0  0  0  0  0  0
  -24.6573  -15.8422   20.5334 H   0  0  0  0  0  0
  -26.2723  -15.6358   20.0889 H   0  0  0  0  0  0
  -26.7212  -32.5433   23.1105 H   0  0  0  0  0  0
  -25.0004  -33.9685   25.0383 H   0  0  0  0  0  0
  -22.7194  -31.2966   21.3954 H   0  0  0  0  0  0
  -23.3735  -35.9634   23.3356 H   0  0  0  0  0  0
  -24.3575  -36.8828   22.2046 H   0  0  0  0  0  0
  -23.7262  -37.6525   23.6613 H   0  0  0  0  0  0
  -26.0927  -31.5453   20.6006 H   0  0  0  0  0  0
  -26.8457  -30.8423   21.9985 H   0  0  0  0  0  0
  -28.1244  -28.9774   21.1953 H   0  0  0  0  0  0
  -26.0304  -25.9149   19.0021 H   0  0  0  0  0  0
  -23.9939  -27.2887   19.0067 H   0  0  0  0  0  0
  -23.7577  -30.5770   19.3986 H   0  0  0  0  0  0
  -22.7633  -29.2293   19.8656 H   0  0  0  0  0  0
  -25.1279  -36.1940   25.0843 H   0  0  0  0  0  0
  -20.9966  -28.3272   24.1420 H   0  0  0  0  0  0
  -20.5643  -26.2297   23.3622 H   0  0  0  0  0  0
  -21.6651  -26.7436   22.1250 H   0  0  0  0  0  0
  -19.6907  -25.6310   21.1236 H   0  0  0  0  0  0
  -19.6676  -27.3206   20.6731 H   0  0  0  0  0  0
  -17.4201  -26.6688   21.4024 H   0  0  0  0  0  0
  -18.0319  -26.0074   22.9014 H   0  0  0  0  0  0
  -19.7939  -30.7280   24.2283 H   0  0  0  0  0  0
  -17.5011  -31.6250   24.5185 H   0  0  0  0  0  0
  -15.5356  -30.2974   23.7643 H   0  0  0  0  0  0
  -15.8680  -28.0821   22.7039 H   0  0  0  0  0  0
  -24.5879  -30.7061   25.7778 H   0  0  0  0  0  0
  -24.8863  -32.2872   26.4855 H   0  0  0  0  0  0
  -25.8011  -30.8914   27.0235 H   0  0  0  0  0  0
  -26.2856  -29.6762   24.1205 H   0  0  0  0  0  0
  -27.3989  -29.7241   25.4679 H   0  0  0  0  0  0
  -27.8731  -30.4263   23.9382 H   0  0  0  0  0  0
  -27.2737  -33.3589   26.2051 H   0  0  0  0  0  0
  -28.3838  -32.6828   25.0233 H   0  0  0  0  0  0
  -28.0790  -31.8387   26.5328 H   0  0  0  0  0  0
  -28.2636  -38.0071   24.7500 H   0  0  0  0  0  0
  -28.1035  -36.2607   24.6282 H   0  0  0  0  0  0
  -27.2318  -37.1475   25.8878 H   0  0  0  0  0  0
  -20.9376  -29.8698   21.6832 H   0  0  0  0  0  0
  -26.0171  -38.2867   24.1383 H   0  0  0  0  0  0
  -28.5990  -20.1149   22.1182 H   0  0  0  0  0  0
  -28.5968  -17.6717   22.3340 H   0  0  0  0  0  0
  -31.2269  -19.7536   18.7231 H   0  0  0  0  0  0
  -32.9063  -25.1101   21.0314 H   0  0  0  0  0  0
  -33.4959  -23.3696   21.2025 H   0  0  0  0  0  0
  -27.2528  -24.7986   20.7008 H   0  0  0  0  0  0
  -30.7884  -25.5815   19.9759 H   0  0  0  0  0  0
  -30.5963  -24.5261   18.5826 H   0  0  0  0  0  0
  -32.1129  -21.5605   20.4258 H   0  0  0  0  0  0
  -31.5152  -22.0082   18.8377 H   0  0  0  0  0  0
  -28.9406  -15.4746   21.2375 H   0  0  0  0  0  0
  1 25  1  0  0  0
  1 30  2  0  0  0
  1 85  1  0  0  0
  2  3  1  0  0  0
  2 25  1  0  0  0
  2 88  1  0  0  0
  2 89  1  0  0  0
  3  4  1  0  0  0
  3 90  1  0  0  0
  3 91  1  0  0  0
  4  5  1  0  0  0
  4 92  1  0  0  0
  4 93  1  0  0  0
  5  6  1  0  0  0
  5 26  1  0  0  0
  5 94  1  0  0  0
  6 25  1  0  0  0
  6 95  1  0  0  0
  6 96  1  0  0  0
  7  8  2  0  0  0
  7 26  1  0  0  0
  7 29  1  0  0  0
  8  9  1  0  0  0
  8 22  1  0  0  0
  9 10  1  0  0  0
  9 27  2  0  0  0
 10 11  2  0  0  0
 10 15  1  0  0  0
 11 12  1  0  0  0
 11 97  1  0  0  0
 12 13  2  0  0  0
 12 98  1  0  0  0
 13 14  1  0  0  0
 13 31  1  0  0  0
 14 15  2  0  0  0
 14 99  1  0  0  0
 15100  1  0  0  0
 16 17  2  0  0  0
 16 21  1  0  0  0
 16 31  1  0  0  0
 17 18  1  0  0  0
 17101  1  0  0  0
 18 19  2  0  0  0
 18102  1  0  0  0
 19 20  1  0  0  0
 19 24  1  0  0  0
 20 21  2  0  0  0
 20103  1  0  0  0
 21 23  1  0  0  0
 22 28  1  0  0  0
 22 32  2  0  0  0
 26 27  1  0  0  0
 28104  1  0  0  0
 28105  1  0  0  0
 29106  1  0  0  0
 29107  1  0  0  0
 33 34  1  0  0  0
 33 66  1  0  0  0
 33 70  2  0  0  0
 34 36  1  0  0  0
 34 59  1  0  0  0
 34108  1  0  0  0
 35 44  2  0  0  0
 35 45  1  0  0  0
 35 68  1  0  0  0
 36 56  1  0  0  0
 36109  1  0  0  0
 37 39  1  0  0  0
 37 47  1  0  0  0
 37 66  1  0  0  0
 37110  1  0  0  0
 38 43  2  0  0  0
 38 46  1  0  0  0
 38 47  1  0  0  0
 39 64  1  0  0  0
 39 67  2  0  0  0
 40 52  1  0  0  0
 40 53  2  0  0  0
 40 58  1  0  0  0
 41111  1  0  0  0
 41112  1  0  0  0
 41113  1  0  0  0
 41 48  1  0  0  0
 42 43  1  0  0  0
 42 66  1  0  0  0
 42114  1  0  0  0
 42115  1  0  0  0
 43 44  1  0  0  0
 44116  1  0  0  0
 45 46  2  0  0  0
 45117  1  0  0  0
 46118  1  0  0  0
 47119  1  0  0  0
 47120  1  0  0  0
 48 56  1  0  0  0
 48 65  1  0  0  0
 48121  1  0  0  0
 49 50  1  0  0  0
 49 53  1  0  0  0
 49 64  1  0  0  0
 49122  1  0  0  0
 50 51  1  0  0  0
 50123  1  0  0  0
 50124  1  0  0  0
 51 52  1  0  0  0
 51125  1  0  0  0
 51126  1  0  0  0
 52127  1  0  0  0
 52128  1  0  0  0
 53 54  1  0  0  0
 54 55  2  0  0  0
 54129  1  0  0  0
 55 57  1  0  0  0
 55130  1  0  0  0
 56 69  2  0  0  0
 57 58  2  0  0  0
 57131  1  0  0  0
 58132  1  0  0  0
 59 60  1  0  0  0
 59 61  1  0  0  0
 59 62  1  0  0  0
 60133  1  0  0  0
 60134  1  0  0  0
 60135  1  0  0  0
 61136  1  0  0  0
 61137  1  0  0  0
 61138  1  0  0  0
 62139  1  0  0  0
 62140  1  0  0  0
 62141  1  0  0  0
 63 65  1  0  0  0
 63142  1  0  0  0
 63143  1  0  0  0
 63144  1  0  0  0
 64145  1  0  0  0
 65146  1  0  0  0
 68 81  1  0  0  0
 71 72  2  0  0  0
 71 74  1  0  0  0
 71147  1  0  0  0
 72 75  1  0  0  0
 72148  1  0  0  0
 73 74  2  0  0  0
 73 76  1  0  0  0
 73149  1  0  0  0
 74 84  1  0  0  0
 75 76  2  0  0  0
 75 85  1  0  0  0
 76 87  1  0  0  0
 77 78  1  0  0  0
 77 81  2  0  0  0
 77 82  1  0  0  0
 78 84  1  0  0  0
 78 86  2  0  0  0
 79 80  2  0  0  0
 79 82  1  0  0  0
 79 83  1  0  0  0
 80150  1  0  0  0
 80151  1  0  0  0
 81152  1  0  0  0
 82153  1  0  0  0
 82154  1  0  0  0
 83 84  1  0  0  0
 83155  1  0  0  0
 83156  1  0  0  0
 85157  1  0  0  0
M  ISO  4   1 100  68 101  81 101  85 100
M  END
> <chiral flag>
0

> <version>
0

> <s_m_source_file>
/data/baiqing/PycharmProjects/Reinvent-master-3.2/result/LINK_invent/BTK/process_docking_weight1_custom_product_contain_oxygen_bond_distance_aromatic_linkinvent_7_9_3/rearranged_h_0081.sdf

> <i_m_source_file_index>
50

> <r_mmod_Potential_Energy-OPLS-2005>
169.046646118164

> <r_mmod_Stretch_Energy-OPLS-2005>
108.403533935547

> <r_mmod_Bend_Energy-OPLS-2005>
151.176452636719

> <r_mmod_Torsional_Energy-OPLS-2005>
259.977355957031

> <r_mmod_Improper_Torsional_Energy-OPLS-2005>
3.43099594116211

> <r_mmod_Van_der_Waal_Energy-OPLS-2005>
159.234634399414

> <r_mmod_Electrostatic_Energy-OPLS-2005>
-362.006286621094

> <r_mmod_Solvation_Energy-OPLS-2005>
-213.49853515625

> <b_mmod_Minimization_Converged-OPLS-2005>
0

> <r_mmod_RMS_Derivative-OPLS-2005>
2.51332974433899

$$$$
50
                    3D
 Structure written by MMmdl.
159168  0  0  1  0            999 V2000
  -30.6721  -14.6431   20.4552 C   0  0  0  0  0  0
  -30.4114  -12.3823   19.4875 C   0  0  0  0  0  0
  -29.5132  -12.5000   18.2382 C   0  0  0  0  0  0
  -28.0314  -12.3482   18.6319 C   0  0  0  0  0  0
  -27.6415  -13.2370   19.8437 C   0  0  2  0  0  0
  -28.6735  -13.1494   20.9827 C   0  0  0  0  0  0
  -25.2512  -13.8218   20.5681 C   0  0  0  0  0  0
  -24.1802  -13.0447   20.9188 C   0  0  0  0  0  0
  -24.6398  -11.6927   20.8720 C   0  0  0  0  0  0
  -23.9082  -10.4294   21.0399 C   0  0  0  0  0  0
  -24.3628   -9.4213   21.9185 C   0  0  0  0  0  0
  -23.6302   -8.2248   22.0760 C   0  0  0  0  0  0
  -22.4285   -8.0279   21.3547 C   0  0  0  0  0  0
  -21.9916   -9.0256   20.4648 C   0  0  0  0  0  0
  -22.7250  -10.2136   20.3051 C   0  0  0  0  0  0
  -21.6858   -6.0734   22.5275 C   0  0  0  0  0  0
  -21.4015   -6.5634   23.8210 C   0  0  0  0  0  0
  -21.3660   -5.6789   24.9172 C   0  0  0  0  0  0
  -21.6054   -4.3055   24.7229 C   0  0  0  0  0  0
  -21.8817   -3.8142   23.4348 C   0  0  0  0  0  0
  -21.9196   -4.6959   22.3401 C   0  0  0  0  0  0
  -22.7824  -13.5221   21.1866 C   0  0  0  0  0  0
  -22.1660   -4.2140   21.0982 F   0  0  0  0  0  0
  -21.5634   -3.4536   25.7744 F   0  0  0  0  0  0
  -30.0006  -13.4466   20.4311 N   0  0  0  0  0  0
  -26.2928  -12.9434   20.3210 N   0  0  0  0  0  0
  -25.9321  -11.6568   20.5691 N   0  0  0  0  0  0
  -22.0486  -12.8195   22.0420 N   0  0  0  0  0  0
  -25.4216  -15.1942   20.4146 N   0  0  0  0  0  0
  -31.8643  -14.6684   20.1552 O   0  0  0  0  0  0
  -21.6647   -6.8879   21.4238 O   0  0  0  0  0  0
  -22.3500  -14.5531   20.6729 O   0  0  0  0  0  0
  -24.6252  -31.8606   23.2056 C   0  0  0  0  0  0
  -25.9112  -32.4777   23.8359 C   0  0  1  0  0  0
  -27.2133  -27.3224   20.0901 C   0  0  0  0  0  0
  -25.5929  -33.8574   24.2281 N   0  0  0  0  0  0
  -23.4155  -30.4879   21.5500 C   0  0  2  0  0  0
  -24.8560  -28.9452   20.1078 C   0  0  0  0  0  0
  -22.7454  -29.4640   22.4944 C   0  0  0  0  0  0
  -18.0307  -28.1350   22.8518 C   0  0  0  0  0  0
  -24.1490  -36.7297   23.2636 C   0  0  0  0  0  0
  -25.9576  -30.7899   21.3740 C   0  0  0  0  0  0
  -26.0263  -29.4175   20.7142 C   0  0  0  0  0  0
  -27.2038  -28.6133   20.7037 C   0  0  0  0  0  0
  -26.0171  -26.9036   19.4692 C   0  0  0  0  0  0
  -24.8528  -27.6907   19.4806 C   0  0  0  0  0  0
  -23.6269  -29.8275   20.1627 C   0  0  0  0  0  0
  -25.4108  -36.3064   24.0322 C   0  0  1  0  0  0
  -20.5900  -28.3679   23.1289 C   0  0  2  0  0  0
  -20.6810  -26.9408   22.5382 C   0  0  0  0  0  0
  -19.5771  -26.6395   21.5194 C   0  0  0  0  0  0
  -18.1959  -26.7897   22.1642 C   0  0  0  0  0  0
  -19.1559  -28.8823   23.2906 C   0  0  0  0  0  0
  -18.9506  -30.1425   23.8920 C   0  0  0  0  0  0
  -17.6511  -30.6576   24.0572 C   0  0  0  0  0  0
  -25.9042  -34.9437   23.5088 C   0  0  0  0  0  0
  -16.5392  -29.9093   23.6347 C   0  0  0  0  0  0
  -16.7294  -28.6503   23.0373 C   0  0  0  0  0  0
  -26.4494  -31.6580   25.0724 C   0  0  0  0  0  0
  -25.3743  -31.3731   26.1474 C   0  0  0  0  0  0
  -27.0344  -30.3015   24.6146 C   0  0  0  0  0  0
  -27.6035  -32.4329   25.7506 C   0  0  0  0  0  0
  -27.5562  -37.1811   24.8456 C   0  0  0  0  0  0
  -21.4165  -29.3083   22.3709 N   0  0  0  0  0  0
  -26.4278  -37.3762   23.9396 N   0  0  0  0  0  0
  -24.6857  -31.0619   22.1013 N   0  0  0  0  0  0
  -23.4199  -28.8132   23.2966 O   0  0  0  0  0  0
  -28.3379  -26.4867   20.1460 O   0  0  0  0  0  0
  -26.5606  -34.8899   22.4651 O   0  0  0  0  0  0
  -23.5427  -32.1395   23.7412 O   0  0  0  0  0  0
  -31.1705  -19.9688   23.1080 C   0  0  0  0  0  0
  -31.0533  -18.6117   22.7866 C   0  0  0  0  0  0
  -30.4069  -20.9238   22.4348 C   0  0  0  0  0  0
  -29.3903  -19.1431   21.1031 C   0  0  0  0  0  0
  -30.1348  -18.1235   21.8229 C   0  0  0  0  0  0
  -29.5283  -20.5695   21.3846 C   0  0  0  0  0  0
  -27.1803  -23.0168   19.8948 C   0  0  0  0  0  0
  -28.2508  -23.8236   19.9877 C   0  0  0  0  0  0
  -27.5087  -21.6926   20.4117 C   0  0  0  0  0  0
  -29.3248  -22.9543   20.4861 C   0  0  0  0  0  0
  -30.1168  -16.5723   21.6916 C   0  0  0  0  0  0
  -25.8346  -23.3162   19.2505 C   0  0  0  0  0  0
  -30.3525  -15.8494   23.0308 C   0  0  0  0  0  0
  -28.4563  -25.2483   19.3429 C   0  0  0  0  0  0
  -29.9668  -15.8713   20.6092 N   0  0  0  0  0  0
  -28.8201  -21.6955   20.7258 N   0  0  0  0  0  0
  -26.7390  -20.7336   20.5355 O   0  0  0  0  0  0
  -30.5101  -23.2840   20.6189 O   0  0  0  0  0  0
  -31.4626  -12.4456   19.2019 H   0  0  0  0  0  0
  -30.2949  -11.4013   19.9511 H   0  0  0  0  0  0
  -29.7838  -11.7378   17.5063 H   0  0  0  0  0  0
  -29.6727  -13.4651   17.7547 H   0  0  0  0  0  0
  -27.8627  -11.2983   18.8741 H   0  0  0  0  0  0
  -27.3869  -12.5706   17.7800 H   0  0  0  0  0  0
  -27.6480  -14.2657   19.4823 H   0  0  0  0  0  0
  -28.6689  -12.1573   21.4375 H   0  0  0  0  0  0
  -28.4043  -13.8484   21.7734 H   0  0  0  0  0  0
  -25.2776   -9.5688   22.4758 H   0  0  0  0  0  0
  -24.0010   -7.4641   22.7478 H   0  0  0  0  0  0
  -21.0850   -8.8776   19.8954 H   0  0  0  0  0  0
  -22.3714  -10.9671   19.6150 H   0  0  0  0  0  0
  -21.2001   -7.6140   23.9709 H   0  0  0  0  0  0
  -21.1489   -6.0521   25.9080 H   0  0  0  0  0  0
  -22.0599   -2.7598   23.2854 H   0  0  0  0  0  0
  -22.4105  -11.9858   22.4800 H   0  0  0  0  0  0
  -21.1105  -13.1211   22.2634 H   0  0  0  0  0  0
  -24.6641  -15.8564   20.5456 H   0  0  0  0  0  0
  -26.2925  -15.6335   20.1394 H   0  0  0  0  0  0
  -26.7168  -32.5437   23.1096 H   0  0  0  0  0  0
  -25.0089  -33.9704   25.0439 H   0  0  0  0  0  0
  -22.7066  -31.3066   21.4131 H   0  0  0  0  0  0
  -23.3720  -35.9662   23.3307 H   0  0  0  0  0  0
  -24.3583  -36.8920   22.2045 H   0  0  0  0  0  0
  -23.7279  -37.6517   23.6663 H   0  0  0  0  0  0
  -26.0807  -31.5505   20.6023 H   0  0  0  0  0  0
  -26.8435  -30.8413   21.9957 H   0  0  0  0  0  0
  -28.1029  -28.9707   21.1863 H   0  0  0  0  0  0
  -25.9415  -25.9502   18.9836 H   0  0  0  0  0  0
  -23.9551  -27.3192   19.0072 H   0  0  0  0  0  0
  -23.7437  -30.6087   19.4106 H   0  0  0  0  0  0
  -22.7444  -29.2593   19.8618 H   0  0  0  0  0  0
  -25.1292  -36.1905   25.0815 H   0  0  0  0  0  0
  -20.9993  -28.3231   24.1409 H   0  0  0  0  0  0
  -20.5734  -26.2278   23.3571 H   0  0  0  0  0  0
  -21.6674  -26.7449   22.1150 H   0  0  0  0  0  0
  -19.6946  -25.6331   21.1156 H   0  0  0  0  0  0
  -19.6666  -27.3246   20.6754 H   0  0  0  0  0  0
  -17.4209  -26.6639   21.4070 H   0  0  0  0  0  0
  -18.0404  -26.0024   22.9031 H   0  0  0  0  0  0
  -19.7996  -30.7216   24.2289 H   0  0  0  0  0  0
  -17.5088  -31.6275   24.5156 H   0  0  0  0  0  0
  -15.5409  -30.3016   23.7646 H   0  0  0  0  0  0
  -15.8690  -28.0832   22.7085 H   0  0  0  0  0  0
  -24.5881  -30.7109   25.7834 H   0  0  0  0  0  0
  -24.8989  -32.2919   26.4917 H   0  0  0  0  0  0
  -25.8097  -30.8902   27.0231 H   0  0  0  0  0  0
  -26.2915  -29.6766   24.1172 H   0  0  0  0  0  0
  -27.4070  -29.7253   25.4621 H   0  0  0  0  0  0
  -27.8771  -30.4322   23.9353 H   0  0  0  0  0  0
  -27.2598  -33.3598   26.2104 H   0  0  0  0  0  0
  -28.3844  -32.6944   25.0355 H   0  0  0  0  0  0
  -28.0706  -31.8455   26.5418 H   0  0  0  0  0  0
  -28.2584  -38.0094   24.7465 H   0  0  0  0  0  0
  -28.1040  -36.2620   24.6327 H   0  0  0  0  0  0
  -27.2275  -37.1527   25.8857 H   0  0  0  0  0  0
  -20.9295  -29.8897   21.7032 H   0  0  0  0  0  0
  -26.0147  -38.2838   24.1380 H   0  0  0  0  0  0
  -31.8526  -20.2788   23.8871 H   0  0  0  0  0  0
  -31.7014  -17.9418   23.3323 H   0  0  0  0  0  0
  -30.5264  -21.9507   22.7467 H   0  0  0  0  0  0
  -28.7024  -18.8173   20.3355 H   0  0  0  0  0  0
  -25.9553  -23.8895   18.3323 H   0  0  0  0  0  0
  -25.1913  -23.8650   19.9403 H   0  0  0  0  0  0
  -25.3224  -22.3936   18.9737 H   0  0  0  0  0  0
  -29.7649  -14.9371   23.1036 H   0  0  0  0  0  0
  -30.0435  -16.4607   23.8785 H   0  0  0  0  0  0
  -31.4052  -15.5869   23.1531 H   0  0  0  0  0  0
  -27.8787  -25.3126   18.4225 H   0  0  0  0  0  0
  -29.4812  -25.2537   18.9692 H   0  0  0  0  0  0
  1 25  1  0  0  0
  1 30  2  0  0  0
  1 85  1  0  0  0
  2  3  1  0  0  0
  2 25  1  0  0  0
  2 89  1  0  0  0
  2 90  1  0  0  0
  3  4  1  0  0  0
  3 91  1  0  0  0
  3 92  1  0  0  0
  4  5  1  0  0  0
  4 93  1  0  0  0
  4 94  1  0  0  0
  5  6  1  0  0  0
  5 26  1  0  0  0
  5 95  1  0  0  0
  6 25  1  0  0  0
  6 96  1  0  0  0
  6 97  1  0  0  0
  7  8  2  0  0  0
  7 26  1  0  0  0
  7 29  1  0  0  0
  8  9  1  0  0  0
  8 22  1  0  0  0
  9 10  1  0  0  0
  9 27  2  0  0  0
 10 11  2  0  0  0
 10 15  1  0  0  0
 11 12  1  0  0  0
 11 98  1  0  0  0
 12 13  2  0  0  0
 12 99  1  0  0  0
 13 14  1  0  0  0
 13 31  1  0  0  0
 14 15  2  0  0  0
 14100  1  0  0  0
 15101  1  0  0  0
 16 17  2  0  0  0
 16 21  1  0  0  0
 16 31  1  0  0  0
 17 18  1  0  0  0
 17102  1  0  0  0
 18 19  2  0  0  0
 18103  1  0  0  0
 19 20  1  0  0  0
 19 24  1  0  0  0
 20 21  2  0  0  0
 20104  1  0  0  0
 21 23  1  0  0  0
 22 28  1  0  0  0
 22 32  2  0  0  0
 26 27  1  0  0  0
 28105  1  0  0  0
 28106  1  0  0  0
 29107  1  0  0  0
 29108  1  0  0  0
 33 34  1  0  0  0
 33 66  1  0  0  0
 33 70  2  0  0  0
 34 36  1  0  0  0
 34 59  1  0  0  0
 34109  1  0  0  0
 35 44  2  0  0  0
 35 45  1  0  0  0
 35 68  1  0  0  0
 36 56  1  0  0  0
 36110  1  0  0  0
 37 39  1  0  0  0
 37 47  1  0  0  0
 37 66  1  0  0  0
 37111  1  0  0  0
 38 43  2  0  0  0
 38 46  1  0  0  0
 38 47  1  0  0  0
 39 64  1  0  0  0
 39 67  2  0  0  0
 40 52  1  0  0  0
 40 53  2  0  0  0
 40 58  1  0  0  0
 41112  1  0  0  0
 41113  1  0  0  0
 41114  1  0  0  0
 41 48  1  0  0  0
 42 43  1  0  0  0
 42 66  1  0  0  0
 42115  1  0  0  0
 42116  1  0  0  0
 43 44  1  0  0  0
 44117  1  0  0  0
 45 46  2  0  0  0
 45118  1  0  0  0
 46119  1  0  0  0
 47120  1  0  0  0
 47121  1  0  0  0
 48 56  1  0  0  0
 48 65  1  0  0  0
 48122  1  0  0  0
 49 50  1  0  0  0
 49 53  1  0  0  0
 49 64  1  0  0  0
 49123  1  0  0  0
 50 51  1  0  0  0
 50124  1  0  0  0
 50125  1  0  0  0
 51 52  1  0  0  0
 51126  1  0  0  0
 51127  1  0  0  0
 52128  1  0  0  0
 52129  1  0  0  0
 53 54  1  0  0  0
 54 55  2  0  0  0
 54130  1  0  0  0
 55 57  1  0  0  0
 55131  1  0  0  0
 56 69  2  0  0  0
 57 58  2  0  0  0
 57132  1  0  0  0
 58133  1  0  0  0
 59 60  1  0  0  0
 59 61  1  0  0  0
 59 62  1  0  0  0
 60134  1  0  0  0
 60135  1  0  0  0
 60136  1  0  0  0
 61137  1  0  0  0
 61138  1  0  0  0
 61139  1  0  0  0
 62140  1  0  0  0
 62141  1  0  0  0
 62142  1  0  0  0
 63 65  1  0  0  0
 63143  1  0  0  0
 63144  1  0  0  0
 63145  1  0  0  0
 64146  1  0  0  0
 65147  1  0  0  0
 68 84  1  0  0  0
 71 72  2  0  0  0
 71 73  1  0  0  0
 71148  1  0  0  0
 72 75  1  0  0  0
 72149  1  0  0  0
 73 76  2  0  0  0
 73150  1  0  0  0
 74 75  2  0  0  0
 74 76  1  0  0  0
 74151  1  0  0  0
 75 81  1  0  0  0
 76 86  1  0  0  0
 77 78  2  0  0  0
 77 79  1  0  0  0
 77 82  1  0  0  0
 78 80  1  0  0  0
 78 84  1  0  0  0
 79 86  1  0  0  0
 79 87  2  0  0  0
 80 86  1  0  0  0
 80 88  2  0  0  0
 81 83  1  0  0  0
 81 85  2  0  0  0
 82152  1  0  0  0
 82153  1  0  0  0
 82154  1  0  0  0
 83155  1  0  0  0
 83156  1  0  0  0
 83157  1  0  0  0
 84158  1  0  0  0
 84159  1  0  0  0
M  ISO  4   1 100  68 101  84 101  85 100
M  END
> <chiral flag>
0

> <version>
0

> <s_m_source_file>
/data/baiqing/PycharmProjects/Reinvent-master-3.2/result/LINK_invent/BTK/process_docking_weight1_custom_product_contain_oxygen_bond_distance_aromatic_linkinvent_7_9_3/rearranged_h_0081.sdf

> <i_m_source_file_index>
51

> <r_mmod_Potential_Energy-OPLS-2005>
237.213684082031

> <r_mmod_Stretch_Energy-OPLS-2005>
99.2941360473633

> <r_mmod_Bend_Energy-OPLS-2005>
209.916595458984

> <r_mmod_Torsional_Energy-OPLS-2005>
249.616912841797

> <r_mmod_Improper_Torsional_Energy-OPLS-2005>
6.19738388061523

> <r_mmod_Van_der_Waal_Energy-OPLS-2005>
160.124282836914

> <r_mmod_Electrostatic_Energy-OPLS-2005>
-332.667205810547

> <r_mmod_Solvation_Energy-OPLS-2005>
-207.889953613281

> <b_mmod_Minimization_Converged-OPLS-2005>
0

> <r_mmod_RMS_Derivative-OPLS-2005>
2.50848245620728

$$$$
51
                    3D
 Structure written by MMmdl.
156165  0  0  1  0            999 V2000
  -30.6469  -14.5448   20.6170 C   0  0  0  0  0  0
  -30.4511  -12.3714   19.4204 C   0  0  0  0  0  0
  -29.5057  -12.5300   18.2084 C   0  0  0  0  0  0
  -28.0285  -12.3640   18.6224 C   0  0  0  0  0  0
  -27.6656  -13.2015   19.8761 C   0  0  2  0  0  0
  -28.7083  -12.9738   20.9944 C   0  0  0  0  0  0
  -25.2610  -13.8136   20.5674 C   0  0  0  0  0  0
  -24.1850  -13.0429   20.9177 C   0  0  0  0  0  0
  -24.6387  -11.6891   20.8709 C   0  0  0  0  0  0
  -23.9037  -10.4288   21.0387 C   0  0  0  0  0  0
  -24.3594   -9.4211   21.9170 C   0  0  0  0  0  0
  -23.6279   -8.2241   22.0748 C   0  0  0  0  0  0
  -22.4259   -8.0268   21.3540 C   0  0  0  0  0  0
  -21.9882   -9.0242   20.4646 C   0  0  0  0  0  0
  -22.7201  -10.2127   20.3046 C   0  0  0  0  0  0
  -21.6855   -6.0723   22.5276 C   0  0  0  0  0  0
  -21.4012   -6.5629   23.8210 C   0  0  0  0  0  0
  -21.3665   -5.6780   24.9173 C   0  0  0  0  0  0
  -21.6045   -4.3043   24.7225 C   0  0  0  0  0  0
  -21.8818   -3.8135   23.4345 C   0  0  0  0  0  0
  -21.9198   -4.6951   22.3403 C   0  0  0  0  0  0
  -22.7877  -13.5249   21.1845 C   0  0  0  0  0  0
  -22.1665   -4.2137   21.0981 F   0  0  0  0  0  0
  -21.5635   -3.4532   25.7741 F   0  0  0  0  0  0
  -30.0382  -13.3299   20.4615 N   0  0  0  0  0  0
  -26.3036  -12.9292   20.3329 N   0  0  0  0  0  0
  -25.9313  -11.6463   20.5718 N   0  0  0  0  0  0
  -22.0501  -12.8259   22.0403 N   0  0  0  0  0  0
  -25.4349  -15.1855   20.4119 N   0  0  0  0  0  0
  -31.7118  -14.8469   20.0654 O   0  0  0  0  0  0
  -21.6629   -6.8858   21.4236 O   0  0  0  0  0  0
  -22.3577  -14.5562   20.6691 O   0  0  0  0  0  0
  -24.6241  -31.8647   23.2089 C   0  0  0  0  0  0
  -25.9101  -32.4805   23.8397 C   0  0  1  0  0  0
  -27.2194  -27.3494   20.1022 C   0  0  0  0  0  0
  -25.5933  -33.8608   24.2317 N   0  0  0  0  0  0
  -23.4150  -30.4934   21.5518 C   0  0  2  0  0  0
  -24.8586  -28.9621   20.1109 C   0  0  0  0  0  0
  -22.7465  -29.4652   22.4954 C   0  0  0  0  0  0
  -18.0288  -28.1383   22.8491 C   0  0  0  0  0  0
  -24.1487  -36.7301   23.2637 C   0  0  0  0  0  0
  -25.9567  -30.8024   21.3797 C   0  0  0  0  0  0
  -26.0284  -29.4346   20.7188 C   0  0  0  0  0  0
  -27.2095  -28.6375   20.7135 C   0  0  0  0  0  0
  -26.0252  -26.9412   19.4526 C   0  0  0  0  0  0
  -24.8571  -27.7169   19.4733 C   0  0  0  0  0  0
  -23.6273  -29.8393   20.1635 C   0  0  0  0  0  0
  -25.4107  -36.3102   24.0337 C   0  0  1  0  0  0
  -20.5888  -28.3686   23.1287 C   0  0  2  0  0  0
  -20.6778  -26.9412   22.5415 C   0  0  0  0  0  0
  -19.5751  -26.6388   21.5219 C   0  0  0  0  0  0
  -18.1929  -26.7929   22.1631 C   0  0  0  0  0  0
  -19.1541  -28.8852   23.2887 C   0  0  0  0  0  0
  -18.9463  -30.1455   23.8905 C   0  0  0  0  0  0
  -17.6467  -30.6588   24.0567 C   0  0  0  0  0  0
  -25.9048  -34.9470   23.5121 C   0  0  0  0  0  0
  -16.5358  -29.9093   23.6328 C   0  0  0  0  0  0
  -16.7275  -28.6507   23.0350 C   0  0  0  0  0  0
  -26.4497  -31.6604   25.0755 C   0  0  0  0  0  0
  -25.3737  -31.3745   26.1489 C   0  0  0  0  0  0
  -27.0325  -30.3026   24.6190 C   0  0  0  0  0  0
  -27.6065  -32.4338   25.7508 C   0  0  0  0  0  0
  -27.5584  -37.1795   24.8460 C   0  0  0  0  0  0
  -21.4184  -29.3046   22.3684 N   0  0  0  0  0  0
  -26.4287  -37.3794   23.9419 N   0  0  0  0  0  0
  -24.6840  -31.0688   22.1034 N   0  0  0  0  0  0
  -23.4200  -28.8176   23.3013 O   0  0  0  0  0  0
  -28.3337  -26.4969   20.1685 O   0  0  0  0  0  0
  -26.5612  -34.8928   22.4687 O   0  0  0  0  0  0
  -23.5408  -32.1440   23.7426 O   0  0  0  0  0  0
  -30.5272  -18.7068   18.2918 C   0  0  0  0  0  0
  -30.3805  -17.6635   19.2270 C   0  0  0  0  0  0
  -30.3660  -20.0533   18.6728 C   0  0  0  0  0  0
  -29.9764  -19.3317   20.9569 C   0  0  0  0  0  0
  -30.1160  -17.9437   20.5861 C   0  0  0  0  0  0
  -30.0580  -20.4036   20.0094 C   0  0  0  0  0  0
  -29.8730  -23.8641   21.2661 C   0  0  0  0  0  0
  -29.0257  -23.9508   20.2380 C   0  0  0  0  0  0
  -30.3778  -22.5020   21.3418 C   0  0  0  0  0  0
  -28.9789  -22.6240   19.6317 C   0  0  0  0  0  0
  -29.8350  -16.8393   21.5757 C   0  0  0  0  0  0
  -28.0910  -25.0991   19.7817 C   0  0  0  0  0  0
  -29.7999  -21.8050   20.3392 N   0  0  0  0  0  0
  -29.9358  -15.4762   21.4706 N   0  0  0  0  0  0
  -29.2857  -17.2355   22.7327 N   0  3  0  0  0  0
  -31.1764  -22.0479   22.1674 O   0  0  0  0  0  0
  -28.2970  -22.2812   18.6601 O   0  0  0  0  0  0
  -31.4882  -12.5250   19.1150 H   0  0  0  0  0  0
  -30.4030  -11.3536   19.8119 H   0  0  0  0  0  0
  -29.7599  -11.8005   17.4381 H   0  0  0  0  0  0
  -29.6477  -13.5127   17.7558 H   0  0  0  0  0  0
  -27.8572  -11.3057   18.8234 H   0  0  0  0  0  0
  -27.3728  -12.6243   17.7905 H   0  0  0  0  0  0
  -27.7095  -14.2499   19.5816 H   0  0  0  0  0  0
  -28.7081  -11.9231   21.2920 H   0  0  0  0  0  0
  -28.4375  -13.5197   21.8982 H   0  0  0  0  0  0
  -25.2739   -9.5701   22.4737 H   0  0  0  0  0  0
  -24.0003   -7.4631   22.7459 H   0  0  0  0  0  0
  -21.0816   -8.8747   19.8954 H   0  0  0  0  0  0
  -22.3647  -10.9656   19.6155 H   0  0  0  0  0  0
  -21.1991   -7.6131   23.9707 H   0  0  0  0  0  0
  -21.1495   -6.0509   25.9074 H   0  0  0  0  0  0
  -22.0595   -2.7597   23.2845 H   0  0  0  0  0  0
  -22.4113  -11.9924   22.4801 H   0  0  0  0  0  0
  -21.1119  -13.1293   22.2592 H   0  0  0  0  0  0
  -24.6630  -15.8353   20.5148 H   0  0  0  0  0  0
  -26.2735  -15.6217   20.0510 H   0  0  0  0  0  0
  -26.7172  -32.5475   23.1149 H   0  0  0  0  0  0
  -25.0079  -33.9768   25.0458 H   0  0  0  0  0  0
  -22.7071  -31.3140   21.4163 H   0  0  0  0  0  0
  -23.3755  -35.9628   23.3302 H   0  0  0  0  0  0
  -24.3582  -36.8915   22.2053 H   0  0  0  0  0  0
  -23.7235  -37.6505   23.6646 H   0  0  0  0  0  0
  -26.0887  -31.5682   20.6141 H   0  0  0  0  0  0
  -26.8380  -30.8468   22.0077 H   0  0  0  0  0  0
  -28.1027  -28.9928   21.2075 H   0  0  0  0  0  0
  -25.9425  -26.0056   18.9208 H   0  0  0  0  0  0
  -23.9627  -27.3495   18.9887 H   0  0  0  0  0  0
  -23.7474  -30.6220   19.4137 H   0  0  0  0  0  0
  -22.7463  -29.2725   19.8565 H   0  0  0  0  0  0
  -25.1276  -36.1967   25.0830 H   0  0  0  0  0  0
  -20.9987  -28.3270   24.1407 H   0  0  0  0  0  0
  -20.5688  -26.2299   23.3615 H   0  0  0  0  0  0
  -21.6644  -26.7450   22.1202 H   0  0  0  0  0  0
  -19.6909  -25.6302   21.1240 H   0  0  0  0  0  0
  -19.6683  -27.3207   20.6753 H   0  0  0  0  0  0
  -17.4200  -26.6687   21.4030 H   0  0  0  0  0  0
  -18.0323  -26.0071   22.9028 H   0  0  0  0  0  0
  -19.7941  -30.7267   24.2277 H   0  0  0  0  0  0
  -17.5022  -31.6266   24.5177 H   0  0  0  0  0  0
  -15.5356  -30.2997   23.7645 H   0  0  0  0  0  0
  -15.8677  -28.0830   22.7057 H   0  0  0  0  0  0
  -24.5901  -30.7106   25.7827 H   0  0  0  0  0  0
  -24.8943  -32.2915   26.4922 H   0  0  0  0  0  0
  -25.8072  -30.8921   27.0258 H   0  0  0  0  0  0
  -26.2888  -29.6792   24.1213 H   0  0  0  0  0  0
  -27.4024  -29.7273   25.4687 H   0  0  0  0  0  0
  -27.8763  -30.4314   23.9408 H   0  0  0  0  0  0
  -27.2674  -33.3624   26.2109 H   0  0  0  0  0  0
  -28.3847  -32.6926   25.0317 H   0  0  0  0  0  0
  -28.0763  -31.8456   26.5400 H   0  0  0  0  0  0
  -28.2588  -38.0106   24.7538 H   0  0  0  0  0  0
  -28.1093  -36.2642   24.6234 H   0  0  0  0  0  0
  -27.2311  -37.1393   25.8865 H   0  0  0  0  0  0
  -20.9353  -29.8778   21.6907 H   0  0  0  0  0  0
  -26.0173  -38.2866   24.1451 H   0  0  0  0  0  0
  -30.7345  -18.4717   17.2570 H   0  0  0  0  0  0
  -30.4534  -16.6515   18.8633 H   0  0  0  0  0  0
  -30.4567  -20.8164   17.9151 H   0  0  0  0  0  0
  -29.7475  -19.5977   21.9781 H   0  0  0  0  0  0
  -30.0966  -24.6526   21.9668 H   0  0  0  0  0  0
  -27.1317  -24.7732   20.1860 H   0  0  0  0  0  0
  -28.0204  -25.0577   18.6938 H   0  0  0  0  0  0
  -29.2116  -15.0631   22.0257 H   0  0  0  0  0  0
  -29.0566  -18.2099   22.8466 H   0  0  0  0  0  0
  -29.2177  -16.6471   23.5488 H   0  0  0  0  0  0
  1 25  1  0  0  0
  1 30  2  0  0  0
  1 84  1  0  0  0
  2  3  1  0  0  0
  2 25  1  0  0  0
  2 88  1  0  0  0
  2 89  1  0  0  0
  3  4  1  0  0  0
  3 90  1  0  0  0
  3 91  1  0  0  0
  4  5  1  0  0  0
  4 92  1  0  0  0
  4 93  1  0  0  0
  5  6  1  0  0  0
  5 26  1  0  0  0
  5 94  1  0  0  0
  6 25  1  0  0  0
  6 95  1  0  0  0
  6 96  1  0  0  0
  7  8  2  0  0  0
  7 26  1  0  0  0
  7 29  1  0  0  0
  8  9  1  0  0  0
  8 22  1  0  0  0
  9 10  1  0  0  0
  9 27  2  0  0  0
 10 11  2  0  0  0
 10 15  1  0  0  0
 11 12  1  0  0  0
 11 97  1  0  0  0
 12 13  2  0  0  0
 12 98  1  0  0  0
 13 14  1  0  0  0
 13 31  1  0  0  0
 14 15  2  0  0  0
 14 99  1  0  0  0
 15100  1  0  0  0
 16 17  2  0  0  0
 16 21  1  0  0  0
 16 31  1  0  0  0
 17 18  1  0  0  0
 17101  1  0  0  0
 18 19  2  0  0  0
 18102  1  0  0  0
 19 20  1  0  0  0
 19 24  1  0  0  0
 20 21  2  0  0  0
 20103  1  0  0  0
 21 23  1  0  0  0
 22 28  1  0  0  0
 22 32  2  0  0  0
 26 27  1  0  0  0
 28104  1  0  0  0
 28105  1  0  0  0
 29106  1  0  0  0
 29107  1  0  0  0
 33 34  1  0  0  0
 33 66  1  0  0  0
 33 70  2  0  0  0
 34 36  1  0  0  0
 34 59  1  0  0  0
 34108  1  0  0  0
 35 44  2  0  0  0
 35 45  1  0  0  0
 35 68  1  0  0  0
 36 56  1  0  0  0
 36109  1  0  0  0
 37 39  1  0  0  0
 37 47  1  0  0  0
 37 66  1  0  0  0
 37110  1  0  0  0
 38 43  2  0  0  0
 38 46  1  0  0  0
 38 47  1  0  0  0
 39 64  1  0  0  0
 39 67  2  0  0  0
 40 52  1  0  0  0
 40 53  2  0  0  0
 40 58  1  0  0  0
 41111  1  0  0  0
 41112  1  0  0  0
 41113  1  0  0  0
 41 48  1  0  0  0
 42 43  1  0  0  0
 42 66  1  0  0  0
 42114  1  0  0  0
 42115  1  0  0  0
 43 44  1  0  0  0
 44116  1  0  0  0
 45 46  2  0  0  0
 45117  1  0  0  0
 46118  1  0  0  0
 47119  1  0  0  0
 47120  1  0  0  0
 48 56  1  0  0  0
 48 65  1  0  0  0
 48121  1  0  0  0
 49 50  1  0  0  0
 49 53  1  0  0  0
 49 64  1  0  0  0
 49122  1  0  0  0
 50 51  1  0  0  0
 50123  1  0  0  0
 50124  1  0  0  0
 51 52  1  0  0  0
 51125  1  0  0  0
 51126  1  0  0  0
 52127  1  0  0  0
 52128  1  0  0  0
 53 54  1  0  0  0
 54 55  2  0  0  0
 54129  1  0  0  0
 55 57  1  0  0  0
 55130  1  0  0  0
 56 69  2  0  0  0
 57 58  2  0  0  0
 57131  1  0  0  0
 58132  1  0  0  0
 59 60  1  0  0  0
 59 61  1  0  0  0
 59 62  1  0  0  0
 60133  1  0  0  0
 60134  1  0  0  0
 60135  1  0  0  0
 61136  1  0  0  0
 61137  1  0  0  0
 61138  1  0  0  0
 62139  1  0  0  0
 62140  1  0  0  0
 62141  1  0  0  0
 63 65  1  0  0  0
 63142  1  0  0  0
 63143  1  0  0  0
 63144  1  0  0  0
 64145  1  0  0  0
 65146  1  0  0  0
 68 82  1  0  0  0
 71 72  2  0  0  0
 71 73  1  0  0  0
 71147  1  0  0  0
 72 75  1  0  0  0
 72148  1  0  0  0
 73 76  2  0  0  0
 73149  1  0  0  0
 74 75  2  0  0  0
 74 76  1  0  0  0
 74150  1  0  0  0
 75 81  1  0  0  0
 76 83  1  0  0  0
 77 78  2  0  0  0
 77 79  1  0  0  0
 77151  1  0  0  0
 78 80  1  0  0  0
 78 82  1  0  0  0
 79 83  1  0  0  0
 79 86  2  0  0  0
 80 83  1  0  0  0
 80 87  2  0  0  0
 81 84  1  0  0  0
 81 85  2  0  0  0
 82152  1  0  0  0
 82153  1  0  0  0
 84154  1  0  0  0
 85155  1  0  0  0
 85156  1  0  0  0
M  CHG  1  85   1
M  ISO  4   1 100  68 101  82 101  84 100
M  END
> <chiral flag>
0

> <version>
0

> <s_m_source_file>
/data/baiqing/PycharmProjects/Reinvent-master-3.2/result/LINK_invent/BTK/process_docking_weight1_custom_product_contain_oxygen_bond_distance_aromatic_linkinvent_7_9_3/rearranged_h_0081.sdf

> <i_m_source_file_index>
52

> <r_mmod_Potential_Energy-OPLS-2005>
-232.005905151367

> <r_mmod_Stretch_Energy-OPLS-2005>
65.7656707763672

> <r_mmod_Bend_Energy-OPLS-2005>
204.72087097168

> <r_mmod_Torsional_Energy-OPLS-2005>
249.040679931641

> <r_mmod_Improper_Torsional_Energy-OPLS-2005>
4.90630197525024

> <r_mmod_Van_der_Waal_Energy-OPLS-2005>
158.781311035156

> <r_mmod_Electrostatic_Energy-OPLS-2005>
-487.102722167969

> <r_mmod_Solvation_Energy-OPLS-2005>
-462.037780761719

> <b_mmod_Minimization_Converged-OPLS-2005>
0

> <r_mmod_RMS_Derivative-OPLS-2005>
1.52063524723053

$$$$
52
                    3D
 Structure written by MMmdl.
148157  0  0  1  0            999 V2000
  -30.5518  -14.8170   20.4861 C   0  0  0  0  0  0
  -30.4578  -12.5122   19.4756 C   0  0  0  0  0  0
  -29.5218  -12.5445   18.2410 C   0  0  0  0  0  0
  -28.0436  -12.3530   18.6431 C   0  0  0  0  0  0
  -27.6499  -13.2209   19.8672 C   0  0  2  0  0  0
  -28.6987  -13.0701   20.9871 C   0  0  0  0  0  0
  -25.2548  -13.8159   20.5709 C   0  0  0  0  0  0
  -24.1809  -13.0419   20.9166 C   0  0  0  0  0  0
  -24.6392  -11.6893   20.8724 C   0  0  0  0  0  0
  -23.9065  -10.4280   21.0400 C   0  0  0  0  0  0
  -24.3618   -9.4199   21.9182 C   0  0  0  0  0  0
  -23.6293   -8.2236   22.0753 C   0  0  0  0  0  0
  -22.4274   -8.0277   21.3545 C   0  0  0  0  0  0
  -21.9909   -9.0247   20.4645 C   0  0  0  0  0  0
  -22.7238  -10.2124   20.3051 C   0  0  0  0  0  0
  -21.6852   -6.0738   22.5282 C   0  0  0  0  0  0
  -21.4011   -6.5643   23.8214 C   0  0  0  0  0  0
  -21.3658   -5.6794   24.9176 C   0  0  0  0  0  0
  -21.6044   -4.3057   24.7227 C   0  0  0  0  0  0
  -21.8820   -3.8149   23.4349 C   0  0  0  0  0  0
  -21.9192   -4.6965   22.3405 C   0  0  0  0  0  0
  -22.7835  -13.5215   21.1846 C   0  0  0  0  0  0
  -22.1661   -4.2152   21.0983 F   0  0  0  0  0  0
  -21.5628   -3.4539   25.7740 F   0  0  0  0  0  0
  -29.9855  -13.5417   20.4415 N   0  0  0  0  0  0
  -26.2980  -12.9341   20.3350 N   0  0  0  0  0  0
  -25.9323  -11.6488   20.5744 N   0  0  0  0  0  0
  -22.0488  -12.8205   22.0409 N   0  0  0  0  0  0
  -25.4283  -15.1883   20.4202 N   0  0  0  0  0  0
  -31.7118  -14.9530   20.0787 O   0  0  0  0  0  0
  -21.6636   -6.8877   21.4243 O   0  0  0  0  0  0
  -22.3515  -14.5526   20.6708 O   0  0  0  0  0  0
  -24.6349  -31.8523   23.1958 C   0  0  0  0  0  0
  -25.9163  -32.4740   23.8317 C   0  0  1  0  0  0
  -27.2276  -27.2358   20.1353 C   0  0  0  0  0  0
  -25.5947  -33.8543   24.2238 N   0  0  0  0  0  0
  -23.4347  -30.4726   21.5398 C   0  0  2  0  0  0
  -24.8866  -28.9143   20.1119 C   0  0  0  0  0  0
  -22.7525  -29.4583   22.4901 C   0  0  0  0  0  0
  -18.0295  -28.1389   22.8483 C   0  0  0  0  0  0
  -24.1489  -36.7272   23.2637 C   0  0  0  0  0  0
  -25.9835  -30.7559   21.3820 C   0  0  0  0  0  0
  -26.0596  -29.3750   20.7256 C   0  0  0  0  0  0
  -27.2348  -28.5484   20.7274 C   0  0  0  0  0  0
  -26.0339  -26.8523   19.4874 C   0  0  0  0  0  0
  -24.8796  -27.6609   19.4809 C   0  0  0  0  0  0
  -23.6569  -29.8038   20.1579 C   0  0  0  0  0  0
  -25.4118  -36.3059   24.0319 C   0  0  1  0  0  0
  -20.5902  -28.3704   23.1257 C   0  0  2  0  0  0
  -20.6781  -26.9417   22.5404 C   0  0  0  0  0  0
  -19.5755  -26.6380   21.5210 C   0  0  0  0  0  0
  -18.1935  -26.7930   22.1624 C   0  0  0  0  0  0
  -19.1550  -28.8865   23.2862 C   0  0  0  0  0  0
  -18.9470  -30.1465   23.8883 C   0  0  0  0  0  0
  -17.6468  -30.6590   24.0558 C   0  0  0  0  0  0
  -25.9063  -34.9432   23.5082 C   0  0  0  0  0  0
  -16.5359  -29.9085   23.6335 C   0  0  0  0  0  0
  -16.7282  -28.6502   23.0358 C   0  0  0  0  0  0
  -26.4516  -31.6578   25.0721 C   0  0  0  0  0  0
  -25.3727  -31.3745   26.1433 C   0  0  0  0  0  0
  -27.0367  -30.2986   24.6234 C   0  0  0  0  0  0
  -27.6057  -32.4330   25.7506 C   0  0  0  0  0  0
  -27.5577  -37.1793   24.8465 C   0  0  0  0  0  0
  -21.4228  -29.3045   22.3643 N   0  0  0  0  0  0
  -26.4289  -37.3763   23.9408 N   0  0  0  0  0  0
  -24.7036  -31.0456   22.0954 N   0  0  0  0  0  0
  -23.4206  -28.8125   23.3018 O   0  0  0  0  0  0
  -28.2827  -26.2829   20.1652 O   0  0  0  0  0  0
  -26.5637  -34.8915   22.4653 O   0  0  0  0  0  0
  -23.5490  -32.1360   23.7231 O   0  0  0  0  0  0
  -30.5423  -19.6478   19.4295 C   0  0  0  0  0  0
  -30.6844  -18.2008   19.5795 C   0  0  0  0  0  0
  -29.8924  -17.5828   20.5278 C   0  0  0  0  0  0
  -29.6090  -20.2704   20.2442 C   0  0  0  0  0  0
  -28.5096  -23.6793   20.5002 C   0  0  0  0  0  0
  -29.5763  -23.0057   19.7483 C   0  0  0  0  0  0
  -27.9816  -24.9699   20.6632 C   0  0  0  0  0  0
  -29.6838  -16.1153   20.9827 C   0  0  0  0  0  0
  -28.1267  -22.2946   21.1040 C   0  0  0  0  0  0
  -28.7541  -15.9498   21.8281 N   0  0  0  0  0  0
  -29.2375  -21.7294   20.3099 N   0  0  0  0  0  0
  -30.3880  -23.4321   18.9532 O   0  0  0  0  0  0
  -31.5248  -17.5409   18.8159 F   0  0  0  0  0  0
  -28.9189  -18.9406   21.2356 S   0  0  0  0  0  0
  -31.4889  -12.6823   19.1623 H   0  0  0  0  0  0
  -30.4590  -11.5219   19.9336 H   0  0  0  0  0  0
  -29.8172  -11.7775   17.5240 H   0  0  0  0  0  0
  -29.6354  -13.5006   17.7281 H   0  0  0  0  0  0
  -27.8984  -11.2981   18.8790 H   0  0  0  0  0  0
  -27.3893  -12.5681   17.7977 H   0  0  0  0  0  0
  -27.6620  -14.2581   19.5325 H   0  0  0  0  0  0
  -28.7717  -12.0224   21.2828 H   0  0  0  0  0  0
  -28.4013  -13.5686   21.9051 H   0  0  0  0  0  0
  -25.2766   -9.5674   22.4753 H   0  0  0  0  0  0
  -24.0005   -7.4626   22.7470 H   0  0  0  0  0  0
  -21.0841   -8.8766   19.8949 H   0  0  0  0  0  0
  -22.3704  -10.9662   19.6157 H   0  0  0  0  0  0
  -21.2003   -7.6151   23.9720 H   0  0  0  0  0  0
  -21.1480   -6.0524   25.9079 H   0  0  0  0  0  0
  -22.0602   -2.7612   23.2849 H   0  0  0  0  0  0
  -22.4110  -11.9863   22.4786 H   0  0  0  0  0  0
  -21.1109  -13.1226   22.2633 H   0  0  0  0  0  0
  -24.6818  -15.8561   20.5787 H   0  0  0  0  0  0
  -26.3255  -15.6251   20.2468 H   0  0  0  0  0  0
  -26.7230  -32.5385   23.1058 H   0  0  0  0  0  0
  -25.0098  -33.9672   25.0387 H   0  0  0  0  0  0
  -22.7326  -31.2956   21.3896 H   0  0  0  0  0  0
  -23.3752  -35.9604   23.3306 H   0  0  0  0  0  0
  -24.3570  -36.8892   22.2050 H   0  0  0  0  0  0
  -23.7244  -37.6473   23.6664 H   0  0  0  0  0  0
  -26.1251  -31.5141   20.6109 H   0  0  0  0  0  0
  -26.8594  -30.8072   22.0171 H   0  0  0  0  0  0
  -28.1314  -28.8931   21.2229 H   0  0  0  0  0  0
  -25.9823  -25.8868   19.0044 H   0  0  0  0  0  0
  -23.9828  -27.3026   18.9942 H   0  0  0  0  0  0
  -23.7836  -30.5789   19.4013 H   0  0  0  0  0  0
  -22.7753  -29.2376   19.8520 H   0  0  0  0  0  0
  -25.1300  -36.1900   25.0811 H   0  0  0  0  0  0
  -20.9990  -28.3291   24.1381 H   0  0  0  0  0  0
  -20.5674  -26.2320   23.3615 H   0  0  0  0  0  0
  -21.6647  -26.7431   22.1202 H   0  0  0  0  0  0
  -19.6916  -25.6286   21.1248 H   0  0  0  0  0  0
  -19.6690  -27.3184   20.6736 H   0  0  0  0  0  0
  -17.4200  -26.6675   21.4031 H   0  0  0  0  0  0
  -18.0339  -26.0071   22.9023 H   0  0  0  0  0  0
  -19.7945  -30.7283   24.2247 H   0  0  0  0  0  0
  -17.5021  -31.6269   24.5161 H   0  0  0  0  0  0
  -15.5358  -30.2982   23.7665 H   0  0  0  0  0  0
  -15.8682  -28.0814   22.7086 H   0  0  0  0  0  0
  -24.5906  -30.7089   25.7763 H   0  0  0  0  0  0
  -24.8915  -32.2921   26.4828 H   0  0  0  0  0  0
  -25.8031  -30.8943   27.0229 H   0  0  0  0  0  0
  -26.2962  -29.6730   24.1235 H   0  0  0  0  0  0
  -27.4009  -29.7257   25.4772 H   0  0  0  0  0  0
  -27.8859  -30.4246   23.9514 H   0  0  0  0  0  0
  -27.2650  -33.3633   26.2067 H   0  0  0  0  0  0
  -28.3887  -32.6888   25.0354 H   0  0  0  0  0  0
  -28.0707  -31.8467   26.5443 H   0  0  0  0  0  0
  -28.2593  -38.0091   24.7510 H   0  0  0  0  0  0
  -28.1075  -36.2621   24.6295 H   0  0  0  0  0  0
  -27.2291  -37.1443   25.8866 H   0  0  0  0  0  0
  -20.9428  -29.8765   21.6836 H   0  0  0  0  0  0
  -26.0162  -38.2834   24.1417 H   0  0  0  0  0  0
  -31.1404  -20.1762   18.7016 H   0  0  0  0  0  0
  -27.1441  -25.0469   21.3429 H   0  0  0  0  0  0
  -27.1654  -21.8704   20.8094 H   0  0  0  0  0  0
  -28.2862  -22.1538   22.1743 H   0  0  0  0  0  0
  -28.3038  -16.8260   22.0614 H   0  0  0  0  0  0
  1 25  1  0  0  0
  1 30  2  0  0  0
  1 78  1  0  0  0
  2  3  1  0  0  0
  2 25  1  0  0  0
  2 85  1  0  0  0
  2 86  1  0  0  0
  3  4  1  0  0  0
  3 87  1  0  0  0
  3 88  1  0  0  0
  4  5  1  0  0  0
  4 89  1  0  0  0
  4 90  1  0  0  0
  5  6  1  0  0  0
  5 26  1  0  0  0
  5 91  1  0  0  0
  6 25  1  0  0  0
  6 92  1  0  0  0
  6 93  1  0  0  0
  7  8  2  0  0  0
  7 26  1  0  0  0
  7 29  1  0  0  0
  8  9  1  0  0  0
  8 22  1  0  0  0
  9 10  1  0  0  0
  9 27  2  0  0  0
 10 11  2  0  0  0
 10 15  1  0  0  0
 11 12  1  0  0  0
 11 94  1  0  0  0
 12 13  2  0  0  0
 12 95  1  0  0  0
 13 14  1  0  0  0
 13 31  1  0  0  0
 14 15  2  0  0  0
 14 96  1  0  0  0
 15 97  1  0  0  0
 16 17  2  0  0  0
 16 21  1  0  0  0
 16 31  1  0  0  0
 17 18  1  0  0  0
 17 98  1  0  0  0
 18 19  2  0  0  0
 18 99  1  0  0  0
 19 20  1  0  0  0
 19 24  1  0  0  0
 20 21  2  0  0  0
 20100  1  0  0  0
 21 23  1  0  0  0
 22 28  1  0  0  0
 22 32  2  0  0  0
 26 27  1  0  0  0
 28101  1  0  0  0
 28102  1  0  0  0
 29103  1  0  0  0
 29104  1  0  0  0
 33 34  1  0  0  0
 33 66  1  0  0  0
 33 70  2  0  0  0
 34 36  1  0  0  0
 34 59  1  0  0  0
 34105  1  0  0  0
 35 44  2  0  0  0
 35 45  1  0  0  0
 35 68  1  0  0  0
 36 56  1  0  0  0
 36106  1  0  0  0
 37 39  1  0  0  0
 37 47  1  0  0  0
 37 66  1  0  0  0
 37107  1  0  0  0
 38 43  2  0  0  0
 38 46  1  0  0  0
 38 47  1  0  0  0
 39 64  1  0  0  0
 39 67  2  0  0  0
 40 52  1  0  0  0
 40 53  2  0  0  0
 40 58  1  0  0  0
 41108  1  0  0  0
 41109  1  0  0  0
 41110  1  0  0  0
 41 48  1  0  0  0
 42 43  1  0  0  0
 42 66  1  0  0  0
 42111  1  0  0  0
 42112  1  0  0  0
 43 44  1  0  0  0
 44113  1  0  0  0
 45 46  2  0  0  0
 45114  1  0  0  0
 46115  1  0  0  0
 47116  1  0  0  0
 47117  1  0  0  0
 48 56  1  0  0  0
 48 65  1  0  0  0
 48118  1  0  0  0
 49 50  1  0  0  0
 49 53  1  0  0  0
 49 64  1  0  0  0
 49119  1  0  0  0
 50 51  1  0  0  0
 50120  1  0  0  0
 50121  1  0  0  0
 51 52  1  0  0  0
 51122  1  0  0  0
 51123  1  0  0  0
 52124  1  0  0  0
 52125  1  0  0  0
 53 54  1  0  0  0
 54 55  2  0  0  0
 54126  1  0  0  0
 55 57  1  0  0  0
 55127  1  0  0  0
 56 69  2  0  0  0
 57 58  2  0  0  0
 57128  1  0  0  0
 58129  1  0  0  0
 59 60  1  0  0  0
 59 61  1  0  0  0
 59 62  1  0  0  0
 60130  1  0  0  0
 60131  1  0  0  0
 60132  1  0  0  0
 61133  1  0  0  0
 61134  1  0  0  0
 61135  1  0  0  0
 62136  1  0  0  0
 62137  1  0  0  0
 62138  1  0  0  0
 63 65  1  0  0  0
 63139  1  0  0  0
 63140  1  0  0  0
 63141  1  0  0  0
 64142  1  0  0  0
 65143  1  0  0  0
 68 77  1  0  0  0
 71 72  1  0  0  0
 71 74  2  0  0  0
 71144  1  0  0  0
 72 73  2  0  0  0
 72 83  1  0  0  0
 73 78  1  0  0  0
 73 84  1  0  0  0
 74 81  1  0  0  0
 74 84  1  0  0  0
 75 76  1  0  0  0
 75 77  2  0  0  0
 75 79  1  0  0  0
 76 81  1  0  0  0
 76 82  2  0  0  0
 77145  1  0  0  0
 78 80  2  0  0  0
 79 81  1  0  0  0
 79146  1  0  0  0
 79147  1  0  0  0
 80148  1  0  0  0
M  ISO  4   1 100  68 101  77 101  78 100
M  END
> <chiral flag>
0

> <version>
0

> <s_m_source_file>
/data/baiqing/PycharmProjects/Reinvent-master-3.2/result/LINK_invent/BTK/process_docking_weight1_custom_product_contain_oxygen_bond_distance_aromatic_linkinvent_7_9_3/rearranged_h_0081.sdf

> <i_m_source_file_index>
53

> <r_mmod_Potential_Energy-OPLS-2005>
386.634307861328

> <r_mmod_Stretch_Energy-OPLS-2005>
148.595703125

> <r_mmod_Bend_Energy-OPLS-2005>
280.450103759766

> <r_mmod_Torsional_Energy-OPLS-2005>
191.545425415039

> <r_mmod_Improper_Torsional_Energy-OPLS-2005>
2.44549965858459

> <r_mmod_Van_der_Waal_Energy-OPLS-2005>
121.808166503906

> <r_mmod_Electrostatic_Energy-OPLS-2005>
-250.771545410156

> <r_mmod_Solvation_Energy-OPLS-2005>
-216.70751953125

> <b_mmod_Minimization_Converged-OPLS-2005>
0

> <r_mmod_RMS_Derivative-OPLS-2005>
0.577883720397949

$$$$
53
                    3D
 Structure written by MMmdl.
151159  0  0  1  0            999 V2000
  -30.6998  -14.5291   20.5356 C   0  0  0  0  0  0
  -30.4199  -12.3306   19.4404 C   0  0  0  0  0  0
  -29.4967  -12.4938   18.2154 C   0  0  0  0  0  0
  -28.0192  -12.3503   18.6294 C   0  0  0  0  0  0
  -27.6559  -13.2141   19.8671 C   0  0  2  0  0  0
  -28.7000  -13.0482   20.9953 C   0  0  0  0  0  0
  -25.2567  -13.8175   20.5682 C   0  0  0  0  0  0
  -24.1830  -13.0444   20.9187 C   0  0  0  0  0  0
  -24.6395  -11.6913   20.8744 C   0  0  0  0  0  0
  -23.9064  -10.4294   21.0408 C   0  0  0  0  0  0
  -24.3614   -9.4208   21.9185 C   0  0  0  0  0  0
  -23.6289   -8.2243   22.0756 C   0  0  0  0  0  0
  -22.4272   -8.0281   21.3544 C   0  0  0  0  0  0
  -21.9907   -9.0255   20.4648 C   0  0  0  0  0  0
  -22.7236  -10.2135   20.3058 C   0  0  0  0  0  0
  -21.6854   -6.0734   22.5277 C   0  0  0  0  0  0
  -21.4014   -6.5639   23.8210 C   0  0  0  0  0  0
  -21.3658   -5.6791   24.9172 C   0  0  0  0  0  0
  -21.6044   -4.3054   24.7223 C   0  0  0  0  0  0
  -21.8819   -3.8145   23.4345 C   0  0  0  0  0  0
  -21.9191   -4.6960   22.3402 C   0  0  0  0  0  0
  -22.7851  -13.5235   21.1843 C   0  0  0  0  0  0
  -22.1661   -4.2146   21.0980 F   0  0  0  0  0  0
  -21.5628   -3.4539   25.7738 F   0  0  0  0  0  0
  -30.0244  -13.3484   20.4308 N   0  0  0  0  0  0
  -26.3001  -12.9356   20.3344 N   0  0  0  0  0  0
  -25.9324  -11.6512   20.5774 N   0  0  0  0  0  0
  -22.0494  -12.8228   22.0402 N   0  0  0  0  0  0
  -25.4285  -15.1893   20.4082 N   0  0  0  0  0  0
  -31.8484  -14.6492   20.1036 O   0  0  0  0  0  0
  -21.6639   -6.8877   21.4240 O   0  0  0  0  0  0
  -22.3535  -14.5539   20.6692 O   0  0  0  0  0  0
  -24.6189  -31.8653   23.2094 C   0  0  0  0  0  0
  -25.9062  -32.4814   23.8395 C   0  0  1  0  0  0
  -27.2254  -27.4007   20.1044 C   0  0  0  0  0  0
  -25.5903  -33.8613   24.2321 N   0  0  0  0  0  0
  -23.4094  -30.4905   21.5500 C   0  0  2  0  0  0
  -24.8574  -28.9608   20.1077 C   0  0  0  0  0  0
  -22.7439  -29.4647   22.4967 C   0  0  0  0  0  0
  -18.0277  -28.1387   22.8488 C   0  0  0  0  0  0
  -24.1484  -36.7311   23.2640 C   0  0  0  0  0  0
  -25.9432  -30.8217   21.3694 C   0  0  0  0  0  0
  -26.0215  -29.4567   20.7107 C   0  0  0  0  0  0
  -27.2123  -28.6844   20.7074 C   0  0  0  0  0  0
  -26.0485  -26.9414   19.4719 C   0  0  0  0  0  0
  -24.8676  -27.7041   19.4816 C   0  0  0  0  0  0
  -23.6198  -29.8292   20.1627 C   0  0  0  0  0  0
  -25.4108  -36.3109   24.0338 C   0  0  1  0  0  0
  -20.5870  -28.3680   23.1302 C   0  0  2  0  0  0
  -20.6766  -26.9411   22.5417 C   0  0  0  0  0  0
  -19.5744  -26.6390   21.5215 C   0  0  0  0  0  0
  -18.1922  -26.7930   22.1624 C   0  0  0  0  0  0
  -19.1527  -28.8851   23.2889 C   0  0  0  0  0  0
  -18.9459  -30.1453   23.8905 C   0  0  0  0  0  0
  -17.6460  -30.6590   24.0568 C   0  0  0  0  0  0
  -25.9037  -34.9473   23.5127 C   0  0  0  0  0  0
  -16.5350  -29.9095   23.6327 C   0  0  0  0  0  0
  -16.7265  -28.6511   23.0348 C   0  0  0  0  0  0
  -26.4476  -31.6603   25.0734 C   0  0  0  0  0  0
  -25.3735  -31.3722   26.1481 C   0  0  0  0  0  0
  -27.0310  -30.3037   24.6139 C   0  0  0  0  0  0
  -27.6051  -32.4329   25.7492 C   0  0  0  0  0  0
  -27.5582  -37.1810   24.8466 C   0  0  0  0  0  0
  -21.4163  -29.3038   22.3706 N   0  0  0  0  0  0
  -26.4293  -37.3794   23.9413 N   0  0  0  0  0  0
  -24.6754  -31.0730   22.1011 N   0  0  0  0  0  0
  -23.4189  -28.8181   23.3020 O   0  0  0  0  0  0
  -28.3209  -26.5526   20.1647 O   0  0  0  0  0  0
  -26.5603  -34.8927   22.4691 O   0  0  0  0  0  0
  -23.5371  -32.1419   23.7464 O   0  0  0  0  0  0
  -32.0504  -18.7731   21.2200 C   0  0  0  0  0  0
  -31.0542  -19.7666   21.1725 C   0  0  0  0  0  0
  -31.7109  -17.4083   21.1505 C   0  0  0  0  0  0
  -29.3668  -18.0176   20.9709 C   0  0  0  0  0  0
  -29.6935  -19.4090   21.0479 C   0  0  0  0  0  0
  -30.3624  -16.9976   21.0114 C   0  0  0  0  0  0
  -28.6825  -24.1200   20.4187 C   0  0  0  0  0  0
  -28.0360  -25.2898   20.6760 C   0  0  0  0  0  0
  -28.6024  -20.4684   21.1232 C   0  0  0  0  0  0
  -28.1499  -22.8685   20.9909 C   0  0  0  0  0  0
  -29.9811  -15.6013   20.9640 N   0  0  0  0  0  0
  -28.9146  -21.7570   20.7995 N   0  0  0  0  0  0
  -27.4722  -20.0949   21.4595 O   0  0  0  0  0  0
  -27.0725  -22.8401   21.5993 O   0  0  0  0  0  0
  -31.4652  -12.4170   19.1387 H   0  0  0  0  0  0
  -30.3182  -11.3323   19.8688 H   0  0  0  0  0  0
  -29.7443  -11.7516   17.4554 H   0  0  0  0  0  0
  -29.6582  -13.4699   17.7552 H   0  0  0  0  0  0
  -27.8413  -11.2971   18.8503 H   0  0  0  0  0  0
  -27.3662  -12.5981   17.7917 H   0  0  0  0  0  0
  -27.6841  -14.2531   19.5383 H   0  0  0  0  0  0
  -28.6870  -12.0285   21.3828 H   0  0  0  0  0  0
  -28.4621  -13.6904   21.8445 H   0  0  0  0  0  0
  -25.2762   -9.5680   22.4758 H   0  0  0  0  0  0
  -23.9996   -7.4635   22.7479 H   0  0  0  0  0  0
  -21.0836   -8.8774   19.8956 H   0  0  0  0  0  0
  -22.3695  -10.9672   19.6165 H   0  0  0  0  0  0
  -21.2011   -7.6148   23.9711 H   0  0  0  0  0  0
  -21.1480   -6.0525   25.9074 H   0  0  0  0  0  0
  -22.0601   -2.7608   23.2848 H   0  0  0  0  0  0
  -22.4106  -11.9888   22.4789 H   0  0  0  0  0  0
  -21.1116  -13.1258   22.2619 H   0  0  0  0  0  0
  -24.6613  -15.8443   20.5146 H   0  0  0  0  0  0
  -26.2753  -15.6259   20.0668 H   0  0  0  0  0  0
  -26.7132  -32.5519   23.1158 H   0  0  0  0  0  0
  -25.0049  -33.9767   25.0464 H   0  0  0  0  0  0
  -22.6997  -31.3087   21.4120 H   0  0  0  0  0  0
  -23.3740  -35.9648   23.3310 H   0  0  0  0  0  0
  -24.3576  -36.8921   22.2053 H   0  0  0  0  0  0
  -23.7241  -37.6524   23.6645 H   0  0  0  0  0  0
  -26.0626  -31.5891   20.6036 H   0  0  0  0  0  0
  -26.8278  -30.8715   21.9923 H   0  0  0  0  0  0
  -28.1045  -29.0505   21.1955 H   0  0  0  0  0  0
  -26.0363  -25.9710   18.9951 H   0  0  0  0  0  0
  -23.9751  -27.3175   19.0090 H   0  0  0  0  0  0
  -23.7306  -30.6074   19.4069 H   0  0  0  0  0  0
  -22.7423  -29.2528   19.8638 H   0  0  0  0  0  0
  -25.1281  -36.1976   25.0829 H   0  0  0  0  0  0
  -20.9959  -28.3255   24.1423 H   0  0  0  0  0  0
  -20.5681  -26.2290   23.3615 H   0  0  0  0  0  0
  -21.6638  -26.7457   22.1207 H   0  0  0  0  0  0
  -19.6911  -25.6307   21.1239 H   0  0  0  0  0  0
  -19.6685  -27.3205   20.6751 H   0  0  0  0  0  0
  -17.4196  -26.6682   21.4022 H   0  0  0  0  0  0
  -18.0313  -26.0072   22.9020 H   0  0  0  0  0  0
  -19.7937  -30.7260   24.2281 H   0  0  0  0  0  0
  -17.5018  -31.6268   24.5174 H   0  0  0  0  0  0
  -15.5351  -30.3002   23.7648 H   0  0  0  0  0  0
  -15.8661  -28.0836   22.7057 H   0  0  0  0  0  0
  -24.5912  -30.7061   25.7823 H   0  0  0  0  0  0
  -24.8925  -32.2883   26.4918 H   0  0  0  0  0  0
  -25.8087  -30.8910   27.0248 H   0  0  0  0  0  0
  -26.2867  -29.6797   24.1179 H   0  0  0  0  0  0
  -27.4045  -29.7278   25.4616 H   0  0  0  0  0  0
  -27.8713  -30.4341   23.9317 H   0  0  0  0  0  0
  -27.2666  -33.3617   26.2095 H   0  0  0  0  0  0
  -28.3839  -32.6914   25.0306 H   0  0  0  0  0  0
  -28.0737  -31.8444   26.5391 H   0  0  0  0  0  0
  -28.2611  -38.0095   24.7503 H   0  0  0  0  0  0
  -28.1066  -36.2630   24.6298 H   0  0  0  0  0  0
  -27.2299  -37.1467   25.8869 H   0  0  0  0  0  0
  -20.9332  -29.8774   21.6936 H   0  0  0  0  0  0
  -26.0185  -38.2874   24.1407 H   0  0  0  0  0  0
  -33.0871  -19.0595   21.3337 H   0  0  0  0  0  0
  -31.3511  -20.8017   21.2680 H   0  0  0  0  0  0
  -32.5135  -16.6894   21.2249 H   0  0  0  0  0  0
  -28.3264  -17.7318   20.8967 H   0  0  0  0  0  0
  -29.5545  -24.1133   19.7816 H   0  0  0  0  0  0
  -27.1737  -25.3184   21.3322 H   0  0  0  0  0  0
  -29.0185  -15.3952   21.1827 H   0  0  0  0  0  0
  -29.8253  -21.8975   20.3947 H   0  0  0  0  0  0
  1 25  1  0  0  0
  1 30  2  0  0  0
  1 81  1  0  0  0
  2  3  1  0  0  0
  2 25  1  0  0  0
  2 85  1  0  0  0
  2 86  1  0  0  0
  3  4  1  0  0  0
  3 87  1  0  0  0
  3 88  1  0  0  0
  4  5  1  0  0  0
  4 89  1  0  0  0
  4 90  1  0  0  0
  5  6  1  0  0  0
  5 26  1  0  0  0
  5 91  1  0  0  0
  6 25  1  0  0  0
  6 92  1  0  0  0
  6 93  1  0  0  0
  7  8  2  0  0  0
  7 26  1  0  0  0
  7 29  1  0  0  0
  8  9  1  0  0  0
  8 22  1  0  0  0
  9 10  1  0  0  0
  9 27  2  0  0  0
 10 11  2  0  0  0
 10 15  1  0  0  0
 11 12  1  0  0  0
 11 94  1  0  0  0
 12 13  2  0  0  0
 12 95  1  0  0  0
 13 14  1  0  0  0
 13 31  1  0  0  0
 14 15  2  0  0  0
 14 96  1  0  0  0
 15 97  1  0  0  0
 16 17  2  0  0  0
 16 21  1  0  0  0
 16 31  1  0  0  0
 17 18  1  0  0  0
 17 98  1  0  0  0
 18 19  2  0  0  0
 18 99  1  0  0  0
 19 20  1  0  0  0
 19 24  1  0  0  0
 20 21  2  0  0  0
 20100  1  0  0  0
 21 23  1  0  0  0
 22 28  1  0  0  0
 22 32  2  0  0  0
 26 27  1  0  0  0
 28101  1  0  0  0
 28102  1  0  0  0
 29103  1  0  0  0
 29104  1  0  0  0
 33 34  1  0  0  0
 33 66  1  0  0  0
 33 70  2  0  0  0
 34 36  1  0  0  0
 34 59  1  0  0  0
 34105  1  0  0  0
 35 44  2  0  0  0
 35 45  1  0  0  0
 35 68  1  0  0  0
 36 56  1  0  0  0
 36106  1  0  0  0
 37 39  1  0  0  0
 37 47  1  0  0  0
 37 66  1  0  0  0
 37107  1  0  0  0
 38 43  2  0  0  0
 38 46  1  0  0  0
 38 47  1  0  0  0
 39 64  1  0  0  0
 39 67  2  0  0  0
 40 52  1  0  0  0
 40 53  2  0  0  0
 40 58  1  0  0  0
 41108  1  0  0  0
 41109  1  0  0  0
 41110  1  0  0  0
 41 48  1  0  0  0
 42 43  1  0  0  0
 42 66  1  0  0  0
 42111  1  0  0  0
 42112  1  0  0  0
 43 44  1  0  0  0
 44113  1  0  0  0
 45 46  2  0  0  0
 45114  1  0  0  0
 46115  1  0  0  0
 47116  1  0  0  0
 47117  1  0  0  0
 48 56  1  0  0  0
 48 65  1  0  0  0
 48118  1  0  0  0
 49 50  1  0  0  0
 49 53  1  0  0  0
 49 64  1  0  0  0
 49119  1  0  0  0
 50 51  1  0  0  0
 50120  1  0  0  0
 50121  1  0  0  0
 51 52  1  0  0  0
 51122  1  0  0  0
 51123  1  0  0  0
 52124  1  0  0  0
 52125  1  0  0  0
 53 54  1  0  0  0
 54 55  2  0  0  0
 54126  1  0  0  0
 55 57  1  0  0  0
 55127  1  0  0  0
 56 69  2  0  0  0
 57 58  2  0  0  0
 57128  1  0  0  0
 58129  1  0  0  0
 59 60  1  0  0  0
 59 61  1  0  0  0
 59 62  1  0  0  0
 60130  1  0  0  0
 60131  1  0  0  0
 60132  1  0  0  0
 61133  1  0  0  0
 61134  1  0  0  0
 61135  1  0  0  0
 62136  1  0  0  0
 62137  1  0  0  0
 62138  1  0  0  0
 63 65  1  0  0  0
 63139  1  0  0  0
 63140  1  0  0  0
 63141  1  0  0  0
 64142  1  0  0  0
 65143  1  0  0  0
 68 78  1  0  0  0
 71 72  2  0  0  0
 71 73  1  0  0  0
 71144  1  0  0  0
 72 75  1  0  0  0
 72145  1  0  0  0
 73 76  2  0  0  0
 73146  1  0  0  0
 74 75  2  0  0  0
 74 76  1  0  0  0
 74147  1  0  0  0
 75 79  1  0  0  0
 76 81  1  0  0  0
 77 78  2  0  0  0
 77 80  1  0  0  0
 77148  1  0  0  0
 78149  1  0  0  0
 79 82  1  0  0  0
 79 83  2  0  0  0
 80 82  1  0  0  0
 80 84  2  0  0  0
 81150  1  0  0  0
 82151  1  0  0  0
M  ISO  4   1 100  68 101  78 101  81 100
M  END
> <chiral flag>
0

> <version>
0

> <s_m_source_file>
/data/baiqing/PycharmProjects/Reinvent-master-3.2/result/LINK_invent/BTK/process_docking_weight1_custom_product_contain_oxygen_bond_distance_aromatic_linkinvent_7_9_3/rearranged_h_0081.sdf

> <i_m_source_file_index>
54

> <r_mmod_Potential_Energy-OPLS-2005>
-161.249298095703

> <r_mmod_Stretch_Energy-OPLS-2005>
50.0151405334473

> <r_mmod_Bend_Energy-OPLS-2005>
105.001197814941

> <r_mmod_Torsional_Energy-OPLS-2005>
225.467010498047

> <r_mmod_Improper_Torsional_Energy-OPLS-2005>
4.86862850189209

> <r_mmod_Van_der_Waal_Energy-OPLS-2005>
171.109878540039

> <r_mmod_Electrostatic_Energy-OPLS-2005>
-482.067230224609

> <r_mmod_Solvation_Energy-OPLS-2005>
-260.986633300781

> <b_mmod_Minimization_Converged-OPLS-2005>
0

> <r_mmod_RMS_Derivative-OPLS-2005>
0.669173657894135

$$$$
54
                    3D
 Structure written by MMmdl.
152160  0  0  1  0            999 V2000
  -30.6099  -14.7804   20.4580 C   0  0  0  0  0  0
  -30.4238  -12.4739   19.4867 C   0  0  0  0  0  0
  -29.5143  -12.5154   18.2388 C   0  0  0  0  0  0
  -28.0380  -12.3359   18.6454 C   0  0  0  0  0  0
  -27.6339  -13.2394   19.8414 C   0  0  2  0  0  0
  -28.6768  -13.1988   20.9807 C   0  0  0  0  0  0
  -25.2466  -13.8213   20.5698 C   0  0  0  0  0  0
  -24.1776  -13.0443   20.9217 C   0  0  0  0  0  0
  -24.6377  -11.6918   20.8750 C   0  0  0  0  0  0
  -23.9066  -10.4286   21.0397 C   0  0  0  0  0  0
  -24.3625   -9.4210   21.9170 C   0  0  0  0  0  0
  -23.6301   -8.2242   22.0750 C   0  0  0  0  0  0
  -22.4284   -8.0274   21.3541 C   0  0  0  0  0  0
  -21.9904   -9.0243   20.4646 C   0  0  0  0  0  0
  -22.7231  -10.2124   20.3047 C   0  0  0  0  0  0
  -21.6858   -6.0724   22.5276 C   0  0  0  0  0  0
  -21.4023   -6.5636   23.8206 C   0  0  0  0  0  0
  -21.3664   -5.6791   24.9173 C   0  0  0  0  0  0
  -21.6055   -4.3051   24.7229 C   0  0  0  0  0  0
  -21.8808   -3.8135   23.4349 C   0  0  0  0  0  0
  -21.9188   -4.6950   22.3406 C   0  0  0  0  0  0
  -22.7794  -13.5218   21.1887 C   0  0  0  0  0  0
  -22.1658   -4.2148   21.0977 F   0  0  0  0  0  0
  -21.5635   -3.4527   25.7735 F   0  0  0  0  0  0
  -29.9751  -13.5557   20.3986 N   0  0  0  0  0  0
  -26.2886  -12.9422   20.3234 N   0  0  0  0  0  0
  -25.9311  -11.6563   20.5712 N   0  0  0  0  0  0
  -22.0445  -12.8221   22.0455 N   0  0  0  0  0  0
  -25.4135  -15.1940   20.4129 N   0  0  0  0  0  0
  -31.8067  -14.8289   20.1596 O   0  0  0  0  0  0
  -21.6640   -6.8878   21.4241 O   0  0  0  0  0  0
  -22.3471  -14.5505   20.6702 O   0  0  0  0  0  0
  -24.6346  -31.8506   23.2000 C   0  0  0  0  0  0
  -25.9160  -32.4739   23.8356 C   0  0  1  0  0  0
  -27.1951  -27.1923   20.1752 C   0  0  0  0  0  0
  -25.5947  -33.8554   24.2272 N   0  0  0  0  0  0
  -23.4341  -30.4758   21.5415 C   0  0  2  0  0  0
  -24.8797  -28.9113   20.1258 C   0  0  0  0  0  0
  -22.7537  -29.4575   22.4897 C   0  0  0  0  0  0
  -18.0292  -28.1394   22.8470 C   0  0  0  0  0  0
  -24.1471  -36.7276   23.2640 C   0  0  0  0  0  0
  -25.9874  -30.7417   21.3928 C   0  0  0  0  0  0
  -26.0485  -29.3485   20.7632 C   0  0  0  0  0  0
  -27.2077  -28.4968   20.7880 C   0  0  0  0  0  0
  -26.0291  -26.8768   19.4453 C   0  0  0  0  0  0
  -24.8769  -27.6822   19.4566 C   0  0  0  0  0  0
  -23.6590  -29.8098   20.1583 C   0  0  0  0  0  0
  -25.4101  -36.3080   24.0334 C   0  0  1  0  0  0
  -20.5903  -28.3695   23.1260 C   0  0  2  0  0  0
  -20.6785  -26.9410   22.5405 C   0  0  0  0  0  0
  -19.5764  -26.6380   21.5210 C   0  0  0  0  0  0
  -18.1938  -26.7931   22.1613 C   0  0  0  0  0  0
  -19.1545  -28.8865   23.2850 C   0  0  0  0  0  0
  -18.9462  -30.1461   23.8875 C   0  0  0  0  0  0
  -17.6460  -30.6587   24.0559 C   0  0  0  0  0  0
  -25.9050  -34.9445   23.5103 C   0  0  0  0  0  0
  -16.5352  -29.9083   23.6336 C   0  0  0  0  0  0
  -16.7279  -28.6504   23.0361 C   0  0  0  0  0  0
  -26.4507  -31.6603   25.0770 C   0  0  0  0  0  0
  -25.3737  -31.3760   26.1500 C   0  0  0  0  0  0
  -27.0349  -30.3022   24.6281 C   0  0  0  0  0  0
  -27.6051  -32.4344   25.7553 C   0  0  0  0  0  0
  -27.5570  -37.1800   24.8475 C   0  0  0  0  0  0
  -21.4230  -29.3024   22.3654 N   0  0  0  0  0  0
  -26.4277  -37.3778   23.9419 N   0  0  0  0  0  0
  -24.7050  -31.0451   22.1004 N   0  0  0  0  0  0
  -23.4235  -28.8092   23.2976 O   0  0  0  0  0  0
  -28.2955  -26.3064   20.0511 O   0  0  0  0  0  0
  -26.5611  -34.8906   22.4668 O   0  0  0  0  0  0
  -23.5472  -32.1358   23.7255 O   0  0  0  0  0  0
  -31.9018  -19.1828   20.3555 C   0  0  0  0  0  0
  -30.9434  -20.2176   20.3623 C   0  0  0  0  0  0
  -31.5381  -17.8247   20.4731 C   0  0  0  0  0  0
  -29.2232  -18.5129   20.6086 C   0  0  0  0  0  0
  -29.5716  -19.9389   20.5198 C   0  0  0  0  0  0
  -30.1885  -17.4096   20.5766 C   0  0  0  0  0  0
  -28.5370  -21.1184   20.4252 C   0  0  0  0  0  0
  -28.0722  -23.7583   20.5011 C   0  0  0  0  0  0
  -26.7126  -23.6296   19.8813 C   0  0  0  0  0  0
  -29.8459  -15.9441   20.6389 N   0  0  0  0  0  0
  -28.8427  -22.5837   20.7383 N   0  0  0  0  0  0
  -28.4547  -25.0767   20.8502 N   0  3  0  0  0  0
  -27.4027  -20.8078   20.0502 O   0  0  0  0  0  0
  -31.4697  -12.5843   19.2012 H   0  0  0  0  0  0
  -30.3528  -11.5054   19.9857 H   0  0  0  0  0  0
  -29.8048  -11.7375   17.5332 H   0  0  0  0  0  0
  -29.6423  -13.4673   17.7191 H   0  0  0  0  0  0
  -27.8993  -11.2879   18.9127 H   0  0  0  0  0  0
  -27.3844  -12.5218   17.7906 H   0  0  0  0  0  0
  -27.6189  -14.2567   19.4521 H   0  0  0  0  0  0
  -28.7184  -12.2085   21.4373 H   0  0  0  0  0  0
  -28.4041  -13.8910   21.7777 H   0  0  0  0  0  0
  -25.2770   -9.5699   22.4732 H   0  0  0  0  0  0
  -24.0024   -7.4636   22.7468 H   0  0  0  0  0  0
  -21.0835   -8.8758   19.8956 H   0  0  0  0  0  0
  -22.3684  -10.9664   19.6153 H   0  0  0  0  0  0
  -21.2024   -7.6137   23.9730 H   0  0  0  0  0  0
  -21.1505   -6.0505   25.9087 H   0  0  0  0  0  0
  -22.0586   -2.7597   23.2839 H   0  0  0  0  0  0
  -22.4055  -11.9921   22.4908 H   0  0  0  0  0  0
  -21.1055  -13.1249   22.2614 H   0  0  0  0  0  0
  -24.6442  -15.8443   20.5324 H   0  0  0  0  0  0
  -26.2529  -15.6413   20.0670 H   0  0  0  0  0  0
  -26.7236  -32.5356   23.1101 H   0  0  0  0  0  0
  -25.0163  -33.9705   25.0464 H   0  0  0  0  0  0
  -22.7311  -31.2987   21.3916 H   0  0  0  0  0  0
  -23.3735  -35.9604   23.3308 H   0  0  0  0  0  0
  -24.3562  -36.8881   22.2054 H   0  0  0  0  0  0
  -23.7210  -37.6473   23.6652 H   0  0  0  0  0  0
  -26.1316  -31.4800   20.6014 H   0  0  0  0  0  0
  -26.8685  -30.8068   22.0193 H   0  0  0  0  0  0
  -28.1146  -28.8364   21.2690 H   0  0  0  0  0  0
  -26.0007  -26.0038   18.8158 H   0  0  0  0  0  0
  -24.0007  -27.3675   18.9061 H   0  0  0  0  0  0
  -23.8016  -30.5846   19.4053 H   0  0  0  0  0  0
  -22.7726  -29.2554   19.8427 H   0  0  0  0  0  0
  -25.1273  -36.1932   25.0822 H   0  0  0  0  0  0
  -20.9988  -28.3269   24.1385 H   0  0  0  0  0  0
  -20.5702  -26.2286   23.3602 H   0  0  0  0  0  0
  -21.6644  -26.7442   22.1178 H   0  0  0  0  0  0
  -19.6923  -25.6289   21.1241 H   0  0  0  0  0  0
  -19.6712  -27.3181   20.6738 H   0  0  0  0  0  0
  -17.4209  -26.6666   21.4020 H   0  0  0  0  0  0
  -18.0341  -26.0087   22.9020 H   0  0  0  0  0  0
  -19.7936  -30.7286   24.2236 H   0  0  0  0  0  0
  -17.5015  -31.6274   24.5158 H   0  0  0  0  0  0
  -15.5352  -30.2987   23.7686 H   0  0  0  0  0  0
  -15.8671  -28.0830   22.7101 H   0  0  0  0  0  0
  -24.5924  -30.7072   25.7882 H   0  0  0  0  0  0
  -24.8902  -32.2917   26.4918 H   0  0  0  0  0  0
  -25.8080  -30.8994   27.0300 H   0  0  0  0  0  0
  -26.2950  -29.6788   24.1253 H   0  0  0  0  0  0
  -27.3965  -29.7279   25.4820 H   0  0  0  0  0  0
  -27.8857  -30.4300   23.9587 H   0  0  0  0  0  0
  -27.2671  -33.3658   26.2112 H   0  0  0  0  0  0
  -28.3899  -32.6877   25.0419 H   0  0  0  0  0  0
  -28.0684  -31.8479   26.5500 H   0  0  0  0  0  0
  -28.2593  -38.0090   24.7511 H   0  0  0  0  0  0
  -28.1055  -36.2622   24.6309 H   0  0  0  0  0  0
  -27.2296  -37.1467   25.8880 H   0  0  0  0  0  0
  -20.9452  -29.8749   21.6839 H   0  0  0  0  0  0
  -26.0150  -38.2840   24.1436 H   0  0  0  0  0  0
  -32.9467  -19.4333   20.2403 H   0  0  0  0  0  0
  -31.2831  -21.2331   20.2193 H   0  0  0  0  0  0
  -32.3452  -17.1104   20.4687 H   0  0  0  0  0  0
  -28.1750  -18.2610   20.6837 H   0  0  0  0  0  0
  -26.1630  -22.7707   20.2571 H   0  0  0  0  0  0
  -26.7851  -23.5862   18.7968 H   0  0  0  0  0  0
  -26.0757  -24.4500   20.1947 H   0  0  0  0  0  0
  -28.8663  -15.7519   20.7747 H   0  0  0  0  0  0
  -29.7456  -22.7976   21.1287 H   0  0  0  0  0  0
  -29.1731  -25.1966   21.5529 H   0  0  0  0  0  0
  1 25  1  0  0  0
  1 30  2  0  0  0
  1 80  1  0  0  0
  2  3  1  0  0  0
  2 25  1  0  0  0
  2 84  1  0  0  0
  2 85  1  0  0  0
  3  4  1  0  0  0
  3 86  1  0  0  0
  3 87  1  0  0  0
  4  5  1  0  0  0
  4 88  1  0  0  0
  4 89  1  0  0  0
  5  6  1  0  0  0
  5 26  1  0  0  0
  5 90  1  0  0  0
  6 25  1  0  0  0
  6 91  1  0  0  0
  6 92  1  0  0  0
  7  8  2  0  0  0
  7 26  1  0  0  0
  7 29  1  0  0  0
  8  9  1  0  0  0
  8 22  1  0  0  0
  9 10  1  0  0  0
  9 27  2  0  0  0
 10 11  2  0  0  0
 10 15  1  0  0  0
 11 12  1  0  0  0
 11 93  1  0  0  0
 12 13  2  0  0  0
 12 94  1  0  0  0
 13 14  1  0  0  0
 13 31  1  0  0  0
 14 15  2  0  0  0
 14 95  1  0  0  0
 15 96  1  0  0  0
 16 17  2  0  0  0
 16 21  1  0  0  0
 16 31  1  0  0  0
 17 18  1  0  0  0
 17 97  1  0  0  0
 18 19  2  0  0  0
 18 98  1  0  0  0
 19 20  1  0  0  0
 19 24  1  0  0  0
 20 21  2  0  0  0
 20 99  1  0  0  0
 21 23  1  0  0  0
 22 28  1  0  0  0
 22 32  2  0  0  0
 26 27  1  0  0  0
 28100  1  0  0  0
 28101  1  0  0  0
 29102  1  0  0  0
 29103  1  0  0  0
 33 34  1  0  0  0
 33 66  1  0  0  0
 33 70  2  0  0  0
 34 36  1  0  0  0
 34 59  1  0  0  0
 34104  1  0  0  0
 35 44  2  0  0  0
 35 45  1  0  0  0
 35 68  1  0  0  0
 36 56  1  0  0  0
 36105  1  0  0  0
 37 39  1  0  0  0
 37 47  1  0  0  0
 37 66  1  0  0  0
 37106  1  0  0  0
 38 43  2  0  0  0
 38 46  1  0  0  0
 38 47  1  0  0  0
 39 64  1  0  0  0
 39 67  2  0  0  0
 40 52  1  0  0  0
 40 53  2  0  0  0
 40 58  1  0  0  0
 41107  1  0  0  0
 41108  1  0  0  0
 41109  1  0  0  0
 41 48  1  0  0  0
 42 43  1  0  0  0
 42 66  1  0  0  0
 42110  1  0  0  0
 42111  1  0  0  0
 43 44  1  0  0  0
 44112  1  0  0  0
 45 46  2  0  0  0
 45113  1  0  0  0
 46114  1  0  0  0
 47115  1  0  0  0
 47116  1  0  0  0
 48 56  1  0  0  0
 48 65  1  0  0  0
 48117  1  0  0  0
 49 50  1  0  0  0
 49 53  1  0  0  0
 49 64  1  0  0  0
 49118  1  0  0  0
 50 51  1  0  0  0
 50119  1  0  0  0
 50120  1  0  0  0
 51 52  1  0  0  0
 51121  1  0  0  0
 51122  1  0  0  0
 52123  1  0  0  0
 52124  1  0  0  0
 53 54  1  0  0  0
 54 55  2  0  0  0
 54125  1  0  0  0
 55 57  1  0  0  0
 55126  1  0  0  0
 56 69  2  0  0  0
 57 58  2  0  0  0
 57127  1  0  0  0
 58128  1  0  0  0
 59 60  1  0  0  0
 59 61  1  0  0  0
 59 62  1  0  0  0
 60129  1  0  0  0
 60130  1  0  0  0
 60131  1  0  0  0
 61132  1  0  0  0
 61133  1  0  0  0
 61134  1  0  0  0
 62135  1  0  0  0
 62136  1  0  0  0
 62137  1  0  0  0
 63 65  1  0  0  0
 63138  1  0  0  0
 63139  1  0  0  0
 63140  1  0  0  0
 64141  1  0  0  0
 65142  1  0  0  0
 68 82  1  0  0  0
 71 72  2  0  0  0
 71 73  1  0  0  0
 71143  1  0  0  0
 72 75  1  0  0  0
 72144  1  0  0  0
 73 76  2  0  0  0
 73145  1  0  0  0
 74 75  2  0  0  0
 74 76  1  0  0  0
 74146  1  0  0  0
 75 77  1  0  0  0
 76 80  1  0  0  0
 77 81  1  0  0  0
 77 83  2  0  0  0
 78 79  1  0  0  0
 78 81  1  0  0  0
 78 82  2  0  0  0
 79147  1  0  0  0
 79148  1  0  0  0
 79149  1  0  0  0
 80150  1  0  0  0
 81151  1  0  0  0
 82152  1  0  0  0
M  CHG  1  82   1
M  ISO  4   1 100  68 101  80 100  82 101
M  END
> <chiral flag>
0

> <version>
0

> <s_m_source_file>
/data/baiqing/PycharmProjects/Reinvent-master-3.2/result/LINK_invent/BTK/process_docking_weight1_custom_product_contain_oxygen_bond_distance_aromatic_linkinvent_7_9_3/rearranged_h_0081.sdf

> <i_m_source_file_index>
55

> <r_mmod_Potential_Energy-OPLS-2005>
85.3519134521484

> <r_mmod_Stretch_Energy-OPLS-2005>
163.343505859375

> <r_mmod_Bend_Energy-OPLS-2005>
203.214309692383

> <r_mmod_Torsional_Energy-OPLS-2005>
251.724075317383

> <r_mmod_Improper_Torsional_Energy-OPLS-2005>
7.58284664154053

> <r_mmod_Van_der_Waal_Energy-OPLS-2005>
150.060913085938

> <r_mmod_Electrostatic_Energy-OPLS-2005>
-309.411987304688

> <r_mmod_Solvation_Energy-OPLS-2005>
-488.652557373047

> <b_mmod_Minimization_Converged-OPLS-2005>
0

> <r_mmod_RMS_Derivative-OPLS-2005>
3.91801691055298

$$$$
55
                    3D
 Structure written by MMmdl.
154163  0  0  1  0            999 V2000
  -30.5935  -14.6869   20.4879 C   0  0  0  0  0  0
  -30.4465  -12.4204   19.4584 C   0  0  0  0  0  0
  -29.5137  -12.5144   18.2288 C   0  0  0  0  0  0
  -28.0377  -12.3415   18.6403 C   0  0  0  0  0  0
  -27.6538  -13.2164   19.8627 C   0  0  2  0  0  0
  -28.6986  -13.0820   20.9936 C   0  0  0  0  0  0
  -25.2574  -13.8167   20.5682 C   0  0  0  0  0  0
  -24.1837  -13.0436   20.9187 C   0  0  0  0  0  0
  -24.6403  -11.6906   20.8739 C   0  0  0  0  0  0
  -23.9070  -10.4293   21.0405 C   0  0  0  0  0  0
  -24.3617   -9.4208   21.9184 C   0  0  0  0  0  0
  -23.6291   -8.2245   22.0756 C   0  0  0  0  0  0
  -22.4273   -8.0281   21.3547 C   0  0  0  0  0  0
  -21.9914   -9.0256   20.4648 C   0  0  0  0  0  0
  -22.7242  -10.2135   20.3053 C   0  0  0  0  0  0
  -21.6853   -6.0740   22.5280 C   0  0  0  0  0  0
  -21.4015   -6.5640   23.8213 C   0  0  0  0  0  0
  -21.3660   -5.6792   24.9175 C   0  0  0  0  0  0
  -21.6041   -4.3055   24.7224 C   0  0  0  0  0  0
  -21.8819   -3.8150   23.4345 C   0  0  0  0  0  0
  -21.9196   -4.6971   22.3407 C   0  0  0  0  0  0
  -22.7861  -13.5238   21.1846 C   0  0  0  0  0  0
  -22.1659   -4.2158   21.0985 F   0  0  0  0  0  0
  -21.5634   -3.4535   25.7735 F   0  0  0  0  0  0
  -30.0103  -13.4434   20.4321 N   0  0  0  0  0  0
  -26.2994  -12.9344   20.3308 N   0  0  0  0  0  0
  -25.9331  -11.6500   20.5746 N   0  0  0  0  0  0
  -22.0492  -12.8239   22.0400 N   0  0  0  0  0  0
  -25.4301  -15.1886   20.4090 N   0  0  0  0  0  0
  -31.7522  -14.8614   20.0971 O   0  0  0  0  0  0
  -21.6634   -6.8878   21.4239 O   0  0  0  0  0  0
  -22.3559  -14.5553   20.6703 O   0  0  0  0  0  0
  -24.6279  -31.8575   23.2003 C   0  0  0  0  0  0
  -25.9114  -32.4770   23.8342 C   0  0  1  0  0  0
  -27.2275  -27.3017   20.1242 C   0  0  0  0  0  0
  -25.5926  -33.8574   24.2274 N   0  0  0  0  0  0
  -23.4234  -30.4796   21.5427 C   0  0  2  0  0  0
  -24.8737  -28.9311   20.1112 C   0  0  0  0  0  0
  -22.7482  -29.4611   22.4924 C   0  0  0  0  0  0
  -18.0287  -28.1383   22.8484 C   0  0  0  0  0  0
  -24.1492  -36.7288   23.2639 C   0  0  0  0  0  0
  -25.9658  -30.7830   21.3749 C   0  0  0  0  0  0
  -26.0425  -29.4076   20.7198 C   0  0  0  0  0  0
  -27.2242  -28.6039   20.7180 C   0  0  0  0  0  0
  -26.0401  -26.8848   19.4847 C   0  0  0  0  0  0
  -24.8749  -27.6754   19.4838 C   0  0  0  0  0  0
  -23.6407  -29.8115   20.1595 C   0  0  0  0  0  0
  -25.4121  -36.3082   24.0325 C   0  0  1  0  0  0
  -20.5888  -28.3690   23.1277 C   0  0  2  0  0  0
  -20.6774  -26.9409   22.5409 C   0  0  0  0  0  0
  -19.5752  -26.6379   21.5211 C   0  0  0  0  0  0
  -18.1929  -26.7925   22.1621 C   0  0  0  0  0  0
  -19.1539  -28.8854   23.2872 C   0  0  0  0  0  0
  -18.9461  -30.1459   23.8889 C   0  0  0  0  0  0
  -17.6462  -30.6588   24.0560 C   0  0  0  0  0  0
  -25.9053  -34.9447   23.5103 C   0  0  0  0  0  0
  -16.5354  -29.9085   23.6331 C   0  0  0  0  0  0
  -16.7275  -28.6502   23.0354 C   0  0  0  0  0  0
  -26.4491  -31.6583   25.0718 C   0  0  0  0  0  0
  -25.3719  -31.3719   26.1441 C   0  0  0  0  0  0
  -27.0330  -30.3003   24.6178 C   0  0  0  0  0  0
  -27.6048  -32.4318   25.7496 C   0  0  0  0  0  0
  -27.5575  -37.1811   24.8471 C   0  0  0  0  0  0
  -21.4194  -29.3038   22.3667 N   0  0  0  0  0  0
  -26.4303  -37.3772   23.9392 N   0  0  0  0  0  0
  -24.6910  -31.0571   22.0962 N   0  0  0  0  0  0
  -23.4191  -28.8146   23.3012 O   0  0  0  0  0  0
  -28.3221  -26.4184   20.1442 O   0  0  0  0  0  0
  -26.5621  -34.8916   22.4668 O   0  0  0  0  0  0
  -23.5438  -32.1383   23.7318 O   0  0  0  0  0  0
  -28.5856  -19.3630   21.1043 C   0  0  0  0  0  0
  -30.5980  -19.3752   19.8160 C   0  0  0  0  0  0
  -28.7036  -17.9447   21.2482 C   0  0  0  0  0  0
  -30.7196  -17.9524   19.9618 C   0  0  0  0  0  0
  -29.5288  -20.1460   20.3778 C   0  0  0  0  0  0
  -29.7684  -17.1847   20.6874 C   0  0  0  0  0  0
  -28.8452  -23.9300   20.2196 C   0  0  0  0  0  0
  -30.0869  -23.8028   19.5086 C   0  0  0  0  0  0
  -28.4940  -22.5418   20.6387 C   0  0  0  0  0  0
  -30.8089  -24.8114   18.9910 C   0  0  0  0  0  0
  -28.0888  -25.0599   20.4853 C   0  0  0  0  0  0
  -30.4882  -22.3452   19.4475 C   0  0  0  0  0  0
  -29.4438  -21.6281   20.1992 N   0  0  0  0  0  0
  -29.7653  -15.7200   20.8675 N   0  0  0  0  0  0
  -27.4888  -22.2426   21.2917 O   0  0  0  0  0  0
  -31.4857  -12.5607   19.1553 H   0  0  0  0  0  0
  -30.3982  -11.4266   19.9059 H   0  0  0  0  0  0
  -29.7867  -11.7599   17.4896 H   0  0  0  0  0  0
  -29.6470  -13.4815   17.7412 H   0  0  0  0  0  0
  -27.8840  -11.2884   18.8786 H   0  0  0  0  0  0
  -27.3824  -12.5600   17.7967 H   0  0  0  0  0  0
  -27.6678  -14.2494   19.5152 H   0  0  0  0  0  0
  -28.7215  -12.0601   21.3745 H   0  0  0  0  0  0
  -28.4357  -13.7091   21.8464 H   0  0  0  0  0  0
  -25.2759   -9.5688   22.4759 H   0  0  0  0  0  0
  -24.0003   -7.4639   22.7474 H   0  0  0  0  0  0
  -21.0848   -8.8773   19.8948 H   0  0  0  0  0  0
  -22.3699  -10.9677   19.6162 H   0  0  0  0  0  0
  -21.1996   -7.6143   23.9724 H   0  0  0  0  0  0
  -21.1482   -6.0517   25.9080 H   0  0  0  0  0  0
  -22.0599   -2.7613   23.2843 H   0  0  0  0  0  0
  -22.4093  -11.9895   22.4795 H   0  0  0  0  0  0
  -21.1111  -13.1283   22.2594 H   0  0  0  0  0  0
  -24.6604  -15.8413   20.5079 H   0  0  0  0  0  0
  -26.2746  -15.6240   20.0608 H   0  0  0  0  0  0
  -26.7180  -32.5437   23.1087 H   0  0  0  0  0  0
  -25.0066  -33.9717   25.0415 H   0  0  0  0  0  0
  -22.7175  -31.2997   21.3958 H   0  0  0  0  0  0
  -23.3740  -35.9640   23.3353 H   0  0  0  0  0  0
  -24.3560  -36.8858   22.2041 H   0  0  0  0  0  0
  -23.7277  -37.6517   23.6632 H   0  0  0  0  0  0
  -26.0969  -31.5447   20.6052 H   0  0  0  0  0  0
  -26.8460  -30.8360   22.0039 H   0  0  0  0  0  0
  -28.1225  -28.9629   21.2002 H   0  0  0  0  0  0
  -26.0043  -25.9204   18.9975 H   0  0  0  0  0  0
  -23.9807  -27.3053   19.0012 H   0  0  0  0  0  0
  -23.7567  -30.5857   19.4003 H   0  0  0  0  0  0
  -22.7623  -29.2375   19.8595 H   0  0  0  0  0  0
  -25.1314  -36.1934   25.0821 H   0  0  0  0  0  0
  -20.9978  -28.3263   24.1401 H   0  0  0  0  0  0
  -20.5678  -26.2296   23.3607 H   0  0  0  0  0  0
  -21.6643  -26.7433   22.1202 H   0  0  0  0  0  0
  -19.6910  -25.6289   21.1244 H   0  0  0  0  0  0
  -19.6694  -27.3188   20.6741 H   0  0  0  0  0  0
  -17.4199  -26.6680   21.4019 H   0  0  0  0  0  0
  -18.0318  -26.0066   22.9016 H   0  0  0  0  0  0
  -19.7936  -30.7280   24.2247 H   0  0  0  0  0  0
  -17.5016  -31.6268   24.5160 H   0  0  0  0  0  0
  -15.5353  -30.2989   23.7661 H   0  0  0  0  0  0
  -15.8670  -28.0828   22.7069 H   0  0  0  0  0  0
  -24.5904  -30.7060   25.7762 H   0  0  0  0  0  0
  -24.8896  -32.2886   26.4848 H   0  0  0  0  0  0
  -25.8044  -30.8907   27.0223 H   0  0  0  0  0  0
  -26.2902  -29.6754   24.1206 H   0  0  0  0  0  0
  -27.4020  -29.7261   25.4684 H   0  0  0  0  0  0
  -27.8777  -30.4275   23.9406 H   0  0  0  0  0  0
  -27.2656  -33.3623   26.2060 H   0  0  0  0  0  0
  -28.3869  -32.6872   25.0334 H   0  0  0  0  0  0
  -28.0700  -31.8447   26.5422 H   0  0  0  0  0  0
  -28.2629  -38.0070   24.7467 H   0  0  0  0  0  0
  -28.1037  -36.2599   24.6380 H   0  0  0  0  0  0
  -27.2275  -37.1560   25.8871 H   0  0  0  0  0  0
  -20.9369  -29.8768   21.6887 H   0  0  0  0  0  0
  -26.0185  -38.2856   24.1361 H   0  0  0  0  0  0
  -27.7349  -19.8346   21.5726 H   0  0  0  0  0  0
  -31.3661  -19.8714   19.2402 H   0  0  0  0  0  0
  -27.9347  -17.4324   21.8102 H   0  0  0  0  0  0
  -31.5570  -17.4569   19.4908 H   0  0  0  0  0  0
  -30.4920  -25.8410   19.0656 H   0  0  0  0  0  0
  -31.7427  -24.6201   18.4814 H   0  0  0  0  0  0
  -27.1709  -24.9608   21.0504 H   0  0  0  0  0  0
  -31.4682  -22.1998   19.9044 H   0  0  0  0  0  0
  -30.5205  -22.0062   18.4112 H   0  0  0  0  0  0
  -28.9065  -15.3663   21.2607 H   0  0  0  0  0  0
  1 25  1  0  0  0
  1 30  2  0  0  0
  1 84  1  0  0  0
  2  3  1  0  0  0
  2 25  1  0  0  0
  2 86  1  0  0  0
  2 87  1  0  0  0
  3  4  1  0  0  0
  3 88  1  0  0  0
  3 89  1  0  0  0
  4  5  1  0  0  0
  4 90  1  0  0  0
  4 91  1  0  0  0
  5  6  1  0  0  0
  5 26  1  0  0  0
  5 92  1  0  0  0
  6 25  1  0  0  0
  6 93  1  0  0  0
  6 94  1  0  0  0
  7  8  2  0  0  0
  7 26  1  0  0  0
  7 29  1  0  0  0
  8  9  1  0  0  0
  8 22  1  0  0  0
  9 10  1  0  0  0
  9 27  2  0  0  0
 10 11  2  0  0  0
 10 15  1  0  0  0
 11 12  1  0  0  0
 11 95  1  0  0  0
 12 13  2  0  0  0
 12 96  1  0  0  0
 13 14  1  0  0  0
 13 31  1  0  0  0
 14 15  2  0  0  0
 14 97  1  0  0  0
 15 98  1  0  0  0
 16 17  2  0  0  0
 16 21  1  0  0  0
 16 31  1  0  0  0
 17 18  1  0  0  0
 17 99  1  0  0  0
 18 19  2  0  0  0
 18100  1  0  0  0
 19 20  1  0  0  0
 19 24  1  0  0  0
 20 21  2  0  0  0
 20101  1  0  0  0
 21 23  1  0  0  0
 22 28  1  0  0  0
 22 32  2  0  0  0
 26 27  1  0  0  0
 28102  1  0  0  0
 28103  1  0  0  0
 29104  1  0  0  0
 29105  1  0  0  0
 33 34  1  0  0  0
 33 66  1  0  0  0
 33 70  2  0  0  0
 34 36  1  0  0  0
 34 59  1  0  0  0
 34106  1  0  0  0
 35 44  2  0  0  0
 35 45  1  0  0  0
 35 68  1  0  0  0
 36 56  1  0  0  0
 36107  1  0  0  0
 37 39  1  0  0  0
 37 47  1  0  0  0
 37 66  1  0  0  0
 37108  1  0  0  0
 38 43  2  0  0  0
 38 46  1  0  0  0
 38 47  1  0  0  0
 39 64  1  0  0  0
 39 67  2  0  0  0
 40 52  1  0  0  0
 40 53  2  0  0  0
 40 58  1  0  0  0
 41109  1  0  0  0
 41110  1  0  0  0
 41111  1  0  0  0
 41 48  1  0  0  0
 42 43  1  0  0  0
 42 66  1  0  0  0
 42112  1  0  0  0
 42113  1  0  0  0
 43 44  1  0  0  0
 44114  1  0  0  0
 45 46  2  0  0  0
 45115  1  0  0  0
 46116  1  0  0  0
 47117  1  0  0  0
 47118  1  0  0  0
 48 56  1  0  0  0
 48 65  1  0  0  0
 48119  1  0  0  0
 49 50  1  0  0  0
 49 53  1  0  0  0
 49 64  1  0  0  0
 49120  1  0  0  0
 50 51  1  0  0  0
 50121  1  0  0  0
 50122  1  0  0  0
 51 52  1  0  0  0
 51123  1  0  0  0
 51124  1  0  0  0
 52125  1  0  0  0
 52126  1  0  0  0
 53 54  1  0  0  0
 54 55  2  0  0  0
 54127  1  0  0  0
 55 57  1  0  0  0
 55128  1  0  0  0
 56 69  2  0  0  0
 57 58  2  0  0  0
 57129  1  0  0  0
 58130  1  0  0  0
 59 60  1  0  0  0
 59 61  1  0  0  0
 59 62  1  0  0  0
 60131  1  0  0  0
 60132  1  0  0  0
 60133  1  0  0  0
 61134  1  0  0  0
 61135  1  0  0  0
 61136  1  0  0  0
 62137  1  0  0  0
 62138  1  0  0  0
 62139  1  0  0  0
 63 65  1  0  0  0
 63140  1  0  0  0
 63141  1  0  0  0
 63142  1  0  0  0
 64143  1  0  0  0
 65144  1  0  0  0
 68 81  1  0  0  0
 71 73  2  0  0  0
 71 75  1  0  0  0
 71145  1  0  0  0
 72 74  1  0  0  0
 72 75  2  0  0  0
 72146  1  0  0  0
 73 76  1  0  0  0
 73147  1  0  0  0
 74 76  2  0  0  0
 74148  1  0  0  0
 75 83  1  0  0  0
 76 84  1  0  0  0
 77 78  1  0  0  0
 77 79  1  0  0  0
 77 81  2  0  0  0
 78 80  2  0  0  0
 78 82  1  0  0  0
 79 83  1  0  0  0
 79 85  2  0  0  0
 80149  1  0  0  0
 80150  1  0  0  0
 81151  1  0  0  0
 82 83  1  0  0  0
 82152  1  0  0  0
 82153  1  0  0  0
 84154  1  0  0  0
M  ISO  4   1 100  68 101  81 101  84 100
M  END
> <chiral flag>
0

> <version>
0

> <s_m_source_file>
/data/baiqing/PycharmProjects/Reinvent-master-3.2/result/LINK_invent/BTK/process_docking_weight1_custom_product_contain_oxygen_bond_distance_aromatic_linkinvent_7_9_3/rearranged_h_0081.sdf

> <i_m_source_file_index>
56

> <r_mmod_Potential_Energy-OPLS-2005>
213.934326171875

> <r_mmod_Stretch_Energy-OPLS-2005>
95.2703399658203

> <r_mmod_Bend_Energy-OPLS-2005>
196.550979614258

> <r_mmod_Torsional_Energy-OPLS-2005>
248.33805847168

> <r_mmod_Improper_Torsional_Energy-OPLS-2005>
3.60852122306824

> <r_mmod_Van_der_Waal_Energy-OPLS-2005>
142.791061401367

> <r_mmod_Electrostatic_Energy-OPLS-2005>
-326.111236572266

> <r_mmod_Solvation_Energy-OPLS-2005>
-208.393325805664

> <b_mmod_Minimization_Converged-OPLS-2005>
0

> <r_mmod_RMS_Derivative-OPLS-2005>
0.923119783401489

$$$$
56
                    3D
 Structure written by MMmdl.
154163  0  0  1  0            999 V2000
  -30.5721  -14.7496   20.4836 C   0  0  0  0  0  0
  -30.4521  -12.4624   19.4647 C   0  0  0  0  0  0
  -29.5160  -12.5178   18.2352 C   0  0  0  0  0  0
  -28.0411  -12.3355   18.6469 C   0  0  0  0  0  0
  -27.6471  -13.2238   19.8561 C   0  0  2  0  0  0
  -28.6941  -13.1193   20.9874 C   0  0  0  0  0  0
  -25.2518  -13.8157   20.5698 C   0  0  0  0  0  0
  -24.1803  -13.0407   20.9195 C   0  0  0  0  0  0
  -24.6382  -11.6889   20.8724 C   0  0  0  0  0  0
  -23.9051  -10.4277   21.0391 C   0  0  0  0  0  0
  -24.3599   -9.4195   21.9176 C   0  0  0  0  0  0
  -23.6276   -8.2231   22.0746 C   0  0  0  0  0  0
  -22.4262   -8.0268   21.3541 C   0  0  0  0  0  0
  -21.9892   -9.0238   20.4647 C   0  0  0  0  0  0
  -22.7216  -10.2119   20.3051 C   0  0  0  0  0  0
  -21.6846   -6.0734   22.5283 C   0  0  0  0  0  0
  -21.4016   -6.5639   23.8215 C   0  0  0  0  0  0
  -21.3654   -5.6790   24.9177 C   0  0  0  0  0  0
  -21.6040   -4.3052   24.7228 C   0  0  0  0  0  0
  -21.8816   -3.8149   23.4348 C   0  0  0  0  0  0
  -21.9193   -4.6968   22.3406 C   0  0  0  0  0  0
  -22.7829  -13.5207   21.1872 C   0  0  0  0  0  0
  -22.1660   -4.2159   21.0980 F   0  0  0  0  0  0
  -21.5618   -3.4534   25.7734 F   0  0  0  0  0  0
  -29.9986  -13.4983   20.4197 N   0  0  0  0  0  0
  -26.2958  -12.9360   20.3294 N   0  0  0  0  0  0
  -25.9315  -11.6507   20.5730 N   0  0  0  0  0  0
  -22.0469  -12.8214   22.0434 N   0  0  0  0  0  0
  -25.4148  -15.1883   20.4177 N   0  0  0  0  0  0
  -31.7499  -14.9180   20.1508 O   0  0  0  0  0  0
  -21.6622   -6.8871   21.4241 O   0  0  0  0  0  0
  -22.3515  -14.5523   20.6728 O   0  0  0  0  0  0
  -24.6318  -31.8542   23.1987 C   0  0  0  0  0  0
  -25.9140  -32.4749   23.8335 C   0  0  1  0  0  0
  -27.2287  -27.2693   20.1366 C   0  0  0  0  0  0
  -25.5939  -33.8547   24.2260 N   0  0  0  0  0  0
  -23.4303  -30.4755   21.5396 C   0  0  2  0  0  0
  -24.8830  -28.9181   20.1149 C   0  0  0  0  0  0
  -22.7504  -29.4594   22.4900 C   0  0  0  0  0  0
  -18.0293  -28.1390   22.8471 C   0  0  0  0  0  0
  -24.1486  -36.7282   23.2636 C   0  0  0  0  0  0
  -25.9761  -30.7694   21.3791 C   0  0  0  0  0  0
  -26.0537  -29.3893   20.7269 C   0  0  0  0  0  0
  -27.2333  -28.5755   20.7313 C   0  0  0  0  0  0
  -26.0409  -26.8605   19.5012 C   0  0  0  0  0  0
  -24.8804  -27.6599   19.4914 C   0  0  0  0  0  0
  -23.6527  -29.8059   20.1571 C   0  0  0  0  0  0
  -25.4107  -36.3066   24.0328 C   0  0  1  0  0  0
  -20.5895  -28.3701   23.1269 C   0  0  2  0  0  0
  -20.6778  -26.9415   22.5413 C   0  0  0  0  0  0
  -19.5757  -26.6384   21.5207 C   0  0  0  0  0  0
  -18.1934  -26.7928   22.1616 C   0  0  0  0  0  0
  -19.1548  -28.8860   23.2865 C   0  0  0  0  0  0
  -18.9466  -30.1461   23.8884 C   0  0  0  0  0  0
  -17.6462  -30.6583   24.0559 C   0  0  0  0  0  0
  -25.9050  -34.9433   23.5090 C   0  0  0  0  0  0
  -16.5353  -29.9078   23.6331 C   0  0  0  0  0  0
  -16.7279  -28.6502   23.0341 C   0  0  0  0  0  0
  -26.4508  -31.6573   25.0724 C   0  0  0  0  0  0
  -25.3731  -31.3747   26.1451 C   0  0  0  0  0  0
  -27.0332  -30.2972   24.6222 C   0  0  0  0  0  0
  -27.6071  -32.4306   25.7490 C   0  0  0  0  0  0
  -27.5581  -37.1792   24.8460 C   0  0  0  0  0  0
  -21.4206  -29.3046   22.3653 N   0  0  0  0  0  0
  -26.4281  -37.3770   23.9414 N   0  0  0  0  0  0
  -24.6980  -31.0510   22.0958 N   0  0  0  0  0  0
  -23.4204  -28.8127   23.2994 O   0  0  0  0  0  0
  -28.2860  -26.3361   20.1363 O   0  0  0  0  0  0
  -26.5618  -34.8915   22.4657 O   0  0  0  0  0  0
  -23.5468  -32.1358   23.7289 O   0  0  0  0  0  0
  -28.3197  -19.3536   20.3486 C   0  0  0  0  0  0
  -30.7828  -18.1701   20.9546 C   0  0  0  0  0  0
  -29.3576  -20.2511   20.7252 C   0  0  0  0  0  0
  -30.6062  -19.6031   21.0138 C   0  0  0  0  0  0
  -29.7157  -17.2785   20.6361 C   0  0  0  0  0  0
  -28.4915  -17.9312   20.3160 C   0  0  0  0  0  0
  -28.5590  -23.9854   21.2664 C   0  0  0  0  0  0
  -28.5054  -23.3912   22.5959 C   0  0  0  0  0  0
  -28.9125  -22.8492   20.3512 C   0  0  0  0  0  0
  -28.2891  -25.3575   21.1569 C   0  0  0  0  0  0
  -28.8350  -21.9177   22.5131 C   0  0  0  0  0  0
  -29.0658  -21.6695   21.0906 N   0  0  0  0  0  0
  -31.6871  -20.3778   21.4316 N   0  0  0  0  0  0
  -29.7019  -15.7942   20.7409 N   0  0  0  0  0  0
  -28.2473  -23.9555   23.6659 O   0  0  0  0  0  0
  -29.0485  -22.9163   19.1243 O   0  0  0  0  0  0
  -27.4247  -17.1558   20.0075 F   0  0  0  0  0  0
  -31.4874  -12.6192   19.1563 H   0  0  0  0  0  0
  -30.4234  -11.4766   19.9308 H   0  0  0  0  0  0
  -29.7997  -11.7542   17.5093 H   0  0  0  0  0  0
  -29.6339  -13.4774   17.7304 H   0  0  0  0  0  0
  -27.8956  -11.2849   18.8997 H   0  0  0  0  0  0
  -27.3840  -12.5372   17.8005 H   0  0  0  0  0  0
  -27.6462  -14.2499   19.4886 H   0  0  0  0  0  0
  -28.7326  -12.1032   21.3820 H   0  0  0  0  0  0
  -28.4230  -13.7561   21.8311 H   0  0  0  0  0  0
  -25.2744   -9.5670   22.4746 H   0  0  0  0  0  0
  -23.9985   -7.4622   22.7457 H   0  0  0  0  0  0
  -21.0818   -8.8757   19.8952 H   0  0  0  0  0  0
  -22.3670  -10.9654   19.6159 H   0  0  0  0  0  0
  -21.2014   -7.6152   23.9720 H   0  0  0  0  0  0
  -21.1479   -6.0524   25.9080 H   0  0  0  0  0  0
  -22.0606   -2.7616   23.2841 H   0  0  0  0  0  0
  -22.4077  -11.9876   22.4827 H   0  0  0  0  0  0
  -21.1093  -13.1261   22.2647 H   0  0  0  0  0  0
  -24.6413  -15.8296   20.5476 H   0  0  0  0  0  0
  -26.2623  -15.6641   20.1234 H   0  0  0  0  0  0
  -26.7211  -32.5408   23.1084 H   0  0  0  0  0  0
  -25.0098  -33.9672   25.0417 H   0  0  0  0  0  0
  -22.7273  -31.2976   21.3907 H   0  0  0  0  0  0
  -23.3747  -35.9619   23.3285 H   0  0  0  0  0  0
  -24.3593  -36.8910   22.2058 H   0  0  0  0  0  0
  -23.7240  -37.6478   23.6662 H   0  0  0  0  0  0
  -26.1124  -31.5274   20.6066 H   0  0  0  0  0  0
  -26.8545  -30.8231   22.0107 H   0  0  0  0  0  0
  -28.1306  -28.9278   21.2196 H   0  0  0  0  0  0
  -26.0069  -25.8870   19.0326 H   0  0  0  0  0  0
  -23.9844  -27.2899   19.0117 H   0  0  0  0  0  0
  -23.7833  -30.5809   19.4005 H   0  0  0  0  0  0
  -22.7717  -29.2402   19.8474 H   0  0  0  0  0  0
  -25.1289  -36.1908   25.0822 H   0  0  0  0  0  0
  -20.9997  -28.3283   24.1388 H   0  0  0  0  0  0
  -20.5656  -26.2310   23.3620 H   0  0  0  0  0  0
  -21.6648  -26.7419   22.1226 H   0  0  0  0  0  0
  -19.6909  -25.6288   21.1247 H   0  0  0  0  0  0
  -19.6700  -27.3185   20.6729 H   0  0  0  0  0  0
  -17.4207  -26.6677   21.4015 H   0  0  0  0  0  0
  -18.0333  -26.0076   22.9023 H   0  0  0  0  0  0
  -19.7944  -30.7282   24.2251 H   0  0  0  0  0  0
  -17.5017  -31.6259   24.5165 H   0  0  0  0  0  0
  -15.5352  -30.2975   23.7656 H   0  0  0  0  0  0
  -15.8686  -28.0821   22.7050 H   0  0  0  0  0  0
  -24.5924  -30.7058   25.7809 H   0  0  0  0  0  0
  -24.8900  -32.2921   26.4820 H   0  0  0  0  0  0
  -25.8064  -30.8988   27.0256 H   0  0  0  0  0  0
  -26.2908  -29.6732   24.1229 H   0  0  0  0  0  0
  -27.3961  -29.7233   25.4759 H   0  0  0  0  0  0
  -27.8819  -30.4210   23.9491 H   0  0  0  0  0  0
  -27.2685  -33.3609   26.2057 H   0  0  0  0  0  0
  -28.3887  -32.6848   25.0319 H   0  0  0  0  0  0
  -28.0725  -31.8429   26.5412 H   0  0  0  0  0  0
  -28.2587  -38.0100   24.7519 H   0  0  0  0  0  0
  -28.1086  -36.2633   24.6256 H   0  0  0  0  0  0
  -27.2313  -37.1413   25.8866 H   0  0  0  0  0  0
  -20.9396  -29.8792   21.6871 H   0  0  0  0  0  0
  -26.0155  -38.2837   24.1432 H   0  0  0  0  0  0
  -27.3339  -19.7471   20.1509 H   0  0  0  0  0  0
  -31.7378  -17.7440   21.2279 H   0  0  0  0  0  0
  -28.0512  -25.8763   22.0771 H   0  0  0  0  0  0
  -28.0031  -21.3195   22.8863 H   0  0  0  0  0  0
  -29.7245  -21.6957   23.1015 H   0  0  0  0  0  0
  -32.6171  -19.9696   21.4224 H   0  0  0  0  0  0
  -31.6922  -21.3730   21.2344 H   0  0  0  0  0  0
  -28.7700  -15.4429   20.8971 H   0  0  0  0  0  0
  1 25  1  0  0  0
  1 30  2  0  0  0
  1 84  1  0  0  0
  2  3  1  0  0  0
  2 25  1  0  0  0
  2 88  1  0  0  0
  2 89  1  0  0  0
  3  4  1  0  0  0
  3 90  1  0  0  0
  3 91  1  0  0  0
  4  5  1  0  0  0
  4 92  1  0  0  0
  4 93  1  0  0  0
  5  6  1  0  0  0
  5 26  1  0  0  0
  5 94  1  0  0  0
  6 25  1  0  0  0
  6 95  1  0  0  0
  6 96  1  0  0  0
  7  8  2  0  0  0
  7 26  1  0  0  0
  7 29  1  0  0  0
  8  9  1  0  0  0
  8 22  1  0  0  0
  9 10  1  0  0  0
  9 27  2  0  0  0
 10 11  2  0  0  0
 10 15  1  0  0  0
 11 12  1  0  0  0
 11 97  1  0  0  0
 12 13  2  0  0  0
 12 98  1  0  0  0
 13 14  1  0  0  0
 13 31  1  0  0  0
 14 15  2  0  0  0
 14 99  1  0  0  0
 15100  1  0  0  0
 16 17  2  0  0  0
 16 21  1  0  0  0
 16 31  1  0  0  0
 17 18  1  0  0  0
 17101  1  0  0  0
 18 19  2  0  0  0
 18102  1  0  0  0
 19 20  1  0  0  0
 19 24  1  0  0  0
 20 21  2  0  0  0
 20103  1  0  0  0
 21 23  1  0  0  0
 22 28  1  0  0  0
 22 32  2  0  0  0
 26 27  1  0  0  0
 28104  1  0  0  0
 28105  1  0  0  0
 29106  1  0  0  0
 29107  1  0  0  0
 33 34  1  0  0  0
 33 66  1  0  0  0
 33 70  2  0  0  0
 34 36  1  0  0  0
 34 59  1  0  0  0
 34108  1  0  0  0
 35 44  2  0  0  0
 35 45  1  0  0  0
 35 68  1  0  0  0
 36 56  1  0  0  0
 36109  1  0  0  0
 37 39  1  0  0  0
 37 47  1  0  0  0
 37 66  1  0  0  0
 37110  1  0  0  0
 38 43  2  0  0  0
 38 46  1  0  0  0
 38 47  1  0  0  0
 39 64  1  0  0  0
 39 67  2  0  0  0
 40 52  1  0  0  0
 40 53  2  0  0  0
 40 58  1  0  0  0
 41111  1  0  0  0
 41112  1  0  0  0
 41113  1  0  0  0
 41 48  1  0  0  0
 42 43  1  0  0  0
 42 66  1  0  0  0
 42114  1  0  0  0
 42115  1  0  0  0
 43 44  1  0  0  0
 44116  1  0  0  0
 45 46  2  0  0  0
 45117  1  0  0  0
 46118  1  0  0  0
 47119  1  0  0  0
 47120  1  0  0  0
 48 56  1  0  0  0
 48 65  1  0  0  0
 48121  1  0  0  0
 49 50  1  0  0  0
 49 53  1  0  0  0
 49 64  1  0  0  0
 49122  1  0  0  0
 50 51  1  0  0  0
 50123  1  0  0  0
 50124  1  0  0  0
 51 52  1  0  0  0
 51125  1  0  0  0
 51126  1  0  0  0
 52127  1  0  0  0
 52128  1  0  0  0
 53 54  1  0  0  0
 54 55  2  0  0  0
 54129  1  0  0  0
 55 57  1  0  0  0
 55130  1  0  0  0
 56 69  2  0  0  0
 57 58  2  0  0  0
 57131  1  0  0  0
 58132  1  0  0  0
 59 60  1  0  0  0
 59 61  1  0  0  0
 59 62  1  0  0  0
 60133  1  0  0  0
 60134  1  0  0  0
 60135  1  0  0  0
 61136  1  0  0  0
 61137  1  0  0  0
 61138  1  0  0  0
 62139  1  0  0  0
 62140  1  0  0  0
 62141  1  0  0  0
 63 65  1  0  0  0
 63142  1  0  0  0
 63143  1  0  0  0
 63144  1  0  0  0
 64145  1  0  0  0
 65146  1  0  0  0
 68 80  1  0  0  0
 71 73  2  0  0  0
 71 76  1  0  0  0
 71147  1  0  0  0
 72 74  2  0  0  0
 72 75  1  0  0  0
 72148  1  0  0  0
 73 74  1  0  0  0
 73 82  1  0  0  0
 74 83  1  0  0  0
 75 76  2  0  0  0
 75 84  1  0  0  0
 76 87  1  0  0  0
 77 78  1  0  0  0
 77 79  1  0  0  0
 77 80  2  0  0  0
 78 81  1  0  0  0
 78 85  2  0  0  0
 79 82  1  0  0  0
 79 86  2  0  0  0
 80149  1  0  0  0
 81 82  1  0  0  0
 81150  1  0  0  0
 81151  1  0  0  0
 83152  1  0  0  0
 83153  1  0  0  0
 84154  1  0  0  0
M  ISO  4   1 100  68 101  80 101  84 100
M  END
> <chiral flag>
0

> <version>
0

> <s_m_source_file>
/data/baiqing/PycharmProjects/Reinvent-master-3.2/result/LINK_invent/BTK/process_docking_weight1_custom_product_contain_oxygen_bond_distance_aromatic_linkinvent_7_9_3/rearranged_h_0081.sdf

> <i_m_source_file_index>
57

> <r_mmod_Potential_Energy-OPLS-2005>
216.006973266602

> <r_mmod_Stretch_Energy-OPLS-2005>
111.653610229492

> <r_mmod_Bend_Energy-OPLS-2005>
257.957366943359

> <r_mmod_Torsional_Energy-OPLS-2005>
311.857818603516

> <r_mmod_Improper_Torsional_Energy-OPLS-2005>
10.4117259979248

> <r_mmod_Van_der_Waal_Energy-OPLS-2005>
126.407203674316

> <r_mmod_Electrostatic_Energy-OPLS-2005>
-452.438323974609

> <r_mmod_Solvation_Energy-OPLS-2005>
-237.516204833984

> <b_mmod_Minimization_Converged-OPLS-2005>
0

> <r_mmod_RMS_Derivative-OPLS-2005>
1.63393759727478

$$$$
57
                    3D
 Structure written by MMmdl.
154163  0  0  1  0            999 V2000
  -30.5969  -14.8066   20.4355 C   0  0  0  0  0  0
  -30.4359  -12.4899   19.4983 C   0  0  0  0  0  0
  -29.5165  -12.5142   18.2554 C   0  0  0  0  0  0
  -28.0447  -12.3322   18.6657 C   0  0  0  0  0  0
  -27.6440  -13.2407   19.8564 C   0  0  2  0  0  0
  -28.6861  -13.2006   20.9974 C   0  0  0  0  0  0
  -25.2508  -13.8236   20.5683 C   0  0  0  0  0  0
  -24.1798  -13.0468   20.9179 C   0  0  0  0  0  0
  -24.6394  -11.6945   20.8729 C   0  0  0  0  0  0
  -23.9064  -10.4312   21.0392 C   0  0  0  0  0  0
  -24.3610   -9.4225   21.9172 C   0  0  0  0  0  0
  -23.6292   -8.2252   22.0731 C   0  0  0  0  0  0
  -22.4279   -8.0278   21.3516 C   0  0  0  0  0  0
  -21.9915   -9.0255   20.4621 C   0  0  0  0  0  0
  -22.7237  -10.2140   20.3040 C   0  0  0  0  0  0
  -21.6850   -6.0732   22.5273 C   0  0  0  0  0  0
  -21.4012   -6.5631   23.8210 C   0  0  0  0  0  0
  -21.3657   -5.6782   24.9168 C   0  0  0  0  0  0
  -21.6052   -4.3044   24.7218 C   0  0  0  0  0  0
  -21.8817   -3.8135   23.4338 C   0  0  0  0  0  0
  -21.9186   -4.6959   22.3400 C   0  0  0  0  0  0
  -22.7815  -13.5239   21.1834 C   0  0  0  0  0  0
  -22.1651   -4.2137   21.0980 F   0  0  0  0  0  0
  -21.5636   -3.4531   25.7734 F   0  0  0  0  0  0
  -29.9880  -13.5636   20.4226 N   0  0  0  0  0  0
  -26.2952  -12.9451   20.3306 N   0  0  0  0  0  0
  -25.9336  -11.6582   20.5774 N   0  0  0  0  0  0
  -22.0456  -12.8222   22.0380 N   0  0  0  0  0  0
  -25.4244  -15.1959   20.4111 N   0  0  0  0  0  0
  -31.7730  -14.8969   20.0721 O   0  0  0  0  0  0
  -21.6633   -6.8879   21.4231 O   0  0  0  0  0  0
  -22.3499  -14.5549   20.6694 O   0  0  0  0  0  0
  -24.6366  -31.8497   23.1969 C   0  0  0  0  0  0
  -25.9181  -32.4721   23.8314 C   0  0  1  0  0  0
  -27.2101  -27.1938   20.1331 C   0  0  0  0  0  0
  -25.5970  -33.8527   24.2229 N   0  0  0  0  0  0
  -23.4354  -30.4748   21.5416 C   0  0  2  0  0  0
  -24.8836  -28.9201   20.1111 C   0  0  0  0  0  0
  -22.7535  -29.4579   22.4886 C   0  0  0  0  0  0
  -18.0305  -28.1394   22.8483 C   0  0  0  0  0  0
  -24.1505  -36.7253   23.2636 C   0  0  0  0  0  0
  -25.9888  -30.7394   21.3923 C   0  0  0  0  0  0
  -26.0578  -29.3569   20.7374 C   0  0  0  0  0  0
  -27.2178  -28.5025   20.7486 C   0  0  0  0  0  0
  -26.0190  -26.8733   19.4353 C   0  0  0  0  0  0
  -24.8735  -27.6882   19.4493 C   0  0  0  0  0  0
  -23.6576  -29.8121   20.1586 C   0  0  0  0  0  0
  -25.4130  -36.3032   24.0316 C   0  0  1  0  0  0
  -20.5910  -28.3692   23.1258 C   0  0  2  0  0  0
  -20.6779  -26.9406   22.5398 C   0  0  0  0  0  0
  -19.5756  -26.6379   21.5207 C   0  0  0  0  0  0
  -18.1941  -26.7937   22.1620 C   0  0  0  0  0  0
  -19.1560  -28.8863   23.2869 C   0  0  0  0  0  0
  -18.9472  -30.1462   23.8885 C   0  0  0  0  0  0
  -17.6468  -30.6591   24.0551 C   0  0  0  0  0  0
  -25.9082  -34.9411   23.5069 C   0  0  0  0  0  0
  -16.5358  -29.9075   23.6340 C   0  0  0  0  0  0
  -16.7288  -28.6497   23.0354 C   0  0  0  0  0  0
  -26.4532  -31.6562   25.0716 C   0  0  0  0  0  0
  -25.3740  -31.3710   26.1419 C   0  0  0  0  0  0
  -27.0375  -30.2968   24.6249 C   0  0  0  0  0  0
  -27.6099  -32.4288   25.7481 C   0  0  0  0  0  0
  -27.5585  -37.1775   24.8460 C   0  0  0  0  0  0
  -21.4233  -29.3029   22.3636 N   0  0  0  0  0  0
  -26.4284  -37.3746   23.9420 N   0  0  0  0  0  0
  -24.7063  -31.0412   22.0985 N   0  0  0  0  0  0
  -23.4214  -28.8109   23.2998 O   0  0  0  0  0  0
  -28.2744  -26.2343   20.2088 O   0  0  0  0  0  0
  -26.5645  -34.8893   22.4638 O   0  0  0  0  0  0
  -23.5502  -32.1340   23.7233 O   0  0  0  0  0  0
  -29.4488  -19.7011   18.4920 C   0  0  0  0  0  0
  -29.6150  -18.4413   17.8836 C   0  0  0  0  0  0
  -29.6348  -18.6200   20.6628 C   0  0  0  0  0  0
  -29.4447  -19.8625   19.8958 C   0  0  0  0  0  0
  -29.8064  -17.2871   20.0521 C   0  0  0  0  0  0
  -29.7807  -17.2633   18.6359 C   0  0  0  0  0  0
  -28.7867  -23.6514   20.3396 C   0  0  0  0  0  0
  -30.0613  -23.4702   20.9865 C   0  0  0  0  0  0
  -28.3737  -22.2459   19.9886 C   0  0  0  0  0  0
  -30.8428  -24.4633   21.4437 C   0  0  0  0  0  0
  -28.0451  -24.8079   20.0452 C   0  0  0  0  0  0
  -30.4091  -21.9821   21.0742 C   0  0  0  0  0  0
  -29.3093  -21.2859   20.3843 N   0  0  0  0  0  0
  -29.8580  -15.9547   20.7478 N   0  0  0  0  0  0
  -27.3171  -21.9479   19.4215 O   0  0  0  0  0  0
  -29.8620  -16.0886   17.9651 F   0  0  0  0  0  0
  -31.4743  -12.6183   19.1918 H   0  0  0  0  0  0
  -30.3946  -11.5184   19.9936 H   0  0  0  0  0  0
  -29.8061  -11.7314   17.5525 H   0  0  0  0  0  0
  -29.6344  -13.4614   17.7263 H   0  0  0  0  0  0
  -27.9094  -11.2854   18.9384 H   0  0  0  0  0  0
  -27.3867  -12.5126   17.8155 H   0  0  0  0  0  0
  -27.6339  -14.2586   19.4635 H   0  0  0  0  0  0
  -28.7308  -12.2113   21.4558 H   0  0  0  0  0  0
  -28.4077  -13.8919   21.7941 H   0  0  0  0  0  0
  -25.2747   -9.5696   22.4757 H   0  0  0  0  0  0
  -23.9969   -7.4655   22.7475 H   0  0  0  0  0  0
  -21.0830   -8.8786   19.8956 H   0  0  0  0  0  0
  -22.3681  -10.9670   19.6151 H   0  0  0  0  0  0
  -21.2006   -7.6143   23.9700 H   0  0  0  0  0  0
  -21.1481   -6.0519   25.9069 H   0  0  0  0  0  0
  -22.0600   -2.7597   23.2845 H   0  0  0  0  0  0
  -22.4051  -11.9859   22.4739 H   0  0  0  0  0  0
  -21.1087  -13.1259   22.2590 H   0  0  0  0  0  0
  -24.6675  -15.8602   20.5331 H   0  0  0  0  0  0
  -26.2850  -15.6285   20.0982 H   0  0  0  0  0  0
  -26.7248  -32.5342   23.1045 H   0  0  0  0  0  0
  -25.0118  -33.9667   25.0378 H   0  0  0  0  0  0
  -22.7342  -31.2989   21.3949 H   0  0  0  0  0  0
  -23.3777  -35.9577   23.3254 H   0  0  0  0  0  0
  -24.3609  -36.8915   22.2061 H   0  0  0  0  0  0
  -23.7246  -37.6432   23.6696 H   0  0  0  0  0  0
  -26.1379  -31.4942   20.6189 H   0  0  0  0  0  0
  -26.8632  -30.7880   22.0288 H   0  0  0  0  0  0
  -28.1073  -28.8248   21.2747 H   0  0  0  0  0  0
  -25.9105  -25.9683   18.8638 H   0  0  0  0  0  0
  -23.9834  -27.3576   18.9320 H   0  0  0  0  0  0
  -23.7863  -30.5865   19.4017 H   0  0  0  0  0  0
  -22.7749  -29.2478   19.8525 H   0  0  0  0  0  0
  -25.1321  -36.1843   25.0805 H   0  0  0  0  0  0
  -21.0015  -28.3258   24.1375 H   0  0  0  0  0  0
  -20.5651  -26.2307   23.3606 H   0  0  0  0  0  0
  -21.6642  -26.7412   22.1194 H   0  0  0  0  0  0
  -19.6893  -25.6283   21.1247 H   0  0  0  0  0  0
  -19.6688  -27.3183   20.6735 H   0  0  0  0  0  0
  -17.4203  -26.6691   21.4028 H   0  0  0  0  0  0
  -18.0337  -26.0084   22.9020 H   0  0  0  0  0  0
  -19.7945  -30.7289   24.2237 H   0  0  0  0  0  0
  -17.5019  -31.6277   24.5133 H   0  0  0  0  0  0
  -15.5350  -30.2960   23.7685 H   0  0  0  0  0  0
  -15.8695  -28.0809   22.7072 H   0  0  0  0  0  0
  -24.5968  -30.7007   25.7734 H   0  0  0  0  0  0
  -24.8866  -32.2859   26.4800 H   0  0  0  0  0  0
  -25.8037  -30.8919   27.0229 H   0  0  0  0  0  0
  -26.2966  -29.6704   24.1271 H   0  0  0  0  0  0
  -27.4028  -29.7249   25.4792 H   0  0  0  0  0  0
  -27.8870  -30.4211   23.9527 H   0  0  0  0  0  0
  -27.2772  -33.3640   26.2004 H   0  0  0  0  0  0
  -28.3954  -32.6751   25.0317 H   0  0  0  0  0  0
  -28.0739  -31.8428   26.5432 H   0  0  0  0  0  0
  -28.2559  -38.0113   24.7554 H   0  0  0  0  0  0
  -28.1119  -36.2644   24.6225 H   0  0  0  0  0  0
  -27.2308  -37.1335   25.8859 H   0  0  0  0  0  0
  -20.9433  -29.8751   21.6837 H   0  0  0  0  0  0
  -26.0136  -38.2801   24.1453 H   0  0  0  0  0  0
  -29.3378  -20.5640   17.8491 H   0  0  0  0  0  0
  -29.6004  -18.3733   16.8054 H   0  0  0  0  0  0
  -29.6387  -18.6862   21.7420 H   0  0  0  0  0  0
  -30.5527  -25.5003   21.3501 H   0  0  0  0  0  0
  -31.7910  -24.2550   21.9198 H   0  0  0  0  0  0
  -27.1059  -24.6056   19.5684 H   0  0  0  0  0  0
  -30.4768  -21.6565   22.1123 H   0  0  0  0  0  0
  -31.3603  -21.7794   20.5802 H   0  0  0  0  0  0
  -29.0353  -15.7557   21.2960 H   0  0  0  0  0  0
  1 25  1  0  0  0
  1 30  2  0  0  0
  1 84  1  0  0  0
  2  3  1  0  0  0
  2 25  1  0  0  0
  2 87  1  0  0  0
  2 88  1  0  0  0
  3  4  1  0  0  0
  3 89  1  0  0  0
  3 90  1  0  0  0
  4  5  1  0  0  0
  4 91  1  0  0  0
  4 92  1  0  0  0
  5  6  1  0  0  0
  5 26  1  0  0  0
  5 93  1  0  0  0
  6 25  1  0  0  0
  6 94  1  0  0  0
  6 95  1  0  0  0
  7  8  2  0  0  0
  7 26  1  0  0  0
  7 29  1  0  0  0
  8  9  1  0  0  0
  8 22  1  0  0  0
  9 10  1  0  0  0
  9 27  2  0  0  0
 10 11  2  0  0  0
 10 15  1  0  0  0
 11 12  1  0  0  0
 11 96  1  0  0  0
 12 13  2  0  0  0
 12 97  1  0  0  0
 13 14  1  0  0  0
 13 31  1  0  0  0
 14 15  2  0  0  0
 14 98  1  0  0  0
 15 99  1  0  0  0
 16 17  2  0  0  0
 16 21  1  0  0  0
 16 31  1  0  0  0
 17 18  1  0  0  0
 17100  1  0  0  0
 18 19  2  0  0  0
 18101  1  0  0  0
 19 20  1  0  0  0
 19 24  1  0  0  0
 20 21  2  0  0  0
 20102  1  0  0  0
 21 23  1  0  0  0
 22 28  1  0  0  0
 22 32  2  0  0  0
 26 27  1  0  0  0
 28103  1  0  0  0
 28104  1  0  0  0
 29105  1  0  0  0
 29106  1  0  0  0
 33 34  1  0  0  0
 33 66  1  0  0  0
 33 70  2  0  0  0
 34 36  1  0  0  0
 34 59  1  0  0  0
 34107  1  0  0  0
 35 44  2  0  0  0
 35 45  1  0  0  0
 35 68  1  0  0  0
 36 56  1  0  0  0
 36108  1  0  0  0
 37 39  1  0  0  0
 37 47  1  0  0  0
 37 66  1  0  0  0
 37109  1  0  0  0
 38 43  2  0  0  0
 38 46  1  0  0  0
 38 47  1  0  0  0
 39 64  1  0  0  0
 39 67  2  0  0  0
 40 52  1  0  0  0
 40 53  2  0  0  0
 40 58  1  0  0  0
 41110  1  0  0  0
 41111  1  0  0  0
 41112  1  0  0  0
 41 48  1  0  0  0
 42 43  1  0  0  0
 42 66  1  0  0  0
 42113  1  0  0  0
 42114  1  0  0  0
 43 44  1  0  0  0
 44115  1  0  0  0
 45 46  2  0  0  0
 45116  1  0  0  0
 46117  1  0  0  0
 47118  1  0  0  0
 47119  1  0  0  0
 48 56  1  0  0  0
 48 65  1  0  0  0
 48120  1  0  0  0
 49 50  1  0  0  0
 49 53  1  0  0  0
 49 64  1  0  0  0
 49121  1  0  0  0
 50 51  1  0  0  0
 50122  1  0  0  0
 50123  1  0  0  0
 51 52  1  0  0  0
 51124  1  0  0  0
 51125  1  0  0  0
 52126  1  0  0  0
 52127  1  0  0  0
 53 54  1  0  0  0
 54 55  2  0  0  0
 54128  1  0  0  0
 55 57  1  0  0  0
 55129  1  0  0  0
 56 69  2  0  0  0
 57 58  2  0  0  0
 57130  1  0  0  0
 58131  1  0  0  0
 59 60  1  0  0  0
 59 61  1  0  0  0
 59 62  1  0  0  0
 60132  1  0  0  0
 60133  1  0  0  0
 60134  1  0  0  0
 61135  1  0  0  0
 61136  1  0  0  0
 61137  1  0  0  0
 62138  1  0  0  0
 62139  1  0  0  0
 62140  1  0  0  0
 63 65  1  0  0  0
 63141  1  0  0  0
 63142  1  0  0  0
 63143  1  0  0  0
 64144  1  0  0  0
 65145  1  0  0  0
 68 81  1  0  0  0
 71 72  2  0  0  0
 71 74  1  0  0  0
 71146  1  0  0  0
 72 76  1  0  0  0
 72147  1  0  0  0
 73 74  2  0  0  0
 73 75  1  0  0  0
 73148  1  0  0  0
 74 83  1  0  0  0
 75 76  2  0  0  0
 75 84  1  0  0  0
 76 86  1  0  0  0
 77 78  1  0  0  0
 77 79  1  0  0  0
 77 81  2  0  0  0
 78 80  2  0  0  0
 78 82  1  0  0  0
 79 83  1  0  0  0
 79 85  2  0  0  0
 80149  1  0  0  0
 80150  1  0  0  0
 81151  1  0  0  0
 82 83  1  0  0  0
 82152  1  0  0  0
 82153  1  0  0  0
 84154  1  0  0  0
M  ISO  4   1 100  68 101  81 101  84 100
M  END
> <chiral flag>
0

> <version>
0

> <s_m_source_file>
/data/baiqing/PycharmProjects/Reinvent-master-3.2/result/LINK_invent/BTK/process_docking_weight1_custom_product_contain_oxygen_bond_distance_aromatic_linkinvent_7_9_3/rearranged_h_0081.sdf

> <i_m_source_file_index>
58

> <r_mmod_Potential_Energy-OPLS-2005>
404.398101806641

> <r_mmod_Stretch_Energy-OPLS-2005>
158.913345336914

> <r_mmod_Bend_Energy-OPLS-2005>
229.529342651367

> <r_mmod_Torsional_Energy-OPLS-2005>
309.944000244141

> <r_mmod_Improper_Torsional_Energy-OPLS-2005>
5.29987716674805

> <r_mmod_Van_der_Waal_Energy-OPLS-2005>
139.738693237305

> <r_mmod_Electrostatic_Energy-OPLS-2005>
-347.566619873047

> <r_mmod_Solvation_Energy-OPLS-2005>
-215.776580810547

> <b_mmod_Minimization_Converged-OPLS-2005>
0

> <r_mmod_RMS_Derivative-OPLS-2005>
2.20989060401917

$$$$
58
                    3D
 Structure written by MMmdl.
153162  0  0  1  0            999 V2000
  -30.6201  -14.7428   20.5604 C   0  0  0  0  0  0
  -30.4409  -12.4775   19.4711 C   0  0  0  0  0  0
  -29.5137  -12.5333   18.2356 C   0  0  0  0  0  0
  -28.0400  -12.3431   18.6425 C   0  0  0  0  0  0
  -27.6467  -13.2263   19.8536 C   0  0  2  0  0  0
  -28.6840  -13.1124   20.9864 C   0  0  0  0  0  0
  -25.2538  -13.8186   20.5684 C   0  0  0  0  0  0
  -24.1814  -13.0439   20.9183 C   0  0  0  0  0  0
  -24.6395  -11.6913   20.8722 C   0  0  0  0  0  0
  -23.9069  -10.4293   21.0396 C   0  0  0  0  0  0
  -24.3620   -9.4211   21.9178 C   0  0  0  0  0  0
  -23.6294   -8.2247   22.0752 C   0  0  0  0  0  0
  -22.4277   -8.0282   21.3543 C   0  0  0  0  0  0
  -21.9909   -9.0255   20.4646 C   0  0  0  0  0  0
  -22.7237  -10.2134   20.3050 C   0  0  0  0  0  0
  -21.6854   -6.0736   22.5279 C   0  0  0  0  0  0
  -21.4016   -6.5640   23.8213 C   0  0  0  0  0  0
  -21.3659   -5.6792   24.9174 C   0  0  0  0  0  0
  -21.6044   -4.3054   24.7226 C   0  0  0  0  0  0
  -21.8819   -3.8146   23.4346 C   0  0  0  0  0  0
  -21.9194   -4.6963   22.3402 C   0  0  0  0  0  0
  -22.7839  -13.5227   21.1861 C   0  0  0  0  0  0
  -22.1662   -4.2148   21.0980 F   0  0  0  0  0  0
  -21.5628   -3.4539   25.7738 F   0  0  0  0  0  0
  -29.9938  -13.5107   20.4407 N   0  0  0  0  0  0
  -26.2953  -12.9378   20.3253 N   0  0  0  0  0  0
  -25.9321  -11.6524   20.5708 N   0  0  0  0  0  0
  -22.0491  -12.8216   22.0421 N   0  0  0  0  0  0
  -25.4260  -15.1912   20.4153 N   0  0  0  0  0  0
  -31.7275  -14.9078   20.0364 O   0  0  0  0  0  0
  -21.6640   -6.8879   21.4240 O   0  0  0  0  0  0
  -22.3518  -14.5530   20.6710 O   0  0  0  0  0  0
  -24.6329  -31.8541   23.1977 C   0  0  0  0  0  0
  -25.9146  -32.4750   23.8329 C   0  0  1  0  0  0
  -27.2222  -27.2553   20.1296 C   0  0  0  0  0  0
  -25.5935  -33.8552   24.2251 N   0  0  0  0  0  0
  -23.4314  -30.4762   21.5411 C   0  0  2  0  0  0
  -24.8823  -28.9238   20.1087 C   0  0  0  0  0  0
  -22.7517  -29.4590   22.4900 C   0  0  0  0  0  0
  -18.0296  -28.1386   22.8484 C   0  0  0  0  0  0
  -24.1491  -36.7280   23.2639 C   0  0  0  0  0  0
  -25.9790  -30.7640   21.3814 C   0  0  0  0  0  0
  -26.0549  -29.3861   20.7225 C   0  0  0  0  0  0
  -27.2307  -28.5634   20.7250 C   0  0  0  0  0  0
  -26.0312  -26.8673   19.4800 C   0  0  0  0  0  0
  -24.8756  -27.6719   19.4756 C   0  0  0  0  0  0
  -23.6523  -29.8109   20.1572 C   0  0  0  0  0  0
  -25.4118  -36.3066   24.0325 C   0  0  1  0  0  0
  -20.5902  -28.3698   23.1261 C   0  0  2  0  0  0
  -20.6784  -26.9413   22.5404 C   0  0  0  0  0  0
  -19.5757  -26.6381   21.5210 C   0  0  0  0  0  0
  -18.1939  -26.7925   22.1627 C   0  0  0  0  0  0
  -19.1551  -28.8860   23.2866 C   0  0  0  0  0  0
  -18.9471  -30.1460   23.8885 C   0  0  0  0  0  0
  -17.6469  -30.6584   24.0561 C   0  0  0  0  0  0
  -25.9059  -34.9436   23.5092 C   0  0  0  0  0  0
  -16.5360  -29.9080   23.6332 C   0  0  0  0  0  0
  -16.7282  -28.6498   23.0352 C   0  0  0  0  0  0
  -26.4507  -31.6578   25.0723 C   0  0  0  0  0  0
  -25.3724  -31.3736   26.1439 C   0  0  0  0  0  0
  -27.0360  -30.2991   24.6225 C   0  0  0  0  0  0
  -27.6055  -32.4326   25.7499 C   0  0  0  0  0  0
  -27.5581  -37.1793   24.8464 C   0  0  0  0  0  0
  -21.4220  -29.3040   22.3647 N   0  0  0  0  0  0
  -26.4289  -37.3769   23.9411 N   0  0  0  0  0  0
  -24.7000  -31.0493   22.0963 N   0  0  0  0  0  0
  -23.4207  -28.8133   23.3008 O   0  0  0  0  0  0
  -28.2679  -26.2997   20.1737 O   0  0  0  0  0  0
  -26.5634  -34.8916   22.4664 O   0  0  0  0  0  0
  -23.5473  -32.1367   23.7260 O   0  0  0  0  0  0
  -28.4623  -19.3239   21.4986 C   0  0  0  0  0  0
  -30.1421  -19.4723   19.8723 C   0  0  0  0  0  0
  -28.7180  -17.9249   21.6501 C   0  0  0  0  0  0
  -30.4105  -18.0516   20.0047 C   0  0  0  0  0  0
  -29.1603  -20.2085   20.6238 C   0  0  0  0  0  0
  -29.7205  -17.2095   20.9326 C   0  0  0  0  0  0
  -28.4015  -23.7081   20.5747 C   0  0  0  0  0  0
  -27.8899  -22.5170   21.2481 C   0  0  0  0  0  0
  -27.9329  -25.0191   20.7147 C   0  0  0  0  0  0
  -29.4465  -22.7980   19.8532 C   0  0  0  0  0  0
  -29.9456  -15.5073   22.7303 C   0  0  0  0  0  0
  -28.8089  -21.6657   20.5959 N   0  0  0  0  0  0
  -30.0017  -15.7713   21.2804 N   0  0  0  0  0  0
  -27.0028  -22.3911   22.0667 O   0  0  0  0  0  0
  -31.4784  -12.6205   19.1648 H   0  0  0  0  0  0
  -30.4067  -11.4890   19.9318 H   0  0  0  0  0  0
  -29.8030  -11.7700   17.5118 H   0  0  0  0  0  0
  -29.6330  -13.4938   17.7317 H   0  0  0  0  0  0
  -27.8990  -11.2911   18.8928 H   0  0  0  0  0  0
  -27.3827  -12.5443   17.7959 H   0  0  0  0  0  0
  -27.6560  -14.2582   19.5015 H   0  0  0  0  0  0
  -28.7263  -12.0918   21.3691 H   0  0  0  0  0  0
  -28.3645  -13.7228   21.8258 H   0  0  0  0  0  0
  -25.2767   -9.5686   22.4752 H   0  0  0  0  0  0
  -24.0003   -7.4639   22.7472 H   0  0  0  0  0  0
  -21.0840   -8.8773   19.8955 H   0  0  0  0  0  0
  -22.3694  -10.9671   19.6159 H   0  0  0  0  0  0
  -21.2010   -7.6148   23.9715 H   0  0  0  0  0  0
  -21.1482   -6.0523   25.9077 H   0  0  0  0  0  0
  -22.0599   -2.7608   23.2848 H   0  0  0  0  0  0
  -22.4110  -11.9875   22.4804 H   0  0  0  0  0  0
  -21.1111  -13.1239   22.2637 H   0  0  0  0  0  0
  -24.6659  -15.8507   20.5402 H   0  0  0  0  0  0
  -26.2887  -15.6320   20.1215 H   0  0  0  0  0  0
  -26.7212  -32.5402   23.1070 H   0  0  0  0  0  0
  -25.0071  -33.9686   25.0389 H   0  0  0  0  0  0
  -22.7280  -31.2986   21.3941 H   0  0  0  0  0  0
  -23.3756  -35.9610   23.3295 H   0  0  0  0  0  0
  -24.3582  -36.8911   22.2054 H   0  0  0  0  0  0
  -23.7241  -37.6478   23.6670 H   0  0  0  0  0  0
  -26.1209  -31.5252   20.6128 H   0  0  0  0  0  0
  -26.8547  -30.8122   22.0169 H   0  0  0  0  0  0
  -28.1257  -28.9068   21.2246 H   0  0  0  0  0  0
  -25.9820  -25.9012   18.9971 H   0  0  0  0  0  0
  -23.9794  -27.3124   18.9884 H   0  0  0  0  0  0
  -23.7776  -30.5884   19.4027 H   0  0  0  0  0  0
  -22.7704  -29.2455   19.8503 H   0  0  0  0  0  0
  -25.1299  -36.1908   25.0817 H   0  0  0  0  0  0
  -20.9996  -28.3279   24.1382 H   0  0  0  0  0  0
  -20.5682  -26.2310   23.3611 H   0  0  0  0  0  0
  -21.6652  -26.7431   22.1199 H   0  0  0  0  0  0
  -19.6918  -25.6289   21.1244 H   0  0  0  0  0  0
  -19.6690  -27.3189   20.6739 H   0  0  0  0  0  0
  -17.4205  -26.6665   21.4033 H   0  0  0  0  0  0
  -18.0344  -26.0069   22.9027 H   0  0  0  0  0  0
  -19.7947  -30.7281   24.2246 H   0  0  0  0  0  0
  -17.5022  -31.6264   24.5165 H   0  0  0  0  0  0
  -15.5359  -30.2977   23.7660 H   0  0  0  0  0  0
  -15.8683  -28.0812   22.7072 H   0  0  0  0  0  0
  -24.5894  -30.7093   25.7763 H   0  0  0  0  0  0
  -24.8923  -32.2911   26.4854 H   0  0  0  0  0  0
  -25.8031  -30.8914   27.0222 H   0  0  0  0  0  0
  -26.2951  -29.6730   24.1239 H   0  0  0  0  0  0
  -27.4021  -29.7262   25.4756 H   0  0  0  0  0  0
  -27.8839  -30.4258   23.9491 H   0  0  0  0  0  0
  -27.2656  -33.3631   26.2061 H   0  0  0  0  0  0
  -28.3874  -32.6880   25.0334 H   0  0  0  0  0  0
  -28.0715  -31.8462   26.5430 H   0  0  0  0  0  0
  -28.2588  -38.0101   24.7526 H   0  0  0  0  0  0
  -28.1088  -36.2633   24.6272 H   0  0  0  0  0  0
  -27.2301  -37.1417   25.8867 H   0  0  0  0  0  0
  -20.9411  -29.8762   21.6849 H   0  0  0  0  0  0
  -26.0165  -38.2840   24.1421 H   0  0  0  0  0  0
  -27.6791  -19.7362   22.1189 H   0  0  0  0  0  0
  -30.7400  -20.0221   19.1592 H   0  0  0  0  0  0
  -28.1084  -17.4021   22.3717 H   0  0  0  0  0  0
  -31.2008  -17.6242   19.4039 H   0  0  0  0  0  0
  -27.1097  -25.1461   21.4060 H   0  0  0  0  0  0
  -30.4952  -22.9217   20.1288 H   0  0  0  0  0  0
  -29.3508  -22.6778   18.7730 H   0  0  0  0  0  0
  -28.9180  -15.4730   23.0912 H   0  0  0  0  0  0
  -30.4614  -16.2986   23.2761 H   0  0  0  0  0  0
  -30.4207  -14.5694   23.0288 H   0  0  0  0  0  0
  1 25  1  0  0  0
  1 30  2  0  0  0
  1 83  1  0  0  0
  2  3  1  0  0  0
  2 25  1  0  0  0
  2 85  1  0  0  0
  2 86  1  0  0  0
  3  4  1  0  0  0
  3 87  1  0  0  0
  3 88  1  0  0  0
  4  5  1  0  0  0
  4 89  1  0  0  0
  4 90  1  0  0  0
  5  6  1  0  0  0
  5 26  1  0  0  0
  5 91  1  0  0  0
  6 25  1  0  0  0
  6 92  1  0  0  0
  6 93  1  0  0  0
  7  8  2  0  0  0
  7 26  1  0  0  0
  7 29  1  0  0  0
  8  9  1  0  0  0
  8 22  1  0  0  0
  9 10  1  0  0  0
  9 27  2  0  0  0
 10 11  2  0  0  0
 10 15  1  0  0  0
 11 12  1  0  0  0
 11 94  1  0  0  0
 12 13  2  0  0  0
 12 95  1  0  0  0
 13 14  1  0  0  0
 13 31  1  0  0  0
 14 15  2  0  0  0
 14 96  1  0  0  0
 15 97  1  0  0  0
 16 17  2  0  0  0
 16 21  1  0  0  0
 16 31  1  0  0  0
 17 18  1  0  0  0
 17 98  1  0  0  0
 18 19  2  0  0  0
 18 99  1  0  0  0
 19 20  1  0  0  0
 19 24  1  0  0  0
 20 21  2  0  0  0
 20100  1  0  0  0
 21 23  1  0  0  0
 22 28  1  0  0  0
 22 32  2  0  0  0
 26 27  1  0  0  0
 28101  1  0  0  0
 28102  1  0  0  0
 29103  1  0  0  0
 29104  1  0  0  0
 33 34  1  0  0  0
 33 66  1  0  0  0
 33 70  2  0  0  0
 34 36  1  0  0  0
 34 59  1  0  0  0
 34105  1  0  0  0
 35 44  2  0  0  0
 35 45  1  0  0  0
 35 68  1  0  0  0
 36 56  1  0  0  0
 36106  1  0  0  0
 37 39  1  0  0  0
 37 47  1  0  0  0
 37 66  1  0  0  0
 37107  1  0  0  0
 38 43  2  0  0  0
 38 46  1  0  0  0
 38 47  1  0  0  0
 39 64  1  0  0  0
 39 67  2  0  0  0
 40 52  1  0  0  0
 40 53  2  0  0  0
 40 58  1  0  0  0
 41108  1  0  0  0
 41109  1  0  0  0
 41110  1  0  0  0
 41 48  1  0  0  0
 42 43  1  0  0  0
 42 66  1  0  0  0
 42111  1  0  0  0
 42112  1  0  0  0
 43 44  1  0  0  0
 44113  1  0  0  0
 45 46  2  0  0  0
 45114  1  0  0  0
 46115  1  0  0  0
 47116  1  0  0  0
 47117  1  0  0  0
 48 56  1  0  0  0
 48 65  1  0  0  0
 48118  1  0  0  0
 49 50  1  0  0  0
 49 53  1  0  0  0
 49 64  1  0  0  0
 49119  1  0  0  0
 50 51  1  0  0  0
 50120  1  0  0  0
 50121  1  0  0  0
 51 52  1  0  0  0
 51122  1  0  0  0
 51123  1  0  0  0
 52124  1  0  0  0
 52125  1  0  0  0
 53 54  1  0  0  0
 54 55  2  0  0  0
 54126  1  0  0  0
 55 57  1  0  0  0
 55127  1  0  0  0
 56 69  2  0  0  0
 57 58  2  0  0  0
 57128  1  0  0  0
 58129  1  0  0  0
 59 60  1  0  0  0
 59 61  1  0  0  0
 59 62  1  0  0  0
 60130  1  0  0  0
 60131  1  0  0  0
 60132  1  0  0  0
 61133  1  0  0  0
 61134  1  0  0  0
 61135  1  0  0  0
 62136  1  0  0  0
 62137  1  0  0  0
 62138  1  0  0  0
 63 65  1  0  0  0
 63139  1  0  0  0
 63140  1  0  0  0
 63141  1  0  0  0
 64142  1  0  0  0
 65143  1  0  0  0
 68 79  1  0  0  0
 71 73  2  0  0  0
 71 75  1  0  0  0
 71144  1  0  0  0
 72 74  1  0  0  0
 72 75  2  0  0  0
 72145  1  0  0  0
 73 76  1  0  0  0
 73146  1  0  0  0
 74 76  2  0  0  0
 74147  1  0  0  0
 75 82  1  0  0  0
 76 83  1  0  0  0
 77 78  1  0  0  0
 77 79  2  0  0  0
 77 80  1  0  0  0
 78 82  1  0  0  0
 78 84  2  0  0  0
 79148  1  0  0  0
 80 82  1  0  0  0
 80149  1  0  0  0
 80150  1  0  0  0
 81 83  1  0  0  0
 81151  1  0  0  0
 81152  1  0  0  0
 81153  1  0  0  0
M  ISO  4   1 100  68 101  79 101  83 100
M  END
> <chiral flag>
0

> <version>
0

> <s_m_source_file>
/data/baiqing/PycharmProjects/Reinvent-master-3.2/result/LINK_invent/BTK/process_docking_weight1_custom_product_contain_oxygen_bond_distance_aromatic_linkinvent_7_9_3/rearranged_h_0081.sdf

> <i_m_source_file_index>
59

> <r_mmod_Potential_Energy-OPLS-2005>
417.574005126953

> <r_mmod_Stretch_Energy-OPLS-2005>
124.237243652344

> <r_mmod_Bend_Energy-OPLS-2005>
278.404113769531

> <r_mmod_Torsional_Energy-OPLS-2005>
292.422821044922

> <r_mmod_Improper_Torsional_Energy-OPLS-2005>
2.89756560325623

> <r_mmod_Van_der_Waal_Energy-OPLS-2005>
144.645156860352

> <r_mmod_Electrostatic_Energy-OPLS-2005>
-315.185516357422

> <r_mmod_Solvation_Energy-OPLS-2005>
-199.274002075195

> <b_mmod_Minimization_Converged-OPLS-2005>
0

> <r_mmod_RMS_Derivative-OPLS-2005>
0.513918399810791

$$$$
59
                    3D
 Structure written by MMmdl.
157165  0  0  1  0            999 V2000
  -30.6821  -14.5249   20.6013 C   0  0  0  0  0  0
  -30.4388  -12.3460   19.4523 C   0  0  0  0  0  0
  -29.5209  -12.5318   18.2218 C   0  0  0  0  0  0
  -28.0342  -12.3945   18.6100 C   0  0  0  0  0  0
  -27.6664  -13.2129   19.8784 C   0  0  2  0  0  0
  -28.7020  -13.0042   21.0068 C   0  0  0  0  0  0
  -25.2612  -13.8181   20.5658 C   0  0  0  0  0  0
  -24.1859  -13.0444   20.9141 C   0  0  0  0  0  0
  -24.6424  -11.6920   20.8686 C   0  0  0  0  0  0
  -23.9107  -10.4302   21.0378 C   0  0  0  0  0  0
  -24.3640   -9.4211   21.9162 C   0  0  0  0  0  0
  -23.6306   -8.2253   22.0761 C   0  0  0  0  0  0
  -22.4278   -8.0306   21.3565 C   0  0  0  0  0  0
  -21.9918   -9.0281   20.4672 C   0  0  0  0  0  0
  -22.7257  -10.2153   20.3052 C   0  0  0  0  0  0
  -21.6874   -6.0740   22.5281 C   0  0  0  0  0  0
  -21.4013   -6.5636   23.8197 C   0  0  0  0  0  0
  -21.3648   -5.6781   24.9153 C   0  0  0  0  0  0
  -21.6047   -4.3052   24.7213 C   0  0  0  0  0  0
  -21.8824   -3.8152   23.4330 C   0  0  0  0  0  0
  -21.9186   -4.6969   22.3385 C   0  0  0  0  0  0
  -22.7873  -13.5263   21.1757 C   0  0  0  0  0  0
  -22.1663   -4.2152   21.0970 F   0  0  0  0  0  0
  -21.5619   -3.4533   25.7716 F   0  0  0  0  0  0
  -30.0378  -13.3273   20.4778 N   0  0  0  0  0  0
  -26.3053  -12.9359   20.3331 N   0  0  0  0  0  0
  -25.9351  -11.6524   20.5716 N   0  0  0  0  0  0
  -22.0476  -12.8316   22.0325 N   0  0  0  0  0  0
  -25.4350  -15.1892   20.4172 N   0  0  0  0  0  0
  -31.7789  -14.7425   20.0752 O   0  0  0  0  0  0
  -21.6653   -6.8891   21.4253 O   0  0  0  0  0  0
  -22.3570  -14.5540   20.6551 O   0  0  0  0  0  0
  -24.6207  -31.8634   23.2021 C   0  0  0  0  0  0
  -25.9077  -32.4804   23.8369 C   0  0  1  0  0  0
  -27.2237  -27.3534   20.1367 C   0  0  0  0  0  0
  -25.5908  -33.8600   24.2320 N   0  0  0  0  0  0
  -23.4114  -30.4869   21.5398 C   0  0  2  0  0  0
  -24.8546  -28.9376   20.1056 C   0  0  0  0  0  0
  -22.7433  -29.4670   22.4917 C   0  0  0  0  0  0
  -18.0283  -28.1350   22.8521 C   0  0  0  0  0  0
  -24.1477  -36.7285   23.2648 C   0  0  0  0  0  0
  -25.9437  -30.8051   21.3618 C   0  0  0  0  0  0
  -26.0154  -29.4304   20.7164 C   0  0  0  0  0  0
  -27.1953  -28.6431   20.7337 C   0  0  0  0  0  0
  -26.0484  -26.8989   19.4941 C   0  0  0  0  0  0
  -24.8732  -27.6759   19.4830 C   0  0  0  0  0  0
  -23.6202  -29.8136   20.1535 C   0  0  0  0  0  0
  -25.4106  -36.3099   24.0351 C   0  0  1  0  0  0
  -20.5880  -28.3661   23.1260 C   0  0  2  0  0  0
  -20.6745  -26.9382   22.5396 C   0  0  0  0  0  0
  -19.5721  -26.6361   21.5193 C   0  0  0  0  0  0
  -18.1899  -26.7903   22.1622 C   0  0  0  0  0  0
  -19.1537  -28.8815   23.2895 C   0  0  0  0  0  0
  -18.9474  -30.1418   23.8924 C   0  0  0  0  0  0
  -17.6479  -30.6558   24.0567 C   0  0  0  0  0  0
  -25.9057  -34.9464   23.5133 C   0  0  0  0  0  0
  -16.5367  -29.9071   23.6317 C   0  0  0  0  0  0
  -16.7276  -28.6461   23.0386 C   0  0  0  0  0  0
  -26.4495  -31.6595   25.0717 C   0  0  0  0  0  0
  -25.3767  -31.3683   26.1461 C   0  0  0  0  0  0
  -27.0365  -30.3066   24.6089 C   0  0  0  0  0  0
  -27.6082  -32.4312   25.7461 C   0  0  0  0  0  0
  -27.5565  -37.1817   24.8482 C   0  0  0  0  0  0
  -21.4136  -29.3062   22.3668 N   0  0  0  0  0  0
  -26.4288  -37.3791   23.9418 N   0  0  0  0  0  0
  -24.6777  -31.0690   22.0936 N   0  0  0  0  0  0
  -23.4183  -28.8222   23.2985 O   0  0  0  0  0  0
  -28.3773  -26.5790   20.2332 O   0  0  0  0  0  0
  -26.5619  -34.8931   22.4706 O   0  0  0  0  0  0
  -23.5369  -32.1406   23.7357 O   0  0  0  0  0  0
  -28.6625  -17.9832   18.7991 C   0  0  0  0  0  0
  -28.7629  -19.2003   19.4939 C   0  0  0  0  0  0
  -29.1202  -16.7914   19.3773 C   0  0  0  0  0  0
  -29.7455  -18.0218   21.3906 C   0  0  0  0  0  0
  -29.3153  -19.2568   20.7911 C   0  0  0  0  0  0
  -29.6596  -16.7800   20.6822 C   0  0  0  0  0  0
  -29.5043  -20.6190   21.4569 C   0  0  0  0  0  0
  -28.9292  -22.9512   21.1300 C   0  0  0  0  0  0
  -27.9541  -24.0567   20.6204 C   0  0  0  0  0  0
  -30.0713  -23.6108   23.3580 C   0  0  0  0  0  0
  -30.1747  -23.5413   21.8179 C   0  0  0  0  0  0
  -28.4650  -25.2192   19.6975 C   0  0  0  0  0  0
  -28.6736  -21.6731   21.0014 N   0  0  0  0  0  0
  -30.0130  -15.5076   21.2602 N   0  0  0  0  0  0
  -30.3625  -20.6840   22.3371 O   0  0  0  0  0  0
  -26.7408  -23.9646   20.8419 O   0  0  0  0  0  0
  -31.4879  -12.4470   19.1650 H   0  0  0  0  0  0
  -30.3481  -11.3363   19.8531 H   0  0  0  0  0  0
  -29.7717  -11.8065   17.4455 H   0  0  0  0  0  0
  -29.6984  -13.5134   17.7771 H   0  0  0  0  0  0
  -27.8230  -11.3385   18.7753 H   0  0  0  0  0  0
  -27.4045  -12.7000   17.7710 H   0  0  0  0  0  0
  -27.7024  -14.2618   19.5930 H   0  0  0  0  0  0
  -28.6899  -11.9671   21.3441 H   0  0  0  0  0  0
  -28.4421  -13.5999   21.8825 H   0  0  0  0  0  0
  -25.2794   -9.5675   22.4725 H   0  0  0  0  0  0
  -24.0008   -7.4653   22.7487 H   0  0  0  0  0  0
  -21.0834   -8.8820   19.9003 H   0  0  0  0  0  0
  -22.3732  -10.9682   19.6150 H   0  0  0  0  0  0
  -21.2034   -7.6151   23.9714 H   0  0  0  0  0  0
  -21.1450   -6.0503   25.9047 H   0  0  0  0  0  0
  -22.0620   -2.7632   23.2825 H   0  0  0  0  0  0
  -22.4089  -12.0059   22.4860 H   0  0  0  0  0  0
  -21.1087  -13.1383   22.2422 H   0  0  0  0  0  0
  -24.6741  -15.8489   20.5402 H   0  0  0  0  0  0
  -26.3016  -15.6355   20.1434 H   0  0  0  0  0  0
  -26.7158  -32.5517   23.1134 H   0  0  0  0  0  0
  -25.0132  -33.9791   25.0498 H   0  0  0  0  0  0
  -22.7106  -31.3090   21.3956 H   0  0  0  0  0  0
  -23.3734  -35.9626   23.3344 H   0  0  0  0  0  0
  -24.3558  -36.8853   22.2054 H   0  0  0  0  0  0
  -23.7236  -37.6502   23.6638 H   0  0  0  0  0  0
  -26.0646  -31.5565   20.5801 H   0  0  0  0  0  0
  -26.8309  -30.8680   21.9785 H   0  0  0  0  0  0
  -28.0806  -29.0103   21.2335 H   0  0  0  0  0  0
  -26.0094  -25.9315   19.0155 H   0  0  0  0  0  0
  -23.9859  -27.2923   18.9943 H   0  0  0  0  0  0
  -23.7368  -30.5842   19.3896 H   0  0  0  0  0  0
  -22.7424  -29.2366   19.8580 H   0  0  0  0  0  0
  -25.1282  -36.1958   25.0845 H   0  0  0  0  0  0
  -21.0054  -28.3225   24.1343 H   0  0  0  0  0  0
  -20.5499  -26.2341   23.3637 H   0  0  0  0  0  0
  -21.6633  -26.7304   22.1291 H   0  0  0  0  0  0
  -19.6865  -25.6262   21.1224 H   0  0  0  0  0  0
  -19.6612  -27.3174   20.6706 H   0  0  0  0  0  0
  -17.4186  -26.6689   21.3996 H   0  0  0  0  0  0
  -18.0266  -26.0012   22.8963 H   0  0  0  0  0  0
  -19.7958  -30.7201   24.2317 H   0  0  0  0  0  0
  -17.5044  -31.6248   24.5156 H   0  0  0  0  0  0
  -15.5368  -30.2993   23.7586 H   0  0  0  0  0  0
  -15.8682  -28.0747   22.7139 H   0  0  0  0  0  0
  -24.5921  -30.7072   25.7754 H   0  0  0  0  0  0
  -24.8993  -32.2846   26.4952 H   0  0  0  0  0  0
  -25.8115  -30.8795   27.0182 H   0  0  0  0  0  0
  -26.2916  -29.6795   24.1185 H   0  0  0  0  0  0
  -27.4220  -29.7328   25.4506 H   0  0  0  0  0  0
  -27.8696  -30.4421   23.9197 H   0  0  0  0  0  0
  -27.2731  -33.3588   26.2081 H   0  0  0  0  0  0
  -28.3857  -32.6893   25.0273 H   0  0  0  0  0  0
  -28.0811  -31.8429   26.5327 H   0  0  0  0  0  0
  -28.2643  -38.0053   24.7495 H   0  0  0  0  0  0
  -28.1005  -36.2605   24.6344 H   0  0  0  0  0  0
  -27.2311  -37.1500   25.8896 H   0  0  0  0  0  0
  -20.9266  -29.8889   21.6989 H   0  0  0  0  0  0
  -26.0163  -38.2870   24.1374 H   0  0  0  0  0  0
  -28.2335  -17.9654   17.8089 H   0  0  0  0  0  0
  -28.4177  -20.0986   19.0046 H   0  0  0  0  0  0
  -29.0340  -15.8813   18.7997 H   0  0  0  0  0  0
  -30.1636  -18.0280   22.3888 H   0  0  0  0  0  0
  -30.0175  -22.6318   23.8342 H   0  0  0  0  0  0
  -29.1920  -24.1749   23.6705 H   0  0  0  0  0  0
  -30.9411  -24.1176   23.7780 H   0  0  0  0  0  0
  -30.3436  -24.5602   21.4709 H   0  0  0  0  0  0
  -31.0657  -22.9946   21.5130 H   0  0  0  0  0  0
  -29.5106  -25.0236   19.4698 H   0  0  0  0  0  0
  -27.9545  -25.1563   18.7371 H   0  0  0  0  0  0
  -29.3287  -15.1491   21.9095 H   0  0  0  0  0  0
  1 25  1  0  0  0
  1 30  2  0  0  0
  1 84  1  0  0  0
  2  3  1  0  0  0
  2 25  1  0  0  0
  2 87  1  0  0  0
  2 88  1  0  0  0
  3  4  1  0  0  0
  3 89  1  0  0  0
  3 90  1  0  0  0
  4  5  1  0  0  0
  4 91  1  0  0  0
  4 92  1  0  0  0
  5  6  1  0  0  0
  5 26  1  0  0  0
  5 93  1  0  0  0
  6 25  1  0  0  0
  6 94  1  0  0  0
  6 95  1  0  0  0
  7  8  2  0  0  0
  7 26  1  0  0  0
  7 29  1  0  0  0
  8  9  1  0  0  0
  8 22  1  0  0  0
  9 10  1  0  0  0
  9 27  2  0  0  0
 10 11  2  0  0  0
 10 15  1  0  0  0
 11 12  1  0  0  0
 11 96  1  0  0  0
 12 13  2  0  0  0
 12 97  1  0  0  0
 13 14  1  0  0  0
 13 31  1  0  0  0
 14 15  2  0  0  0
 14 98  1  0  0  0
 15 99  1  0  0  0
 16 17  2  0  0  0
 16 21  1  0  0  0
 16 31  1  0  0  0
 17 18  1  0  0  0
 17100  1  0  0  0
 18 19  2  0  0  0
 18101  1  0  0  0
 19 20  1  0  0  0
 19 24  1  0  0  0
 20 21  2  0  0  0
 20102  1  0  0  0
 21 23  1  0  0  0
 22 28  1  0  0  0
 22 32  2  0  0  0
 26 27  1  0  0  0
 28103  1  0  0  0
 28104  1  0  0  0
 29105  1  0  0  0
 29106  1  0  0  0
 33 34  1  0  0  0
 33 66  1  0  0  0
 33 70  2  0  0  0
 34 36  1  0  0  0
 34 59  1  0  0  0
 34107  1  0  0  0
 35 44  2  0  0  0
 35 45  1  0  0  0
 35 68  1  0  0  0
 36 56  1  0  0  0
 36108  1  0  0  0
 37 39  1  0  0  0
 37 47  1  0  0  0
 37 66  1  0  0  0
 37109  1  0  0  0
 38 43  2  0  0  0
 38 46  1  0  0  0
 38 47  1  0  0  0
 39 64  1  0  0  0
 39 67  2  0  0  0
 40 52  1  0  0  0
 40 53  2  0  0  0
 40 58  1  0  0  0
 41110  1  0  0  0
 41111  1  0  0  0
 41112  1  0  0  0
 41 48  1  0  0  0
 42 43  1  0  0  0
 42 66  1  0  0  0
 42113  1  0  0  0
 42114  1  0  0  0
 43 44  1  0  0  0
 44115  1  0  0  0
 45 46  2  0  0  0
 45116  1  0  0  0
 46117  1  0  0  0
 47118  1  0  0  0
 47119  1  0  0  0
 48 56  1  0  0  0
 48 65  1  0  0  0
 48120  1  0  0  0
 49 50  1  0  0  0
 49 53  1  0  0  0
 49 64  1  0  0  0
 49121  1  0  0  0
 50 51  1  0  0  0
 50122  1  0  0  0
 50123  1  0  0  0
 51 52  1  0  0  0
 51124  1  0  0  0
 51125  1  0  0  0
 52126  1  0  0  0
 52127  1  0  0  0
 53 54  1  0  0  0
 54 55  2  0  0  0
 54128  1  0  0  0
 55 57  1  0  0  0
 55129  1  0  0  0
 56 69  2  0  0  0
 57 58  2  0  0  0
 57130  1  0  0  0
 58131  1  0  0  0
 59 60  1  0  0  0
 59 61  1  0  0  0
 59 62  1  0  0  0
 60132  1  0  0  0
 60133  1  0  0  0
 60134  1  0  0  0
 61135  1  0  0  0
 61136  1  0  0  0
 61137  1  0  0  0
 62138  1  0  0  0
 62139  1  0  0  0
 62140  1  0  0  0
 63 65  1  0  0  0
 63141  1  0  0  0
 63142  1  0  0  0
 63143  1  0  0  0
 64144  1  0  0  0
 65145  1  0  0  0
 68 82  1  0  0  0
 71 72  2  0  0  0
 71 73  1  0  0  0
 71146  1  0  0  0
 72 75  1  0  0  0
 72147  1  0  0  0
 73 76  2  0  0  0
 73148  1  0  0  0
 74 75  2  0  0  0
 74 76  1  0  0  0
 74149  1  0  0  0
 75 77  1  0  0  0
 76 84  1  0  0  0
 77 83  1  0  0  0
 77 85  2  0  0  0
 78 79  1  0  0  0
 78 81  1  0  0  0
 78 83  2  0  0  0
 79 82  1  0  0  0
 79 86  2  0  0  0
 80 81  1  0  0  0
 80150  1  0  0  0
 80151  1  0  0  0
 80152  1  0  0  0
 81153  1  0  0  0
 81154  1  0  0  0
 82155  1  0  0  0
 82156  1  0  0  0
 84157  1  0  0  0
M  ISO  4   1 100  68 101  82 101  84 100
M  END
> <chiral flag>
0

> <version>
0

> <s_m_source_file>
/data/baiqing/PycharmProjects/Reinvent-master-3.2/result/LINK_invent/BTK/process_docking_weight1_custom_product_contain_oxygen_bond_distance_aromatic_linkinvent_7_9_3/rearranged_h_0081.sdf

> <i_m_source_file_index>
60

> <r_mmod_Potential_Energy-OPLS-2005>
99.568473815918

> <r_mmod_Stretch_Energy-OPLS-2005>
68.0855865478516

> <r_mmod_Bend_Energy-OPLS-2005>
142.246795654297

> <r_mmod_Torsional_Energy-OPLS-2005>
266.959136962891

> <r_mmod_Improper_Torsional_Energy-OPLS-2005>
6.68777894973755

> <r_mmod_Van_der_Waal_Energy-OPLS-2005>
154.994735717773

> <r_mmod_Electrostatic_Energy-OPLS-2005>
-339.515075683594

> <r_mmod_Solvation_Energy-OPLS-2005>
-226.849166870117

> <b_mmod_Minimization_Converged-OPLS-2005>
0

> <r_mmod_RMS_Derivative-OPLS-2005>
4.94491338729858

$$$$
60
                    3D
 Structure written by MMmdl.
149157  0  0  1  0            999 V2000
  -30.5723  -14.8218   20.4599 C   0  0  0  0  0  0
  -30.4387  -12.5107   19.4878 C   0  0  0  0  0  0
  -29.5178  -12.5213   18.2480 C   0  0  0  0  0  0
  -28.0499  -12.3120   18.6666 C   0  0  0  0  0  0
  -27.6366  -13.2290   19.8484 C   0  0  2  0  0  0
  -28.6784  -13.1975   20.9861 C   0  0  0  0  0  0
  -25.2487  -13.8145   20.5692 C   0  0  0  0  0  0
  -24.1782  -13.0410   20.9235 C   0  0  0  0  0  0
  -24.6376  -11.6897   20.8751 C   0  0  0  0  0  0
  -23.9053  -10.4277   21.0408 C   0  0  0  0  0  0
  -24.3605   -9.4193   21.9182 C   0  0  0  0  0  0
  -23.6282   -8.2229   22.0756 C   0  0  0  0  0  0
  -22.4269   -8.0265   21.3547 C   0  0  0  0  0  0
  -21.9906   -9.0241   20.4654 C   0  0  0  0  0  0
  -22.7229  -10.2116   20.3063 C   0  0  0  0  0  0
  -21.6848   -6.0721   22.5271 C   0  0  0  0  0  0
  -21.4004   -6.5630   23.8204 C   0  0  0  0  0  0
  -21.3651   -5.6789   24.9167 C   0  0  0  0  0  0
  -21.6049   -4.3054   24.7229 C   0  0  0  0  0  0
  -21.8824   -3.8148   23.4356 C   0  0  0  0  0  0
  -21.9190   -4.6955   22.3402 C   0  0  0  0  0  0
  -22.7813  -13.5206   21.1893 C   0  0  0  0  0  0
  -22.1676   -4.2141   21.0983 F   0  0  0  0  0  0
  -21.5624   -3.4547   25.7741 F   0  0  0  0  0  0
  -29.9647  -13.5814   20.3983 N   0  0  0  0  0  0
  -26.2899  -12.9355   20.3263 N   0  0  0  0  0  0
  -25.9302  -11.6505   20.5726 N   0  0  0  0  0  0
  -22.0478  -12.8184   22.0441 N   0  0  0  0  0  0
  -25.4178  -15.1841   20.4007 N   0  0  0  0  0  0
  -31.7755  -14.8835   20.1844 O   0  0  0  0  0  0
  -21.6643   -6.8853   21.4234 O   0  0  0  0  0  0
  -22.3508  -14.5515   20.6739 O   0  0  0  0  0  0
  -24.6325  -31.8544   23.1966 C   0  0  0  0  0  0
  -25.9154  -32.4735   23.8321 C   0  0  1  0  0  0
  -27.2092  -27.2362   20.1618 C   0  0  0  0  0  0
  -25.5947  -33.8539   24.2236 N   0  0  0  0  0  0
  -23.4291  -30.4777   21.5378 C   0  0  2  0  0  0
  -24.8784  -28.9153   20.1166 C   0  0  0  0  0  0
  -22.7508  -29.4620   22.4887 C   0  0  0  0  0  0
  -18.0321  -28.1386   22.8498 C   0  0  0  0  0  0
  -24.1495  -36.7273   23.2641 C   0  0  0  0  0  0
  -25.9768  -30.7673   21.3754 C   0  0  0  0  0  0
  -26.0526  -29.3854   20.7208 C   0  0  0  0  0  0
  -27.2291  -28.5632   20.7191 C   0  0  0  0  0  0
  -26.0100  -26.8273   19.5474 C   0  0  0  0  0  0
  -24.8640  -27.6458   19.5169 C   0  0  0  0  0  0
  -23.6490  -29.8046   20.1580 C   0  0  0  0  0  0
  -25.4127  -36.3043   24.0308 C   0  0  1  0  0  0
  -20.5919  -28.3730   23.1256 C   0  0  2  0  0  0
  -20.6813  -26.9444   22.5404 C   0  0  0  0  0  0
  -19.5756  -26.6355   21.5260 C   0  0  0  0  0  0
  -18.1957  -26.7916   22.1675 C   0  0  0  0  0  0
  -19.1564  -28.8886   23.2863 C   0  0  0  0  0  0
  -18.9474  -30.1494   23.8860 C   0  0  0  0  0  0
  -17.6457  -30.6600   24.0534 C   0  0  0  0  0  0
  -25.9076  -34.9415   23.5077 C   0  0  0  0  0  0
  -16.5358  -29.9074   23.6317 C   0  0  0  0  0  0
  -16.7297  -28.6483   23.0364 C   0  0  0  0  0  0
  -26.4514  -31.6577   25.0730 C   0  0  0  0  0  0
  -25.3724  -31.3756   26.1440 C   0  0  0  0  0  0
  -27.0377  -30.2975   24.6286 C   0  0  0  0  0  0
  -27.6048  -32.4345   25.7525 C   0  0  0  0  0  0
  -27.5564  -37.1796   24.8466 C   0  0  0  0  0  0
  -21.4223  -29.3072   22.3638 N   0  0  0  0  0  0
  -26.4290  -37.3749   23.9391 N   0  0  0  0  0  0
  -24.6982  -31.0518   22.0920 N   0  0  0  0  0  0
  -23.4223  -28.8164   23.2981 O   0  0  0  0  0  0
  -28.2852  -26.3176   20.1525 O   0  0  0  0  0  0
  -26.5657  -34.8890   22.4643 O   0  0  0  0  0  0
  -23.5486  -32.1335   23.7304 O   0  0  0  0  0  0
  -26.8260  -19.3037   19.9464 C   0  0  0  0  0  0
  -27.7490  -18.2509   20.1356 C   0  0  0  0  0  0
  -27.1872  -20.6617   20.1000 C   0  0  0  0  0  0
  -29.4230  -19.9283   20.6614 C   0  0  0  0  0  0
  -29.0917  -18.5081   20.4889 C   0  0  0  0  0  0
  -28.4973  -21.0469   20.4725 C   0  0  0  0  0  0
  -28.1771  -23.5411   20.3077 C   0  0  0  0  0  0
  -30.1288  -17.3255   20.5998 C   0  0  0  0  0  0
  -28.1797  -25.0337   20.9467 C   0  0  0  0  0  0
  -28.7982  -22.4567   20.7688 N   0  0  0  0  0  0
  -29.7707  -15.9683   20.5983 N   0  0  0  0  0  0
  -31.3100  -17.6706   20.6912 O   0  0  0  0  0  0
  -31.4764  -12.6563   19.1829 H   0  0  0  0  0  0
  -30.4090  -11.5416   19.9895 H   0  0  0  0  0  0
  -29.8227  -11.7474   17.5427 H   0  0  0  0  0  0
  -29.6150  -13.4720   17.7188 H   0  0  0  0  0  0
  -27.9406  -11.2657   18.9569 H   0  0  0  0  0  0
  -27.3838  -12.4616   17.8176 H   0  0  0  0  0  0
  -27.6202  -14.2411   19.4455 H   0  0  0  0  0  0
  -28.7450  -12.2022   21.4295 H   0  0  0  0  0  0
  -28.3964  -13.8745   21.7945 H   0  0  0  0  0  0
  -25.2756   -9.5656   22.4749 H   0  0  0  0  0  0
  -23.9994   -7.4617   22.7473 H   0  0  0  0  0  0
  -21.0846   -8.8745   19.8972 H   0  0  0  0  0  0
  -22.3686  -10.9644   19.6173 H   0  0  0  0  0  0
  -21.2000   -7.6146   23.9692 H   0  0  0  0  0  0
  -21.1466   -6.0535   25.9058 H   0  0  0  0  0  0
  -22.0616   -2.7616   23.2863 H   0  0  0  0  0  0
  -22.4143  -11.9818   22.4742 H   0  0  0  0  0  0
  -21.1098  -13.1182   22.2713 H   0  0  0  0  0  0
  -24.6299  -15.8201   20.4510 H   0  0  0  0  0  0
  -26.2119  -15.5816   19.9205 H   0  0  0  0  0  0
  -26.7224  -32.5377   23.1065 H   0  0  0  0  0  0
  -25.0005  -33.9669   25.0321 H   0  0  0  0  0  0
  -22.7239  -31.2986   21.3881 H   0  0  0  0  0  0
  -23.3743  -35.9622   23.3327 H   0  0  0  0  0  0
  -24.3570  -36.8887   22.2049 H   0  0  0  0  0  0
  -23.7275  -37.6485   23.6672 H   0  0  0  0  0  0
  -26.1231  -31.5326   20.6107 H   0  0  0  0  0  0
  -26.8496  -30.8120   22.0160 H   0  0  0  0  0  0
  -28.1335  -28.9312   21.1855 H   0  0  0  0  0  0
  -25.9501  -25.8424   19.1070 H   0  0  0  0  0  0
  -23.9596  -27.2776   19.0534 H   0  0  0  0  0  0
  -23.7672  -30.5735   19.3941 H   0  0  0  0  0  0
  -22.7672  -29.2361   19.8568 H   0  0  0  0  0  0
  -25.1322  -36.1869   25.0803 H   0  0  0  0  0  0
  -21.0034  -28.3327   24.1370 H   0  0  0  0  0  0
  -21.6640  -26.7497   22.1103 H   0  0  0  0  0  0
  -20.5820  -26.2340   23.3626 H   0  0  0  0  0  0
  -19.6908  -25.6250   21.1349 H   0  0  0  0  0  0
  -19.6670  -27.3116   20.6749 H   0  0  0  0  0  0
  -17.4223  -26.6651   21.4089 H   0  0  0  0  0  0
  -18.0337  -26.0074   22.9088 H   0  0  0  0  0  0
  -19.7946  -30.7336   24.2183 H   0  0  0  0  0  0
  -17.5003  -31.6294   24.5104 H   0  0  0  0  0  0
  -15.5353  -30.2965   23.7675 H   0  0  0  0  0  0
  -15.8704  -28.0786   22.7086 H   0  0  0  0  0  0
  -24.5903  -30.7098   25.7767 H   0  0  0  0  0  0
  -24.8918  -32.2944   26.4816 H   0  0  0  0  0  0
  -25.8017  -30.8965   27.0250 H   0  0  0  0  0  0
  -26.2984  -29.6707   24.1283 H   0  0  0  0  0  0
  -27.3967  -29.7261   25.4862 H   0  0  0  0  0  0
  -27.8906  -30.4205   23.9608 H   0  0  0  0  0  0
  -27.2625  -33.3650   26.2076 H   0  0  0  0  0  0
  -28.3886  -32.6905   25.0383 H   0  0  0  0  0  0
  -28.0697  -31.8500   26.5476 H   0  0  0  0  0  0
  -28.2608  -38.0065   24.7454 H   0  0  0  0  0  0
  -28.1029  -36.2583   24.6374 H   0  0  0  0  0  0
  -27.2270  -37.1547   25.8869 H   0  0  0  0  0  0
  -20.9418  -29.8766   21.6822 H   0  0  0  0  0  0
  -26.0157  -38.2824   24.1367 H   0  0  0  0  0  0
  -25.8050  -19.0648   19.6831 H   0  0  0  0  0  0
  -27.4055  -17.2367   19.9996 H   0  0  0  0  0  0
  -26.4135  -21.4040   19.9706 H   0  0  0  0  0  0
  -30.4324  -20.1701   20.9599 H   0  0  0  0  0  0
  -27.4952  -23.4661   19.4570 H   0  0  0  0  0  0
  -28.9973  -25.0606   21.6670 H   0  0  0  0  0  0
  -27.2830  -25.1040   21.5650 H   0  0  0  0  0  0
  -28.7835  -15.7954   20.6513 H   0  0  0  0  0  0
  1 25  1  0  0  0
  1 30  2  0  0  0
  1 81  1  0  0  0
  2  3  1  0  0  0
  2 25  1  0  0  0
  2 83  1  0  0  0
  2 84  1  0  0  0
  3  4  1  0  0  0
  3 85  1  0  0  0
  3 86  1  0  0  0
  4  5  1  0  0  0
  4 87  1  0  0  0
  4 88  1  0  0  0
  5  6  1  0  0  0
  5 26  1  0  0  0
  5 89  1  0  0  0
  6 25  1  0  0  0
  6 90  1  0  0  0
  6 91  1  0  0  0
  7  8  2  0  0  0
  7 26  1  0  0  0
  7 29  1  0  0  0
  8  9  1  0  0  0
  8 22  1  0  0  0
  9 10  1  0  0  0
  9 27  2  0  0  0
 10 11  2  0  0  0
 10 15  1  0  0  0
 11 12  1  0  0  0
 11 92  1  0  0  0
 12 13  2  0  0  0
 12 93  1  0  0  0
 13 14  1  0  0  0
 13 31  1  0  0  0
 14 15  2  0  0  0
 14 94  1  0  0  0
 15 95  1  0  0  0
 16 17  2  0  0  0
 16 21  1  0  0  0
 16 31  1  0  0  0
 17 18  1  0  0  0
 17 96  1  0  0  0
 18 19  2  0  0  0
 18 97  1  0  0  0
 19 20  1  0  0  0
 19 24  1  0  0  0
 20 21  2  0  0  0
 20 98  1  0  0  0
 21 23  1  0  0  0
 22 28  1  0  0  0
 22 32  2  0  0  0
 26 27  1  0  0  0
 28 99  1  0  0  0
 28100  1  0  0  0
 29101  1  0  0  0
 29102  1  0  0  0
 33 34  1  0  0  0
 33 66  1  0  0  0
 33 70  2  0  0  0
 34 36  1  0  0  0
 34 59  1  0  0  0
 34103  1  0  0  0
 35 44  2  0  0  0
 35 45  1  0  0  0
 35 68  1  0  0  0
 36 56  1  0  0  0
 36104  1  0  0  0
 37 39  1  0  0  0
 37 47  1  0  0  0
 37 66  1  0  0  0
 37105  1  0  0  0
 38 43  2  0  0  0
 38 46  1  0  0  0
 38 47  1  0  0  0
 39 64  1  0  0  0
 39 67  2  0  0  0
 40 52  1  0  0  0
 40 53  2  0  0  0
 40 58  1  0  0  0
 41106  1  0  0  0
 41107  1  0  0  0
 41108  1  0  0  0
 41 48  1  0  0  0
 42 43  1  0  0  0
 42 66  1  0  0  0
 42109  1  0  0  0
 42110  1  0  0  0
 43 44  1  0  0  0
 44111  1  0  0  0
 45 46  2  0  0  0
 45112  1  0  0  0
 46113  1  0  0  0
 47114  1  0  0  0
 47115  1  0  0  0
 48 56  1  0  0  0
 48 65  1  0  0  0
 48116  1  0  0  0
 49 50  1  0  0  0
 49 53  1  0  0  0
 49 64  1  0  0  0
 49117  1  0  0  0
 50 51  1  0  0  0
 50118  1  0  0  0
 50119  1  0  0  0
 51 52  1  0  0  0
 51120  1  0  0  0
 51121  1  0  0  0
 52122  1  0  0  0
 52123  1  0  0  0
 53 54  1  0  0  0
 54 55  2  0  0  0
 54124  1  0  0  0
 55 57  1  0  0  0
 55125  1  0  0  0
 56 69  2  0  0  0
 57 58  2  0  0  0
 57126  1  0  0  0
 58127  1  0  0  0
 59 60  1  0  0  0
 59 61  1  0  0  0
 59 62  1  0  0  0
 60128  1  0  0  0
 60129  1  0  0  0
 60130  1  0  0  0
 61131  1  0  0  0
 61132  1  0  0  0
 61133  1  0  0  0
 62134  1  0  0  0
 62135  1  0  0  0
 62136  1  0  0  0
 63 65  1  0  0  0
 63137  1  0  0  0
 63138  1  0  0  0
 63139  1  0  0  0
 64140  1  0  0  0
 65141  1  0  0  0
 68 79  1  0  0  0
 71 72  2  0  0  0
 71 73  1  0  0  0
 71142  1  0  0  0
 72 75  1  0  0  0
 72143  1  0  0  0
 73 76  2  0  0  0
 73144  1  0  0  0
 74 75  2  0  0  0
 74 76  1  0  0  0
 74145  1  0  0  0
 75 78  1  0  0  0
 76 80  1  0  0  0
 77 79  1  0  0  0
 77 80  2  0  0  0
 77146  1  0  0  0
 78 81  1  0  0  0
 78 82  2  0  0  0
 79147  1  0  0  0
 79148  1  0  0  0
 81149  1  0  0  0
M  ISO  4   1 100  68 101  79 101  81 100
M  END
> <chiral flag>
0

> <version>
0

> <s_m_source_file>
/data/baiqing/PycharmProjects/Reinvent-master-3.2/result/LINK_invent/BTK/process_docking_weight1_custom_product_contain_oxygen_bond_distance_aromatic_linkinvent_7_9_3/rearranged_h_0081.sdf

> <i_m_source_file_index>
61

> <r_mmod_Potential_Energy-OPLS-2005>
164.410263061523

> <r_mmod_Stretch_Energy-OPLS-2005>
148.643081665039

> <r_mmod_Bend_Energy-OPLS-2005>
176.856018066406

> <r_mmod_Torsional_Energy-OPLS-2005>
247.946533203125

> <r_mmod_Improper_Torsional_Energy-OPLS-2005>
7.64286661148071

> <r_mmod_Van_der_Waal_Energy-OPLS-2005>
137.384735107422

> <r_mmod_Electrostatic_Energy-OPLS-2005>
-431.759002685547

> <r_mmod_Solvation_Energy-OPLS-2005>
-235.080032348633

> <b_mmod_Minimization_Converged-OPLS-2005>
0

> <r_mmod_RMS_Derivative-OPLS-2005>
3.4147686958313

$$$$
61
                    3D
 Structure written by MMmdl.
158167  0  0  1  0            999 V2000
  -30.5926  -14.7860   20.4460 C   0  0  0  0  0  0
  -30.4342  -12.4766   19.4983 C   0  0  0  0  0  0
  -29.5212  -12.5324   18.2526 C   0  0  0  0  0  0
  -28.0442  -12.3546   18.6466 C   0  0  0  0  0  0
  -27.6432  -13.2429   19.8542 C   0  0  2  0  0  0
  -28.6805  -13.1849   20.9956 C   0  0  0  0  0  0
  -25.2540  -13.8224   20.5689 C   0  0  0  0  0  0
  -24.1833  -13.0457   20.9176 C   0  0  0  0  0  0
  -24.6421  -11.6931   20.8723 C   0  0  0  0  0  0
  -23.9091  -10.4312   21.0393 C   0  0  0  0  0  0
  -24.3650   -9.4226   21.9165 C   0  0  0  0  0  0
  -23.6328   -8.2262   22.0726 C   0  0  0  0  0  0
  -22.4299   -8.0303   21.3535 C   0  0  0  0  0  0
  -21.9934   -9.0287   20.4634 C   0  0  0  0  0  0
  -22.7257  -10.2170   20.3057 C   0  0  0  0  0  0
  -21.6864   -6.0751   22.5267 C   0  0  0  0  0  0
  -21.4019   -6.5652   23.8201 C   0  0  0  0  0  0
  -21.3648   -5.6801   24.9166 C   0  0  0  0  0  0
  -21.6051   -4.3068   24.7217 C   0  0  0  0  0  0
  -21.8819   -3.8149   23.4339 C   0  0  0  0  0  0
  -21.9194   -4.6976   22.3388 C   0  0  0  0  0  0
  -22.7860  -13.5239   21.1853 C   0  0  0  0  0  0
  -22.1672   -4.2170   21.0961 F   0  0  0  0  0  0
  -21.5622   -3.4528   25.7723 F   0  0  0  0  0  0
  -29.9882  -13.5424   20.4330 N   0  0  0  0  0  0
  -26.2951  -12.9435   20.3273 N   0  0  0  0  0  0
  -25.9351  -11.6560   20.5717 N   0  0  0  0  0  0
  -22.0540  -12.8233   22.0448 N   0  0  0  0  0  0
  -25.4284  -15.1934   20.4131 N   0  0  0  0  0  0
  -31.7554  -14.8882   20.0440 O   0  0  0  0  0  0
  -21.6663   -6.8904   21.4233 O   0  0  0  0  0  0
  -22.3538  -14.5534   20.6667 O   0  0  0  0  0  0
  -24.6338  -31.8510   23.1976 C   0  0  0  0  0  0
  -25.9147  -32.4735   23.8322 C   0  0  1  0  0  0
  -27.2258  -27.2145   20.1254 C   0  0  0  0  0  0
  -25.5936  -33.8533   24.2242 N   0  0  0  0  0  0
  -23.4352  -30.4750   21.5398 C   0  0  2  0  0  0
  -24.8864  -28.9196   20.1060 C   0  0  0  0  0  0
  -22.7524  -29.4572   22.4862 C   0  0  0  0  0  0
  -18.0305  -28.1410   22.8472 C   0  0  0  0  0  0
  -24.1493  -36.7290   23.2631 C   0  0  0  0  0  0
  -25.9866  -30.7433   21.3947 C   0  0  0  0  0  0
  -26.0563  -29.3625   20.7344 C   0  0  0  0  0  0
  -27.2218  -28.5185   20.7435 C   0  0  0  0  0  0
  -26.0406  -26.8751   19.4301 C   0  0  0  0  0  0
  -24.8874  -27.6867   19.4383 C   0  0  0  0  0  0
  -23.6586  -29.8132   20.1548 C   0  0  0  0  0  0
  -25.4118  -36.3057   24.0313 C   0  0  1  0  0  0
  -20.5902  -28.3711   23.1252 C   0  0  2  0  0  0
  -20.6786  -26.9419   22.5410 C   0  0  0  0  0  0
  -19.5766  -26.6382   21.5213 C   0  0  0  0  0  0
  -18.1948  -26.7945   22.1624 C   0  0  0  0  0  0
  -19.1556  -28.8881   23.2864 C   0  0  0  0  0  0
  -18.9472  -30.1470   23.8896 C   0  0  0  0  0  0
  -17.6471  -30.6594   24.0572 C   0  0  0  0  0  0
  -25.9063  -34.9418   23.5094 C   0  0  0  0  0  0
  -16.5358  -29.9101   23.6332 C   0  0  0  0  0  0
  -16.7285  -28.6524   23.0339 C   0  0  0  0  0  0
  -26.4493  -31.6578   25.0732 C   0  0  0  0  0  0
  -25.3708  -31.3826   26.1473 C   0  0  0  0  0  0
  -27.0291  -30.2942   24.6314 C   0  0  0  0  0  0
  -27.6062  -32.4312   25.7483 C   0  0  0  0  0  0
  -27.5592  -37.1800   24.8461 C   0  0  0  0  0  0
  -21.4220  -29.3046   22.3626 N   0  0  0  0  0  0
  -26.4303  -37.3750   23.9397 N   0  0  0  0  0  0
  -24.7038  -31.0421   22.0993 N   0  0  0  0  0  0
  -23.4198  -28.8099   23.2972 O   0  0  0  0  0  0
  -28.3161  -26.2901   20.1835 O   0  0  0  0  0  0
  -26.5642  -34.8890   22.4663 O   0  0  0  0  0  0
  -23.5468  -32.1352   23.7225 O   0  0  0  0  0  0
  -29.6390  -18.5852   20.7236 C   0  0  0  0  0  0
  -29.2053  -19.6524   18.5834 C   0  0  0  0  0  0
  -29.5700  -17.2229   18.7067 C   0  0  0  0  0  0
  -29.3860  -19.8296   19.9767 C   0  0  0  0  0  0
  -29.7409  -17.2517   20.1085 C   0  0  0  0  0  0
  -29.2996  -18.3895   17.9652 C   0  0  0  0  0  0
  -30.3922  -23.9660   20.8232 C   0  0  0  0  0  0
  -29.0110  -23.7791   20.3640 C   0  0  0  0  0  0
  -31.0273  -22.8645   21.5578 C   0  0  0  0  0  0
  -28.6121  -22.3309   20.0560 C   0  0  0  0  0  0
  -31.0946  -25.0582   20.4533 C   0  0  0  0  0  0
  -32.2185  -23.0001   22.1737 C   0  0  0  0  0  0
  -28.1463  -24.8532   20.0805 C   0  0  0  0  0  0
  -30.3494  -21.4993   21.6024 C   0  0  0  0  0  0
  -29.4066  -21.2488   20.5028 N   0  0  0  0  0  0
  -29.8579  -15.9236   20.7971 N   0  0  0  0  0  0
  -27.5890  -22.0939   19.4044 O   0  0  0  0  0  0
  -29.1271  -18.2954   16.6244 F   0  0  0  0  0  0
  -31.4769  -12.5921   19.1997 H   0  0  0  0  0  0
  -30.3721  -11.5010   19.9834 H   0  0  0  0  0  0
  -29.8109  -11.7676   17.5299 H   0  0  0  0  0  0
  -29.6514  -13.4940   17.7538 H   0  0  0  0  0  0
  -27.8894  -11.3016   18.8856 H   0  0  0  0  0  0
  -27.4033  -12.5715   17.7913 H   0  0  0  0  0  0
  -27.6329  -14.2682   19.4811 H   0  0  0  0  0  0
  -28.7094  -12.1869   21.4363 H   0  0  0  0  0  0
  -28.4034  -13.8680   21.7980 H   0  0  0  0  0  0
  -25.2798   -9.5704   22.4738 H   0  0  0  0  0  0
  -24.0027   -7.4656   22.7445 H   0  0  0  0  0  0
  -21.0846   -8.8846   19.8963 H   0  0  0  0  0  0
  -22.3713  -10.9738   19.6203 H   0  0  0  0  0  0
  -21.2028   -7.6164   23.9722 H   0  0  0  0  0  0
  -21.1460   -6.0524   25.9070 H   0  0  0  0  0  0
  -22.0600   -2.7601   23.2841 H   0  0  0  0  0  0
  -22.4177  -11.9896   22.4829 H   0  0  0  0  0  0
  -21.1166  -13.1244   22.2719 H   0  0  0  0  0  0
  -24.6694  -15.8559   20.5230 H   0  0  0  0  0  0
  -26.2713  -15.6127   20.0392 H   0  0  0  0  0  0
  -26.7213  -32.5376   23.1053 H   0  0  0  0  0  0
  -25.0063  -33.9678   25.0376 H   0  0  0  0  0  0
  -22.7338  -31.2991   21.3948 H   0  0  0  0  0  0
  -23.3736  -35.9652   23.3303 H   0  0  0  0  0  0
  -24.3577  -36.8896   22.2047 H   0  0  0  0  0  0
  -23.7283  -37.6505   23.6645 H   0  0  0  0  0  0
  -26.1403  -31.5023   20.6253 H   0  0  0  0  0  0
  -26.8556  -30.7882   22.0411 H   0  0  0  0  0  0
  -28.1118  -28.8436   21.2651 H   0  0  0  0  0  0
  -25.9645  -25.9615   18.8632 H   0  0  0  0  0  0
  -24.0024  -27.3583   18.9125 H   0  0  0  0  0  0
  -23.7907  -30.5947   19.4053 H   0  0  0  0  0  0
  -22.7727  -29.2559   19.8440 H   0  0  0  0  0  0
  -25.1296  -36.1908   25.0808 H   0  0  0  0  0  0
  -21.0012  -28.3319   24.1361 H   0  0  0  0  0  0
  -20.5681  -26.2327   23.3630 H   0  0  0  0  0  0
  -21.6662  -26.7437   22.1214 H   0  0  0  0  0  0
  -19.6932  -25.6289   21.1265 H   0  0  0  0  0  0
  -19.6717  -27.3177   20.6732 H   0  0  0  0  0  0
  -17.4210  -26.6658   21.4041 H   0  0  0  0  0  0
  -18.0362  -26.0105   22.9043 H   0  0  0  0  0  0
  -19.7941  -30.7287   24.2271 H   0  0  0  0  0  0
  -17.5017  -31.6268   24.5179 H   0  0  0  0  0  0
  -15.5359  -30.3002   23.7650 H   0  0  0  0  0  0
  -15.8691  -28.0848   22.7048 H   0  0  0  0  0  0
  -24.5813  -30.7252   25.7824 H   0  0  0  0  0  0
  -24.9006  -32.3049   26.4886 H   0  0  0  0  0  0
  -25.7981  -30.8990   27.0265 H   0  0  0  0  0  0
  -26.2878  -29.6720   24.1299 H   0  0  0  0  0  0
  -27.3821  -29.7205   25.4892 H   0  0  0  0  0  0
  -27.8833  -30.4107   23.9648 H   0  0  0  0  0  0
  -27.2661  -33.3567   26.2137 H   0  0  0  0  0  0
  -28.3817  -32.6955   25.0283 H   0  0  0  0  0  0
  -28.0807  -31.8422   26.5343 H   0  0  0  0  0  0
  -28.2628  -38.0077   24.7449 H   0  0  0  0  0  0
  -28.1064  -36.2605   24.6330 H   0  0  0  0  0  0
  -27.2311  -37.1501   25.8868 H   0  0  0  0  0  0
  -20.9409  -29.8779   21.6841 H   0  0  0  0  0  0
  -26.0184  -38.2826   24.1380 H   0  0  0  0  0  0
  -29.7538  -18.6573   21.7967 H   0  0  0  0  0  0
  -29.0181  -20.5060   17.9491 H   0  0  0  0  0  0
  -29.6045  -16.2845   18.1751 H   0  0  0  0  0  0
  -30.6587  -25.8333   19.8447 H   0  0  0  0  0  0
  -32.1330  -25.2065   20.7071 H   0  0  0  0  0  0
  -32.7721  -23.9249   22.2026 H   0  0  0  0  0  0
  -32.6717  -22.1628   22.6876 H   0  0  0  0  0  0
  -27.1668  -24.5972   19.7180 H   0  0  0  0  0  0
  -29.8187  -21.4062   22.5509 H   0  0  0  0  0  0
  -31.1268  -20.7319   21.5995 H   0  0  0  0  0  0
  -29.0775  -15.7117   21.4023 H   0  0  0  0  0  0
  1 25  1  0  0  0
  1 30  2  0  0  0
  1 86  1  0  0  0
  2  3  1  0  0  0
  2 25  1  0  0  0
  2 89  1  0  0  0
  2 90  1  0  0  0
  3  4  1  0  0  0
  3 91  1  0  0  0
  3 92  1  0  0  0
  4  5  1  0  0  0
  4 93  1  0  0  0
  4 94  1  0  0  0
  5  6  1  0  0  0
  5 26  1  0  0  0
  5 95  1  0  0  0
  6 25  1  0  0  0
  6 96  1  0  0  0
  6 97  1  0  0  0
  7  8  2  0  0  0
  7 26  1  0  0  0
  7 29  1  0  0  0
  8  9  1  0  0  0
  8 22  1  0  0  0
  9 10  1  0  0  0
  9 27  2  0  0  0
 10 11  2  0  0  0
 10 15  1  0  0  0
 11 12  1  0  0  0
 11 98  1  0  0  0
 12 13  2  0  0  0
 12 99  1  0  0  0
 13 14  1  0  0  0
 13 31  1  0  0  0
 14 15  2  0  0  0
 14100  1  0  0  0
 15101  1  0  0  0
 16 17  2  0  0  0
 16 21  1  0  0  0
 16 31  1  0  0  0
 17 18  1  0  0  0
 17102  1  0  0  0
 18 19  2  0  0  0
 18103  1  0  0  0
 19 20  1  0  0  0
 19 24  1  0  0  0
 20 21  2  0  0  0
 20104  1  0  0  0
 21 23  1  0  0  0
 22 28  1  0  0  0
 22 32  2  0  0  0
 26 27  1  0  0  0
 28105  1  0  0  0
 28106  1  0  0  0
 29107  1  0  0  0
 29108  1  0  0  0
 33 34  1  0  0  0
 33 66  1  0  0  0
 33 70  2  0  0  0
 34 36  1  0  0  0
 34 59  1  0  0  0
 34109  1  0  0  0
 35 44  2  0  0  0
 35 45  1  0  0  0
 35 68  1  0  0  0
 36 56  1  0  0  0
 36110  1  0  0  0
 37 39  1  0  0  0
 37 47  1  0  0  0
 37 66  1  0  0  0
 37111  1  0  0  0
 38 43  2  0  0  0
 38 46  1  0  0  0
 38 47  1  0  0  0
 39 64  1  0  0  0
 39 67  2  0  0  0
 40 52  1  0  0  0
 40 53  2  0  0  0
 40 58  1  0  0  0
 41112  1  0  0  0
 41113  1  0  0  0
 41114  1  0  0  0
 41 48  1  0  0  0
 42 43  1  0  0  0
 42 66  1  0  0  0
 42115  1  0  0  0
 42116  1  0  0  0
 43 44  1  0  0  0
 44117  1  0  0  0
 45 46  2  0  0  0
 45118  1  0  0  0
 46119  1  0  0  0
 47120  1  0  0  0
 47121  1  0  0  0
 48 56  1  0  0  0
 48 65  1  0  0  0
 48122  1  0  0  0
 49 50  1  0  0  0
 49 53  1  0  0  0
 49 64  1  0  0  0
 49123  1  0  0  0
 50 51  1  0  0  0
 50124  1  0  0  0
 50125  1  0  0  0
 51 52  1  0  0  0
 51126  1  0  0  0
 51127  1  0  0  0
 52128  1  0  0  0
 52129  1  0  0  0
 53 54  1  0  0  0
 54 55  2  0  0  0
 54130  1  0  0  0
 55 57  1  0  0  0
 55131  1  0  0  0
 56 69  2  0  0  0
 57 58  2  0  0  0
 57132  1  0  0  0
 58133  1  0  0  0
 59 60  1  0  0  0
 59 61  1  0  0  0
 59 62  1  0  0  0
 60134  1  0  0  0
 60135  1  0  0  0
 60136  1  0  0  0
 61137  1  0  0  0
 61138  1  0  0  0
 61139  1  0  0  0
 62140  1  0  0  0
 62141  1  0  0  0
 62142  1  0  0  0
 63 65  1  0  0  0
 63143  1  0  0  0
 63144  1  0  0  0
 63145  1  0  0  0
 64146  1  0  0  0
 65147  1  0  0  0
 68 83  1  0  0  0
 71 74  2  0  0  0
 71 75  1  0  0  0
 71148  1  0  0  0
 72 74  1  0  0  0
 72 76  2  0  0  0
 72149  1  0  0  0
 73 75  2  0  0  0
 73 76  1  0  0  0
 73150  1  0  0  0
 74 85  1  0  0  0
 75 86  1  0  0  0
 76 88  1  0  0  0
 77 78  1  0  0  0
 77 79  1  0  0  0
 77 81  2  0  0  0
 78 80  1  0  0  0
 78 83  2  0  0  0
 79 82  2  0  0  0
 79 84  1  0  0  0
 80 85  1  0  0  0
 80 87  2  0  0  0
 81151  1  0  0  0
 81152  1  0  0  0
 82153  1  0  0  0
 82154  1  0  0  0
 83155  1  0  0  0
 84 85  1  0  0  0
 84156  1  0  0  0
 84157  1  0  0  0
 86158  1  0  0  0
M  ISO  4   1 100  68 101  83 101  86 100
M  END
> <chiral flag>
0

> <version>
0

> <s_m_source_file>
/data/baiqing/PycharmProjects/Reinvent-master-3.2/result/LINK_invent/BTK/process_docking_weight1_custom_product_contain_oxygen_bond_distance_aromatic_linkinvent_7_9_3/rearranged_h_0081.sdf

> <i_m_source_file_index>
62

> <r_mmod_Potential_Energy-OPLS-2005>
422.634704589844

> <r_mmod_Stretch_Energy-OPLS-2005>
168.265472412109

> <r_mmod_Bend_Energy-OPLS-2005>
181.371459960938

> <r_mmod_Torsional_Energy-OPLS-2005>
318.088562011719

> <r_mmod_Improper_Torsional_Energy-OPLS-2005>
5.33277082443237

> <r_mmod_Van_der_Waal_Energy-OPLS-2005>
169.707015991211

> <r_mmod_Electrostatic_Energy-OPLS-2005>
-315.622436523438

> <r_mmod_Solvation_Energy-OPLS-2005>
-213.560806274414

> <b_mmod_Minimization_Converged-OPLS-2005>
0

> <r_mmod_RMS_Derivative-OPLS-2005>
4.02045202255249

$$$$
62
                    3D
 Structure written by MMmdl.
154163  0  0  1  0            999 V2000
  -30.5944  -14.8061   20.4354 C   0  0  0  0  0  0
  -30.4350  -12.4901   19.4970 C   0  0  0  0  0  0
  -29.5173  -12.5201   18.2531 C   0  0  0  0  0  0
  -28.0441  -12.3392   18.6618 C   0  0  0  0  0  0
  -27.6431  -13.2429   19.8563 C   0  0  2  0  0  0
  -28.6836  -13.2013   20.9975 C   0  0  0  0  0  0
  -25.2506  -13.8227   20.5700 C   0  0  0  0  0  0
  -24.1799  -13.0455   20.9201 C   0  0  0  0  0  0
  -24.6402  -11.6942   20.8739 C   0  0  0  0  0  0
  -23.9064  -10.4313   21.0393 C   0  0  0  0  0  0
  -24.3610   -9.4229   21.9174 C   0  0  0  0  0  0
  -23.6299   -8.2249   22.0727 C   0  0  0  0  0  0
  -22.4281   -8.0281   21.3523 C   0  0  0  0  0  0
  -21.9915   -9.0256   20.4618 C   0  0  0  0  0  0
  -22.7231  -10.2145   20.3035 C   0  0  0  0  0  0
  -21.6857   -6.0726   22.5275 C   0  0  0  0  0  0
  -21.4012   -6.5631   23.8211 C   0  0  0  0  0  0
  -21.3659   -5.6787   24.9173 C   0  0  0  0  0  0
  -21.6061   -4.3049   24.7220 C   0  0  0  0  0  0
  -21.8818   -3.8132   23.4343 C   0  0  0  0  0  0
  -21.9185   -4.6952   22.3404 C   0  0  0  0  0  0
  -22.7810  -13.5222   21.1840 C   0  0  0  0  0  0
  -22.1652   -4.2133   21.0983 F   0  0  0  0  0  0
  -21.5640   -3.4539   25.7733 F   0  0  0  0  0  0
  -29.9854  -13.5630   20.4229 N   0  0  0  0  0  0
  -26.2953  -12.9453   20.3304 N   0  0  0  0  0  0
  -25.9344  -11.6586   20.5753 N   0  0  0  0  0  0
  -22.0451  -12.8226   22.0399 N   0  0  0  0  0  0
  -25.4204  -15.1949   20.4118 N   0  0  0  0  0  0
  -31.7656  -14.8960   20.0587 O   0  0  0  0  0  0
  -21.6634   -6.8877   21.4235 O   0  0  0  0  0  0
  -22.3506  -14.5530   20.6679 O   0  0  0  0  0  0
  -24.6363  -31.8509   23.1970 C   0  0  0  0  0  0
  -25.9170  -32.4723   23.8320 C   0  0  1  0  0  0
  -27.2072  -27.1930   20.1376 C   0  0  0  0  0  0
  -25.5969  -33.8534   24.2234 N   0  0  0  0  0  0
  -23.4348  -30.4765   21.5412 C   0  0  2  0  0  0
  -24.8823  -28.9190   20.1114 C   0  0  0  0  0  0
  -22.7529  -29.4586   22.4887 C   0  0  0  0  0  0
  -18.0303  -28.1385   22.8480 C   0  0  0  0  0  0
  -24.1502  -36.7254   23.2637 C   0  0  0  0  0  0
  -25.9881  -30.7398   21.3935 C   0  0  0  0  0  0
  -26.0558  -29.3561   20.7390 C   0  0  0  0  0  0
  -27.2155  -28.5021   20.7519 C   0  0  0  0  0  0
  -26.0200  -26.8731   19.4342 C   0  0  0  0  0  0
  -24.8725  -27.6862   19.4505 C   0  0  0  0  0  0
  -23.6572  -29.8130   20.1583 C   0  0  0  0  0  0
  -25.4129  -36.3028   24.0315 C   0  0  1  0  0  0
  -20.5909  -28.3692   23.1251 C   0  0  2  0  0  0
  -20.6776  -26.9405   22.5398 C   0  0  0  0  0  0
  -19.5757  -26.6372   21.5202 C   0  0  0  0  0  0
  -18.1941  -26.7931   22.1613 C   0  0  0  0  0  0
  -19.1557  -28.8855   23.2867 C   0  0  0  0  0  0
  -18.9471  -30.1456   23.8882 C   0  0  0  0  0  0
  -17.6468  -30.6587   24.0551 C   0  0  0  0  0  0
  -25.9084  -34.9410   23.5067 C   0  0  0  0  0  0
  -16.5357  -29.9080   23.6338 C   0  0  0  0  0  0
  -16.7287  -28.6500   23.0356 C   0  0  0  0  0  0
  -26.4528  -31.6564   25.0726 C   0  0  0  0  0  0
  -25.3744  -31.3729   26.1438 C   0  0  0  0  0  0
  -27.0366  -30.2960   24.6268 C   0  0  0  0  0  0
  -27.6093  -32.4301   25.7490 C   0  0  0  0  0  0
  -27.5583  -37.1777   24.8464 C   0  0  0  0  0  0
  -21.4229  -29.3034   22.3633 N   0  0  0  0  0  0
  -26.4281  -37.3745   23.9416 N   0  0  0  0  0  0
  -24.7054  -31.0425   22.0981 N   0  0  0  0  0  0
  -23.4202  -28.8115   23.2999 O   0  0  0  0  0  0
  -28.2640  -26.2270   20.2145 O   0  0  0  0  0  0
  -26.5654  -34.8887   22.4640 O   0  0  0  0  0  0
  -23.5496  -32.1346   23.7236 O   0  0  0  0  0  0
  -29.8046  -18.4834   17.9031 C   0  0  0  0  0  0
  -29.5730  -19.7317   18.5151 C   0  0  0  0  0  0
  -29.9411  -17.3009   18.6583 C   0  0  0  0  0  0
  -29.6069  -18.6207   20.6818 C   0  0  0  0  0  0
  -29.4687  -19.8721   19.9167 C   0  0  0  0  0  0
  -29.8398  -17.3011   20.0679 C   0  0  0  0  0  0
  -28.7787  -23.6498   20.3515 C   0  0  0  0  0  0
  -30.1133  -23.4969   20.8670 C   0  0  0  0  0  0
  -28.3467  -22.2312   20.0797 C   0  0  0  0  0  0
  -30.9243  -24.5066   21.2244 C   0  0  0  0  0  0
  -28.0082  -24.7995   20.1119 C   0  0  0  0  0  0
  -30.4824  -22.0172   20.9596 C   0  0  0  0  0  0
  -29.3248  -21.2895   20.4136 N   0  0  0  0  0  0
  -29.8595  -15.9583   20.7429 N   0  0  0  0  0  0
  -27.2461  -21.9080   19.6217 O   0  0  0  0  0  0
  -31.4746  -12.6160   19.1928 H   0  0  0  0  0  0
  -30.3897  -11.5173   19.9906 H   0  0  0  0  0  0
  -29.8076  -11.7400   17.5477 H   0  0  0  0  0  0
  -29.6410  -13.4702   17.7303 H   0  0  0  0  0  0
  -27.9038  -11.2906   18.9271 H   0  0  0  0  0  0
  -27.3866  -12.5269   17.8116 H   0  0  0  0  0  0
  -27.6312  -14.2618   19.4686 H   0  0  0  0  0  0
  -28.7309  -12.2114   21.4524 H   0  0  0  0  0  0
  -28.4019  -13.8927   21.7936 H   0  0  0  0  0  0
  -25.2746   -9.5702   22.4766 H   0  0  0  0  0  0
  -23.9989   -7.4645   22.7466 H   0  0  0  0  0  0
  -21.0827   -8.8761   19.8961 H   0  0  0  0  0  0
  -22.3660  -10.9668   19.6139 H   0  0  0  0  0  0
  -21.1997   -7.6143   23.9711 H   0  0  0  0  0  0
  -21.1490   -6.0514   25.9081 H   0  0  0  0  0  0
  -22.0595   -2.7593   23.2845 H   0  0  0  0  0  0
  -22.4047  -11.9885   22.4799 H   0  0  0  0  0  0
  -21.1059  -13.1242   22.2562 H   0  0  0  0  0  0
  -24.6595  -15.8545   20.5302 H   0  0  0  0  0  0
  -26.2733  -15.6344   20.0878 H   0  0  0  0  0  0
  -26.7246  -32.5329   23.1063 H   0  0  0  0  0  0
  -25.0119  -33.9677   25.0378 H   0  0  0  0  0  0
  -22.7333  -31.3004   21.3943 H   0  0  0  0  0  0
  -23.3767  -35.9585   23.3264 H   0  0  0  0  0  0
  -24.3609  -36.8907   22.2061 H   0  0  0  0  0  0
  -23.7241  -37.6435   23.6695 H   0  0  0  0  0  0
  -26.1410  -31.4934   20.6192 H   0  0  0  0  0  0
  -26.8623  -30.7880   22.0308 H   0  0  0  0  0  0
  -28.1041  -28.8237   21.2788 H   0  0  0  0  0  0
  -25.9241  -25.9649   18.8630 H   0  0  0  0  0  0
  -23.9817  -27.3548   18.9350 H   0  0  0  0  0  0
  -23.7885  -30.5881   19.4029 H   0  0  0  0  0  0
  -22.7735  -29.2519   19.8494 H   0  0  0  0  0  0
  -25.1319  -36.1850   25.0806 H   0  0  0  0  0  0
  -21.0019  -28.3264   24.1365 H   0  0  0  0  0  0
  -20.5633  -26.2319   23.3613 H   0  0  0  0  0  0
  -21.6643  -26.7404   22.1200 H   0  0  0  0  0  0
  -19.6901  -25.6277   21.1243 H   0  0  0  0  0  0
  -19.6686  -27.3177   20.6732 H   0  0  0  0  0  0
  -17.4203  -26.6682   21.4020 H   0  0  0  0  0  0
  -18.0344  -26.0074   22.9010 H   0  0  0  0  0  0
  -19.7946  -30.7278   24.2232 H   0  0  0  0  0  0
  -17.5024  -31.6273   24.5141 H   0  0  0  0  0  0
  -15.5354  -30.2964   23.7678 H   0  0  0  0  0  0
  -15.8695  -28.0808   22.7079 H   0  0  0  0  0  0
  -24.5960  -30.7035   25.7767 H   0  0  0  0  0  0
  -24.8890  -32.2888   26.4821 H   0  0  0  0  0  0
  -25.8044  -30.8937   27.0244 H   0  0  0  0  0  0
  -26.2955  -29.6706   24.1275 H   0  0  0  0  0  0
  -27.3994  -29.7240   25.4819 H   0  0  0  0  0  0
  -27.8875  -30.4197   23.9564 H   0  0  0  0  0  0
  -27.2750  -33.3649   26.2017 H   0  0  0  0  0  0
  -28.3942  -32.6776   25.0325 H   0  0  0  0  0  0
  -28.0741  -31.8446   26.5439 H   0  0  0  0  0  0
  -28.2566  -38.0107   24.7534 H   0  0  0  0  0  0
  -28.1105  -36.2632   24.6253 H   0  0  0  0  0  0
  -27.2310  -37.1367   25.8866 H   0  0  0  0  0  0
  -20.9426  -29.8773   21.6842 H   0  0  0  0  0  0
  -26.0135  -38.2801   24.1444 H   0  0  0  0  0  0
  -29.8776  -18.4291   16.8255 H   0  0  0  0  0  0
  -29.4993  -20.6054   17.8811 H   0  0  0  0  0  0
  -30.0928  -16.3739   18.1223 H   0  0  0  0  0  0
  -29.5345  -18.6768   21.7593 H   0  0  0  0  0  0
  -30.6165  -25.5392   21.1401 H   0  0  0  0  0  0
  -31.9136  -24.3153   21.6129 H   0  0  0  0  0  0
  -27.0120  -24.5944   19.7654 H   0  0  0  0  0  0
  -30.6630  -21.7304   21.9952 H   0  0  0  0  0  0
  -31.3789  -21.8047   20.3755 H   0  0  0  0  0  0
  -29.0453  -15.7741   21.3107 H   0  0  0  0  0  0
  1 25  1  0  0  0
  1 30  2  0  0  0
  1 84  1  0  0  0
  2  3  1  0  0  0
  2 25  1  0  0  0
  2 86  1  0  0  0
  2 87  1  0  0  0
  3  4  1  0  0  0
  3 88  1  0  0  0
  3 89  1  0  0  0
  4  5  1  0  0  0
  4 90  1  0  0  0
  4 91  1  0  0  0
  5  6  1  0  0  0
  5 26  1  0  0  0
  5 92  1  0  0  0
  6 25  1  0  0  0
  6 93  1  0  0  0
  6 94  1  0  0  0
  7  8  2  0  0  0
  7 26  1  0  0  0
  7 29  1  0  0  0
  8  9  1  0  0  0
  8 22  1  0  0  0
  9 10  1  0  0  0
  9 27  2  0  0  0
 10 11  2  0  0  0
 10 15  1  0  0  0
 11 12  1  0  0  0
 11 95  1  0  0  0
 12 13  2  0  0  0
 12 96  1  0  0  0
 13 14  1  0  0  0
 13 31  1  0  0  0
 14 15  2  0  0  0
 14 97  1  0  0  0
 15 98  1  0  0  0
 16 17  2  0  0  0
 16 21  1  0  0  0
 16 31  1  0  0  0
 17 18  1  0  0  0
 17 99  1  0  0  0
 18 19  2  0  0  0
 18100  1  0  0  0
 19 20  1  0  0  0
 19 24  1  0  0  0
 20 21  2  0  0  0
 20101  1  0  0  0
 21 23  1  0  0  0
 22 28  1  0  0  0
 22 32  2  0  0  0
 26 27  1  0  0  0
 28102  1  0  0  0
 28103  1  0  0  0
 29104  1  0  0  0
 29105  1  0  0  0
 33 34  1  0  0  0
 33 66  1  0  0  0
 33 70  2  0  0  0
 34 36  1  0  0  0
 34 59  1  0  0  0
 34106  1  0  0  0
 35 44  2  0  0  0
 35 45  1  0  0  0
 35 68  1  0  0  0
 36 56  1  0  0  0
 36107  1  0  0  0
 37 39  1  0  0  0
 37 47  1  0  0  0
 37 66  1  0  0  0
 37108  1  0  0  0
 38 43  2  0  0  0
 38 46  1  0  0  0
 38 47  1  0  0  0
 39 64  1  0  0  0
 39 67  2  0  0  0
 40 52  1  0  0  0
 40 53  2  0  0  0
 40 58  1  0  0  0
 41109  1  0  0  0
 41110  1  0  0  0
 41111  1  0  0  0
 41 48  1  0  0  0
 42 43  1  0  0  0
 42 66  1  0  0  0
 42112  1  0  0  0
 42113  1  0  0  0
 43 44  1  0  0  0
 44114  1  0  0  0
 45 46  2  0  0  0
 45115  1  0  0  0
 46116  1  0  0  0
 47117  1  0  0  0
 47118  1  0  0  0
 48 56  1  0  0  0
 48 65  1  0  0  0
 48119  1  0  0  0
 49 50  1  0  0  0
 49 53  1  0  0  0
 49 64  1  0  0  0
 49120  1  0  0  0
 50 51  1  0  0  0
 50121  1  0  0  0
 50122  1  0  0  0
 51 52  1  0  0  0
 51123  1  0  0  0
 51124  1  0  0  0
 52125  1  0  0  0
 52126  1  0  0  0
 53 54  1  0  0  0
 54 55  2  0  0  0
 54127  1  0  0  0
 55 57  1  0  0  0
 55128  1  0  0  0
 56 69  2  0  0  0
 57 58  2  0  0  0
 57129  1  0  0  0
 58130  1  0  0  0
 59 60  1  0  0  0
 59 61  1  0  0  0
 59 62  1  0  0  0
 60131  1  0  0  0
 60132  1  0  0  0
 60133  1  0  0  0
 61134  1  0  0  0
 61135  1  0  0  0
 61136  1  0  0  0
 62137  1  0  0  0
 62138  1  0  0  0
 62139  1  0  0  0
 63 65  1  0  0  0
 63140  1  0  0  0
 63141  1  0  0  0
 63142  1  0  0  0
 64143  1  0  0  0
 65144  1  0  0  0
 68 81  1  0  0  0
 71 72  2  0  0  0
 71 73  1  0  0  0
 71145  1  0  0  0
 72 75  1  0  0  0
 72146  1  0  0  0
 73 76  2  0  0  0
 73147  1  0  0  0
 74 75  2  0  0  0
 74 76  1  0  0  0
 74148  1  0  0  0
 75 83  1  0  0  0
 76 84  1  0  0  0
 77 78  1  0  0  0
 77 79  1  0  0  0
 77 81  2  0  0  0
 78 80  2  0  0  0
 78 82  1  0  0  0
 79 83  1  0  0  0
 79 85  2  0  0  0
 80149  1  0  0  0
 80150  1  0  0  0
 81151  1  0  0  0
 82 83  1  0  0  0
 82152  1  0  0  0
 82153  1  0  0  0
 84154  1  0  0  0
M  ISO  4   1 100  68 101  81 101  84 100
M  END
> <chiral flag>
0

> <version>
0

> <s_m_source_file>
/data/baiqing/PycharmProjects/Reinvent-master-3.2/result/LINK_invent/BTK/process_docking_weight1_custom_product_contain_oxygen_bond_distance_aromatic_linkinvent_7_9_3/rearranged_h_0081.sdf

> <i_m_source_file_index>
63

> <r_mmod_Potential_Energy-OPLS-2005>
442.187652587891

> <r_mmod_Stretch_Energy-OPLS-2005>
157.179016113281

> <r_mmod_Bend_Energy-OPLS-2005>
226.772308349609

> <r_mmod_Torsional_Energy-OPLS-2005>
314.052825927734

> <r_mmod_Improper_Torsional_Energy-OPLS-2005>
5.56581020355225

> <r_mmod_Van_der_Waal_Energy-OPLS-2005>
136.50895690918

> <r_mmod_Electrostatic_Energy-OPLS-2005>
-307.822723388672

> <r_mmod_Solvation_Energy-OPLS-2005>
-215.523071289062

> <b_mmod_Minimization_Converged-OPLS-2005>
0

> <r_mmod_RMS_Derivative-OPLS-2005>
2.63439536094666

$$$$
63
                    3D
 Structure written by MMmdl.
155164  0  0  1  0            999 V2000
  -30.5873  -14.7068   20.4850 C   0  0  0  0  0  0
  -30.4461  -12.4334   19.4586 C   0  0  0  0  0  0
  -29.5130  -12.5152   18.2284 C   0  0  0  0  0  0
  -28.0365  -12.3417   18.6396 C   0  0  0  0  0  0
  -27.6504  -13.2191   19.8597 C   0  0  2  0  0  0
  -28.6969  -13.0974   20.9902 C   0  0  0  0  0  0
  -25.2552  -13.8166   20.5686 C   0  0  0  0  0  0
  -24.1827  -13.0427   20.9201 C   0  0  0  0  0  0
  -24.6404  -11.6902   20.8745 C   0  0  0  0  0  0
  -23.9075  -10.4285   21.0410 C   0  0  0  0  0  0
  -24.3622   -9.4200   21.9190 C   0  0  0  0  0  0
  -23.6294   -8.2239   22.0759 C   0  0  0  0  0  0
  -22.4277   -8.0283   21.3547 C   0  0  0  0  0  0
  -21.9918   -9.0254   20.4644 C   0  0  0  0  0  0
  -22.7249  -10.2133   20.3057 C   0  0  0  0  0  0
  -21.6852   -6.0742   22.5283 C   0  0  0  0  0  0
  -21.4013   -6.5644   23.8218 C   0  0  0  0  0  0
  -21.3658   -5.6796   24.9179 C   0  0  0  0  0  0
  -21.6045   -4.3059   24.7228 C   0  0  0  0  0  0
  -21.8820   -3.8152   23.4349 C   0  0  0  0  0  0
  -21.9191   -4.6969   22.3406 C   0  0  0  0  0  0
  -22.7848  -13.5222   21.1854 C   0  0  0  0  0  0
  -22.1662   -4.2156   21.0981 F   0  0  0  0  0  0
  -21.5626   -3.4541   25.7737 F   0  0  0  0  0  0
  -30.0040  -13.4629   20.4222 N   0  0  0  0  0  0
  -26.2978  -12.9350   20.3303 N   0  0  0  0  0  0
  -25.9330  -11.6505   20.5750 N   0  0  0  0  0  0
  -22.0490  -12.8209   22.0405 N   0  0  0  0  0  0
  -25.4237  -15.1892   20.4110 N   0  0  0  0  0  0
  -31.7626  -14.8734   20.1425 O   0  0  0  0  0  0
  -21.6637   -6.8885   21.4245 O   0  0  0  0  0  0
  -22.3538  -14.5531   20.6706 O   0  0  0  0  0  0
  -24.6293  -31.8564   23.1992 C   0  0  0  0  0  0
  -25.9127  -32.4760   23.8332 C   0  0  1  0  0  0
  -27.2330  -27.2892   20.1133 C   0  0  0  0  0  0
  -25.5930  -33.8562   24.2260 N   0  0  0  0  0  0
  -23.4244  -30.4789   21.5431 C   0  0  2  0  0  0
  -24.8717  -28.9280   20.1103 C   0  0  0  0  0  0
  -22.7488  -29.4607   22.4928 C   0  0  0  0  0  0
  -18.0286  -28.1389   22.8490 C   0  0  0  0  0  0
  -24.1487  -36.7280   23.2636 C   0  0  0  0  0  0
  -25.9680  -30.7787   21.3730 C   0  0  0  0  0  0
  -26.0426  -29.4035   20.7131 C   0  0  0  0  0  0
  -27.2224  -28.5962   20.7038 C   0  0  0  0  0  0
  -26.0251  -26.8629   19.5130 C   0  0  0  0  0  0
  -24.8664  -27.6638   19.5015 C   0  0  0  0  0  0
  -23.6406  -29.8115   20.1594 C   0  0  0  0  0  0
  -25.4112  -36.3072   24.0328 C   0  0  1  0  0  0
  -20.5888  -28.3695   23.1284 C   0  0  2  0  0  0
  -20.6775  -26.9416   22.5413 C   0  0  0  0  0  0
  -19.5749  -26.6387   21.5216 C   0  0  0  0  0  0
  -18.1930  -26.7933   22.1629 C   0  0  0  0  0  0
  -19.1540  -28.8860   23.2881 C   0  0  0  0  0  0
  -18.9461  -30.1463   23.8896 C   0  0  0  0  0  0
  -17.6461  -30.6594   24.0563 C   0  0  0  0  0  0
  -25.9058  -34.9443   23.5099 C   0  0  0  0  0  0
  -16.5351  -29.9091   23.6332 C   0  0  0  0  0  0
  -16.7274  -28.6506   23.0357 C   0  0  0  0  0  0
  -26.4498  -31.6577   25.0712 C   0  0  0  0  0  0
  -25.3721  -31.3706   26.1428 C   0  0  0  0  0  0
  -27.0348  -30.3004   24.6173 C   0  0  0  0  0  0
  -27.6048  -32.4314   25.7495 C   0  0  0  0  0  0
  -27.5587  -37.1784   24.8454 C   0  0  0  0  0  0
  -21.4197  -29.3042   22.3672 N   0  0  0  0  0  0
  -26.4280  -37.3781   23.9426 N   0  0  0  0  0  0
  -24.6932  -31.0551   22.0954 N   0  0  0  0  0  0
  -23.4198  -28.8149   23.3021 O   0  0  0  0  0  0
  -28.3574  -26.4335   20.1867 O   0  0  0  0  0  0
  -26.5635  -34.8918   22.4671 O   0  0  0  0  0  0
  -23.5451  -32.1373   23.7307 O   0  0  0  0  0  0
  -28.8955  -19.3343   19.6115 C   0  0  0  0  0  0
  -30.2800  -19.4915   21.5539 C   0  0  0  0  0  0
  -29.0401  -17.9073   19.6365 C   0  0  0  0  0  0
  -30.4446  -18.0663   21.5659 C   0  0  0  0  0  0
  -29.4879  -20.1895   20.5880 C   0  0  0  0  0  0
  -29.8151  -17.2197   20.6140 C   0  0  0  0  0  0
  -28.7353  -23.9486   20.2592 C   0  0  0  0  0  0
  -29.0380  -23.8196   21.6716 C   0  0  0  0  0  0
  -28.8810  -22.5713   19.6923 C   0  0  0  0  0  0
  -28.4175  -25.1363   19.5996 C   0  0  0  0  0  0
  -29.4501  -22.3755   21.9487 C   0  0  0  0  0  0
  -28.2716  -25.2132   18.0831 C   0  0  0  0  0  0
  -29.2640  -21.6665   20.6703 N   0  0  0  0  0  0
  -29.7329  -15.7540   20.7607 N   0  0  0  0  0  0
  -29.0063  -24.6974   22.5414 O   0  0  0  0  0  0
  -28.6984  -22.2507   18.5118 O   0  0  0  0  0  0
  -31.4843  -12.5769   19.1546 H   0  0  0  0  0  0
  -30.4000  -11.4431   19.9141 H   0  0  0  0  0  0
  -29.7872  -11.7568   17.4941 H   0  0  0  0  0  0
  -29.6428  -13.4792   17.7340 H   0  0  0  0  0  0
  -27.8811  -11.2892   18.8781 H   0  0  0  0  0  0
  -27.3815  -12.5614   17.7956 H   0  0  0  0  0  0
  -27.6577  -14.2498   19.5052 H   0  0  0  0  0  0
  -28.7256  -12.0789   21.3801 H   0  0  0  0  0  0
  -28.4341  -13.7327   21.8378 H   0  0  0  0  0  0
  -25.2770   -9.5676   22.4762 H   0  0  0  0  0  0
  -24.0003   -7.4633   22.7481 H   0  0  0  0  0  0
  -21.0852   -8.8777   19.8941 H   0  0  0  0  0  0
  -22.3715  -10.9676   19.6164 H   0  0  0  0  0  0
  -21.2011   -7.6154   23.9721 H   0  0  0  0  0  0
  -21.1478   -6.0528   25.9081 H   0  0  0  0  0  0
  -22.0600   -2.7615   23.2845 H   0  0  0  0  0  0
  -22.4106  -11.9867   22.4785 H   0  0  0  0  0  0
  -21.1106  -13.1230   22.2604 H   0  0  0  0  0  0
  -24.6514  -15.8373   20.5217 H   0  0  0  0  0  0
  -26.2641  -15.6346   20.0663 H   0  0  0  0  0  0
  -26.7188  -32.5421   23.1073 H   0  0  0  0  0  0
  -25.0062  -33.9696   25.0395 H   0  0  0  0  0  0
  -22.7194  -31.3004   21.3982 H   0  0  0  0  0  0
  -23.3772  -35.9586   23.3253 H   0  0  0  0  0  0
  -24.3586  -36.8954   22.2061 H   0  0  0  0  0  0
  -23.7206  -37.6450   23.6694 H   0  0  0  0  0  0
  -26.1011  -31.5419   20.6051 H   0  0  0  0  0  0
  -26.8476  -30.8281   22.0033 H   0  0  0  0  0  0
  -28.1205  -28.9570   21.1853 H   0  0  0  0  0  0
  -25.9446  -25.8826   19.0704 H   0  0  0  0  0  0
  -23.9645  -27.2872   19.0388 H   0  0  0  0  0  0
  -23.7604  -30.5872   19.4023 H   0  0  0  0  0  0
  -22.7597  -29.2423   19.8576 H   0  0  0  0  0  0
  -25.1286  -36.1910   25.0819 H   0  0  0  0  0  0
  -20.9980  -28.3273   24.1406 H   0  0  0  0  0  0
  -20.5684  -26.2300   23.3611 H   0  0  0  0  0  0
  -21.6643  -26.7449   22.1202 H   0  0  0  0  0  0
  -19.6910  -25.6299   21.1243 H   0  0  0  0  0  0
  -19.6689  -27.3199   20.6746 H   0  0  0  0  0  0
  -17.4200  -26.6687   21.4030 H   0  0  0  0  0  0
  -18.0327  -26.0075   22.9025 H   0  0  0  0  0  0
  -19.7936  -30.7281   24.2267 H   0  0  0  0  0  0
  -17.5014  -31.6276   24.5161 H   0  0  0  0  0  0
  -15.5351  -30.2993   23.7655 H   0  0  0  0  0  0
  -15.8672  -28.0822   22.7077 H   0  0  0  0  0  0
  -24.5907  -30.7049   25.7745 H   0  0  0  0  0  0
  -24.8899  -32.2865   26.4851 H   0  0  0  0  0  0
  -25.8042  -30.8880   27.0203 H   0  0  0  0  0  0
  -26.2928  -29.6751   24.1194 H   0  0  0  0  0  0
  -27.4044  -29.7261   25.4677 H   0  0  0  0  0  0
  -27.8795  -30.4293   23.9402 H   0  0  0  0  0  0
  -27.2658  -33.3624   26.2049 H   0  0  0  0  0  0
  -28.3878  -32.6854   25.0336 H   0  0  0  0  0  0
  -28.0690  -31.8446   26.5430 H   0  0  0  0  0  0
  -28.2546  -38.0139   24.7595 H   0  0  0  0  0  0
  -28.1144  -36.2677   24.6166 H   0  0  0  0  0  0
  -27.2316  -37.1290   25.8854 H   0  0  0  0  0  0
  -20.9377  -29.8763   21.6877 H   0  0  0  0  0  0
  -26.0153  -38.2839   24.1489 H   0  0  0  0  0  0
  -28.2636  -19.7600   18.8454 H   0  0  0  0  0  0
  -30.7688  -20.0477   22.3407 H   0  0  0  0  0  0
  -28.5020  -17.3305   18.8979 H   0  0  0  0  0  0
  -31.0211  -17.6214   22.3651 H   0  0  0  0  0  0
  -28.8241  -21.9441   22.7297 H   0  0  0  0  0  0
  -30.4918  -22.3488   22.2681 H   0  0  0  0  0  0
  -27.4007  -24.6506   17.7458 H   0  0  0  0  0  0
  -29.1545  -24.7952   17.5986 H   0  0  0  0  0  0
  -28.1737  -26.2417   17.7350 H   0  0  0  0  0  0
  -28.8010  -15.4195   20.9512 H   0  0  0  0  0  0
  1 25  1  0  0  0
  1 30  2  0  0  0
  1 84  1  0  0  0
  2  3  1  0  0  0
  2 25  1  0  0  0
  2 87  1  0  0  0
  2 88  1  0  0  0
  3  4  1  0  0  0
  3 89  1  0  0  0
  3 90  1  0  0  0
  4  5  1  0  0  0
  4 91  1  0  0  0
  4 92  1  0  0  0
  5  6  1  0  0  0
  5 26  1  0  0  0
  5 93  1  0  0  0
  6 25  1  0  0  0
  6 94  1  0  0  0
  6 95  1  0  0  0
  7  8  2  0  0  0
  7 26  1  0  0  0
  7 29  1  0  0  0
  8  9  1  0  0  0
  8 22  1  0  0  0
  9 10  1  0  0  0
  9 27  2  0  0  0
 10 11  2  0  0  0
 10 15  1  0  0  0
 11 12  1  0  0  0
 11 96  1  0  0  0
 12 13  2  0  0  0
 12 97  1  0  0  0
 13 14  1  0  0  0
 13 31  1  0  0  0
 14 15  2  0  0  0
 14 98  1  0  0  0
 15 99  1  0  0  0
 16 17  2  0  0  0
 16 21  1  0  0  0
 16 31  1  0  0  0
 17 18  1  0  0  0
 17100  1  0  0  0
 18 19  2  0  0  0
 18101  1  0  0  0
 19 20  1  0  0  0
 19 24  1  0  0  0
 20 21  2  0  0  0
 20102  1  0  0  0
 21 23  1  0  0  0
 22 28  1  0  0  0
 22 32  2  0  0  0
 26 27  1  0  0  0
 28103  1  0  0  0
 28104  1  0  0  0
 29105  1  0  0  0
 29106  1  0  0  0
 33 34  1  0  0  0
 33 66  1  0  0  0
 33 70  2  0  0  0
 34 36  1  0  0  0
 34 59  1  0  0  0
 34107  1  0  0  0
 35 44  2  0  0  0
 35 45  1  0  0  0
 35 68  1  0  0  0
 36 56  1  0  0  0
 36108  1  0  0  0
 37 39  1  0  0  0
 37 47  1  0  0  0
 37 66  1  0  0  0
 37109  1  0  0  0
 38 43  2  0  0  0
 38 46  1  0  0  0
 38 47  1  0  0  0
 39 64  1  0  0  0
 39 67  2  0  0  0
 40 52  1  0  0  0
 40 53  2  0  0  0
 40 58  1  0  0  0
 41110  1  0  0  0
 41111  1  0  0  0
 41112  1  0  0  0
 41 48  1  0  0  0
 42 43  1  0  0  0
 42 66  1  0  0  0
 42113  1  0  0  0
 42114  1  0  0  0
 43 44  1  0  0  0
 44115  1  0  0  0
 45 46  2  0  0  0
 45116  1  0  0  0
 46117  1  0  0  0
 47118  1  0  0  0
 47119  1  0  0  0
 48 56  1  0  0  0
 48 65  1  0  0  0
 48120  1  0  0  0
 49 50  1  0  0  0
 49 53  1  0  0  0
 49 64  1  0  0  0
 49121  1  0  0  0
 50 51  1  0  0  0
 50122  1  0  0  0
 50123  1  0  0  0
 51 52  1  0  0  0
 51124  1  0  0  0
 51125  1  0  0  0
 52126  1  0  0  0
 52127  1  0  0  0
 53 54  1  0  0  0
 54 55  2  0  0  0
 54128  1  0  0  0
 55 57  1  0  0  0
 55129  1  0  0  0
 56 69  2  0  0  0
 57 58  2  0  0  0
 57130  1  0  0  0
 58131  1  0  0  0
 59 60  1  0  0  0
 59 61  1  0  0  0
 59 62  1  0  0  0
 60132  1  0  0  0
 60133  1  0  0  0
 60134  1  0  0  0
 61135  1  0  0  0
 61136  1  0  0  0
 61137  1  0  0  0
 62138  1  0  0  0
 62139  1  0  0  0
 62140  1  0  0  0
 63 65  1  0  0  0
 63141  1  0  0  0
 63142  1  0  0  0
 63143  1  0  0  0
 64144  1  0  0  0
 65145  1  0  0  0
 68 80  1  0  0  0
 71 73  2  0  0  0
 71 75  1  0  0  0
 71146  1  0  0  0
 72 74  1  0  0  0
 72 75  2  0  0  0
 72147  1  0  0  0
 73 76  1  0  0  0
 73148  1  0  0  0
 74 76  2  0  0  0
 74149  1  0  0  0
 75 83  1  0  0  0
 76 84  1  0  0  0
 77 78  1  0  0  0
 77 79  1  0  0  0
 77 80  2  0  0  0
 78 81  1  0  0  0
 78 85  2  0  0  0
 79 83  1  0  0  0
 79 86  2  0  0  0
 80 82  1  0  0  0
 81 83  1  0  0  0
 81150  1  0  0  0
 81151  1  0  0  0
 82152  1  0  0  0
 82153  1  0  0  0
 82154  1  0  0  0
 84155  1  0  0  0
M  ISO  4   1 100  68 101  80 101  84 100
M  END
> <chiral flag>
0

> <version>
0

> <s_m_source_file>
/data/baiqing/PycharmProjects/Reinvent-master-3.2/result/LINK_invent/BTK/process_docking_weight1_custom_product_contain_oxygen_bond_distance_aromatic_linkinvent_7_9_3/rearranged_h_0081.sdf

> <i_m_source_file_index>
64

> <r_mmod_Potential_Energy-OPLS-2005>
227.355667114258

> <r_mmod_Stretch_Energy-OPLS-2005>
102.72639465332

> <r_mmod_Bend_Energy-OPLS-2005>
194.772994995117

> <r_mmod_Torsional_Energy-OPLS-2005>
283.338348388672

> <r_mmod_Improper_Torsional_Energy-OPLS-2005>
6.78452825546265

> <r_mmod_Van_der_Waal_Energy-OPLS-2005>
139.023880004883

> <r_mmod_Electrostatic_Energy-OPLS-2005>
-332.606262207031

> <r_mmod_Solvation_Energy-OPLS-2005>
-234.816345214844

> <b_mmod_Minimization_Converged-OPLS-2005>
0

> <r_mmod_RMS_Derivative-OPLS-2005>
0.613000154495239

$$$$
64
                    3D
 Structure written by MMmdl.
153162  0  0  1  0            999 V2000
  -30.6046  -14.7235   20.5452 C   0  0  0  0  0  0
  -30.4465  -12.4609   19.4730 C   0  0  0  0  0  0
  -29.5186  -12.5445   18.2380 C   0  0  0  0  0  0
  -28.0395  -12.3605   18.6349 C   0  0  0  0  0  0
  -27.6521  -13.2196   19.8659 C   0  0  2  0  0  0
  -28.6900  -13.0532   20.9929 C   0  0  0  0  0  0
  -25.2555  -13.8160   20.5672 C   0  0  0  0  0  0
  -24.1825  -13.0424   20.9162 C   0  0  0  0  0  0
  -24.6394  -11.6898   20.8708 C   0  0  0  0  0  0
  -23.9064  -10.4277   21.0382 C   0  0  0  0  0  0
  -24.3617   -9.4203   21.9169 C   0  0  0  0  0  0
  -23.6287   -8.2245   22.0752 C   0  0  0  0  0  0
  -22.4271   -8.0274   21.3540 C   0  0  0  0  0  0
  -21.9903   -9.0250   20.4647 C   0  0  0  0  0  0
  -22.7235  -10.2121   20.3042 C   0  0  0  0  0  0
  -21.6853   -6.0734   22.5275 C   0  0  0  0  0  0
  -21.4016   -6.5636   23.8211 C   0  0  0  0  0  0
  -21.3657   -5.6791   24.9172 C   0  0  0  0  0  0
  -21.6044   -4.3054   24.7223 C   0  0  0  0  0  0
  -21.8821   -3.8142   23.4344 C   0  0  0  0  0  0
  -21.9196   -4.6961   22.3396 C   0  0  0  0  0  0
  -22.7853  -13.5223   21.1847 C   0  0  0  0  0  0
  -22.1669   -4.2151   21.0972 F   0  0  0  0  0  0
  -21.5621   -3.4533   25.7737 F   0  0  0  0  0  0
  -30.0003  -13.4763   20.4617 N   0  0  0  0  0  0
  -26.2979  -12.9338   20.3281 N   0  0  0  0  0  0
  -25.9314  -11.6486   20.5699 N   0  0  0  0  0  0
  -22.0498  -12.8218   22.0403 N   0  0  0  0  0  0
  -25.4271  -15.1882   20.4137 N   0  0  0  0  0  0
  -31.7125  -14.8996   20.0229 O   0  0  0  0  0  0
  -21.6639   -6.8876   21.4238 O   0  0  0  0  0  0
  -22.3540  -14.5541   20.6715 O   0  0  0  0  0  0
  -24.6312  -31.8559   23.1998 C   0  0  0  0  0  0
  -25.9148  -32.4758   23.8326 C   0  0  1  0  0  0
  -27.2249  -27.2797   20.1076 C   0  0  0  0  0  0
  -25.5960  -33.8550   24.2284 N   0  0  0  0  0  0
  -23.4263  -30.4802   21.5430 C   0  0  2  0  0  0
  -24.8748  -28.9332   20.1047 C   0  0  0  0  0  0
  -22.7506  -29.4598   22.4897 C   0  0  0  0  0  0
  -18.0305  -28.1393   22.8482 C   0  0  0  0  0  0
  -24.1496  -36.7250   23.2626 C   0  0  0  0  0  0
  -25.9711  -30.7729   21.3779 C   0  0  0  0  0  0
  -26.0467  -29.3984   20.7151 C   0  0  0  0  0  0
  -27.2230  -28.5815   20.7121 C   0  0  0  0  0  0
  -26.0220  -26.8731   19.4847 C   0  0  0  0  0  0
  -24.8660  -27.6781   19.4794 C   0  0  0  0  0  0
  -23.6444  -29.8194   20.1568 C   0  0  0  0  0  0
  -25.4117  -36.3060   24.0337 C   0  0  1  0  0  0
  -20.5909  -28.3690   23.1276 C   0  0  2  0  0  0
  -20.6790  -26.9409   22.5405 C   0  0  0  0  0  0
  -19.5772  -26.6386   21.5201 C   0  0  0  0  0  0
  -18.1949  -26.7949   22.1609 C   0  0  0  0  0  0
  -19.1553  -28.8859   23.2884 C   0  0  0  0  0  0
  -18.9468  -30.1460   23.8908 C   0  0  0  0  0  0
  -17.6460  -30.6586   24.0555 C   0  0  0  0  0  0
  -25.9054  -34.9436   23.5102 C   0  0  0  0  0  0
  -16.5357  -29.9075   23.6322 C   0  0  0  0  0  0
  -16.7288  -28.6494   23.0346 C   0  0  0  0  0  0
  -26.4533  -31.6561   25.0694 C   0  0  0  0  0  0
  -25.3768  -31.3695   26.1420 C   0  0  0  0  0  0
  -27.0336  -30.2969   24.6152 C   0  0  0  0  0  0
  -27.6120  -32.4257   25.7465 C   0  0  0  0  0  0
  -27.5598  -37.1771   24.8468 C   0  0  0  0  0  0
  -21.4209  -29.3031   22.3652 N   0  0  0  0  0  0
  -26.4293  -37.3759   23.9433 N   0  0  0  0  0  0
  -24.6951  -31.0535   22.0967 N   0  0  0  0  0  0
  -23.4214  -28.8125   23.2983 O   0  0  0  0  0  0
  -28.2983  -26.3622   20.1922 O   0  0  0  0  0  0
  -26.5582  -34.8917   22.4647 O   0  0  0  0  0  0
  -23.5461  -32.1354   23.7307 O   0  0  0  0  0  0
  -30.5939  -18.0502   19.8389 C   0  0  0  0  0  0
  -28.8402  -18.3170   21.4206 C   0  0  0  0  0  0
  -30.4404  -19.4337   19.4767 C   0  0  0  0  0  0
  -28.6810  -19.6958   21.0610 C   0  0  0  0  0  0
  -29.7870  -17.4140   20.8247 C   0  0  0  0  0  0
  -29.4611  -20.3147   20.0488 C   0  0  0  0  0  0
  -28.7144  -23.9957   19.1763 C   0  0  0  0  0  0
  -28.9561  -22.9058   20.1803 C   0  0  0  0  0  0
  -29.1067  -21.8856   18.1868 C   0  0  0  0  0  0
  -28.4406  -25.3629   19.2083 C   0  0  0  0  0  0
  -29.8904  -15.9276   21.3324 C   0  0  0  0  0  0
  -28.8028  -23.3230   17.8449 C   0  0  0  0  0  0
  -29.3968  -15.6950   22.4776 N   0  0  0  0  0  0
  -29.1979  -21.6954   19.5218 N   0  0  0  0  0  0
  -28.9527  -23.0322   21.4106 O   0  0  0  0  0  0
  -29.2203  -21.0297   17.3009 O   0  0  0  0  0  0
  -31.4851  -12.6061   19.1711 H   0  0  0  0  0  0
  -30.4098  -11.4619   19.9098 H   0  0  0  0  0  0
  -29.8030  -11.7947   17.4991 H   0  0  0  0  0  0
  -29.6492  -13.5136   17.7545 H   0  0  0  0  0  0
  -27.8862  -11.3042   18.8599 H   0  0  0  0  0  0
  -27.3887  -12.5898   17.7901 H   0  0  0  0  0  0
  -27.6745  -14.2609   19.5444 H   0  0  0  0  0  0
  -28.7334  -12.0102   21.3087 H   0  0  0  0  0  0
  -28.3721  -13.5822   21.8850 H   0  0  0  0  0  0
  -25.2758   -9.5690   22.4748 H   0  0  0  0  0  0
  -24.0002   -7.4639   22.7464 H   0  0  0  0  0  0
  -21.0840   -8.8763   19.8949 H   0  0  0  0  0  0
  -22.3684  -10.9663   19.6155 H   0  0  0  0  0  0
  -21.2012   -7.6144   23.9714 H   0  0  0  0  0  0
  -21.1476   -6.0516   25.9077 H   0  0  0  0  0  0
  -22.0602   -2.7601   23.2837 H   0  0  0  0  0  0
  -22.4108  -11.9869   22.4780 H   0  0  0  0  0  0
  -21.1123  -13.1242   22.2624 H   0  0  0  0  0  0
  -24.6668  -15.8470   20.5424 H   0  0  0  0  0  0
  -26.2935  -15.6312   20.1363 H   0  0  0  0  0  0
  -26.7208  -32.5442   23.1057 H   0  0  0  0  0  0
  -25.0202  -33.9685   25.0497 H   0  0  0  0  0  0
  -22.7220  -31.3023   21.4017 H   0  0  0  0  0  0
  -23.3784  -35.9551   23.3259 H   0  0  0  0  0  0
  -24.3590  -36.8877   22.2041 H   0  0  0  0  0  0
  -23.7225  -37.6437   23.6650 H   0  0  0  0  0  0
  -26.1127  -31.5371   20.6127 H   0  0  0  0  0  0
  -26.8465  -30.8202   22.0129 H   0  0  0  0  0  0
  -28.1188  -28.9271   21.2094 H   0  0  0  0  0  0
  -25.9441  -25.8983   19.0251 H   0  0  0  0  0  0
  -23.9649  -27.3159   19.0035 H   0  0  0  0  0  0
  -23.7666  -30.5982   19.4036 H   0  0  0  0  0  0
  -22.7631  -29.2541   19.8501 H   0  0  0  0  0  0
  -25.1291  -36.1892   25.0824 H   0  0  0  0  0  0
  -21.0007  -28.3275   24.1394 H   0  0  0  0  0  0
  -20.5672  -26.2290   23.3596 H   0  0  0  0  0  0
  -21.6664  -26.7423   22.1213 H   0  0  0  0  0  0
  -19.6906  -25.6295   21.1235 H   0  0  0  0  0  0
  -19.6720  -27.3188   20.6729 H   0  0  0  0  0  0
  -17.4216  -26.6693   21.4016 H   0  0  0  0  0  0
  -18.0341  -26.0107   22.9019 H   0  0  0  0  0  0
  -19.7938  -30.7280   24.2276 H   0  0  0  0  0  0
  -17.5011  -31.6280   24.5140 H   0  0  0  0  0  0
  -15.5355  -30.2957   23.7663 H   0  0  0  0  0  0
  -15.8697  -28.0795   22.7061 H   0  0  0  0  0  0
  -24.6037  -30.6923   25.7769 H   0  0  0  0  0  0
  -24.8858  -32.2843   26.4751 H   0  0  0  0  0  0
  -25.8116  -30.8985   27.0247 H   0  0  0  0  0  0
  -26.2871  -29.6741   24.1210 H   0  0  0  0  0  0
  -27.4047  -29.7214   25.4643 H   0  0  0  0  0  0
  -27.8763  -30.4205   23.9344 H   0  0  0  0  0  0
  -27.2790  -33.3599   26.1989 H   0  0  0  0  0  0
  -28.3977  -32.6713   25.0308 H   0  0  0  0  0  0
  -28.0738  -31.8394   26.5420 H   0  0  0  0  0  0
  -28.2581  -38.0105   24.7574 H   0  0  0  0  0  0
  -28.1143  -36.2644   24.6223 H   0  0  0  0  0  0
  -27.2331  -37.1337   25.8873 H   0  0  0  0  0  0
  -20.9379  -29.8732   21.6848 H   0  0  0  0  0  0
  -26.0173  -38.2822   24.1473 H   0  0  0  0  0  0
  -31.3581  -17.4735   19.3374 H   0  0  0  0  0  0
  -28.1758  -17.9503   22.1900 H   0  0  0  0  0  0
  -31.0919  -19.8121   18.7013 H   0  0  0  0  0  0
  -27.9084  -20.2699   21.5552 H   0  0  0  0  0  0
  -28.3206  -25.8414   18.2456 H   0  0  0  0  0  0
  -29.5998  -23.7524   17.2371 H   0  0  0  0  0  0
  -27.8563  -23.3890   17.3088 H   0  0  0  0  0  0
  -29.0022  -16.5356   22.8803 H   0  0  0  0  0  0
  1 25  1  0  0  0
  1 30  2  0  0  0
  1 81  1  0  0  0
  2  3  1  0  0  0
  2 25  1  0  0  0
  2 87  1  0  0  0
  2 88  1  0  0  0
  3  4  1  0  0  0
  3 89  1  0  0  0
  3 90  1  0  0  0
  4  5  1  0  0  0
  4 91  1  0  0  0
  4 92  1  0  0  0
  5  6  1  0  0  0
  5 26  1  0  0  0
  5 93  1  0  0  0
  6 25  1  0  0  0
  6 94  1  0  0  0
  6 95  1  0  0  0
  7  8  2  0  0  0
  7 26  1  0  0  0
  7 29  1  0  0  0
  8  9  1  0  0  0
  8 22  1  0  0  0
  9 10  1  0  0  0
  9 27  2  0  0  0
 10 11  2  0  0  0
 10 15  1  0  0  0
 11 12  1  0  0  0
 11 96  1  0  0  0
 12 13  2  0  0  0
 12 97  1  0  0  0
 13 14  1  0  0  0
 13 31  1  0  0  0
 14 15  2  0  0  0
 14 98  1  0  0  0
 15 99  1  0  0  0
 16 17  2  0  0  0
 16 21  1  0  0  0
 16 31  1  0  0  0
 17 18  1  0  0  0
 17100  1  0  0  0
 18 19  2  0  0  0
 18101  1  0  0  0
 19 20  1  0  0  0
 19 24  1  0  0  0
 20 21  2  0  0  0
 20102  1  0  0  0
 21 23  1  0  0  0
 22 28  1  0  0  0
 22 32  2  0  0  0
 26 27  1  0  0  0
 28103  1  0  0  0
 28104  1  0  0  0
 29105  1  0  0  0
 29106  1  0  0  0
 33 34  1  0  0  0
 33 66  1  0  0  0
 33 70  2  0  0  0
 34 36  1  0  0  0
 34 59  1  0  0  0
 34107  1  0  0  0
 35 44  2  0  0  0
 35 45  1  0  0  0
 35 68  1  0  0  0
 36 56  1  0  0  0
 36108  1  0  0  0
 37 39  1  0  0  0
 37 47  1  0  0  0
 37 66  1  0  0  0
 37109  1  0  0  0
 38 43  2  0  0  0
 38 46  1  0  0  0
 38 47  1  0  0  0
 39 64  1  0  0  0
 39 67  2  0  0  0
 40 52  1  0  0  0
 40 53  2  0  0  0
 40 58  1  0  0  0
 41110  1  0  0  0
 41111  1  0  0  0
 41112  1  0  0  0
 41 48  1  0  0  0
 42 43  1  0  0  0
 42 66  1  0  0  0
 42113  1  0  0  0
 42114  1  0  0  0
 43 44  1  0  0  0
 44115  1  0  0  0
 45 46  2  0  0  0
 45116  1  0  0  0
 46117  1  0  0  0
 47118  1  0  0  0
 47119  1  0  0  0
 48 56  1  0  0  0
 48 65  1  0  0  0
 48120  1  0  0  0
 49 50  1  0  0  0
 49 53  1  0  0  0
 49 64  1  0  0  0
 49121  1  0  0  0
 50 51  1  0  0  0
 50122  1  0  0  0
 50123  1  0  0  0
 51 52  1  0  0  0
 51124  1  0  0  0
 51125  1  0  0  0
 52126  1  0  0  0
 52127  1  0  0  0
 53 54  1  0  0  0
 54 55  2  0  0  0
 54128  1  0  0  0
 55 57  1  0  0  0
 55129  1  0  0  0
 56 69  2  0  0  0
 57 58  2  0  0  0
 57130  1  0  0  0
 58131  1  0  0  0
 59 60  1  0  0  0
 59 61  1  0  0  0
 59 62  1  0  0  0
 60132  1  0  0  0
 60133  1  0  0  0
 60134  1  0  0  0
 61135  1  0  0  0
 61136  1  0  0  0
 61137  1  0  0  0
 62138  1  0  0  0
 62139  1  0  0  0
 62140  1  0  0  0
 63 65  1  0  0  0
 63141  1  0  0  0
 63142  1  0  0  0
 63143  1  0  0  0
 64144  1  0  0  0
 65145  1  0  0  0
 68 80  1  0  0  0
 71 73  2  0  0  0
 71 75  1  0  0  0
 71146  1  0  0  0
 72 74  1  0  0  0
 72 75  2  0  0  0
 72147  1  0  0  0
 73 76  1  0  0  0
 73148  1  0  0  0
 74 76  2  0  0  0
 74149  1  0  0  0
 75 81  1  0  0  0
 76 84  1  0  0  0
 77 78  1  0  0  0
 77 80  2  0  0  0
 77 82  1  0  0  0
 78 84  1  0  0  0
 78 85  2  0  0  0
 79 82  1  0  0  0
 79 84  1  0  0  0
 79 86  2  0  0  0
 80150  1  0  0  0
 81 83  2  0  0  0
 82151  1  0  0  0
 82152  1  0  0  0
 83153  1  0  0  0
M  ISO  4   1 100  68 101  80 101  81 100
M  END
> <chiral flag>
0

> <version>
0

> <s_m_source_file>
/data/baiqing/PycharmProjects/Reinvent-master-3.2/result/LINK_invent/BTK/process_docking_weight1_custom_product_contain_oxygen_bond_distance_aromatic_linkinvent_7_9_3/rearranged_h_0081.sdf

> <i_m_source_file_index>
65

> <r_mmod_Potential_Energy-OPLS-2005>
410.411834716797

> <r_mmod_Stretch_Energy-OPLS-2005>
130.241836547852

> <r_mmod_Bend_Energy-OPLS-2005>
260.04833984375

> <r_mmod_Torsional_Energy-OPLS-2005>
232.918106079102

> <r_mmod_Improper_Torsional_Energy-OPLS-2005>
3.00340247154236

> <r_mmod_Van_der_Waal_Energy-OPLS-2005>
151.841979980469

> <r_mmod_Electrostatic_Energy-OPLS-2005>
-213.073883056641

> <r_mmod_Solvation_Energy-OPLS-2005>
-230.667694091797

> <b_mmod_Minimization_Converged-OPLS-2005>
0

> <r_mmod_RMS_Derivative-OPLS-2005>
2.12003946304321

$$$$
65
                    3D
 Structure written by MMmdl.
155163  0  0  1  0            999 V2000
  -30.6883  -14.4499   20.6155 C   0  0  0  0  0  0
  -30.4291  -12.3074   19.4129 C   0  0  0  0  0  0
  -29.4957  -12.5355   18.2040 C   0  0  0  0  0  0
  -28.0157  -12.3868   18.6127 C   0  0  0  0  0  0
  -27.6664  -13.2035   19.8852 C   0  0  2  0  0  0
  -28.7053  -12.9389   20.9991 C   0  0  0  0  0  0
  -25.2597  -13.8152   20.5671 C   0  0  0  0  0  0
  -24.1848  -13.0428   20.9167 C   0  0  0  0  0  0
  -24.6398  -11.6896   20.8718 C   0  0  0  0  0  0
  -23.9063  -10.4293   21.0381 C   0  0  0  0  0  0
  -24.3616   -9.4218   21.9167 C   0  0  0  0  0  0
  -23.6288   -8.2259   22.0753 C   0  0  0  0  0  0
  -22.4271   -8.0292   21.3545 C   0  0  0  0  0  0
  -21.9895   -9.0263   20.4647 C   0  0  0  0  0  0
  -22.7233  -10.2133   20.3034 C   0  0  0  0  0  0
  -21.6859   -6.0756   22.5285 C   0  0  0  0  0  0
  -21.4011   -6.5648   23.8221 C   0  0  0  0  0  0
  -21.3656   -5.6795   24.9180 C   0  0  0  0  0  0
  -21.6055   -4.3061   24.7223 C   0  0  0  0  0  0
  -21.8814   -3.8159   23.4338 C   0  0  0  0  0  0
  -21.9185   -4.6984   22.3401 C   0  0  0  0  0  0
  -22.7870  -13.5239   21.1833 C   0  0  0  0  0  0
  -22.1656   -4.2171   21.0977 F   0  0  0  0  0  0
  -21.5624   -3.4543   25.7736 F   0  0  0  0  0  0
  -30.0443  -13.2598   20.4660 N   0  0  0  0  0  0
  -26.3038  -12.9315   20.3382 N   0  0  0  0  0  0
  -25.9324  -11.6480   20.5752 N   0  0  0  0  0  0
  -22.0504  -12.8236   22.0398 N   0  0  0  0  0  0
  -25.4312  -15.1860   20.4062 N   0  0  0  0  0  0
  -31.7753  -14.6999   20.0831 O   0  0  0  0  0  0
  -21.6635   -6.8890   21.4245 O   0  0  0  0  0  0
  -22.3554  -14.5562   20.6709 O   0  0  0  0  0  0
  -24.6161  -31.8680   23.2104 C   0  0  0  0  0  0
  -25.9058  -32.4824   23.8397 C   0  0  1  0  0  0
  -27.2372  -27.4247   20.0886 C   0  0  0  0  0  0
  -25.5922  -33.8622   24.2345 N   0  0  0  0  0  0
  -23.4026  -30.4911   21.5505 C   0  0  2  0  0  0
  -24.8464  -28.9532   20.1169 C   0  0  0  0  0  0
  -22.7404  -29.4670   22.5003 C   0  0  0  0  0  0
  -18.0265  -28.1372   22.8496 C   0  0  0  0  0  0
  -24.1488  -36.7305   23.2639 C   0  0  0  0  0  0
  -25.9332  -30.8275   21.3651 C   0  0  0  0  0  0
  -26.0069  -29.4614   20.7112 C   0  0  0  0  0  0
  -27.1993  -28.7029   20.6954 C   0  0  0  0  0  0
  -26.0466  -26.9238   19.5098 C   0  0  0  0  0  0
  -24.8608  -27.6824   19.5181 C   0  0  0  0  0  0
  -23.6092  -29.8204   20.1661 C   0  0  0  0  0  0
  -25.4110  -36.3110   24.0348 C   0  0  1  0  0  0
  -20.5859  -28.3657   23.1324 C   0  0  2  0  0  0
  -20.6765  -26.9395   22.5414 C   0  0  0  0  0  0
  -19.5738  -26.6382   21.5222 C   0  0  0  0  0  0
  -18.1914  -26.7923   22.1625 C   0  0  0  0  0  0
  -19.1513  -28.8829   23.2913 C   0  0  0  0  0  0
  -18.9440  -30.1439   23.8922 C   0  0  0  0  0  0
  -17.6442  -30.6587   24.0559 C   0  0  0  0  0  0
  -25.9038  -34.9476   23.5143 C   0  0  0  0  0  0
  -16.5333  -29.9085   23.6333 C   0  0  0  0  0  0
  -16.7252  -28.6497   23.0361 C   0  0  0  0  0  0
  -26.4489  -31.6599   25.0725 C   0  0  0  0  0  0
  -25.3770  -31.3702   26.1486 C   0  0  0  0  0  0
  -27.0315  -30.3029   24.6130 C   0  0  0  0  0  0
  -27.6083  -32.4302   25.7479 C   0  0  0  0  0  0
  -27.5587  -37.1810   24.8472 C   0  0  0  0  0  0
  -21.4132  -29.3040   22.3739 N   0  0  0  0  0  0
  -26.4299  -37.3792   23.9417 N   0  0  0  0  0  0
  -24.6688  -31.0782   22.0996 N   0  0  0  0  0  0
  -23.4175  -28.8216   23.3048 O   0  0  0  0  0  0
  -28.4347  -26.7306   20.1105 O   0  0  0  0  0  0
  -26.5588  -34.8928   22.4698 O   0  0  0  0  0  0
  -23.5352  -32.1440   23.7488 O   0  0  0  0  0  0
  -28.1503  -18.5167   20.7027 C   0  0  0  0  0  0
  -30.5094  -18.9565   20.3185 C   0  0  0  0  0  0
  -28.4603  -17.1934   21.0812 C   0  0  0  0  0  0
  -30.8179  -17.6182   20.6638 C   0  0  0  0  0  0
  -29.1694  -19.4115   20.3100 C   0  0  0  0  0  0
  -29.7874  -16.7172   21.0255 C   0  0  0  0  0  0
  -31.1431  -23.4259   19.5522 C   0  0  0  0  0  0
  -28.8117  -20.7770   19.7810 C   0  0  0  0  0  0
  -28.8446  -24.2844   20.2396 C   0  0  0  0  0  0
  -28.6192  -25.5253   19.3434 C   0  0  0  0  0  0
  -29.6389  -23.1162   19.6012 C   0  0  2  0  0  0
  -30.0180  -15.3505   21.3576 N   0  0  0  0  0  0
  -29.4572  -21.8277   20.2988 N   0  0  0  0  0  0
  -32.0305  -22.5641   19.5684 O   0  0  0  0  0  0
  -27.9625  -20.8919   18.8954 O   0  0  0  0  0  0
  -28.3918  -24.2505   21.3920 O   0  0  0  0  0  0
  -31.4730  -12.4194   19.1158 H   0  0  0  0  0  0
  -30.3348  -11.2841   19.7793 H   0  0  0  0  0  0
  -29.7355  -11.8368   17.4016 H   0  0  0  0  0  0
  -29.6631  -13.5338   17.7961 H   0  0  0  0  0  0
  -27.8231  -11.3275   18.7866 H   0  0  0  0  0  0
  -27.3663  -12.6849   17.7882 H   0  0  0  0  0  0
  -27.7232  -14.2590   19.6182 H   0  0  0  0  0  0
  -28.6771  -11.8892   21.2960 H   0  0  0  0  0  0
  -28.4533  -13.4912   21.9046 H   0  0  0  0  0  0
  -25.2760   -9.5704   22.4739 H   0  0  0  0  0  0
  -24.0006   -7.4650   22.7468 H   0  0  0  0  0  0
  -21.0828   -8.8782   19.8949 H   0  0  0  0  0  0
  -22.3701  -10.9671   19.6135 H   0  0  0  0  0  0
  -21.2008   -7.6151   23.9745 H   0  0  0  0  0  0
  -21.1475   -6.0515   25.9086 H   0  0  0  0  0  0
  -22.0592   -2.7622   23.2838 H   0  0  0  0  0  0
  -22.4089  -11.9868   22.4764 H   0  0  0  0  0  0
  -21.1123  -13.1284   22.2596 H   0  0  0  0  0  0
  -24.6691  -15.8426   20.5299 H   0  0  0  0  0  0
  -26.2730  -15.6208   20.0513 H   0  0  0  0  0  0
  -26.7127  -32.5518   23.1151 H   0  0  0  0  0  0
  -25.0134  -33.9793   25.0531 H   0  0  0  0  0  0
  -22.6919  -31.3078   21.4095 H   0  0  0  0  0  0
  -23.3766  -35.9622   23.3277 H   0  0  0  0  0  0
  -24.3593  -36.8935   22.2060 H   0  0  0  0  0  0
  -23.7210  -37.6493   23.6658 H   0  0  0  0  0  0
  -26.0547  -31.5938   20.5978 H   0  0  0  0  0  0
  -26.8183  -30.8740   21.9882 H   0  0  0  0  0  0
  -28.0972  -29.0963   21.1512 H   0  0  0  0  0  0
  -25.9890  -25.9454   19.0609 H   0  0  0  0  0  0
  -23.9628  -27.2792   19.0697 H   0  0  0  0  0  0
  -23.7151  -30.5925   19.4038 H   0  0  0  0  0  0
  -22.7339  -29.2383   19.8727 H   0  0  0  0  0  0
  -25.1289  -36.1972   25.0844 H   0  0  0  0  0  0
  -20.9947  -28.3210   24.1448 H   0  0  0  0  0  0
  -20.5678  -26.2267   23.3602 H   0  0  0  0  0  0
  -21.6632  -26.7456   22.1184 H   0  0  0  0  0  0
  -19.6896  -25.6298   21.1251 H   0  0  0  0  0  0
  -19.6680  -27.3199   20.6763 H   0  0  0  0  0  0
  -17.4187  -26.6675   21.4023 H   0  0  0  0  0  0
  -18.0295  -26.0056   22.9007 H   0  0  0  0  0  0
  -19.7916  -30.7249   24.2303 H   0  0  0  0  0  0
  -17.4998  -31.6281   24.5127 H   0  0  0  0  0  0
  -15.5338  -30.2990   23.7665 H   0  0  0  0  0  0
  -15.8644  -28.0833   22.7074 H   0  0  0  0  0  0
  -24.5900  -30.7113   25.7803 H   0  0  0  0  0  0
  -24.9039  -32.2864   26.5024 H   0  0  0  0  0  0
  -25.8119  -30.8775   27.0187 H   0  0  0  0  0  0
  -26.2851  -29.6767   24.1230 H   0  0  0  0  0  0
  -27.4103  -29.7295   25.4599 H   0  0  0  0  0  0
  -27.8685  -30.4324   23.9270 H   0  0  0  0  0  0
  -27.2738  -33.3610   26.2068 H   0  0  0  0  0  0
  -28.3895  -32.6833   25.0300 H   0  0  0  0  0  0
  -28.0749  -31.8413   26.5386 H   0  0  0  0  0  0
  -28.2606  -38.0107   24.7516 H   0  0  0  0  0  0
  -28.1087  -36.2643   24.6290 H   0  0  0  0  0  0
  -27.2309  -37.1430   25.8876 H   0  0  0  0  0  0
  -20.9278  -29.8762   21.6971 H   0  0  0  0  0  0
  -26.0192  -38.2879   24.1395 H   0  0  0  0  0  0
  -27.1188  -18.8422   20.6998 H   0  0  0  0  0  0
  -31.3070  -19.6204   20.0127 H   0  0  0  0  0  0
  -27.6572  -16.5343   21.3823 H   0  0  0  0  0  0
  -31.8476  -17.2901   20.6313 H   0  0  0  0  0  0
  -31.3679  -24.4925   19.5046 H   0  0  0  0  0  0
  -27.8221  -25.3150   18.6362 H   0  0  0  0  0  0
  -29.5093  -25.6698   18.7309 H   0  0  0  0  0  0
  -29.3066  -23.0256   18.5657 H   0  0  0  0  0  0
  -29.2522  -14.9179   21.8509 H   0  0  0  0  0  0
  -30.0925  -21.6521   21.0627 H   0  0  0  0  0  0
  1 25  1  0  0  0
  1 30  2  0  0  0
  1 82  1  0  0  0
  2  3  1  0  0  0
  2 25  1  0  0  0
  2 87  1  0  0  0
  2 88  1  0  0  0
  3  4  1  0  0  0
  3 89  1  0  0  0
  3 90  1  0  0  0
  4  5  1  0  0  0
  4 91  1  0  0  0
  4 92  1  0  0  0
  5  6  1  0  0  0
  5 26  1  0  0  0
  5 93  1  0  0  0
  6 25  1  0  0  0
  6 94  1  0  0  0
  6 95  1  0  0  0
  7  8  2  0  0  0
  7 26  1  0  0  0
  7 29  1  0  0  0
  8  9  1  0  0  0
  8 22  1  0  0  0
  9 10  1  0  0  0
  9 27  2  0  0  0
 10 11  2  0  0  0
 10 15  1  0  0  0
 11 12  1  0  0  0
 11 96  1  0  0  0
 12 13  2  0  0  0
 12 97  1  0  0  0
 13 14  1  0  0  0
 13 31  1  0  0  0
 14 15  2  0  0  0
 14 98  1  0  0  0
 15 99  1  0  0  0
 16 17  2  0  0  0
 16 21  1  0  0  0
 16 31  1  0  0  0
 17 18  1  0  0  0
 17100  1  0  0  0
 18 19  2  0  0  0
 18101  1  0  0  0
 19 20  1  0  0  0
 19 24  1  0  0  0
 20 21  2  0  0  0
 20102  1  0  0  0
 21 23  1  0  0  0
 22 28  1  0  0  0
 22 32  2  0  0  0
 26 27  1  0  0  0
 28103  1  0  0  0
 28104  1  0  0  0
 29105  1  0  0  0
 29106  1  0  0  0
 33 34  1  0  0  0
 33 66  1  0  0  0
 33 70  2  0  0  0
 34 36  1  0  0  0
 34 59  1  0  0  0
 34107  1  0  0  0
 35 44  2  0  0  0
 35 45  1  0  0  0
 35 68  1  0  0  0
 36 56  1  0  0  0
 36108  1  0  0  0
 37 39  1  0  0  0
 37 47  1  0  0  0
 37 66  1  0  0  0
 37109  1  0  0  0
 38 43  2  0  0  0
 38 46  1  0  0  0
 38 47  1  0  0  0
 39 64  1  0  0  0
 39 67  2  0  0  0
 40 52  1  0  0  0
 40 53  2  0  0  0
 40 58  1  0  0  0
 41110  1  0  0  0
 41111  1  0  0  0
 41112  1  0  0  0
 41 48  1  0  0  0
 42 43  1  0  0  0
 42 66  1  0  0  0
 42113  1  0  0  0
 42114  1  0  0  0
 43 44  1  0  0  0
 44115  1  0  0  0
 45 46  2  0  0  0
 45116  1  0  0  0
 46117  1  0  0  0
 47118  1  0  0  0
 47119  1  0  0  0
 48 56  1  0  0  0
 48 65  1  0  0  0
 48120  1  0  0  0
 49 50  1  0  0  0
 49 53  1  0  0  0
 49 64  1  0  0  0
 49121  1  0  0  0
 50 51  1  0  0  0
 50122  1  0  0  0
 50123  1  0  0  0
 51 52  1  0  0  0
 51124  1  0  0  0
 51125  1  0  0  0
 52126  1  0  0  0
 52127  1  0  0  0
 53 54  1  0  0  0
 54 55  2  0  0  0
 54128  1  0  0  0
 55 57  1  0  0  0
 55129  1  0  0  0
 56 69  2  0  0  0
 57 58  2  0  0  0
 57130  1  0  0  0
 58131  1  0  0  0
 59 60  1  0  0  0
 59 61  1  0  0  0
 59 62  1  0  0  0
 60132  1  0  0  0
 60133  1  0  0  0
 60134  1  0  0  0
 61135  1  0  0  0
 61136  1  0  0  0
 61137  1  0  0  0
 62138  1  0  0  0
 62139  1  0  0  0
 62140  1  0  0  0
 63 65  1  0  0  0
 63141  1  0  0  0
 63142  1  0  0  0
 63143  1  0  0  0
 64144  1  0  0  0
 65145  1  0  0  0
 68 80  1  0  0  0
 71 73  2  0  0  0
 71 75  1  0  0  0
 71146  1  0  0  0
 72 74  1  0  0  0
 72 75  2  0  0  0
 72147  1  0  0  0
 73 76  1  0  0  0
 73148  1  0  0  0
 74 76  2  0  0  0
 74149  1  0  0  0
 75 78  1  0  0  0
 76 82  1  0  0  0
 77 81  1  0  0  0
 77 84  2  0  0  0
 77150  1  0  0  0
 78 83  1  0  0  0
 78 85  2  0  0  0
 79 80  1  0  0  0
 79 81  1  0  0  0
 79 86  2  0  0  0
 80151  1  0  0  0
 80152  1  0  0  0
 81 83  1  0  0  0
 81153  1  0  0  0
 82154  1  0  0  0
 83155  1  0  0  0
M  ISO  4   1 100  68 101  80 101  82 100
M  END
> <chiral flag>
0

> <version>
0

> <s_m_source_file>
/data/baiqing/PycharmProjects/Reinvent-master-3.2/result/LINK_invent/BTK/process_docking_weight1_custom_product_contain_oxygen_bond_distance_aromatic_linkinvent_7_9_3/rearranged_h_0081.sdf

> <i_m_source_file_index>
66

> <r_mmod_Potential_Energy-OPLS-2005>
-242.926193237305

> <r_mmod_Stretch_Energy-OPLS-2005>
39.1764488220215

> <r_mmod_Bend_Energy-OPLS-2005>
105.414077758789

> <r_mmod_Torsional_Energy-OPLS-2005>
211.731674194336

> <r_mmod_Improper_Torsional_Energy-OPLS-2005>
6.35140180587769

> <r_mmod_Van_der_Waal_Energy-OPLS-2005>
150.171249389648

> <r_mmod_Electrostatic_Energy-OPLS-2005>
-502.311492919922

> <r_mmod_Solvation_Energy-OPLS-2005>
-264.777648925781

> <b_mmod_Minimization_Converged-OPLS-2005>
0

> <r_mmod_RMS_Derivative-OPLS-2005>
1.95535516738892

$$$$
66
                    3D
 Structure written by MMmdl.
157166  0  0  1  0            999 V2000
  -30.6252  -14.7862   20.3727 C   0  0  0  0  0  0
  -30.4356  -12.4605   19.4717 C   0  0  0  0  0  0
  -29.5079  -12.4183   18.2381 C   0  0  0  0  0  0
  -28.0303  -12.2905   18.6595 C   0  0  0  0  0  0
  -27.6320  -13.2243   19.8362 C   0  0  2  0  0  0
  -28.6891  -13.2323   20.9594 C   0  0  0  0  0  0
  -25.2502  -13.8167   20.5723 C   0  0  0  0  0  0
  -24.1790  -13.0428   20.9246 C   0  0  0  0  0  0
  -24.6375  -11.6904   20.8792 C   0  0  0  0  0  0
  -23.9049  -10.4287   21.0437 C   0  0  0  0  0  0
  -24.3606   -9.4199   21.9202 C   0  0  0  0  0  0
  -23.6285   -8.2234   22.0761 C   0  0  0  0  0  0
  -22.4267   -8.0278   21.3552 C   0  0  0  0  0  0
  -21.9906   -9.0252   20.4655 C   0  0  0  0  0  0
  -22.7231  -10.2132   20.3072 C   0  0  0  0  0  0
  -21.6853   -6.0738   22.5280 C   0  0  0  0  0  0
  -21.4017   -6.5642   23.8215 C   0  0  0  0  0  0
  -21.3655   -5.6795   24.9178 C   0  0  0  0  0  0
  -21.6039   -4.3057   24.7224 C   0  0  0  0  0  0
  -21.8822   -3.8150   23.4345 C   0  0  0  0  0  0
  -21.9192   -4.6968   22.3404 C   0  0  0  0  0  0
  -22.7811  -13.5220   21.1875 C   0  0  0  0  0  0
  -22.1661   -4.2153   21.0982 F   0  0  0  0  0  0
  -21.5623   -3.4537   25.7735 F   0  0  0  0  0  0
  -29.9744  -13.5690   20.3372 N   0  0  0  0  0  0
  -26.2912  -12.9351   20.3306 N   0  0  0  0  0  0
  -25.9303  -11.6511   20.5809 N   0  0  0  0  0  0
  -22.0444  -12.8227   22.0431 N   0  0  0  0  0  0
  -25.4204  -15.1884   20.4095 N   0  0  0  0  0  0
  -31.8546  -14.7888   20.2865 O   0  0  0  0  0  0
  -21.6633   -6.8876   21.4242 O   0  0  0  0  0  0
  -22.3508  -14.5516   20.6696 O   0  0  0  0  0  0
  -24.6327  -31.8554   23.1983 C   0  0  0  0  0  0
  -25.9151  -32.4752   23.8327 C   0  0  1  0  0  0
  -27.2198  -27.2585   20.1192 C   0  0  0  0  0  0
  -25.5941  -33.8556   24.2249 N   0  0  0  0  0  0
  -23.4288  -30.4803   21.5423 C   0  0  2  0  0  0
  -24.8751  -28.9308   20.1081 C   0  0  0  0  0  0
  -22.7511  -29.4605   22.4902 C   0  0  0  0  0  0
  -18.0297  -28.1387   22.8480 C   0  0  0  0  0  0
  -24.1493  -36.7288   23.2638 C   0  0  0  0  0  0
  -25.9771  -30.7680   21.3788 C   0  0  0  0  0  0
  -26.0492  -29.3916   20.7173 C   0  0  0  0  0  0
  -27.2221  -28.5677   20.7139 C   0  0  0  0  0  0
  -26.0107  -26.8636   19.4970 C   0  0  0  0  0  0
  -24.8608  -27.6742   19.4884 C   0  0  0  0  0  0
  -23.6468  -29.8184   20.1574 C   0  0  0  0  0  0
  -25.4120  -36.3067   24.0322 C   0  0  1  0  0  0
  -20.5901  -28.3701   23.1264 C   0  0  2  0  0  0
  -20.6783  -26.9416   22.5401 C   0  0  0  0  0  0
  -19.5755  -26.6382   21.5209 C   0  0  0  0  0  0
  -18.1939  -26.7930   22.1625 C   0  0  0  0  0  0
  -19.1549  -28.8862   23.2867 C   0  0  0  0  0  0
  -18.9471  -30.1463   23.8885 C   0  0  0  0  0  0
  -17.6468  -30.6587   24.0564 C   0  0  0  0  0  0
  -25.9055  -34.9437   23.5085 C   0  0  0  0  0  0
  -16.5360  -29.9081   23.6334 C   0  0  0  0  0  0
  -16.7283  -28.6500   23.0351 C   0  0  0  0  0  0
  -26.4507  -31.6583   25.0723 C   0  0  0  0  0  0
  -25.3722  -31.3751   26.1438 C   0  0  0  0  0  0
  -27.0355  -30.2992   24.6227 C   0  0  0  0  0  0
  -27.6051  -32.4331   25.7505 C   0  0  0  0  0  0
  -27.5583  -37.1799   24.8465 C   0  0  0  0  0  0
  -21.4214  -29.3045   22.3647 N   0  0  0  0  0  0
  -26.4295  -37.3766   23.9403 N   0  0  0  0  0  0
  -24.6990  -31.0517   22.0961 N   0  0  0  0  0  0
  -23.4206  -28.8144   23.3004 O   0  0  0  0  0  0
  -28.3033  -26.3447   20.2044 O   0  0  0  0  0  0
  -26.5628  -34.8914   22.4652 O   0  0  0  0  0  0
  -23.5477  -32.1382   23.7271 O   0  0  0  0  0  0
  -28.2691  -19.2999   20.5252 C   0  0  0  0  0  0
  -28.5303  -17.8889   20.5355 C   0  0  0  0  0  0
  -30.5594  -19.7307   20.2397 C   0  0  0  0  0  0
  -30.8591  -18.3158   20.2277 C   0  0  0  0  0  0
  -29.2575  -20.3104   20.3325 C   0  0  0  0  0  0
  -29.8239  -17.3235   20.3473 C   0  0  0  0  0  0
  -28.5824  -23.7769   19.8992 C   0  0  0  0  0  0
  -28.4408  -22.5666   19.0934 C   0  0  0  0  0  0
  -33.1206  -18.5909   19.1771 C   0  0  0  0  0  0
  -32.2510  -17.9181   19.9509 C   0  0  0  0  0  0
  -28.2446  -25.0829   19.5447 C   0  0  0  0  0  0
  -29.1575  -22.9014   21.0512 C   0  0  0  0  0  0
  -29.7758  -15.8689   18.4190 C   0  0  0  0  0  0
  -28.9428  -21.7506   20.1258 N   0  0  0  0  0  0
  -29.9222  -15.9024   19.8866 N   0  0  0  0  0  0
  -28.0389  -22.4080   17.9586 O   0  0  0  0  0  0
  -31.4715  -12.5919   19.1526 H   0  0  0  0  0  0
  -30.4044  -11.5146   20.0148 H   0  0  0  0  0  0
  -29.7776  -11.5728   17.6033 H   0  0  0  0  0  0
  -29.6506  -13.2978   17.6160 H   0  0  0  0  0  0
  -27.8783  -11.2515   18.9547 H   0  0  0  0  0  0
  -27.3764  -12.4569   17.8027 H   0  0  0  0  0  0
  -27.5910  -14.2286   19.4257 H   0  0  0  0  0  0
  -28.7412  -12.2659   21.4623 H   0  0  0  0  0  0
  -28.4308  -13.9726   21.7190 H   0  0  0  0  0  0
  -25.2753   -9.5668   22.4772 H   0  0  0  0  0  0
  -23.9999   -7.4619   22.7469 H   0  0  0  0  0  0
  -21.0845   -8.8771   19.8953 H   0  0  0  0  0  0
  -22.3700  -10.9674   19.6179 H   0  0  0  0  0  0
  -21.2020   -7.6154   23.9721 H   0  0  0  0  0  0
  -21.1469   -6.0526   25.9078 H   0  0  0  0  0  0
  -22.0603   -2.7614   23.2846 H   0  0  0  0  0  0
  -22.4059  -11.9904   22.4854 H   0  0  0  0  0  0
  -21.1052  -13.1249   22.2591 H   0  0  0  0  0  0
  -24.6534  -15.8435   20.5151 H   0  0  0  0  0  0
  -26.2669  -15.6184   20.0602 H   0  0  0  0  0  0
  -26.7219  -32.5399   23.1070 H   0  0  0  0  0  0
  -25.0090  -33.9691   25.0395 H   0  0  0  0  0  0
  -22.7252  -31.3023   21.3977 H   0  0  0  0  0  0
  -23.3748  -35.9626   23.3301 H   0  0  0  0  0  0
  -24.3581  -36.8913   22.2052 H   0  0  0  0  0  0
  -23.7253  -37.6491   23.6666 H   0  0  0  0  0  0
  -26.1184  -31.5306   20.6113 H   0  0  0  0  0  0
  -26.8539  -30.8129   22.0139 H   0  0  0  0  0  0
  -28.1197  -28.9125   21.2085 H   0  0  0  0  0  0
  -25.9040  -25.8918   19.0399 H   0  0  0  0  0  0
  -23.9581  -27.3091   19.0172 H   0  0  0  0  0  0
  -23.7720  -30.5970   19.4042 H   0  0  0  0  0  0
  -22.7644  -29.2539   19.8499 H   0  0  0  0  0  0
  -25.1302  -36.1912   25.0816 H   0  0  0  0  0  0
  -20.9999  -28.3281   24.1384 H   0  0  0  0  0  0
  -20.5686  -26.2311   23.3608 H   0  0  0  0  0  0
  -21.6652  -26.7437   22.1194 H   0  0  0  0  0  0
  -19.6916  -25.6289   21.1246 H   0  0  0  0  0  0
  -19.6695  -27.3187   20.6736 H   0  0  0  0  0  0
  -17.4206  -26.6674   21.4032 H   0  0  0  0  0  0
  -18.0343  -26.0075   22.9027 H   0  0  0  0  0  0
  -19.7946  -30.7284   24.2249 H   0  0  0  0  0  0
  -17.5020  -31.6265   24.5168 H   0  0  0  0  0  0
  -15.5356  -30.2980   23.7661 H   0  0  0  0  0  0
  -15.8685  -28.0816   22.7067 H   0  0  0  0  0  0
  -24.5889  -30.7109   25.7769 H   0  0  0  0  0  0
  -24.8925  -32.2932   26.4842 H   0  0  0  0  0  0
  -25.8025  -30.8939   27.0229 H   0  0  0  0  0  0
  -26.2947  -29.6734   24.1236 H   0  0  0  0  0  0
  -27.4007  -29.7261   25.4761 H   0  0  0  0  0  0
  -27.8839  -30.4252   23.9497 H   0  0  0  0  0  0
  -27.2643  -33.3632   26.2070 H   0  0  0  0  0  0
  -28.3872  -32.6895   25.0345 H   0  0  0  0  0  0
  -28.0710  -31.8467   26.5436 H   0  0  0  0  0  0
  -28.2594  -38.0099   24.7498 H   0  0  0  0  0  0
  -28.1079  -36.2625   24.6304 H   0  0  0  0  0  0
  -27.2296  -37.1468   25.8866 H   0  0  0  0  0  0
  -20.9397  -29.8775   21.6859 H   0  0  0  0  0  0
  -26.0172  -38.2840   24.1392 H   0  0  0  0  0  0
  -27.2369  -19.6115   20.6044 H   0  0  0  0  0  0
  -27.6811  -17.2246   20.5909 H   0  0  0  0  0  0
  -31.3759  -20.4225   20.0980 H   0  0  0  0  0  0
  -34.1333  -18.2347   19.0497 H   0  0  0  0  0  0
  -32.8478  -19.4964   18.6535 H   0  0  0  0  0  0
  -32.6096  -17.0312   20.4449 H   0  0  0  0  0  0
  -27.8769  -25.2264   18.5384 H   0  0  0  0  0  0
  -28.5574  -22.8036   21.9574 H   0  0  0  0  0  0
  -30.2112  -23.0305   21.3042 H   0  0  0  0  0  0
  -29.7460  -16.8678   17.9814 H   0  0  0  0  0  0
  -28.8504  -15.3824   18.1206 H   0  0  0  0  0  0
  -30.6054  -15.3604   17.9233 H   0  0  0  0  0  0
  1 25  1  0  0  0
  1 30  2  0  0  0
  1 85  1  0  0  0
  2  3  1  0  0  0
  2 25  1  0  0  0
  2 87  1  0  0  0
  2 88  1  0  0  0
  3  4  1  0  0  0
  3 89  1  0  0  0
  3 90  1  0  0  0
  4  5  1  0  0  0
  4 91  1  0  0  0
  4 92  1  0  0  0
  5  6  1  0  0  0
  5 26  1  0  0  0
  5 93  1  0  0  0
  6 25  1  0  0  0
  6 94  1  0  0  0
  6 95  1  0  0  0
  7  8  2  0  0  0
  7 26  1  0  0  0
  7 29  1  0  0  0
  8  9  1  0  0  0
  8 22  1  0  0  0
  9 10  1  0  0  0
  9 27  2  0  0  0
 10 11  2  0  0  0
 10 15  1  0  0  0
 11 12  1  0  0  0
 11 96  1  0  0  0
 12 13  2  0  0  0
 12 97  1  0  0  0
 13 14  1  0  0  0
 13 31  1  0  0  0
 14 15  2  0  0  0
 14 98  1  0  0  0
 15 99  1  0  0  0
 16 17  2  0  0  0
 16 21  1  0  0  0
 16 31  1  0  0  0
 17 18  1  0  0  0
 17100  1  0  0  0
 18 19  2  0  0  0
 18101  1  0  0  0
 19 20  1  0  0  0
 19 24  1  0  0  0
 20 21  2  0  0  0
 20102  1  0  0  0
 21 23  1  0  0  0
 22 28  1  0  0  0
 22 32  2  0  0  0
 26 27  1  0  0  0
 28103  1  0  0  0
 28104  1  0  0  0
 29105  1  0  0  0
 29106  1  0  0  0
 33 34  1  0  0  0
 33 66  1  0  0  0
 33 70  2  0  0  0
 34 36  1  0  0  0
 34 59  1  0  0  0
 34107  1  0  0  0
 35 44  2  0  0  0
 35 45  1  0  0  0
 35 68  1  0  0  0
 36 56  1  0  0  0
 36108  1  0  0  0
 37 39  1  0  0  0
 37 47  1  0  0  0
 37 66  1  0  0  0
 37109  1  0  0  0
 38 43  2  0  0  0
 38 46  1  0  0  0
 38 47  1  0  0  0
 39 64  1  0  0  0
 39 67  2  0  0  0
 40 52  1  0  0  0
 40 53  2  0  0  0
 40 58  1  0  0  0
 41110  1  0  0  0
 41111  1  0  0  0
 41112  1  0  0  0
 41 48  1  0  0  0
 42 43  1  0  0  0
 42 66  1  0  0  0
 42113  1  0  0  0
 42114  1  0  0  0
 43 44  1  0  0  0
 44115  1  0  0  0
 45 46  2  0  0  0
 45116  1  0  0  0
 46117  1  0  0  0
 47118  1  0  0  0
 47119  1  0  0  0
 48 56  1  0  0  0
 48 65  1  0  0  0
 48120  1  0  0  0
 49 50  1  0  0  0
 49 53  1  0  0  0
 49 64  1  0  0  0
 49121  1  0  0  0
 50 51  1  0  0  0
 50122  1  0  0  0
 50123  1  0  0  0
 51 52  1  0  0  0
 51124  1  0  0  0
 51125  1  0  0  0
 52126  1  0  0  0
 52127  1  0  0  0
 53 54  1  0  0  0
 54 55  2  0  0  0
 54128  1  0  0  0
 55 57  1  0  0  0
 55129  1  0  0  0
 56 69  2  0  0  0
 57 58  2  0  0  0
 57130  1  0  0  0
 58131  1  0  0  0
 59 60  1  0  0  0
 59 61  1  0  0  0
 59 62  1  0  0  0
 60132  1  0  0  0
 60133  1  0  0  0
 60134  1  0  0  0
 61135  1  0  0  0
 61136  1  0  0  0
 61137  1  0  0  0
 62138  1  0  0  0
 62139  1  0  0  0
 62140  1  0  0  0
 63 65  1  0  0  0
 63141  1  0  0  0
 63142  1  0  0  0
 63143  1  0  0  0
 64144  1  0  0  0
 65145  1  0  0  0
 68 81  1  0  0  0
 71 72  2  0  0  0
 71 75  1  0  0  0
 71146  1  0  0  0
 72 76  1  0  0  0
 72147  1  0  0  0
 73 74  1  0  0  0
 73 75  2  0  0  0
 73148  1  0  0  0
 74 76  2  0  0  0
 74 80  1  0  0  0
 75 84  1  0  0  0
 76 85  1  0  0  0
 77 78  1  0  0  0
 77 81  2  0  0  0
 77 82  1  0  0  0
 78 84  1  0  0  0
 78 86  2  0  0  0
 79 80  2  0  0  0
 79149  1  0  0  0
 79150  1  0  0  0
 80151  1  0  0  0
 81152  1  0  0  0
 82 84  1  0  0  0
 82153  1  0  0  0
 82154  1  0  0  0
 83 85  1  0  0  0
 83155  1  0  0  0
 83156  1  0  0  0
 83157  1  0  0  0
M  ISO  4   1 100  68 101  81 101  85 100
M  END
> <chiral flag>
0

> <version>
0

> <s_m_source_file>
/data/baiqing/PycharmProjects/Reinvent-master-3.2/result/LINK_invent/BTK/process_docking_weight1_custom_product_contain_oxygen_bond_distance_aromatic_linkinvent_7_9_3/rearranged_h_0081.sdf

> <i_m_source_file_index>
67

> <r_mmod_Potential_Energy-OPLS-2005>
533.604553222656

> <r_mmod_Stretch_Energy-OPLS-2005>
114.385917663574

> <r_mmod_Bend_Energy-OPLS-2005>
267.964233398438

> <r_mmod_Torsional_Energy-OPLS-2005>
387.421020507812

> <r_mmod_Improper_Torsional_Energy-OPLS-2005>
30.282299041748

> <r_mmod_Van_der_Waal_Energy-OPLS-2005>
143.716827392578

> <r_mmod_Electrostatic_Energy-OPLS-2005>
-318.229339599609

> <r_mmod_Solvation_Energy-OPLS-2005>
-202.066757202148

> <b_mmod_Minimization_Converged-OPLS-2005>
0

> <r_mmod_RMS_Derivative-OPLS-2005>
1.10284233093262

$$$$
67
                    3D
 Structure written by MMmdl.
152161  0  0  1  0            999 V2000
  -30.6130  -14.6499   20.5056 C   0  0  0  0  0  0
  -30.4430  -12.3996   19.4520 C   0  0  0  0  0  0
  -29.5094  -12.5124   18.2252 C   0  0  0  0  0  0
  -28.0314  -12.3486   18.6349 C   0  0  0  0  0  0
  -27.6545  -13.2158   19.8655 C   0  0  2  0  0  0
  -28.6994  -13.0623   20.9935 C   0  0  0  0  0  0
  -25.2560  -13.8173   20.5692 C   0  0  0  0  0  0
  -24.1822  -13.0441   20.9192 C   0  0  0  0  0  0
  -24.6388  -11.6913   20.8747 C   0  0  0  0  0  0
  -23.9059  -10.4293   21.0407 C   0  0  0  0  0  0
  -24.3613   -9.4208   21.9180 C   0  0  0  0  0  0
  -23.6294   -8.2245   22.0746 C   0  0  0  0  0  0
  -22.4275   -8.0281   21.3541 C   0  0  0  0  0  0
  -21.9908   -9.0253   20.4641 C   0  0  0  0  0  0
  -22.7235  -10.2134   20.3052 C   0  0  0  0  0  0
  -21.6851   -6.0742   22.5285 C   0  0  0  0  0  0
  -21.4012   -6.5643   23.8220 C   0  0  0  0  0  0
  -21.3659   -5.6792   24.9181 C   0  0  0  0  0  0
  -21.6044   -4.3055   24.7226 C   0  0  0  0  0  0
  -21.8817   -3.8151   23.4345 C   0  0  0  0  0  0
  -21.9189   -4.6971   22.3406 C   0  0  0  0  0  0
  -22.7843  -13.5239   21.1856 C   0  0  0  0  0  0
  -22.1658   -4.2160   21.0981 F   0  0  0  0  0  0
  -21.5627   -3.4535   25.7735 F   0  0  0  0  0  0
  -30.0156  -13.4158   20.4357 N   0  0  0  0  0  0
  -26.2993  -12.9352   20.3326 N   0  0  0  0  0  0
  -25.9315  -11.6509   20.5756 N   0  0  0  0  0  0
  -22.0474  -12.8239   22.0411 N   0  0  0  0  0  0
  -25.4279  -15.1896   20.4115 N   0  0  0  0  0  0
  -31.7676  -14.8244   20.1043 O   0  0  0  0  0  0
  -21.6637   -6.8882   21.4244 O   0  0  0  0  0  0
  -22.3534  -14.5552   20.6710 O   0  0  0  0  0  0
  -24.6299  -31.8600   23.2056 C   0  0  0  0  0  0
  -25.9146  -32.4778   23.8379 C   0  0  1  0  0  0
  -27.2169  -27.2994   20.1109 C   0  0  0  0  0  0
  -25.5966  -33.8578   24.2312 N   0  0  0  0  0  0
  -23.4252  -30.4906   21.5456 C   0  0  2  0  0  0
  -24.8710  -28.9531   20.1073 C   0  0  0  0  0  0
  -22.7501  -29.4653   22.4886 C   0  0  0  0  0  0
  -18.0307  -28.1400   22.8487 C   0  0  0  0  0  0
  -24.1493  -36.7275   23.2635 C   0  0  0  0  0  0
  -25.9716  -30.7843   21.3838 C   0  0  0  0  0  0
  -26.0433  -29.4129   20.7207 C   0  0  0  0  0  0
  -27.2191  -28.5977   20.7168 C   0  0  0  0  0  0
  -26.0185  -26.9159   19.4563 C   0  0  0  0  0  0
  -24.8621  -27.7106   19.4652 C   0  0  0  0  0  0
  -23.6434  -29.8375   20.1575 C   0  0  0  0  0  0
  -25.4111  -36.3077   24.0341 C   0  0  1  0  0  0
  -20.5913  -28.3725   23.1253 C   0  0  2  0  0  0
  -20.6803  -26.9442   22.5393 C   0  0  0  0  0  0
  -19.5776  -26.6394   21.5210 C   0  0  0  0  0  0
  -18.1956  -26.7946   22.1622 C   0  0  0  0  0  0
  -19.1558  -28.8874   23.2873 C   0  0  0  0  0  0
  -18.9480  -30.1468   23.8903 C   0  0  0  0  0  0
  -17.6479  -30.6598   24.0574 C   0  0  0  0  0  0
  -25.9054  -34.9449   23.5116 C   0  0  0  0  0  0
  -16.5370  -29.9101   23.6331 C   0  0  0  0  0  0
  -16.7292  -28.6518   23.0353 C   0  0  0  0  0  0
  -26.4522  -31.6571   25.0735 C   0  0  0  0  0  0
  -25.3753  -31.3714   26.1456 C   0  0  0  0  0  0
  -27.0354  -30.2991   24.6186 C   0  0  0  0  0  0
  -27.6108  -32.4273   25.7488 C   0  0  0  0  0  0
  -27.5590  -37.1785   24.8463 C   0  0  0  0  0  0
  -21.4209  -29.3078   22.3633 N   0  0  0  0  0  0
  -26.4282  -37.3780   23.9433 N   0  0  0  0  0  0
  -24.6945  -31.0610   22.1017 N   0  0  0  0  0  0
  -23.4217  -28.8171   23.2956 O   0  0  0  0  0  0
  -28.3037  -26.3973   20.1762 O   0  0  0  0  0  0
  -26.5598  -34.8920   22.4667 O   0  0  0  0  0  0
  -23.5451  -32.1401   23.7367 O   0  0  0  0  0  0
  -30.8040  -19.3318   20.0734 C   0  0  0  0  0  0
  -28.6562  -19.3138   21.1394 C   0  0  0  0  0  0
  -30.8774  -17.9043   20.1691 C   0  0  0  0  0  0
  -28.7304  -17.8927   21.2391 C   0  0  0  0  0  0
  -29.6951  -20.0937   20.5589 C   0  0  0  0  0  0
  -29.8379  -17.1388   20.7641 C   0  0  0  0  0  0
  -30.2284  -23.7745   20.6108 C   0  0  0  0  0  0
  -28.9380  -23.7751   20.2762 C   0  0  0  0  0  0
  -30.6865  -22.4012   20.7552 C   0  0  0  0  0  0
  -28.5469  -22.3545   20.2089 C   0  0  0  0  0  0
  -27.9677  -24.9628   19.9418 C   0  0  0  0  0  0
  -29.6382  -21.5789   20.4974 N   0  0  0  0  0  0
  -29.7994  -15.6782   20.9094 N   0  0  0  0  0  0
  -31.8284  -22.0433   21.0673 O   0  0  0  0  0  0
  -27.4252  -21.9192   19.9225 O   0  0  0  0  0  0
  -31.4822  -12.5350   19.1474 H   0  0  0  0  0  0
  -30.3891  -11.4014   19.8893 H   0  0  0  0  0  0
  -29.7753  -11.7617   17.4796 H   0  0  0  0  0  0
  -29.6485  -13.4822   17.7448 H   0  0  0  0  0  0
  -27.8665  -11.2947   18.8608 H   0  0  0  0  0  0
  -27.3787  -12.5830   17.7931 H   0  0  0  0  0  0
  -27.6733  -14.2527   19.5298 H   0  0  0  0  0  0
  -28.7115  -12.0355   21.3621 H   0  0  0  0  0  0
  -28.4402  -13.6796   21.8545 H   0  0  0  0  0  0
  -25.2757   -9.5691   22.4757 H   0  0  0  0  0  0
  -24.0006   -7.4632   22.7459 H   0  0  0  0  0  0
  -21.0843   -8.8774   19.8942 H   0  0  0  0  0  0
  -22.3695  -10.9677   19.6166 H   0  0  0  0  0  0
  -21.2005   -7.6150   23.9733 H   0  0  0  0  0  0
  -21.1482   -6.0516   25.9086 H   0  0  0  0  0  0
  -22.0596   -2.7615   23.2838 H   0  0  0  0  0  0
  -22.4080  -11.9901   22.4815 H   0  0  0  0  0  0
  -21.1093  -13.1270   22.2603 H   0  0  0  0  0  0
  -24.6589  -15.8430   20.5148 H   0  0  0  0  0  0
  -26.2767  -15.6301   20.0809 H   0  0  0  0  0  0
  -26.7212  -32.5449   23.1125 H   0  0  0  0  0  0
  -25.0184  -33.9726   25.0507 H   0  0  0  0  0  0
  -22.7216  -31.3136   21.4046 H   0  0  0  0  0  0
  -23.3779  -35.9580   23.3250 H   0  0  0  0  0  0
  -24.3615  -36.8922   22.2061 H   0  0  0  0  0  0
  -23.7201  -37.6452   23.6666 H   0  0  0  0  0  0
  -26.1093  -31.5509   20.6201 H   0  0  0  0  0  0
  -26.8501  -30.8279   22.0155 H   0  0  0  0  0  0
  -28.1127  -28.9422   21.2188 H   0  0  0  0  0  0
  -25.9243  -25.9789   18.9308 H   0  0  0  0  0  0
  -23.9681  -27.3581   18.9691 H   0  0  0  0  0  0
  -23.7744  -30.6211   19.4100 H   0  0  0  0  0  0
  -22.7618  -29.2758   19.8437 H   0  0  0  0  0  0
  -25.1278  -36.1923   25.0830 H   0  0  0  0  0  0
  -21.0020  -28.3312   24.1368 H   0  0  0  0  0  0
  -20.5731  -26.2340   23.3602 H   0  0  0  0  0  0
  -21.6670  -26.7488   22.1168 H   0  0  0  0  0  0
  -19.6949  -25.6301   21.1252 H   0  0  0  0  0  0
  -19.6716  -27.3196   20.6736 H   0  0  0  0  0  0
  -17.4229  -26.6701   21.4017 H   0  0  0  0  0  0
  -18.0356  -26.0081   22.9012 H   0  0  0  0  0  0
  -19.7955  -30.7281   24.2277 H   0  0  0  0  0  0
  -17.5039  -31.6280   24.5172 H   0  0  0  0  0  0
  -15.5375  -30.3015   23.7647 H   0  0  0  0  0  0
  -15.8693  -28.0841   22.7063 H   0  0  0  0  0  0
  -24.5963  -30.7019   25.7789 H   0  0  0  0  0  0
  -24.8907  -32.2876   26.4839 H   0  0  0  0  0  0
  -25.8079  -30.8936   27.0253 H   0  0  0  0  0  0
  -26.2926  -29.6729   24.1230 H   0  0  0  0  0  0
  -27.4076  -29.7247   25.4678 H   0  0  0  0  0  0
  -27.8791  -30.4267   23.9402 H   0  0  0  0  0  0
  -27.2779  -33.3604   26.2041 H   0  0  0  0  0  0
  -28.3942  -32.6756   25.0315 H   0  0  0  0  0  0
  -28.0746  -31.8389   26.5413 H   0  0  0  0  0  0
  -28.2557  -38.0132   24.7572 H   0  0  0  0  0  0
  -28.1130  -36.2664   24.6189 H   0  0  0  0  0  0
  -27.2328  -37.1311   25.8868 H   0  0  0  0  0  0
  -20.9380  -29.8822   21.6862 H   0  0  0  0  0  0
  -26.0155  -38.2838   24.1486 H   0  0  0  0  0  0
  -31.6365  -19.8435   19.6110 H   0  0  0  0  0  0
  -27.7791  -19.8035   21.5391 H   0  0  0  0  0  0
  -31.7534  -17.4080   19.7761 H   0  0  0  0  0  0
  -27.9011  -17.3765   21.7024 H   0  0  0  0  0  0
  -30.8483  -24.6484   20.7322 H   0  0  0  0  0  0
  -27.0538  -24.7343   20.4940 H   0  0  0  0  0  0
  -27.7419  -24.8423   18.8815 H   0  0  0  0  0  0
  -28.9289  -15.3308   21.2808 H   0  0  0  0  0  0
  1 25  1  0  0  0
  1 30  2  0  0  0
  1 83  1  0  0  0
  2  3  1  0  0  0
  2 25  1  0  0  0
  2 86  1  0  0  0
  2 87  1  0  0  0
  3  4  1  0  0  0
  3 88  1  0  0  0
  3 89  1  0  0  0
  4  5  1  0  0  0
  4 90  1  0  0  0
  4 91  1  0  0  0
  5  6  1  0  0  0
  5 26  1  0  0  0
  5 92  1  0  0  0
  6 25  1  0  0  0
  6 93  1  0  0  0
  6 94  1  0  0  0
  7  8  2  0  0  0
  7 26  1  0  0  0
  7 29  1  0  0  0
  8  9  1  0  0  0
  8 22  1  0  0  0
  9 10  1  0  0  0
  9 27  2  0  0  0
 10 11  2  0  0  0
 10 15  1  0  0  0
 11 12  1  0  0  0
 11 95  1  0  0  0
 12 13  2  0  0  0
 12 96  1  0  0  0
 13 14  1  0  0  0
 13 31  1  0  0  0
 14 15  2  0  0  0
 14 97  1  0  0  0
 15 98  1  0  0  0
 16 17  2  0  0  0
 16 21  1  0  0  0
 16 31  1  0  0  0
 17 18  1  0  0  0
 17 99  1  0  0  0
 18 19  2  0  0  0
 18100  1  0  0  0
 19 20  1  0  0  0
 19 24  1  0  0  0
 20 21  2  0  0  0
 20101  1  0  0  0
 21 23  1  0  0  0
 22 28  1  0  0  0
 22 32  2  0  0  0
 26 27  1  0  0  0
 28102  1  0  0  0
 28103  1  0  0  0
 29104  1  0  0  0
 29105  1  0  0  0
 33 34  1  0  0  0
 33 66  1  0  0  0
 33 70  2  0  0  0
 34 36  1  0  0  0
 34 59  1  0  0  0
 34106  1  0  0  0
 35 44  2  0  0  0
 35 45  1  0  0  0
 35 68  1  0  0  0
 36 56  1  0  0  0
 36107  1  0  0  0
 37 39  1  0  0  0
 37 47  1  0  0  0
 37 66  1  0  0  0
 37108  1  0  0  0
 38 43  2  0  0  0
 38 46  1  0  0  0
 38 47  1  0  0  0
 39 64  1  0  0  0
 39 67  2  0  0  0
 40 52  1  0  0  0
 40 53  2  0  0  0
 40 58  1  0  0  0
 41109  1  0  0  0
 41110  1  0  0  0
 41111  1  0  0  0
 41 48  1  0  0  0
 42 43  1  0  0  0
 42 66  1  0  0  0
 42112  1  0  0  0
 42113  1  0  0  0
 43 44  1  0  0  0
 44114  1  0  0  0
 45 46  2  0  0  0
 45115  1  0  0  0
 46116  1  0  0  0
 47117  1  0  0  0
 47118  1  0  0  0
 48 56  1  0  0  0
 48 65  1  0  0  0
 48119  1  0  0  0
 49 50  1  0  0  0
 49 53  1  0  0  0
 49 64  1  0  0  0
 49120  1  0  0  0
 50 51  1  0  0  0
 50121  1  0  0  0
 50122  1  0  0  0
 51 52  1  0  0  0
 51123  1  0  0  0
 51124  1  0  0  0
 52125  1  0  0  0
 52126  1  0  0  0
 53 54  1  0  0  0
 54 55  2  0  0  0
 54127  1  0  0  0
 55 57  1  0  0  0
 55128  1  0  0  0
 56 69  2  0  0  0
 57 58  2  0  0  0
 57129  1  0  0  0
 58130  1  0  0  0
 59 60  1  0  0  0
 59 61  1  0  0  0
 59 62  1  0  0  0
 60131  1  0  0  0
 60132  1  0  0  0
 60133  1  0  0  0
 61134  1  0  0  0
 61135  1  0  0  0
 61136  1  0  0  0
 62137  1  0  0  0
 62138  1  0  0  0
 62139  1  0  0  0
 63 65  1  0  0  0
 63140  1  0  0  0
 63141  1  0  0  0
 63142  1  0  0  0
 64143  1  0  0  0
 65144  1  0  0  0
 68 81  1  0  0  0
 71 73  2  0  0  0
 71 75  1  0  0  0
 71145  1  0  0  0
 72 74  1  0  0  0
 72 75  2  0  0  0
 72146  1  0  0  0
 73 76  1  0  0  0
 73147  1  0  0  0
 74 76  2  0  0  0
 74148  1  0  0  0
 75 82  1  0  0  0
 76 83  1  0  0  0
 77 78  2  0  0  0
 77 79  1  0  0  0
 77149  1  0  0  0
 78 80  1  0  0  0
 78 81  1  0  0  0
 79 82  1  0  0  0
 79 84  2  0  0  0
 80 82  1  0  0  0
 80 85  2  0  0  0
 81150  1  0  0  0
 81151  1  0  0  0
 83152  1  0  0  0
M  ISO  4   1 100  68 101  81 101  83 100
M  END
> <chiral flag>
0

> <version>
0

> <s_m_source_file>
/data/baiqing/PycharmProjects/Reinvent-master-3.2/result/LINK_invent/BTK/process_docking_weight1_custom_product_contain_oxygen_bond_distance_aromatic_linkinvent_7_9_3/rearranged_h_0081.sdf

> <i_m_source_file_index>
68

> <r_mmod_Potential_Energy-OPLS-2005>
82.7786254882812

> <r_mmod_Stretch_Energy-OPLS-2005>
87.6945190429688

> <r_mmod_Bend_Energy-OPLS-2005>
189.800857543945

> <r_mmod_Torsional_Energy-OPLS-2005>
235.467269897461

> <r_mmod_Improper_Torsional_Energy-OPLS-2005>
3.68464469909668

> <r_mmod_Van_der_Waal_Energy-OPLS-2005>
148.999633789062

> <r_mmod_Electrostatic_Energy-OPLS-2005>
-403.608795166016

> <r_mmod_Solvation_Energy-OPLS-2005>
-237.189315795898

> <b_mmod_Minimization_Converged-OPLS-2005>
0

> <r_mmod_RMS_Derivative-OPLS-2005>
1.06836152076721

$$$$
68
                    3D
 Structure written by MMmdl.
155163  0  0  1  0            999 V2000
  -30.6024  -14.8100   20.4171 C   0  0  0  0  0  0
  -30.4265  -12.4912   19.4807 C   0  0  0  0  0  0
  -29.5066  -12.4989   18.2398 C   0  0  0  0  0  0
  -28.0365  -12.3143   18.6609 C   0  0  0  0  0  0
  -27.6330  -13.2374   19.8419 C   0  0  2  0  0  0
  -28.6793  -13.2232   20.9774 C   0  0  0  0  0  0
  -25.2471  -13.8215   20.5705 C   0  0  0  0  0  0
  -24.1778  -13.0446   20.9231 C   0  0  0  0  0  0
  -24.6388  -11.6930   20.8767 C   0  0  0  0  0  0
  -23.9078  -10.4304   21.0422 C   0  0  0  0  0  0
  -24.3621   -9.4210   21.9199 C   0  0  0  0  0  0
  -23.6294   -8.2247   22.0761 C   0  0  0  0  0  0
  -22.4278   -8.0285   21.3548 C   0  0  0  0  0  0
  -21.9917   -9.0263   20.4653 C   0  0  0  0  0  0
  -22.7250  -10.2145   20.3070 C   0  0  0  0  0  0
  -21.6854   -6.0735   22.5284 C   0  0  0  0  0  0
  -21.4012   -6.5636   23.8212 C   0  0  0  0  0  0
  -21.3656   -5.6790   24.9172 C   0  0  0  0  0  0
  -21.6045   -4.3056   24.7228 C   0  0  0  0  0  0
  -21.8819   -3.8145   23.4348 C   0  0  0  0  0  0
  -21.9191   -4.6960   22.3402 C   0  0  0  0  0  0
  -22.7801  -13.5224   21.1878 C   0  0  0  0  0  0
  -22.1660   -4.2140   21.0981 F   0  0  0  0  0  0
  -21.5629   -3.4539   25.7741 F   0  0  0  0  0  0
  -29.9683  -13.5822   20.3786 N   0  0  0  0  0  0
  -26.2896  -12.9429   20.3279 N   0  0  0  0  0  0
  -25.9318  -11.6575   20.5783 N   0  0  0  0  0  0
  -22.0448  -12.8217   22.0430 N   0  0  0  0  0  0
  -25.4152  -15.1942   20.4099 N   0  0  0  0  0  0
  -31.8028  -14.8365   20.1399 O   0  0  0  0  0  0
  -21.6642   -6.8879   21.4247 O   0  0  0  0  0  0
  -22.3499  -14.5531   20.6722 O   0  0  0  0  0  0
  -24.6344  -31.8484   23.1939 C   0  0  0  0  0  0
  -25.9144  -32.4721   23.8301 C   0  0  1  0  0  0
  -27.2192  -27.2272   20.1286 C   0  0  0  0  0  0
  -25.5923  -33.8533   24.2216 N   0  0  0  0  0  0
  -23.4340  -30.4686   21.5374 C   0  0  2  0  0  0
  -24.8805  -28.9079   20.1023 C   0  0  0  0  0  0
  -22.7522  -29.4560   22.4892 C   0  0  0  0  0  0
  -18.0295  -28.1381   22.8482 C   0  0  0  0  0  0
  -24.1481  -36.7257   23.2645 C   0  0  0  0  0  0
  -25.9807  -30.7504   21.3763 C   0  0  0  0  0  0
  -26.0495  -29.3702   20.7175 C   0  0  0  0  0  0
  -27.2181  -28.5405   20.7213 C   0  0  0  0  0  0
  -26.0286  -26.8333   19.4820 C   0  0  0  0  0  0
  -24.8773  -27.6528   19.4719 C   0  0  0  0  0  0
  -23.6517  -29.7981   20.1530 C   0  0  0  0  0  0
  -25.4115  -36.3056   24.0325 C   0  0  1  0  0  0
  -20.5899  -28.3688   23.1263 C   0  0  2  0  0  0
  -20.6778  -26.9395   22.5413 C   0  0  0  0  0  0
  -19.5748  -26.6373   21.5227 C   0  0  0  0  0  0
  -18.1931  -26.7919   22.1630 C   0  0  0  0  0  0
  -19.1547  -28.8858   23.2863 C   0  0  0  0  0  0
  -18.9468  -30.1451   23.8889 C   0  0  0  0  0  0
  -17.6468  -30.6586   24.0554 C   0  0  0  0  0  0
  -25.9063  -34.9434   23.5084 C   0  0  0  0  0  0
  -16.5357  -29.9080   23.6335 C   0  0  0  0  0  0
  -16.7278  -28.6491   23.0368 C   0  0  0  0  0  0
  -26.4507  -31.6576   25.0713 C   0  0  0  0  0  0
  -25.3718  -31.3741   26.1428 C   0  0  0  0  0  0
  -27.0364  -30.2991   24.6230 C   0  0  0  0  0  0
  -27.6052  -32.4339   25.7486 C   0  0  0  0  0  0
  -27.5581  -37.1786   24.8471 C   0  0  0  0  0  0
  -21.4224  -29.3021   22.3644 N   0  0  0  0  0  0
  -26.4287  -37.3763   23.9419 N   0  0  0  0  0  0
  -24.7028  -31.0428   22.0919 N   0  0  0  0  0  0
  -23.4215  -28.8120   23.3017 O   0  0  0  0  0  0
  -28.3057  -26.3245   20.2548 O   0  0  0  0  0  0
  -26.5645  -34.8923   22.4661 O   0  0  0  0  0  0
  -23.5489  -32.1298   23.7228 O   0  0  0  0  0  0
  -31.0784  -20.2212   20.1913 C   0  0  0  0  0  0
  -31.5733  -17.8232   20.3628 C   0  0  0  0  0  0
  -29.2761  -18.6019   20.4214 C   0  0  0  0  0  0
  -32.0155  -19.1652   20.2632 C   0  0  0  0  0  0
  -29.6893  -20.0097   20.2938 C   0  0  0  0  0  0
  -30.2064  -17.4584   20.4269 C   0  0  0  0  0  0
  -35.7138  -18.5297   20.5514 C   0  0  0  0  0  0
  -34.4621  -18.4447   20.0644 C   0  0  0  0  0  0
  -28.5974  -23.7824   20.3730 C   0  0  0  0  0  0
  -28.3671  -24.9956   19.7125 C   0  0  0  0  0  0
  -33.4710  -19.5156   20.2909 C   0  0  0  0  0  0
  -28.9233  -22.4528   19.7059 C   0  0  0  0  0  0
  -28.8633  -21.2587   20.4331 N   0  0  0  0  0  0
  -29.8444  -15.9921   20.5407 N   0  0  0  0  0  0
  -33.8404  -20.6755   20.5055 O   0  0  0  0  0  0
  -29.2618  -22.4042   18.5204 O   0  0  0  0  0  0
  -31.4664  -12.6095   19.1720 H   0  0  0  0  0  0
  -30.3782  -11.5295   19.9954 H   0  0  0  0  0  0
  -29.7987  -11.7068   17.5490 H   0  0  0  0  0  0
  -29.6201  -13.4385   17.6975 H   0  0  0  0  0  0
  -27.9108  -11.2709   18.9534 H   0  0  0  0  0  0
  -27.3726  -12.4744   17.8102 H   0  0  0  0  0  0
  -27.6125  -14.2470   19.4321 H   0  0  0  0  0  0
  -28.7354  -12.2421   21.4511 H   0  0  0  0  0  0
  -28.4099  -13.9311   21.7628 H   0  0  0  0  0  0
  -25.2766   -9.5678   22.4774 H   0  0  0  0  0  0
  -23.9992   -7.4640   22.7481 H   0  0  0  0  0  0
  -21.0846   -8.8792   19.8962 H   0  0  0  0  0  0
  -22.3715  -10.9682   19.6175 H   0  0  0  0  0  0
  -21.2008   -7.6144   23.9712 H   0  0  0  0  0  0
  -21.1474   -6.0521   25.9073 H   0  0  0  0  0  0
  -22.0602   -2.7608   23.2856 H   0  0  0  0  0  0
  -22.4056  -11.9868   22.4806 H   0  0  0  0  0  0
  -21.1078  -13.1254   22.2652 H   0  0  0  0  0  0
  -24.6438  -15.8442   20.5160 H   0  0  0  0  0  0
  -26.2522  -15.6339   20.0505 H   0  0  0  0  0  0
  -26.7200  -32.5350   23.1026 H   0  0  0  0  0  0
  -25.0071  -33.9642   25.0367 H   0  0  0  0  0  0
  -22.7335  -31.2929   21.3873 H   0  0  0  0  0  0
  -23.3766  -35.9569   23.3299 H   0  0  0  0  0  0
  -24.3579  -36.8897   22.2065 H   0  0  0  0  0  0
  -23.7219  -37.6452   23.6669 H   0  0  0  0  0  0
  -26.1307  -31.5096   20.6069 H   0  0  0  0  0  0
  -26.8558  -30.7946   22.0138 H   0  0  0  0  0  0
  -28.1102  -28.8832   21.2263 H   0  0  0  0  0  0
  -25.9629  -25.8591   19.0175 H   0  0  0  0  0  0
  -23.9802  -27.2959   18.9857 H   0  0  0  0  0  0
  -23.7714  -30.5716   19.3934 H   0  0  0  0  0  0
  -22.7687  -29.2283   19.8564 H   0  0  0  0  0  0
  -25.1305  -36.1899   25.0819 H   0  0  0  0  0  0
  -20.9988  -28.3271   24.1384 H   0  0  0  0  0  0
  -20.5703  -26.2285   23.3621 H   0  0  0  0  0  0
  -21.6644  -26.7413   22.1192 H   0  0  0  0  0  0
  -19.6908  -25.6299   21.1241 H   0  0  0  0  0  0
  -19.6706  -27.3200   20.6776 H   0  0  0  0  0  0
  -17.4203  -26.6675   21.4024 H   0  0  0  0  0  0
  -18.0293  -26.0080   22.9032 H   0  0  0  0  0  0
  -19.7945  -30.7257   24.2265 H   0  0  0  0  0  0
  -17.5020  -31.6272   24.5141 H   0  0  0  0  0  0
  -15.5346  -30.2976   23.7667 H   0  0  0  0  0  0
  -15.8670  -28.0797   22.7107 H   0  0  0  0  0  0
  -24.5891  -30.7086   25.7760 H   0  0  0  0  0  0
  -24.8899  -32.2910   26.4827 H   0  0  0  0  0  0
  -25.8017  -30.8944   27.0224 H   0  0  0  0  0  0
  -26.2954  -29.6731   24.1236 H   0  0  0  0  0  0
  -27.4024  -29.7272   25.4768 H   0  0  0  0  0  0
  -27.8842  -30.4273   23.9494 H   0  0  0  0  0  0
  -27.2651  -33.3660   26.2006 H   0  0  0  0  0  0
  -28.3877  -32.6866   25.0318 H   0  0  0  0  0  0
  -28.0683  -31.8500   26.5446 H   0  0  0  0  0  0
  -28.2591  -38.0088   24.7536 H   0  0  0  0  0  0
  -28.1080  -36.2628   24.6269 H   0  0  0  0  0  0
  -27.2296  -37.1403   25.8871 H   0  0  0  0  0  0
  -20.9419  -29.8727   21.6838 H   0  0  0  0  0  0
  -26.0164  -38.2836   24.1435 H   0  0  0  0  0  0
  -31.4447  -21.2368   20.1252 H   0  0  0  0  0  0
  -32.3259  -17.0601   20.4440 H   0  0  0  0  0  0
  -28.2206  -18.3959   20.5257 H   0  0  0  0  0  0
  -36.4283  -17.7388   20.3781 H   0  0  0  0  0  0
  -36.0458  -19.3810   21.1290 H   0  0  0  0  0  0
  -34.1662  -17.5762   19.4959 H   0  0  0  0  0  0
  -28.6174  -23.8034   21.4536 H   0  0  0  0  0  0
  -28.2994  -25.0327   18.6332 H   0  0  0  0  0  0
  -28.3379  -21.3210   21.2941 H   0  0  0  0  0  0
  -28.8630  -15.8103   20.6801 H   0  0  0  0  0  0
  1 25  1  0  0  0
  1 30  2  0  0  0
  1 84  1  0  0  0
  2  3  1  0  0  0
  2 25  1  0  0  0
  2 87  1  0  0  0
  2 88  1  0  0  0
  3  4  1  0  0  0
  3 89  1  0  0  0
  3 90  1  0  0  0
  4  5  1  0  0  0
  4 91  1  0  0  0
  4 92  1  0  0  0
  5  6  1  0  0  0
  5 26  1  0  0  0
  5 93  1  0  0  0
  6 25  1  0  0  0
  6 94  1  0  0  0
  6 95  1  0  0  0
  7  8  2  0  0  0
  7 26  1  0  0  0
  7 29  1  0  0  0
  8  9  1  0  0  0
  8 22  1  0  0  0
  9 10  1  0  0  0
  9 27  2  0  0  0
 10 11  2  0  0  0
 10 15  1  0  0  0
 11 12  1  0  0  0
 11 96  1  0  0  0
 12 13  2  0  0  0
 12 97  1  0  0  0
 13 14  1  0  0  0
 13 31  1  0  0  0
 14 15  2  0  0  0
 14 98  1  0  0  0
 15 99  1  0  0  0
 16 17  2  0  0  0
 16 21  1  0  0  0
 16 31  1  0  0  0
 17 18  1  0  0  0
 17100  1  0  0  0
 18 19  2  0  0  0
 18101  1  0  0  0
 19 20  1  0  0  0
 19 24  1  0  0  0
 20 21  2  0  0  0
 20102  1  0  0  0
 21 23  1  0  0  0
 22 28  1  0  0  0
 22 32  2  0  0  0
 26 27  1  0  0  0
 28103  1  0  0  0
 28104  1  0  0  0
 29105  1  0  0  0
 29106  1  0  0  0
 33 34  1  0  0  0
 33 66  1  0  0  0
 33 70  2  0  0  0
 34 36  1  0  0  0
 34 59  1  0  0  0
 34107  1  0  0  0
 35 44  2  0  0  0
 35 45  1  0  0  0
 35 68  1  0  0  0
 36 56  1  0  0  0
 36108  1  0  0  0
 37 39  1  0  0  0
 37 47  1  0  0  0
 37 66  1  0  0  0
 37109  1  0  0  0
 38 43  2  0  0  0
 38 46  1  0  0  0
 38 47  1  0  0  0
 39 64  1  0  0  0
 39 67  2  0  0  0
 40 52  1  0  0  0
 40 53  2  0  0  0
 40 58  1  0  0  0
 41110  1  0  0  0
 41111  1  0  0  0
 41112  1  0  0  0
 41 48  1  0  0  0
 42 43  1  0  0  0
 42 66  1  0  0  0
 42113  1  0  0  0
 42114  1  0  0  0
 43 44  1  0  0  0
 44115  1  0  0  0
 45 46  2  0  0  0
 45116  1  0  0  0
 46117  1  0  0  0
 47118  1  0  0  0
 47119  1  0  0  0
 48 56  1  0  0  0
 48 65  1  0  0  0
 48120  1  0  0  0
 49 50  1  0  0  0
 49 53  1  0  0  0
 49 64  1  0  0  0
 49121  1  0  0  0
 50 51  1  0  0  0
 50122  1  0  0  0
 50123  1  0  0  0
 51 52  1  0  0  0
 51124  1  0  0  0
 51125  1  0  0  0
 52126  1  0  0  0
 52127  1  0  0  0
 53 54  1  0  0  0
 54 55  2  0  0  0
 54128  1  0  0  0
 55 57  1  0  0  0
 55129  1  0  0  0
 56 69  2  0  0  0
 57 58  2  0  0  0
 57130  1  0  0  0
 58131  1  0  0  0
 59 60  1  0  0  0
 59 61  1  0  0  0
 59 62  1  0  0  0
 60132  1  0  0  0
 60133  1  0  0  0
 60134  1  0  0  0
 61135  1  0  0  0
 61136  1  0  0  0
 61137  1  0  0  0
 62138  1  0  0  0
 62139  1  0  0  0
 62140  1  0  0  0
 63 65  1  0  0  0
 63141  1  0  0  0
 63142  1  0  0  0
 63143  1  0  0  0
 64144  1  0  0  0
 65145  1  0  0  0
 68 80  1  0  0  0
 71 74  2  0  0  0
 71 75  1  0  0  0
 71146  1  0  0  0
 72 74  1  0  0  0
 72 76  2  0  0  0
 72147  1  0  0  0
 73 75  2  0  0  0
 73 76  1  0  0  0
 73148  1  0  0  0
 74 81  1  0  0  0
 75 83  1  0  0  0
 76 84  1  0  0  0
 77 78  2  0  0  0
 77149  1  0  0  0
 77150  1  0  0  0
 78 81  1  0  0  0
 78151  1  0  0  0
 79 80  2  0  0  0
 79 82  1  0  0  0
 79152  1  0  0  0
 80153  1  0  0  0
 81 85  2  0  0  0
 82 83  1  0  0  0
 82 86  2  0  0  0
 83154  1  0  0  0
 84155  1  0  0  0
M  ISO  4   1 100  68 101  80 101  84 100
M  END
> <chiral flag>
0

> <version>
0

> <s_m_source_file>
/data/baiqing/PycharmProjects/Reinvent-master-3.2/result/LINK_invent/BTK/process_docking_weight1_custom_product_contain_oxygen_bond_distance_aromatic_linkinvent_7_9_3/rearranged_h_0081.sdf

> <i_m_source_file_index>
69

> <r_mmod_Potential_Energy-OPLS-2005>
225.571151733398

> <r_mmod_Stretch_Energy-OPLS-2005>
153.696640014648

> <r_mmod_Bend_Energy-OPLS-2005>
180.302307128906

> <r_mmod_Torsional_Energy-OPLS-2005>
264.759521484375

> <r_mmod_Improper_Torsional_Energy-OPLS-2005>
8.44703388214111

> <r_mmod_Van_der_Waal_Energy-OPLS-2005>
152.531890869141

> <r_mmod_Electrostatic_Energy-OPLS-2005>
-408.540954589844

> <r_mmod_Solvation_Energy-OPLS-2005>
-240.848831176758

> <b_mmod_Minimization_Converged-OPLS-2005>
0

> <r_mmod_RMS_Derivative-OPLS-2005>
2.25865364074707

$$$$
69
                    3D
 Structure written by MMmdl.
147155  0  0  1  0            999 V2000
  -30.6024  -14.8688   20.4176 C   0  0  0  0  0  0
  -30.4333  -12.5293   19.4888 C   0  0  0  0  0  0
  -29.5180  -12.5217   18.2465 C   0  0  0  0  0  0
  -28.0499  -12.3258   18.6696 C   0  0  0  0  0  0
  -27.6402  -13.2498   19.8446 C   0  0  2  0  0  0
  -28.6851  -13.2510   20.9794 C   0  0  0  0  0  0
  -25.2533  -13.8236   20.5727 C   0  0  0  0  0  0
  -24.1836  -13.0449   20.9196 C   0  0  0  0  0  0
  -24.6434  -11.6926   20.8735 C   0  0  0  0  0  0
  -23.9119  -10.4280   21.0405 C   0  0  0  0  0  0
  -24.3641   -9.4189   21.9196 C   0  0  0  0  0  0
  -23.6281   -8.2250   22.0770 C   0  0  0  0  0  0
  -22.4276   -8.0279   21.3554 C   0  0  0  0  0  0
  -21.9931   -9.0255   20.4658 C   0  0  0  0  0  0
  -22.7291  -10.2121   20.3051 C   0  0  0  0  0  0
  -21.6856   -6.0710   22.5266 C   0  0  0  0  0  0
  -21.4038   -6.5620   23.8195 C   0  0  0  0  0  0
  -21.3665   -5.6776   24.9154 C   0  0  0  0  0  0
  -21.6044   -4.3034   24.7213 C   0  0  0  0  0  0
  -21.8823   -3.8124   23.4335 C   0  0  0  0  0  0
  -21.9194   -4.6936   22.3389 C   0  0  0  0  0  0
  -22.7861  -13.5207   21.1850 C   0  0  0  0  0  0
  -22.1664   -4.2113   21.0968 F   0  0  0  0  0  0
  -21.5612   -3.4523   25.7732 F   0  0  0  0  0  0
  -29.9762  -13.6259   20.3889 N   0  0  0  0  0  0
  -26.2965  -12.9464   20.3298 N   0  0  0  0  0  0
  -25.9373  -11.6585   20.5767 N   0  0  0  0  0  0
  -22.0481  -12.8202   22.0386 N   0  0  0  0  0  0
  -25.4224  -15.1990   20.4219 N   0  0  0  0  0  0
  -31.7728  -14.8960   20.0333 O   0  0  0  0  0  0
  -21.6655   -6.8867   21.4229 O   0  0  0  0  0  0
  -22.3559  -14.5516   20.6695 O   0  0  0  0  0  0
  -24.6389  -31.8426   23.1889 C   0  0  0  0  0  0
  -25.9172  -32.4678   23.8282 C   0  0  1  0  0  0
  -27.2266  -27.1753   20.1552 C   0  0  0  0  0  0
  -25.5930  -33.8490   24.2177 N   0  0  0  0  0  0
  -23.4406  -30.4604   21.5322 C   0  0  2  0  0  0
  -24.8934  -28.8962   20.0997 C   0  0  0  0  0  0
  -22.7575  -29.4491   22.4859 C   0  0  0  0  0  0
  -18.0323  -28.1375   22.8462 C   0  0  0  0  0  0
  -24.1498  -36.7262   23.2643 C   0  0  0  0  0  0
  -25.9943  -30.7294   21.3854 C   0  0  0  0  0  0
  -26.0640  -29.3466   20.7243 C   0  0  0  0  0  0
  -27.2271  -28.4977   20.7410 C   0  0  0  0  0  0
  -26.0327  -26.8067   19.5008 C   0  0  0  0  0  0
  -24.8885  -27.6377   19.4733 C   0  0  0  0  0  0
  -23.6637  -29.7906   20.1491 C   0  0  0  0  0  0
  -25.4123  -36.3018   24.0307 C   0  0  1  0  0  0
  -20.5941  -28.3697   23.1257 C   0  0  2  0  0  0
  -20.6814  -26.9393   22.5425 C   0  0  0  0  0  0
  -19.5793  -26.6414   21.5203 C   0  0  0  0  0  0
  -18.1956  -26.7940   22.1568 C   0  0  0  0  0  0
  -19.1582  -28.8856   23.2853 C   0  0  0  0  0  0
  -18.9464  -30.1454   23.8879 C   0  0  0  0  0  0
  -17.6451  -30.6544   24.0549 C   0  0  0  0  0  0
  -25.9062  -34.9391   23.5058 C   0  0  0  0  0  0
  -16.5341  -29.9037   23.6286 C   0  0  0  0  0  0
  -16.7303  -28.6456   23.0345 C   0  0  0  0  0  0
  -26.4492  -31.6562   25.0742 C   0  0  0  0  0  0
  -25.3714  -31.3760   26.1451 C   0  0  0  0  0  0
  -27.0368  -30.2957   24.6363 C   0  0  0  0  0  0
  -27.6008  -32.4371   25.7534 C   0  0  0  0  0  0
  -27.5575  -37.1801   24.8478 C   0  0  0  0  0  0
  -21.4258  -29.3039   22.3649 N   0  0  0  0  0  0
  -26.4301  -37.3723   23.9389 N   0  0  0  0  0  0
  -24.7103  -31.0318   22.0890 N   0  0  0  0  0  0
  -23.4248  -28.8028   23.2964 O   0  0  0  0  0  0
  -28.2951  -26.2295   20.2864 O   0  0  0  0  0  0
  -26.5656  -34.8888   22.4639 O   0  0  0  0  0  0
  -23.5510  -32.1277   23.7141 O   0  0  0  0  0  0
  -30.4889  -18.4655   17.9558 C   0  0  0  0  0  0
  -30.4565  -17.3361   18.6817 C   0  0  0  0  0  0
  -30.0380  -19.7231   18.4917 C   0  0  0  0  0  0
  -29.5410  -19.7914   19.7394 C   0  0  0  0  0  0
  -29.9343  -17.2510   20.0808 C   0  0  0  0  0  0
  -28.6591  -23.6448   20.4159 C   0  0  0  0  0  0
  -28.2749  -24.8595   19.8037 C   0  0  0  0  0  0
  -28.7034  -22.2772   19.7142 C   0  0  0  0  0  0
  -29.8771  -16.0921   20.7728 N   0  0  0  0  0  0
  -29.1246  -21.0838   20.3595 N   0  0  0  0  0  0
  -28.3748  -22.2133   18.5269 O   0  0  0  0  0  0
  -29.4807  -18.5746   20.5405 O   0  0  0  0  0  0
  -31.4703  -12.6416   19.1677 H   0  0  0  0  0  0
  -30.3887  -11.5670   20.0015 H   0  0  0  0  0  0
  -29.8200  -11.7265   17.5632 H   0  0  0  0  0  0
  -29.6316  -13.4554   17.6948 H   0  0  0  0  0  0
  -27.9407  -11.2852   18.9771 H   0  0  0  0  0  0
  -27.3842  -12.4721   17.8189 H   0  0  0  0  0  0
  -27.6180  -14.2625   19.4374 H   0  0  0  0  0  0
  -28.7535  -12.2716   21.4562 H   0  0  0  0  0  0
  -28.3958  -13.9543   21.7617 H   0  0  0  0  0  0
  -25.2755   -9.5660   22.4817 H   0  0  0  0  0  0
  -23.9942   -7.4655   22.7516 H   0  0  0  0  0  0
  -21.0851   -8.8796   19.8978 H   0  0  0  0  0  0
  -22.3745  -10.9664   19.6168 H   0  0  0  0  0  0
  -21.2083   -7.6136   23.9688 H   0  0  0  0  0  0
  -21.1489   -6.0511   25.9055 H   0  0  0  0  0  0
  -22.0618   -2.7585   23.2851 H   0  0  0  0  0  0
  -22.4000  -11.9825   22.4787 H   0  0  0  0  0  0
  -21.1112  -13.1283   22.2535 H   0  0  0  0  0  0
  -24.6607  -15.8555   20.5479 H   0  0  0  0  0  0
  -26.2996  -15.6483   20.1871 H   0  0  0  0  0  0
  -26.7255  -32.5287   23.1033 H   0  0  0  0  0  0
  -25.0061  -33.9628   25.0314 H   0  0  0  0  0  0
  -22.7404  -31.2852   21.3840 H   0  0  0  0  0  0
  -23.3738  -35.9622   23.3311 H   0  0  0  0  0  0
  -24.3560  -36.8888   22.2058 H   0  0  0  0  0  0
  -23.7289  -37.6474   23.6676 H   0  0  0  0  0  0
  -26.1642  -31.4922   20.6236 H   0  0  0  0  0  0
  -26.8586  -30.7610   22.0391 H   0  0  0  0  0  0
  -28.1149  -28.8280   21.2645 H   0  0  0  0  0  0
  -25.9456  -25.8302   19.0486 H   0  0  0  0  0  0
  -23.9945  -27.2768   18.9815 H   0  0  0  0  0  0
  -23.7911  -30.5666   19.3925 H   0  0  0  0  0  0
  -22.7799  -29.2294   19.8418 H   0  0  0  0  0  0
  -25.1321  -36.1846   25.0799 H   0  0  0  0  0  0
  -21.0022  -28.3323   24.1382 H   0  0  0  0  0  0
  -20.5713  -26.2279   23.3619 H   0  0  0  0  0  0
  -21.6668  -26.7376   22.1197 H   0  0  0  0  0  0
  -19.6932  -25.6343   21.1168 H   0  0  0  0  0  0
  -19.6752  -27.3284   20.6793 H   0  0  0  0  0  0
  -17.4268  -26.6772   21.3898 H   0  0  0  0  0  0
  -18.0309  -26.0035   22.8916 H   0  0  0  0  0  0
  -19.7957  -30.7268   24.2224 H   0  0  0  0  0  0
  -17.4969  -31.6204   24.5153 H   0  0  0  0  0  0
  -15.5317  -30.2918   23.7530 H   0  0  0  0  0  0
  -15.8728  -28.0736   22.7063 H   0  0  0  0  0  0
  -24.5900  -30.7063   25.7818 H   0  0  0  0  0  0
  -24.8875  -32.2932   26.4821 H   0  0  0  0  0  0
  -25.8019  -30.9006   27.0275 H   0  0  0  0  0  0
  -26.2994  -29.6673   24.1338 H   0  0  0  0  0  0
  -27.3899  -29.7253   25.4967 H   0  0  0  0  0  0
  -27.8931  -30.4138   23.9730 H   0  0  0  0  0  0
  -27.2551  -33.3678   26.2036 H   0  0  0  0  0  0
  -28.3850  -32.6924   25.0409 H   0  0  0  0  0  0
  -28.0638  -31.8574   26.5527 H   0  0  0  0  0  0
  -28.2619  -38.0074   24.7435 H   0  0  0  0  0  0
  -28.1049  -36.2584   24.6411 H   0  0  0  0  0  0
  -27.2280  -37.1583   25.8888 H   0  0  0  0  0  0
  -20.9493  -29.8783   21.6848 H   0  0  0  0  0  0
  -26.0164  -38.2807   24.1317 H   0  0  0  0  0  0
  -30.8526  -18.4335   16.9372 H   0  0  0  0  0  0
  -30.7838  -16.4171   18.2182 H   0  0  0  0  0  0
  -30.1359  -20.6092   17.8777 H   0  0  0  0  0  0
  -28.9708  -23.6819   21.4496 H   0  0  0  0  0  0
  -27.9594  -24.8482   18.7718 H   0  0  0  0  0  0
  -29.2658  -21.1445   21.3570 H   0  0  0  0  0  0
  1 25  1  0  0  0
  1 30  2  0  0  0
  1 79  1  0  0  0
  2  3  1  0  0  0
  2 25  1  0  0  0
  2 83  1  0  0  0
  2 84  1  0  0  0
  3  4  1  0  0  0
  3 85  1  0  0  0
  3 86  1  0  0  0
  4  5  1  0  0  0
  4 87  1  0  0  0
  4 88  1  0  0  0
  5  6  1  0  0  0
  5 26  1  0  0  0
  5 89  1  0  0  0
  6 25  1  0  0  0
  6 90  1  0  0  0
  6 91  1  0  0  0
  7  8  2  0  0  0
  7 26  1  0  0  0
  7 29  1  0  0  0
  8  9  1  0  0  0
  8 22  1  0  0  0
  9 10  1  0  0  0
  9 27  2  0  0  0
 10 11  2  0  0  0
 10 15  1  0  0  0
 11 12  1  0  0  0
 11 92  1  0  0  0
 12 13  2  0  0  0
 12 93  1  0  0  0
 13 14  1  0  0  0
 13 31  1  0  0  0
 14 15  2  0  0  0
 14 94  1  0  0  0
 15 95  1  0  0  0
 16 17  2  0  0  0
 16 21  1  0  0  0
 16 31  1  0  0  0
 17 18  1  0  0  0
 17 96  1  0  0  0
 18 19  2  0  0  0
 18 97  1  0  0  0
 19 20  1  0  0  0
 19 24  1  0  0  0
 20 21  2  0  0  0
 20 98  1  0  0  0
 21 23  1  0  0  0
 22 28  1  0  0  0
 22 32  2  0  0  0
 26 27  1  0  0  0
 28 99  1  0  0  0
 28100  1  0  0  0
 29101  1  0  0  0
 29102  1  0  0  0
 33 34  1  0  0  0
 33 66  1  0  0  0
 33 70  2  0  0  0
 34 36  1  0  0  0
 34 59  1  0  0  0
 34103  1  0  0  0
 35 44  2  0  0  0
 35 45  1  0  0  0
 35 68  1  0  0  0
 36 56  1  0  0  0
 36104  1  0  0  0
 37 39  1  0  0  0
 37 47  1  0  0  0
 37 66  1  0  0  0
 37105  1  0  0  0
 38 43  2  0  0  0
 38 46  1  0  0  0
 38 47  1  0  0  0
 39 64  1  0  0  0
 39 67  2  0  0  0
 40 52  1  0  0  0
 40 53  2  0  0  0
 40 58  1  0  0  0
 41106  1  0  0  0
 41107  1  0  0  0
 41108  1  0  0  0
 41 48  1  0  0  0
 42 43  1  0  0  0
 42 66  1  0  0  0
 42109  1  0  0  0
 42110  1  0  0  0
 43 44  1  0  0  0
 44111  1  0  0  0
 45 46  2  0  0  0
 45112  1  0  0  0
 46113  1  0  0  0
 47114  1  0  0  0
 47115  1  0  0  0
 48 56  1  0  0  0
 48 65  1  0  0  0
 48116  1  0  0  0
 49 50  1  0  0  0
 49 53  1  0  0  0
 49 64  1  0  0  0
 49117  1  0  0  0
 50 51  1  0  0  0
 50118  1  0  0  0
 50119  1  0  0  0
 51 52  1  0  0  0
 51120  1  0  0  0
 51121  1  0  0  0
 52122  1  0  0  0
 52123  1  0  0  0
 53 54  1  0  0  0
 54 55  2  0  0  0
 54124  1  0  0  0
 55 57  1  0  0  0
 55125  1  0  0  0
 56 69  2  0  0  0
 57 58  2  0  0  0
 57126  1  0  0  0
 58127  1  0  0  0
 59 60  1  0  0  0
 59 61  1  0  0  0
 59 62  1  0  0  0
 60128  1  0  0  0
 60129  1  0  0  0
 60130  1  0  0  0
 61131  1  0  0  0
 61132  1  0  0  0
 61133  1  0  0  0
 62134  1  0  0  0
 62135  1  0  0  0
 62136  1  0  0  0
 63 65  1  0  0  0
 63137  1  0  0  0
 63138  1  0  0  0
 63139  1  0  0  0
 64140  1  0  0  0
 65141  1  0  0  0
 68 77  1  0  0  0
 71 72  2  0  0  0
 71 73  1  0  0  0
 71142  1  0  0  0
 72 75  1  0  0  0
 72143  1  0  0  0
 73 74  2  0  0  0
 73144  1  0  0  0
 74 80  1  0  0  0
 74 82  1  0  0  0
 75 79  2  0  0  0
 75 82  1  0  0  0
 76 77  2  0  0  0
 76 78  1  0  0  0
 76145  1  0  0  0
 77146  1  0  0  0
 78 80  1  0  0  0
 78 81  2  0  0  0
 80147  1  0  0  0
M  ISO  4   1 100  68 101  77 101  79 100
M  END
> <chiral flag>
0

> <version>
0

> <s_m_source_file>
/data/baiqing/PycharmProjects/Reinvent-master-3.2/result/LINK_invent/BTK/process_docking_weight1_custom_product_contain_oxygen_bond_distance_aromatic_linkinvent_7_9_3/rearranged_h_0081.sdf

> <i_m_source_file_index>
70

> <r_mmod_Potential_Energy-OPLS-2005>
370.490905761719

> <r_mmod_Stretch_Energy-OPLS-2005>
209.503311157227

> <r_mmod_Bend_Energy-OPLS-2005>
225.716781616211

> <r_mmod_Torsional_Energy-OPLS-2005>
208.722549438477

> <r_mmod_Improper_Torsional_Energy-OPLS-2005>
3.47160196304321

> <r_mmod_Van_der_Waal_Energy-OPLS-2005>
145.767456054688

> <r_mmod_Electrostatic_Energy-OPLS-2005>
-370.629241943359

> <r_mmod_Solvation_Energy-OPLS-2005>
-201.219573974609

> <b_mmod_Minimization_Converged-OPLS-2005>
0

> <r_mmod_RMS_Derivative-OPLS-2005>
4.70943737030029

$$$$
70
                    3D
 Structure written by MMmdl.
153162  0  0  1  0            999 V2000
  -30.6039  -14.8718   20.4936 C   0  0  0  0  0  0
  -30.4339  -12.5477   19.5057 C   0  0  0  0  0  0
  -29.5191  -12.5307   18.2610 C   0  0  0  0  0  0
  -28.0531  -12.3176   18.6777 C   0  0  0  0  0  0
  -27.6335  -13.2450   19.8486 C   0  0  2  0  0  0
  -28.6746  -13.2533   20.9923 C   0  0  0  0  0  0
  -25.2479  -13.8226   20.5719 C   0  0  0  0  0  0
  -24.1788  -13.0457   20.9231 C   0  0  0  0  0  0
  -24.6395  -11.6945   20.8745 C   0  0  0  0  0  0
  -23.9099  -10.4302   21.0403 C   0  0  0  0  0  0
  -24.3633   -9.4220   21.9184 C   0  0  0  0  0  0
  -23.6313   -8.2247   22.0754 C   0  0  0  0  0  0
  -22.4282   -8.0289   21.3564 C   0  0  0  0  0  0
  -21.9923   -9.0256   20.4647 C   0  0  0  0  0  0
  -22.7253  -10.2143   20.3059 C   0  0  0  0  0  0
  -21.6851   -6.0736   22.5282 C   0  0  0  0  0  0
  -21.4024   -6.5644   23.8219 C   0  0  0  0  0  0
  -21.3639   -5.6798   24.9175 C   0  0  0  0  0  0
  -21.6059   -4.3066   24.7242 C   0  0  0  0  0  0
  -21.8804   -3.8149   23.4350 C   0  0  0  0  0  0
  -21.9205   -4.6966   22.3413 C   0  0  0  0  0  0
  -22.7803  -13.5216   21.1878 C   0  0  0  0  0  0
  -22.1664   -4.2148   21.0989 F   0  0  0  0  0  0
  -21.5621   -3.4541   25.7746 F   0  0  0  0  0  0
  -29.9635  -13.6383   20.4075 N   0  0  0  0  0  0
  -26.2893  -12.9448   20.3280 N   0  0  0  0  0  0
  -25.9328  -11.6586   20.5760 N   0  0  0  0  0  0
  -22.0456  -12.8186   22.0429 N   0  0  0  0  0  0
  -25.4134  -15.1954   20.4135 N   0  0  0  0  0  0
  -31.7905  -14.9147   20.1626 O   0  0  0  0  0  0
  -21.6648   -6.8879   21.4253 O   0  0  0  0  0  0
  -22.3483  -14.5506   20.6723 O   0  0  0  0  0  0
  -24.6372  -31.8487   23.1935 C   0  0  0  0  0  0
  -25.9149  -32.4740   23.8290 C   0  0  1  0  0  0
  -27.2044  -27.1698   20.1408 C   0  0  0  0  0  0
  -25.5924  -33.8543   24.2206 N   0  0  0  0  0  0
  -23.4386  -30.4698   21.5419 C   0  0  2  0  0  0
  -24.8882  -28.9095   20.1041 C   0  0  0  0  0  0
  -22.7544  -29.4551   22.4892 C   0  0  0  0  0  0
  -18.0279  -28.1412   22.8515 C   0  0  0  0  0  0
  -24.1450  -36.7282   23.2637 C   0  0  0  0  0  0
  -25.9942  -30.7307   21.3850 C   0  0  0  0  0  0
  -26.0642  -29.3455   20.7266 C   0  0  0  0  0  0
  -27.2206  -28.4842   20.7509 C   0  0  0  0  0  0
  -26.0325  -26.8669   19.4112 C   0  0  0  0  0  0
  -24.8825  -27.6858   19.4255 C   0  0  0  0  0  0
  -23.6567  -29.8030   20.1608 C   0  0  0  0  0  0
  -25.4097  -36.3084   24.0309 C   0  0  1  0  0  0
  -20.5903  -28.3715   23.1262 C   0  0  2  0  0  0
  -20.6746  -26.9412   22.5437 C   0  0  0  0  0  0
  -19.5715  -26.6387   21.5236 C   0  0  0  0  0  0
  -18.1894  -26.7954   22.1653 C   0  0  0  0  0  0
  -19.1546  -28.8888   23.2886 C   0  0  0  0  0  0
  -18.9466  -30.1475   23.8915 C   0  0  0  0  0  0
  -17.6471  -30.6621   24.0571 C   0  0  0  0  0  0
  -25.9052  -34.9446   23.5063 C   0  0  0  0  0  0
  -16.5358  -29.9121   23.6353 C   0  0  0  0  0  0
  -16.7262  -28.6520   23.0403 C   0  0  0  0  0  0
  -26.4496  -31.6615   25.0721 C   0  0  0  0  0  0
  -25.3676  -31.3771   26.1425 C   0  0  0  0  0  0
  -27.0316  -30.3015   24.6218 C   0  0  0  0  0  0
  -27.6041  -32.4324   25.7524 C   0  0  0  0  0  0
  -27.5561  -37.1812   24.8477 C   0  0  0  0  0  0
  -21.4249  -29.3036   22.3656 N   0  0  0  0  0  0
  -26.4292  -37.3787   23.9391 N   0  0  0  0  0  0
  -24.7116  -31.0365   22.0957 N   0  0  0  0  0  0
  -23.4206  -28.8092   23.3003 O   0  0  0  0  0  0
  -28.1836  -26.1189   20.2658 O   0  0  0  0  0  0
  -26.5663  -34.8932   22.4655 O   0  0  0  0  0  0
  -23.5502  -32.1370   23.7191 O   0  0  0  0  0  0
  -32.0816  -19.1608   21.1759 C   0  0  0  0  0  0
  -31.2190  -20.2659   21.0423 C   0  0  0  0  0  0
  -31.6381  -17.8340   21.0417 C   0  0  0  0  0  0
  -29.4046  -18.7391   20.7441 C   0  0  0  0  0  0
  -29.8294  -20.1660   20.7864 C   0  0  0  0  0  0
  -30.2746  -17.5341   20.8233 C   0  0  0  0  0  0
  -28.4503  -23.5207   20.7279 C   0  0  0  0  0  0
  -28.1098  -22.2190   21.3597 C   0  0  0  0  0  0
  -27.8203  -24.8041   20.8137 C   0  0  0  0  0  0
  -29.6906  -22.7736   20.1275 C   0  0  0  0  0  0
  -26.5348  -24.9279   21.6571 C   0  0  0  0  0  0
  -29.0785  -21.4846   20.6218 N   0  0  0  0  0  0
  -29.8692  -16.0640   20.7399 N   0  0  0  0  0  0
  -27.3869  -21.9518   22.2977 O   0  0  0  0  0  0
  -31.4712  -12.6861   19.1998 H   0  0  0  0  0  0
  -30.4055  -11.5879   20.0262 H   0  0  0  0  0  0
  -29.8327  -11.7513   17.5658 H   0  0  0  0  0  0
  -29.6130  -13.4769   17.7263 H   0  0  0  0  0  0
  -27.9418  -11.2713   18.9808 H   0  0  0  0  0  0
  -27.3886  -12.4591   17.8204 H   0  0  0  0  0  0
  -27.6082  -14.2527   19.4295 H   0  0  0  0  0  0
  -28.7427  -12.2752   21.4704 H   0  0  0  0  0  0
  -28.3783  -13.9549   21.7723 H   0  0  0  0  0  0
  -25.2781   -9.5686   22.4758 H   0  0  0  0  0  0
  -24.0008   -7.4644   22.7470 H   0  0  0  0  0  0
  -21.0856   -8.8791   19.8959 H   0  0  0  0  0  0
  -22.3723  -10.9681   19.6159 H   0  0  0  0  0  0
  -21.2011   -7.6149   23.9722 H   0  0  0  0  0  0
  -21.1472   -6.0525   25.9081 H   0  0  0  0  0  0
  -22.0601   -2.7611   23.2865 H   0  0  0  0  0  0
  -22.4083  -11.9850   22.4818 H   0  0  0  0  0  0
  -21.1075  -13.1190   22.2620 H   0  0  0  0  0  0
  -24.6478  -15.8462   20.5492 H   0  0  0  0  0  0
  -26.2425  -15.6403   20.0428 H   0  0  0  0  0  0
  -26.7205  -32.5345   23.1012 H   0  0  0  0  0  0
  -24.9980  -33.9652   25.0288 H   0  0  0  0  0  0
  -22.7395  -31.2968   21.3957 H   0  0  0  0  0  0
  -23.3718  -35.9622   23.3357 H   0  0  0  0  0  0
  -24.3514  -36.8858   22.2048 H   0  0  0  0  0  0
  -23.7206  -37.6486   23.6630 H   0  0  0  0  0  0
  -26.1342  -31.4829   20.6086 H   0  0  0  0  0  0
  -26.8730  -30.7948   22.0150 H   0  0  0  0  0  0
  -28.0965  -28.7970   21.2960 H   0  0  0  0  0  0
  -25.9755  -25.9231   18.8871 H   0  0  0  0  0  0
  -23.9882  -27.3479   18.9186 H   0  0  0  0  0  0
  -23.7861  -30.5781   19.4059 H   0  0  0  0  0  0
  -22.7750  -29.2385   19.8482 H   0  0  0  0  0  0
  -25.1286  -36.1959   25.0815 H   0  0  0  0  0  0
  -20.9992  -28.3311   24.1394 H   0  0  0  0  0  0
  -20.5621  -26.2331   23.3658 H   0  0  0  0  0  0
  -21.6602  -26.7402   22.1250 H   0  0  0  0  0  0
  -19.6868  -25.6299   21.1259 H   0  0  0  0  0  0
  -19.6664  -27.3203   20.6762 H   0  0  0  0  0  0
  -17.4168  -26.6724   21.4052 H   0  0  0  0  0  0
  -18.0302  -26.0099   22.9040 H   0  0  0  0  0  0
  -19.7938  -30.7271   24.2323 H   0  0  0  0  0  0
  -17.5023  -31.6308   24.5146 H   0  0  0  0  0  0
  -15.5365  -30.3030   23.7664 H   0  0  0  0  0  0
  -15.8648  -28.0800   22.7195 H   0  0  0  0  0  0
  -24.5902  -30.7065   25.7765 H   0  0  0  0  0  0
  -24.8828  -32.2947   26.4757 H   0  0  0  0  0  0
  -25.8013  -30.9043   27.0245 H   0  0  0  0  0  0
  -26.2925  -29.6830   24.1128 H   0  0  0  0  0  0
  -27.3847  -29.7241   25.4767 H   0  0  0  0  0  0
  -27.8862  -30.4280   23.9569 H   0  0  0  0  0  0
  -27.2655  -33.3629   26.2080 H   0  0  0  0  0  0
  -28.3905  -32.6855   25.0400 H   0  0  0  0  0  0
  -28.0624  -31.8431   26.5475 H   0  0  0  0  0  0
  -28.2646  -38.0038   24.7489 H   0  0  0  0  0  0
  -28.0995  -36.2590   24.6379 H   0  0  0  0  0  0
  -27.2273  -37.1557   25.8876 H   0  0  0  0  0  0
  -20.9444  -29.8776   21.6852 H   0  0  0  0  0  0
  -26.0171  -38.2864   24.1391 H   0  0  0  0  0  0
  -33.1238  -19.3495   21.3864 H   0  0  0  0  0  0
  -31.6845  -21.2339   21.1652 H   0  0  0  0  0  0
  -32.3817  -17.0562   21.1384 H   0  0  0  0  0  0
  -28.3446  -18.5570   20.6375 H   0  0  0  0  0  0
  -30.6465  -22.9780   20.6083 H   0  0  0  0  0  0
  -29.8335  -22.7605   19.0448 H   0  0  0  0  0  0
  -25.6238  -24.8306   21.0588 H   0  0  0  0  0  0
  -26.4450  -24.2039   22.4599 H   0  0  0  0  0  0
  -26.5078  -25.8872   22.1695 H   0  0  0  0  0  0
  -28.8832  -15.8929   20.8667 H   0  0  0  0  0  0
  1 25  1  0  0  0
  1 30  2  0  0  0
  1 83  1  0  0  0
  2  3  1  0  0  0
  2 25  1  0  0  0
  2 85  1  0  0  0
  2 86  1  0  0  0
  3  4  1  0  0  0
  3 87  1  0  0  0
  3 88  1  0  0  0
  4  5  1  0  0  0
  4 89  1  0  0  0
  4 90  1  0  0  0
  5  6  1  0  0  0
  5 26  1  0  0  0
  5 91  1  0  0  0
  6 25  1  0  0  0
  6 92  1  0  0  0
  6 93  1  0  0  0
  7  8  2  0  0  0
  7 26  1  0  0  0
  7 29  1  0  0  0
  8  9  1  0  0  0
  8 22  1  0  0  0
  9 10  1  0  0  0
  9 27  2  0  0  0
 10 11  2  0  0  0
 10 15  1  0  0  0
 11 12  1  0  0  0
 11 94  1  0  0  0
 12 13  2  0  0  0
 12 95  1  0  0  0
 13 14  1  0  0  0
 13 31  1  0  0  0
 14 15  2  0  0  0
 14 96  1  0  0  0
 15 97  1  0  0  0
 16 17  2  0  0  0
 16 21  1  0  0  0
 16 31  1  0  0  0
 17 18  1  0  0  0
 17 98  1  0  0  0
 18 19  2  0  0  0
 18 99  1  0  0  0
 19 20  1  0  0  0
 19 24  1  0  0  0
 20 21  2  0  0  0
 20100  1  0  0  0
 21 23  1  0  0  0
 22 28  1  0  0  0
 22 32  2  0  0  0
 26 27  1  0  0  0
 28101  1  0  0  0
 28102  1  0  0  0
 29103  1  0  0  0
 29104  1  0  0  0
 33 34  1  0  0  0
 33 66  1  0  0  0
 33 70  2  0  0  0
 34 36  1  0  0  0
 34 59  1  0  0  0
 34105  1  0  0  0
 35 44  2  0  0  0
 35 45  1  0  0  0
 35 68  1  0  0  0
 36 56  1  0  0  0
 36106  1  0  0  0
 37 39  1  0  0  0
 37 47  1  0  0  0
 37 66  1  0  0  0
 37107  1  0  0  0
 38 43  2  0  0  0
 38 46  1  0  0  0
 38 47  1  0  0  0
 39 64  1  0  0  0
 39 67  2  0  0  0
 40 52  1  0  0  0
 40 53  2  0  0  0
 40 58  1  0  0  0
 41108  1  0  0  0
 41109  1  0  0  0
 41110  1  0  0  0
 41 48  1  0  0  0
 42 43  1  0  0  0
 42 66  1  0  0  0
 42111  1  0  0  0
 42112  1  0  0  0
 43 44  1  0  0  0
 44113  1  0  0  0
 45 46  2  0  0  0
 45114  1  0  0  0
 46115  1  0  0  0
 47116  1  0  0  0
 47117  1  0  0  0
 48 56  1  0  0  0
 48 65  1  0  0  0
 48118  1  0  0  0
 49 50  1  0  0  0
 49 53  1  0  0  0
 49 64  1  0  0  0
 49119  1  0  0  0
 50 51  1  0  0  0
 50120  1  0  0  0
 50121  1  0  0  0
 51 52  1  0  0  0
 51122  1  0  0  0
 51123  1  0  0  0
 52124  1  0  0  0
 52125  1  0  0  0
 53 54  1  0  0  0
 54 55  2  0  0  0
 54126  1  0  0  0
 55 57  1  0  0  0
 55127  1  0  0  0
 56 69  2  0  0  0
 57 58  2  0  0  0
 57128  1  0  0  0
 58129  1  0  0  0
 59 60  1  0  0  0
 59 61  1  0  0  0
 59 62  1  0  0  0
 60130  1  0  0  0
 60131  1  0  0  0
 60132  1  0  0  0
 61133  1  0  0  0
 61134  1  0  0  0
 61135  1  0  0  0
 62136  1  0  0  0
 62137  1  0  0  0
 62138  1  0  0  0
 63 65  1  0  0  0
 63139  1  0  0  0
 63140  1  0  0  0
 63141  1  0  0  0
 64142  1  0  0  0
 65143  1  0  0  0
 68 79  1  0  0  0
 71 72  2  0  0  0
 71 73  1  0  0  0
 71144  1  0  0  0
 72 75  1  0  0  0
 72145  1  0  0  0
 73 76  2  0  0  0
 73146  1  0  0  0
 74 75  2  0  0  0
 74 76  1  0  0  0
 74147  1  0  0  0
 75 82  1  0  0  0
 76 83  1  0  0  0
 77 78  1  0  0  0
 77 79  2  0  0  0
 77 80  1  0  0  0
 78 82  1  0  0  0
 78 84  2  0  0  0
 79 81  1  0  0  0
 80 82  1  0  0  0
 80148  1  0  0  0
 80149  1  0  0  0
 81150  1  0  0  0
 81151  1  0  0  0
 81152  1  0  0  0
 83153  1  0  0  0
M  ISO  4   1 100  68 101  79 101  83 100
M  END
> <chiral flag>
0

> <version>
0

> <s_m_source_file>
/data/baiqing/PycharmProjects/Reinvent-master-3.2/result/LINK_invent/BTK/process_docking_weight1_custom_product_contain_oxygen_bond_distance_aromatic_linkinvent_7_9_3/rearranged_h_0081.sdf

> <i_m_source_file_index>
71

> <r_mmod_Potential_Energy-OPLS-2005>
509.072601318359

> <r_mmod_Stretch_Energy-OPLS-2005>
208.787734985352

> <r_mmod_Bend_Energy-OPLS-2005>
272.796051025391

> <r_mmod_Torsional_Energy-OPLS-2005>
245.057708740234

> <r_mmod_Improper_Torsional_Energy-OPLS-2005>
9.55427742004395

> <r_mmod_Van_der_Waal_Energy-OPLS-2005>
153.146453857422

> <r_mmod_Electrostatic_Energy-OPLS-2005>
-330.548217773438

> <r_mmod_Solvation_Energy-OPLS-2005>
-215.778274536133

> <b_mmod_Minimization_Converged-OPLS-2005>
0

> <r_mmod_RMS_Derivative-OPLS-2005>
7.46348905563354

$$$$
71
                    3D
 Structure written by MMmdl.
153162  0  0  1  0            999 V2000
  -30.6188  -14.6563   20.5006 C   0  0  0  0  0  0
  -30.4431  -12.4027   19.4547 C   0  0  0  0  0  0
  -29.5112  -12.5124   18.2267 C   0  0  0  0  0  0
  -28.0340  -12.3469   18.6375 C   0  0  0  0  0  0
  -27.6550  -13.2170   19.8650 C   0  0  2  0  0  0
  -28.7013  -13.0745   20.9943 C   0  0  0  0  0  0
  -25.2570  -13.8170   20.5692 C   0  0  0  0  0  0
  -24.1835  -13.0436   20.9198 C   0  0  0  0  0  0
  -24.6406  -11.6905   20.8739 C   0  0  0  0  0  0
  -23.9073  -10.4290   21.0401 C   0  0  0  0  0  0
  -24.3622   -9.4207   21.9181 C   0  0  0  0  0  0
  -23.6296   -8.2243   22.0753 C   0  0  0  0  0  0
  -22.4277   -8.0281   21.3546 C   0  0  0  0  0  0
  -21.9914   -9.0255   20.4648 C   0  0  0  0  0  0
  -22.7242  -10.2136   20.3055 C   0  0  0  0  0  0
  -21.6855   -6.0740   22.5280 C   0  0  0  0  0  0
  -21.4011   -6.5640   23.8213 C   0  0  0  0  0  0
  -21.3662   -5.6794   24.9174 C   0  0  0  0  0  0
  -21.6046   -4.3058   24.7224 C   0  0  0  0  0  0
  -21.8816   -3.8151   23.4345 C   0  0  0  0  0  0
  -21.9193   -4.6968   22.3403 C   0  0  0  0  0  0
  -22.7857  -13.5233   21.1858 C   0  0  0  0  0  0
  -22.1658   -4.2158   21.0981 F   0  0  0  0  0  0
  -21.5636   -3.4541   25.7738 F   0  0  0  0  0  0
  -30.0163  -13.4245   20.4321 N   0  0  0  0  0  0
  -26.3002  -12.9349   20.3327 N   0  0  0  0  0  0
  -25.9337  -11.6504   20.5756 N   0  0  0  0  0  0
  -22.0495  -12.8224   22.0411 N   0  0  0  0  0  0
  -25.4283  -15.1894   20.4103 N   0  0  0  0  0  0
  -31.7787  -14.8222   20.1116 O   0  0  0  0  0  0
  -21.6637   -6.8883   21.4243 O   0  0  0  0  0  0
  -22.3545  -14.5541   20.6707 O   0  0  0  0  0  0
  -24.6286  -31.8601   23.2039 C   0  0  0  0  0  0
  -25.9130  -32.4780   23.8367 C   0  0  1  0  0  0
  -27.2207  -27.3018   20.1091 C   0  0  0  0  0  0
  -25.5948  -33.8584   24.2291 N   0  0  0  0  0  0
  -23.4224  -30.4866   21.5483 C   0  0  2  0  0  0
  -24.8679  -28.9468   20.1099 C   0  0  0  0  0  0
  -22.7484  -29.4634   22.4940 C   0  0  0  0  0  0
  -18.0287  -28.1385   22.8490 C   0  0  0  0  0  0
  -24.1491  -36.7287   23.2628 C   0  0  0  0  0  0
  -25.9678  -30.7835   21.3807 C   0  0  0  0  0  0
  -26.0407  -29.4119   20.7188 C   0  0  0  0  0  0
  -27.2192  -28.6014   20.7117 C   0  0  0  0  0  0
  -26.0211  -26.9101   19.4621 C   0  0  0  0  0  0
  -24.8615  -27.7012   19.4732 C   0  0  0  0  0  0
  -23.6373  -29.8279   20.1622 C   0  0  0  0  0  0
  -25.4113  -36.3084   24.0327 C   0  0  1  0  0  0
  -20.5891  -28.3697   23.1273 C   0  0  2  0  0  0
  -20.6784  -26.9421   22.5402 C   0  0  0  0  0  0
  -19.5752  -26.6386   21.5216 C   0  0  0  0  0  0
  -18.1933  -26.7928   22.1632 C   0  0  0  0  0  0
  -19.1540  -28.8859   23.2877 C   0  0  0  0  0  0
  -18.9461  -30.1461   23.8893 C   0  0  0  0  0  0
  -17.6459  -30.6591   24.0563 C   0  0  0  0  0  0
  -25.9061  -34.9455   23.5110 C   0  0  0  0  0  0
  -16.5351  -29.9086   23.6333 C   0  0  0  0  0  0
  -16.7272  -28.6501   23.0361 C   0  0  0  0  0  0
  -26.4504  -31.6586   25.0738 C   0  0  0  0  0  0
  -25.3738  -31.3732   26.1467 C   0  0  0  0  0  0
  -27.0325  -30.2996   24.6206 C   0  0  0  0  0  0
  -27.6078  -32.4306   25.7499 C   0  0  0  0  0  0
  -27.5597  -37.1775   24.8443 C   0  0  0  0  0  0
  -21.4197  -29.3049   22.3669 N   0  0  0  0  0  0
  -26.4279  -37.3791   23.9433 N   0  0  0  0  0  0
  -24.6920  -31.0599   22.1005 N   0  0  0  0  0  0
  -23.4197  -28.8164   23.3020 O   0  0  0  0  0  0
  -28.3141  -26.4082   20.1768 O   0  0  0  0  0  0
  -26.5628  -34.8921   22.4675 O   0  0  0  0  0  0
  -23.5445  -32.1414   23.7353 O   0  0  0  0  0  0
  -28.6842  -19.3472   21.0107 C   0  0  0  0  0  0
  -28.7306  -17.9242   21.1097 C   0  0  0  0  0  0
  -30.9694  -17.9173   20.2461 C   0  0  0  0  0  0
  -28.6368  -22.4244   20.2069 C   0  0  0  0  0  0
  -30.7863  -22.4521   20.7112 C   0  0  0  0  0  0
  -28.9788  -23.7760   20.2428 C   0  0  0  0  0  0
  -29.7819  -20.1096   20.5351 C   0  0  0  0  0  0
  -29.8687  -17.1592   20.7341 C   0  0  0  0  0  0
  -30.3694  -23.7584   20.5739 C   0  0  0  0  0  0
  -30.9297  -19.3471   20.1504 C   0  0  0  0  0  0
  -28.0054  -24.9722   19.9240 C   0  0  0  0  0  0
  -29.7299  -21.5791   20.4800 N   0  0  0  0  0  0
  -29.8031  -15.6960   20.8730 N   0  0  0  0  0  0
  -31.1643  -24.8554   20.7227 O   0  0  0  0  0  0
  -32.0277  -19.9819   19.6706 F   0  0  0  0  0  0
  -31.4843  -12.5318   19.1531 H   0  0  0  0  0  0
  -30.3820  -11.4073   19.8972 H   0  0  0  0  0  0
  -29.7789  -11.7625   17.4815 H   0  0  0  0  0  0
  -29.6511  -13.4822   17.7462 H   0  0  0  0  0  0
  -27.8722  -11.2931   18.8675 H   0  0  0  0  0  0
  -27.3800  -12.5773   17.7954 H   0  0  0  0  0  0
  -27.6713  -14.2520   19.5233 H   0  0  0  0  0  0
  -28.7165  -12.0517   21.3737 H   0  0  0  0  0  0
  -28.4440  -13.7032   21.8483 H   0  0  0  0  0  0
  -25.2769   -9.5685   22.4754 H   0  0  0  0  0  0
  -24.0012   -7.4633   22.7466 H   0  0  0  0  0  0
  -21.0849   -8.8768   19.8952 H   0  0  0  0  0  0
  -22.3697  -10.9673   19.6165 H   0  0  0  0  0  0
  -21.1993   -7.6145   23.9725 H   0  0  0  0  0  0
  -21.1491   -6.0519   25.9081 H   0  0  0  0  0  0
  -22.0595   -2.7615   23.2842 H   0  0  0  0  0  0
  -22.4105  -11.9886   22.4805 H   0  0  0  0  0  0
  -21.1114  -13.1255   22.2614 H   0  0  0  0  0  0
  -24.6577  -15.8407   20.5130 H   0  0  0  0  0  0
  -26.2685  -15.6262   20.0539 H   0  0  0  0  0  0
  -26.7194  -32.5437   23.1108 H   0  0  0  0  0  0
  -25.0099  -33.9737   25.0437 H   0  0  0  0  0  0
  -22.7171  -31.3083   21.4074 H   0  0  0  0  0  0
  -23.3784  -35.9582   23.3220 H   0  0  0  0  0  0
  -24.3604  -36.8985   22.2058 H   0  0  0  0  0  0
  -23.7195  -37.6446   23.6695 H   0  0  0  0  0  0
  -26.1065  -31.5479   20.6149 H   0  0  0  0  0  0
  -26.8453  -30.8272   22.0137 H   0  0  0  0  0  0
  -28.1138  -28.9522   21.2067 H   0  0  0  0  0  0
  -25.9301  -25.9680   18.9447 H   0  0  0  0  0  0
  -23.9655  -27.3411   18.9862 H   0  0  0  0  0  0
  -23.7575  -30.6074   19.4091 H   0  0  0  0  0  0
  -22.7561  -29.2604   19.8569 H   0  0  0  0  0  0
  -25.1283  -36.1923   25.0815 H   0  0  0  0  0  0
  -20.9982  -28.3273   24.1395 H   0  0  0  0  0  0
  -20.5700  -26.2308   23.3605 H   0  0  0  0  0  0
  -21.6650  -26.7462   22.1181 H   0  0  0  0  0  0
  -19.6915  -25.6296   21.1247 H   0  0  0  0  0  0
  -19.6680  -27.3198   20.6747 H   0  0  0  0  0  0
  -17.4198  -26.6668   21.4039 H   0  0  0  0  0  0
  -18.0339  -26.0071   22.9030 H   0  0  0  0  0  0
  -19.7934  -30.7283   24.2257 H   0  0  0  0  0  0
  -17.5010  -31.6272   24.5162 H   0  0  0  0  0  0
  -15.5351  -30.2988   23.7657 H   0  0  0  0  0  0
  -15.8672  -28.0816   22.7086 H   0  0  0  0  0  0
  -24.5881  -30.7127   25.7782 H   0  0  0  0  0  0
  -24.8974  -32.2906   26.4935 H   0  0  0  0  0  0
  -25.8053  -30.8854   27.0216 H   0  0  0  0  0  0
  -26.2890  -29.6757   24.1230 H   0  0  0  0  0  0
  -27.3996  -29.7249   25.4720 H   0  0  0  0  0  0
  -27.8785  -30.4255   23.9445 H   0  0  0  0  0  0
  -27.2711  -33.3613   26.2075 H   0  0  0  0  0  0
  -28.3889  -32.6848   25.0322 H   0  0  0  0  0  0
  -28.0740  -31.8424   26.5412 H   0  0  0  0  0  0
  -28.2530  -38.0158   24.7633 H   0  0  0  0  0  0
  -28.1184  -36.2701   24.6089 H   0  0  0  0  0  0
  -27.2338  -37.1202   25.8845 H   0  0  0  0  0  0
  -20.9376  -29.8776   21.6883 H   0  0  0  0  0  0
  -26.0153  -38.2841   24.1530 H   0  0  0  0  0  0
  -27.7864  -19.8589   21.3248 H   0  0  0  0  0  0
  -27.8553  -17.4170   21.4908 H   0  0  0  0  0  0
  -31.8715  -17.4124   19.9356 H   0  0  0  0  0  0
  -27.6774  -21.9768   19.9854 H   0  0  0  0  0  0
  -31.7626  -22.0562   20.9564 H   0  0  0  0  0  0
  -27.0891  -24.7209   20.4611 H   0  0  0  0  0  0
  -27.7895  -24.8681   18.8600 H   0  0  0  0  0  0
  -28.9148  -15.3574   21.2088 H   0  0  0  0  0  0
  -32.0652  -24.6389   20.9458 H   0  0  0  0  0  0
  1 25  1  0  0  0
  1 30  2  0  0  0
  1 83  1  0  0  0
  2  3  1  0  0  0
  2 25  1  0  0  0
  2 86  1  0  0  0
  2 87  1  0  0  0
  3  4  1  0  0  0
  3 88  1  0  0  0
  3 89  1  0  0  0
  4  5  1  0  0  0
  4 90  1  0  0  0
  4 91  1  0  0  0
  5  6  1  0  0  0
  5 26  1  0  0  0
  5 92  1  0  0  0
  6 25  1  0  0  0
  6 93  1  0  0  0
  6 94  1  0  0  0
  7  8  2  0  0  0
  7 26  1  0  0  0
  7 29  1  0  0  0
  8  9  1  0  0  0
  8 22  1  0  0  0
  9 10  1  0  0  0
  9 27  2  0  0  0
 10 11  2  0  0  0
 10 15  1  0  0  0
 11 12  1  0  0  0
 11 95  1  0  0  0
 12 13  2  0  0  0
 12 96  1  0  0  0
 13 14  1  0  0  0
 13 31  1  0  0  0
 14 15  2  0  0  0
 14 97  1  0  0  0
 15 98  1  0  0  0
 16 17  2  0  0  0
 16 21  1  0  0  0
 16 31  1  0  0  0
 17 18  1  0  0  0
 17 99  1  0  0  0
 18 19  2  0  0  0
 18100  1  0  0  0
 19 20  1  0  0  0
 19 24  1  0  0  0
 20 21  2  0  0  0
 20101  1  0  0  0
 21 23  1  0  0  0
 22 28  1  0  0  0
 22 32  2  0  0  0
 26 27  1  0  0  0
 28102  1  0  0  0
 28103  1  0  0  0
 29104  1  0  0  0
 29105  1  0  0  0
 33 34  1  0  0  0
 33 66  1  0  0  0
 33 70  2  0  0  0
 34 36  1  0  0  0
 34 59  1  0  0  0
 34106  1  0  0  0
 35 44  2  0  0  0
 35 45  1  0  0  0
 35 68  1  0  0  0
 36 56  1  0  0  0
 36107  1  0  0  0
 37 39  1  0  0  0
 37 47  1  0  0  0
 37 66  1  0  0  0
 37108  1  0  0  0
 38 43  2  0  0  0
 38 46  1  0  0  0
 38 47  1  0  0  0
 39 64  1  0  0  0
 39 67  2  0  0  0
 40 52  1  0  0  0
 40 53  2  0  0  0
 40 58  1  0  0  0
 41109  1  0  0  0
 41110  1  0  0  0
 41111  1  0  0  0
 41 48  1  0  0  0
 42 43  1  0  0  0
 42 66  1  0  0  0
 42112  1  0  0  0
 42113  1  0  0  0
 43 44  1  0  0  0
 44114  1  0  0  0
 45 46  2  0  0  0
 45115  1  0  0  0
 46116  1  0  0  0
 47117  1  0  0  0
 47118  1  0  0  0
 48 56  1  0  0  0
 48 65  1  0  0  0
 48119  1  0  0  0
 49 50  1  0  0  0
 49 53  1  0  0  0
 49 64  1  0  0  0
 49120  1  0  0  0
 50 51  1  0  0  0
 50121  1  0  0  0
 50122  1  0  0  0
 51 52  1  0  0  0
 51123  1  0  0  0
 51124  1  0  0  0
 52125  1  0  0  0
 52126  1  0  0  0
 53 54  1  0  0  0
 54 55  2  0  0  0
 54127  1  0  0  0
 55 57  1  0  0  0
 55128  1  0  0  0
 56 69  2  0  0  0
 57 58  2  0  0  0
 57129  1  0  0  0
 58130  1  0  0  0
 59 60  1  0  0  0
 59 61  1  0  0  0
 59 62  1  0  0  0
 60131  1  0  0  0
 60132  1  0  0  0
 60133  1  0  0  0
 61134  1  0  0  0
 61135  1  0  0  0
 61136  1  0  0  0
 62137  1  0  0  0
 62138  1  0  0  0
 62139  1  0  0  0
 63 65  1  0  0  0
 63140  1  0  0  0
 63141  1  0  0  0
 63142  1  0  0  0
 64143  1  0  0  0
 65144  1  0  0  0
 68 81  1  0  0  0
 71 72  2  0  0  0
 71 77  1  0  0  0
 71145  1  0  0  0
 72 78  1  0  0  0
 72146  1  0  0  0
 73 78  2  0  0  0
 73 80  1  0  0  0
 73147  1  0  0  0
 74 76  2  0  0  0
 74 82  1  0  0  0
 74148  1  0  0  0
 75 79  2  0  0  0
 75 82  1  0  0  0
 75149  1  0  0  0
 76 79  1  0  0  0
 76 81  1  0  0  0
 77 80  2  0  0  0
 77 82  1  0  0  0
 78 83  1  0  0  0
 79 84  1  0  0  0
 80 85  1  0  0  0
 81150  1  0  0  0
 81151  1  0  0  0
 83152  1  0  0  0
 84153  1  0  0  0
M  ISO  4   1 100  68 101  81 101  83 100
M  END
> <chiral flag>
0

> <version>
0

> <s_m_source_file>
/data/baiqing/PycharmProjects/Reinvent-master-3.2/result/LINK_invent/BTK/process_docking_weight1_custom_product_contain_oxygen_bond_distance_aromatic_linkinvent_7_9_3/rearranged_h_0081.sdf

> <i_m_source_file_index>
72

> <r_mmod_Potential_Energy-OPLS-2005>
84.5729141235352

> <r_mmod_Stretch_Energy-OPLS-2005>
84.7806625366211

> <r_mmod_Bend_Energy-OPLS-2005>
147.357788085938

> <r_mmod_Torsional_Energy-OPLS-2005>
218.211471557617

> <r_mmod_Improper_Torsional_Energy-OPLS-2005>
4.02821159362793

> <r_mmod_Van_der_Waal_Energy-OPLS-2005>
144.349411010742

> <r_mmod_Electrostatic_Energy-OPLS-2005>
-327.121154785156

> <r_mmod_Solvation_Energy-OPLS-2005>
-244.656204223633

> <b_mmod_Minimization_Converged-OPLS-2005>
0

> <r_mmod_RMS_Derivative-OPLS-2005>
0.775729835033417

$$$$
72
                    3D
 Structure written by MMmdl.
157166  0  0  1  0            999 V2000
  -30.6548  -14.5951   20.5202 C   0  0  0  0  0  0
  -30.4294  -12.3736   19.4395 C   0  0  0  0  0  0
  -29.4993  -12.5012   18.2144 C   0  0  0  0  0  0
  -28.0237  -12.3420   18.6312 C   0  0  0  0  0  0
  -27.6510  -13.2146   19.8596 C   0  0  2  0  0  0
  -28.6962  -13.0665   20.9872 C   0  0  0  0  0  0
  -25.2555  -13.8171   20.5672 C   0  0  0  0  0  0
  -24.1825  -13.0438   20.9189 C   0  0  0  0  0  0
  -24.6390  -11.6909   20.8744 C   0  0  0  0  0  0
  -23.9061  -10.4294   21.0413 C   0  0  0  0  0  0
  -24.3616   -9.4208   21.9188 C   0  0  0  0  0  0
  -23.6292   -8.2242   22.0756 C   0  0  0  0  0  0
  -22.4275   -8.0281   21.3544 C   0  0  0  0  0  0
  -21.9910   -9.0253   20.4646 C   0  0  0  0  0  0
  -22.7238  -10.2133   20.3058 C   0  0  0  0  0  0
  -21.6852   -6.0740   22.5281 C   0  0  0  0  0  0
  -21.4012   -6.5642   23.8213 C   0  0  0  0  0  0
  -21.3658   -5.6795   24.9176 C   0  0  0  0  0  0
  -21.6045   -4.3058   24.7225 C   0  0  0  0  0  0
  -21.8821   -3.8151   23.4342 C   0  0  0  0  0  0
  -21.9193   -4.6969   22.3402 C   0  0  0  0  0  0
  -22.7850  -13.5233   21.1851 C   0  0  0  0  0  0
  -22.1665   -4.2157   21.0980 F   0  0  0  0  0  0
  -21.5626   -3.4540   25.7735 F   0  0  0  0  0  0
  -30.0107  -13.3944   20.4171 N   0  0  0  0  0  0
  -26.2977  -12.9345   20.3305 N   0  0  0  0  0  0
  -25.9316  -11.6505   20.5760 N   0  0  0  0  0  0
  -22.0490  -12.8225   22.0405 N   0  0  0  0  0  0
  -25.4261  -15.1889   20.4078 N   0  0  0  0  0  0
  -31.8224  -14.7369   20.1489 O   0  0  0  0  0  0
  -21.6639   -6.8879   21.4240 O   0  0  0  0  0  0
  -22.3543  -14.5545   20.6706 O   0  0  0  0  0  0
  -24.6222  -31.8615   23.2052 C   0  0  0  0  0  0
  -25.9088  -32.4787   23.8368 C   0  0  1  0  0  0
  -27.2289  -27.3660   20.1110 C   0  0  0  0  0  0
  -25.5924  -33.8586   24.2300 N   0  0  0  0  0  0
  -23.4145  -30.4844   21.5459 C   0  0  2  0  0  0
  -24.8642  -28.9414   20.1143 C   0  0  0  0  0  0
  -22.7451  -29.4631   22.4953 C   0  0  0  0  0  0
  -18.0281  -28.1388   22.8486 C   0  0  0  0  0  0
  -24.1486  -36.7291   23.2639 C   0  0  0  0  0  0
  -25.9510  -30.8067   21.3693 C   0  0  0  0  0  0
  -26.0290  -29.4345   20.7191 C   0  0  0  0  0  0
  -27.2190  -28.6545   20.7158 C   0  0  0  0  0  0
  -26.0496  -26.9075   19.4941 C   0  0  0  0  0  0
  -24.8720  -27.6790   19.4971 C   0  0  0  0  0  0
  -23.6283  -29.8153   20.1618 C   0  0  0  0  0  0
  -25.4110  -36.3088   24.0337 C   0  0  1  0  0  0
  -20.5878  -28.3682   23.1293 C   0  0  2  0  0  0
  -20.6770  -26.9410   22.5405 C   0  0  0  0  0  0
  -19.5751  -26.6388   21.5200 C   0  0  0  0  0  0
  -18.1929  -26.7935   22.1613 C   0  0  0  0  0  0
  -19.1532  -28.8849   23.2888 C   0  0  0  0  0  0
  -18.9456  -30.1451   23.8901 C   0  0  0  0  0  0
  -17.6460  -30.6588   24.0559 C   0  0  0  0  0  0
  -25.9040  -34.9456   23.5114 C   0  0  0  0  0  0
  -16.5347  -29.9086   23.6335 C   0  0  0  0  0  0
  -16.7268  -28.6505   23.0356 C   0  0  0  0  0  0
  -26.4496  -31.6586   25.0713 C   0  0  0  0  0  0
  -25.3753  -31.3700   26.1452 C   0  0  0  0  0  0
  -27.0329  -30.3021   24.6120 C   0  0  0  0  0  0
  -27.6069  -32.4305   25.7481 C   0  0  0  0  0  0
  -27.5578  -37.1807   24.8470 C   0  0  0  0  0  0
  -21.4169  -29.3037   22.3689 N   0  0  0  0  0  0
  -26.4291  -37.3779   23.9414 N   0  0  0  0  0  0
  -24.6812  -31.0665   22.0978 N   0  0  0  0  0  0
  -23.4184  -28.8172   23.3024 O   0  0  0  0  0  0
  -28.3229  -26.5108   20.0909 O   0  0  0  0  0  0
  -26.5588  -34.8918   22.4669 O   0  0  0  0  0  0
  -23.5398  -32.1388   23.7410 O   0  0  0  0  0  0
  -28.3935  -19.1719   18.5666 C   0  0  0  0  0  0
  -28.9843  -18.0784   19.2297 C   0  0  0  0  0  0
  -28.4452  -20.4718   19.1135 C   0  0  0  0  0  0
  -29.6471  -18.2676   20.4578 C   0  0  0  0  0  0
  -29.0945  -20.7356   20.3461 C   0  0  0  0  0  0
  -29.6987  -19.5979   20.9996 C   0  0  0  0  0  0
  -28.7571  -24.3762   21.3436 C   0  0  0  0  0  0
  -28.9759  -23.7142   22.6029 C   0  0  0  0  0  0
  -28.8469  -23.3170   20.3160 C   0  0  0  0  0  0
  -28.9180  -24.2749   23.8249 C   0  0  0  0  0  0
  -28.5121  -25.7238   21.2173 C   0  0  0  0  0  0
  -29.2699  -22.2654   22.3696 C   0  0  0  0  0  0
  -30.3506  -17.0680   21.1664 C   0  0  0  0  0  0
  -29.0802  -22.0927   20.9265 N   0  0  0  0  0  0
  -29.8995  -15.6649   20.8960 N   0  0  0  0  0  0
  -28.7478  -23.4968   19.0974 O   0  0  0  0  0  0
  -30.3581  -19.7603   22.1711 F   0  0  0  0  0  0
  -31.4715  -12.4896   19.1365 H   0  0  0  0  0  0
  -30.3550  -11.3778   19.8790 H   0  0  0  0  0  0
  -29.7586  -11.7531   17.4638 H   0  0  0  0  0  0
  -29.6441  -13.4737   17.7403 H   0  0  0  0  0  0
  -27.8607  -11.2889   18.8650 H   0  0  0  0  0  0
  -27.3664  -12.5705   17.7917 H   0  0  0  0  0  0
  -27.6717  -14.2501   19.5196 H   0  0  0  0  0  0
  -28.7025  -12.0463   21.3745 H   0  0  0  0  0  0
  -28.4496  -13.7066   21.8359 H   0  0  0  0  0  0
  -25.2763   -9.5687   22.4763 H   0  0  0  0  0  0
  -24.0006   -7.4634   22.7476 H   0  0  0  0  0  0
  -21.0843   -8.8768   19.8952 H   0  0  0  0  0  0
  -22.3696  -10.9670   19.6166 H   0  0  0  0  0  0
  -21.2003   -7.6149   23.9718 H   0  0  0  0  0  0
  -21.1478   -6.0525   25.9080 H   0  0  0  0  0  0
  -22.0599   -2.7613   23.2841 H   0  0  0  0  0  0
  -22.4099  -11.9878   22.4786 H   0  0  0  0  0  0
  -21.1108  -13.1252   22.2613 H   0  0  0  0  0  0
  -24.6550  -15.8397   20.5103 H   0  0  0  0  0  0
  -26.2710  -15.6290   20.0664 H   0  0  0  0  0  0
  -26.7157  -32.5476   23.1129 H   0  0  0  0  0  0
  -25.0124  -33.9740   25.0481 H   0  0  0  0  0  0
  -22.7076  -31.3045   21.4031 H   0  0  0  0  0  0
  -23.3737  -35.9636   23.3323 H   0  0  0  0  0  0
  -24.3581  -36.8870   22.2047 H   0  0  0  0  0  0
  -23.7247  -37.6510   23.6633 H   0  0  0  0  0  0
  -26.0712  -31.5691   20.5986 H   0  0  0  0  0  0
  -26.8361  -30.8621   21.9910 H   0  0  0  0  0  0
  -28.1171  -29.0270   21.1881 H   0  0  0  0  0  0
  -26.0402  -25.9333   19.0251 H   0  0  0  0  0  0
  -23.9782  -27.2926   19.0261 H   0  0  0  0  0  0
  -23.7434  -30.5891   19.4024 H   0  0  0  0  0  0
  -22.7512  -29.2397   19.8610 H   0  0  0  0  0  0
  -25.1290  -36.1952   25.0831 H   0  0  0  0  0  0
  -20.9972  -28.3243   24.1416 H   0  0  0  0  0  0
  -20.5667  -26.2280   23.3593 H   0  0  0  0  0  0
  -21.6643  -26.7452   22.1201 H   0  0  0  0  0  0
  -19.6908  -25.6300   21.1231 H   0  0  0  0  0  0
  -19.6698  -27.3197   20.6734 H   0  0  0  0  0  0
  -17.4202  -26.6676   21.4014 H   0  0  0  0  0  0
  -18.0341  -26.0078   22.9013 H   0  0  0  0  0  0
  -19.7929  -30.7263   24.2273 H   0  0  0  0  0  0
  -17.5016  -31.6273   24.5152 H   0  0  0  0  0  0
  -15.5348  -30.2990   23.7667 H   0  0  0  0  0  0
  -15.8666  -28.0823   22.7084 H   0  0  0  0  0  0
  -24.5944  -30.7023   25.7789 H   0  0  0  0  0  0
  -24.8921  -32.2847   26.4889 H   0  0  0  0  0  0
  -25.8100  -30.8882   27.0215 H   0  0  0  0  0  0
  -26.2875  -29.6777   24.1168 H   0  0  0  0  0  0
  -27.4075  -29.7270   25.4596 H   0  0  0  0  0  0
  -27.8733  -30.4322   23.9295 H   0  0  0  0  0  0
  -27.2696  -33.3604   26.2072 H   0  0  0  0  0  0
  -28.3881  -32.6849   25.0305 H   0  0  0  0  0  0
  -28.0737  -31.8409   26.5383 H   0  0  0  0  0  0
  -28.2610  -38.0087   24.7503 H   0  0  0  0  0  0
  -28.1052  -36.2620   24.6316 H   0  0  0  0  0  0
  -27.2294  -37.1483   25.8871 H   0  0  0  0  0  0
  -20.9342  -29.8741   21.6889 H   0  0  0  0  0  0
  -26.0169  -38.2855   24.1410 H   0  0  0  0  0  0
  -27.8898  -19.0119   17.6227 H   0  0  0  0  0  0
  -28.9368  -17.0958   18.7811 H   0  0  0  0  0  0
  -27.9518  -21.2595   18.5650 H   0  0  0  0  0  0
  -28.6985  -25.3210   23.9808 H   0  0  0  0  0  0
  -29.0933  -23.6795   24.7100 H   0  0  0  0  0  0
  -28.4745  -26.3534   22.0939 H   0  0  0  0  0  0
  -28.5923  -21.6302   22.9414 H   0  0  0  0  0  0
  -30.3003  -22.0615   22.6617 H   0  0  0  0  0  0
  -30.2524  -17.2204   22.2420 H   0  0  0  0  0  0
  -31.4180  -17.1572   20.9596 H   0  0  0  0  0  0
  -28.9373  -15.4620   21.1189 H   0  0  0  0  0  0
  1 25  1  0  0  0
  1 30  2  0  0  0
  1 85  1  0  0  0
  2  3  1  0  0  0
  2 25  1  0  0  0
  2 88  1  0  0  0
  2 89  1  0  0  0
  3  4  1  0  0  0
  3 90  1  0  0  0
  3 91  1  0  0  0
  4  5  1  0  0  0
  4 92  1  0  0  0
  4 93  1  0  0  0
  5  6  1  0  0  0
  5 26  1  0  0  0
  5 94  1  0  0  0
  6 25  1  0  0  0
  6 95  1  0  0  0
  6 96  1  0  0  0
  7  8  2  0  0  0
  7 26  1  0  0  0
  7 29  1  0  0  0
  8  9  1  0  0  0
  8 22  1  0  0  0
  9 10  1  0  0  0
  9 27  2  0  0  0
 10 11  2  0  0  0
 10 15  1  0  0  0
 11 12  1  0  0  0
 11 97  1  0  0  0
 12 13  2  0  0  0
 12 98  1  0  0  0
 13 14  1  0  0  0
 13 31  1  0  0  0
 14 15  2  0  0  0
 14 99  1  0  0  0
 15100  1  0  0  0
 16 17  2  0  0  0
 16 21  1  0  0  0
 16 31  1  0  0  0
 17 18  1  0  0  0
 17101  1  0  0  0
 18 19  2  0  0  0
 18102  1  0  0  0
 19 20  1  0  0  0
 19 24  1  0  0  0
 20 21  2  0  0  0
 20103  1  0  0  0
 21 23  1  0  0  0
 22 28  1  0  0  0
 22 32  2  0  0  0
 26 27  1  0  0  0
 28104  1  0  0  0
 28105  1  0  0  0
 29106  1  0  0  0
 29107  1  0  0  0
 33 34  1  0  0  0
 33 66  1  0  0  0
 33 70  2  0  0  0
 34 36  1  0  0  0
 34 59  1  0  0  0
 34108  1  0  0  0
 35 44  2  0  0  0
 35 45  1  0  0  0
 35 68  1  0  0  0
 36 56  1  0  0  0
 36109  1  0  0  0
 37 39  1  0  0  0
 37 47  1  0  0  0
 37 66  1  0  0  0
 37110  1  0  0  0
 38 43  2  0  0  0
 38 46  1  0  0  0
 38 47  1  0  0  0
 39 64  1  0  0  0
 39 67  2  0  0  0
 40 52  1  0  0  0
 40 53  2  0  0  0
 40 58  1  0  0  0
 41111  1  0  0  0
 41112  1  0  0  0
 41113  1  0  0  0
 41 48  1  0  0  0
 42 43  1  0  0  0
 42 66  1  0  0  0
 42114  1  0  0  0
 42115  1  0  0  0
 43 44  1  0  0  0
 44116  1  0  0  0
 45 46  2  0  0  0
 45117  1  0  0  0
 46118  1  0  0  0
 47119  1  0  0  0
 47120  1  0  0  0
 48 56  1  0  0  0
 48 65  1  0  0  0
 48121  1  0  0  0
 49 50  1  0  0  0
 49 53  1  0  0  0
 49 64  1  0  0  0
 49122  1  0  0  0
 50 51  1  0  0  0
 50123  1  0  0  0
 50124  1  0  0  0
 51 52  1  0  0  0
 51125  1  0  0  0
 51126  1  0  0  0
 52127  1  0  0  0
 52128  1  0  0  0
 53 54  1  0  0  0
 54 55  2  0  0  0
 54129  1  0  0  0
 55 57  1  0  0  0
 55130  1  0  0  0
 56 69  2  0  0  0
 57 58  2  0  0  0
 57131  1  0  0  0
 58132  1  0  0  0
 59 60  1  0  0  0
 59 61  1  0  0  0
 59 62  1  0  0  0
 60133  1  0  0  0
 60134  1  0  0  0
 60135  1  0  0  0
 61136  1  0  0  0
 61137  1  0  0  0
 61138  1  0  0  0
 62139  1  0  0  0
 62140  1  0  0  0
 62141  1  0  0  0
 63 65  1  0  0  0
 63142  1  0  0  0
 63143  1  0  0  0
 63144  1  0  0  0
 64145  1  0  0  0
 65146  1  0  0  0
 68 81  1  0  0  0
 71 72  2  0  0  0
 71 73  1  0  0  0
 71147  1  0  0  0
 72 74  1  0  0  0
 72148  1  0  0  0
 73 75  2  0  0  0
 73149  1  0  0  0
 74 76  2  0  0  0
 74 83  1  0  0  0
 75 76  1  0  0  0
 75 84  1  0  0  0
 76 87  1  0  0  0
 77 78  1  0  0  0
 77 79  1  0  0  0
 77 81  2  0  0  0
 78 80  2  0  0  0
 78 82  1  0  0  0
 79 84  1  0  0  0
 79 86  2  0  0  0
 80150  1  0  0  0
 80151  1  0  0  0
 81152  1  0  0  0
 82 84  1  0  0  0
 82153  1  0  0  0
 82154  1  0  0  0
 83 85  1  0  0  0
 83155  1  0  0  0
 83156  1  0  0  0
 85157  1  0  0  0
M  ISO  4   1 100  68 101  81 101  85 100
M  END
> <chiral flag>
0

> <version>
0

> <s_m_source_file>
/data/baiqing/PycharmProjects/Reinvent-master-3.2/result/LINK_invent/BTK/process_docking_weight1_custom_product_contain_oxygen_bond_distance_aromatic_linkinvent_7_9_3/rearranged_h_0081.sdf

> <i_m_source_file_index>
73

> <r_mmod_Potential_Energy-OPLS-2005>
120.247329711914

> <r_mmod_Stretch_Energy-OPLS-2005>
69.6703338623047

> <r_mmod_Bend_Energy-OPLS-2005>
177.249542236328

> <r_mmod_Torsional_Energy-OPLS-2005>
254.531951904297

> <r_mmod_Improper_Torsional_Energy-OPLS-2005>
3.81479668617249

> <r_mmod_Van_der_Waal_Energy-OPLS-2005>
145.460968017578

> <r_mmod_Electrostatic_Energy-OPLS-2005>
-353.330902099609

> <r_mmod_Solvation_Energy-OPLS-2005>
-212.262817382812

> <b_mmod_Minimization_Converged-OPLS-2005>
0

> <r_mmod_RMS_Derivative-OPLS-2005>
1.26009726524353

$$$$
73
                    3D
 Structure written by MMmdl.
152161  0  0  1  0            999 V2000
  -30.5883  -14.7446   20.4519 C   0  0  0  0  0  0
  -30.4490  -12.4522   19.4598 C   0  0  0  0  0  0
  -29.5125  -12.5103   18.2309 C   0  0  0  0  0  0
  -28.0383  -12.3323   18.6488 C   0  0  0  0  0  0
  -27.6470  -13.2237   19.8575 C   0  0  2  0  0  0
  -28.7002  -13.1328   20.9852 C   0  0  0  0  0  0
  -25.2504  -13.8134   20.5765 C   0  0  0  0  0  0
  -24.1789  -13.0373   20.9199 C   0  0  0  0  0  0
  -24.6397  -11.6868   20.8734 C   0  0  0  0  0  0
  -23.9074  -10.4258   21.0394 C   0  0  0  0  0  0
  -24.3619   -9.4182   21.9180 C   0  0  0  0  0  0
  -23.6288   -8.2225   22.0754 C   0  0  0  0  0  0
  -22.4270   -8.0269   21.3544 C   0  0  0  0  0  0
  -21.9907   -9.0240   20.4644 C   0  0  0  0  0  0
  -22.7243  -10.2111   20.3047 C   0  0  0  0  0  0
  -21.6847   -6.0730   22.5280 C   0  0  0  0  0  0
  -21.4010   -6.5636   23.8213 C   0  0  0  0  0  0
  -21.3659   -5.6790   24.9177 C   0  0  0  0  0  0
  -21.6044   -4.3054   24.7228 C   0  0  0  0  0  0
  -21.8820   -3.8144   23.4349 C   0  0  0  0  0  0
  -21.9191   -4.6959   22.3405 C   0  0  0  0  0  0
  -22.7810  -13.5167   21.1862 C   0  0  0  0  0  0
  -22.1660   -4.2145   21.0982 F   0  0  0  0  0  0
  -21.5631   -3.4538   25.7741 F   0  0  0  0  0  0
  -30.0038  -13.4975   20.4058 N   0  0  0  0  0  0
  -26.2969  -12.9365   20.3347 N   0  0  0  0  0  0
  -25.9335  -11.6502   20.5761 N   0  0  0  0  0  0
  -22.0462  -12.8167   22.0430 N   0  0  0  0  0  0
  -25.4008  -15.1873   20.4363 N   0  0  0  0  0  0
  -31.7750  -14.8960   20.1471 O   0  0  0  0  0  0
  -21.6630   -6.8870   21.4242 O   0  0  0  0  0  0
  -22.3490  -14.5476   20.6716 O   0  0  0  0  0  0
  -24.6313  -31.8557   23.1999 C   0  0  0  0  0  0
  -25.9138  -32.4759   23.8343 C   0  0  1  0  0  0
  -27.2253  -27.2700   20.1256 C   0  0  0  0  0  0
  -25.5931  -33.8561   24.2261 N   0  0  0  0  0  0
  -23.4296  -30.4785   21.5424 C   0  0  2  0  0  0
  -24.8816  -28.9322   20.1061 C   0  0  0  0  0  0
  -22.7511  -29.4599   22.4906 C   0  0  0  0  0  0
  -18.0295  -28.1387   22.8484 C   0  0  0  0  0  0
  -24.1490  -36.7286   23.2640 C   0  0  0  0  0  0
  -25.9765  -30.7690   21.3835 C   0  0  0  0  0  0
  -26.0524  -29.3932   20.7238 C   0  0  0  0  0  0
  -27.2281  -28.5723   20.7299 C   0  0  0  0  0  0
  -26.0393  -26.8906   19.4565 C   0  0  0  0  0  0
  -24.8795  -27.6871   19.4611 C   0  0  0  0  0  0
  -23.6497  -29.8155   20.1576 C   0  0  0  0  0  0
  -25.4117  -36.3073   24.0326 C   0  0  1  0  0  0
  -20.5900  -28.3700   23.1264 C   0  0  2  0  0  0
  -20.6781  -26.9416   22.5407 C   0  0  0  0  0  0
  -19.5755  -26.6382   21.5212 C   0  0  0  0  0  0
  -18.1937  -26.7928   22.1626 C   0  0  0  0  0  0
  -19.1549  -28.8861   23.2868 C   0  0  0  0  0  0
  -18.9469  -30.1461   23.8888 C   0  0  0  0  0  0
  -17.6467  -30.6587   24.0561 C   0  0  0  0  0  0
  -25.9056  -34.9442   23.5096 C   0  0  0  0  0  0
  -16.5358  -29.9084   23.6332 C   0  0  0  0  0  0
  -16.7281  -28.6501   23.0354 C   0  0  0  0  0  0
  -26.4503  -31.6584   25.0733 C   0  0  0  0  0  0
  -25.3721  -31.3736   26.1448 C   0  0  0  0  0  0
  -27.0358  -30.2999   24.6231 C   0  0  0  0  0  0
  -27.6050  -32.4332   25.7509 C   0  0  0  0  0  0
  -27.5578  -37.1801   24.8467 C   0  0  0  0  0  0
  -21.4217  -29.3045   22.3651 N   0  0  0  0  0  0
  -26.4293  -37.3770   23.9405 N   0  0  0  0  0  0
  -24.6978  -31.0520   22.0980 N   0  0  0  0  0  0
  -23.4208  -28.8136   23.3006 O   0  0  0  0  0  0
  -28.2720  -26.3165   20.1933 O   0  0  0  0  0  0
  -26.5630  -34.8915   22.4666 O   0  0  0  0  0  0
  -23.5460  -32.1379   23.7288 O   0  0  0  0  0  0
  -30.5689  -19.6299   20.7935 C   0  0  0  0  0  0
  -30.7770  -18.1988   20.8140 C   0  0  0  0  0  0
  -28.3376  -19.3162   20.1036 C   0  0  0  0  0  0
  -29.3231  -20.2750   20.4855 C   0  0  0  0  0  0
  -29.7426  -17.2772   20.4818 C   0  0  0  0  0  0
  -28.5339  -17.8990   20.0750 C   0  0  0  0  0  0
  -28.4516  -23.7200   20.5002 C   0  0  0  0  0  0
  -27.8227  -22.4663   20.8985 C   0  0  0  0  0  0
  -27.8870  -24.9926   20.5694 C   0  0  0  0  0  0
  -29.7047  -22.9071   20.0598 C   0  0  0  0  0  0
  -28.9826  -21.7206   20.6142 N   0  0  0  0  0  0
  -27.5018  -17.0821   19.6145 N   0  0  0  0  0  0
  -29.7208  -15.8020   20.6363 N   0  0  0  0  0  0
  -26.6904  -22.2271   21.2647 O   0  0  0  0  0  0
  -31.4857  -12.5975   19.1508 H   0  0  0  0  0  0
  -30.4100  -11.4694   19.9318 H   0  0  0  0  0  0
  -29.7908  -11.7422   17.5080 H   0  0  0  0  0  0
  -29.6346  -13.4674   17.7211 H   0  0  0  0  0  0
  -27.8954  -11.2821   18.9059 H   0  0  0  0  0  0
  -27.3781  -12.5296   17.8035 H   0  0  0  0  0  0
  -27.6400  -14.2473   19.4861 H   0  0  0  0  0  0
  -28.7369  -12.1242   21.3994 H   0  0  0  0  0  0
  -28.4378  -13.7900   21.8160 H   0  0  0  0  0  0
  -25.2764   -9.5658   22.4755 H   0  0  0  0  0  0
  -23.9991   -7.4617   22.7478 H   0  0  0  0  0  0
  -21.0837   -8.8762   19.8952 H   0  0  0  0  0  0
  -22.3707  -10.9651   19.6155 H   0  0  0  0  0  0
  -21.2000   -7.6144   23.9714 H   0  0  0  0  0  0
  -21.1482   -6.0522   25.9079 H   0  0  0  0  0  0
  -22.0600   -2.7606   23.2851 H   0  0  0  0  0  0
  -22.4084  -11.9831   22.4817 H   0  0  0  0  0  0
  -21.1083  -13.1194   22.2645 H   0  0  0  0  0  0
  -24.6189  -15.8146   20.5836 H   0  0  0  0  0  0
  -26.2564  -15.6975   20.2094 H   0  0  0  0  0  0
  -26.7206  -32.5415   23.1089 H   0  0  0  0  0  0
  -25.0070  -33.9701   25.0400 H   0  0  0  0  0  0
  -22.7260  -31.3007   21.3970 H   0  0  0  0  0  0
  -23.3750  -35.9621   23.3309 H   0  0  0  0  0  0
  -24.3577  -36.8902   22.2053 H   0  0  0  0  0  0
  -23.7248  -37.6491   23.6661 H   0  0  0  0  0  0
  -26.1176  -31.5309   20.6155 H   0  0  0  0  0  0
  -26.8526  -30.8166   22.0184 H   0  0  0  0  0  0
  -28.1183  -28.9119   21.2404 H   0  0  0  0  0  0
  -25.9908  -25.9344   18.9548 H   0  0  0  0  0  0
  -23.9869  -27.3309   18.9655 H   0  0  0  0  0  0
  -23.7715  -30.5937   19.4032 H   0  0  0  0  0  0
  -22.7693  -29.2472   19.8520 H   0  0  0  0  0  0
  -25.1301  -36.1922   25.0819 H   0  0  0  0  0  0
  -20.9994  -28.3280   24.1384 H   0  0  0  0  0  0
  -20.5682  -26.2312   23.3614 H   0  0  0  0  0  0
  -21.6649  -26.7437   22.1200 H   0  0  0  0  0  0
  -19.6917  -25.6291   21.1247 H   0  0  0  0  0  0
  -19.6690  -27.3189   20.6739 H   0  0  0  0  0  0
  -17.4205  -26.6674   21.4030 H   0  0  0  0  0  0
  -18.0338  -26.0071   22.9025 H   0  0  0  0  0  0
  -19.7945  -30.7280   24.2253 H   0  0  0  0  0  0
  -17.5021  -31.6266   24.5165 H   0  0  0  0  0  0
  -15.5358  -30.2982   23.7660 H   0  0  0  0  0  0
  -15.8681  -28.0817   22.7074 H   0  0  0  0  0  0
  -24.5905  -30.7075   25.7775 H   0  0  0  0  0  0
  -24.8901  -32.2904   26.4850 H   0  0  0  0  0  0
  -25.8032  -30.8931   27.0239 H   0  0  0  0  0  0
  -26.2951  -29.6741   24.1237 H   0  0  0  0  0  0
  -27.4014  -29.7267   25.4761 H   0  0  0  0  0  0
  -27.8840  -30.4270   23.9500 H   0  0  0  0  0  0
  -27.2650  -33.3635   26.2071 H   0  0  0  0  0  0
  -28.3868  -32.6889   25.0344 H   0  0  0  0  0  0
  -28.0711  -31.8470   26.5439 H   0  0  0  0  0  0
  -28.2601  -38.0092   24.7502 H   0  0  0  0  0  0
  -28.1067  -36.2622   24.6309 H   0  0  0  0  0  0
  -27.2292  -37.1469   25.8869 H   0  0  0  0  0  0
  -20.9404  -29.8771   21.6856 H   0  0  0  0  0  0
  -26.0173  -38.2846   24.1396 H   0  0  0  0  0  0
  -31.3961  -20.2549   21.0991 H   0  0  0  0  0  0
  -31.7354  -17.8178   21.1361 H   0  0  0  0  0  0
  -27.3642  -19.6931   19.8243 H   0  0  0  0  0  0
  -26.9014  -25.0231   21.0159 H   0  0  0  0  0  0
  -30.6429  -23.0924   20.5847 H   0  0  0  0  0  0
  -29.8818  -22.8069   18.9875 H   0  0  0  0  0  0
  -26.7314  -17.5881   19.1900 H   0  0  0  0  0  0
  -27.8286  -16.3727   18.9681 H   0  0  0  0  0  0
  -28.7736  -15.4758   20.7545 H   0  0  0  0  0  0
  1 25  1  0  0  0
  1 30  2  0  0  0
  1 83  1  0  0  0
  2  3  1  0  0  0
  2 25  1  0  0  0
  2 85  1  0  0  0
  2 86  1  0  0  0
  3  4  1  0  0  0
  3 87  1  0  0  0
  3 88  1  0  0  0
  4  5  1  0  0  0
  4 89  1  0  0  0
  4 90  1  0  0  0
  5  6  1  0  0  0
  5 26  1  0  0  0
  5 91  1  0  0  0
  6 25  1  0  0  0
  6 92  1  0  0  0
  6 93  1  0  0  0
  7  8  2  0  0  0
  7 26  1  0  0  0
  7 29  1  0  0  0
  8  9  1  0  0  0
  8 22  1  0  0  0
  9 10  1  0  0  0
  9 27  2  0  0  0
 10 11  2  0  0  0
 10 15  1  0  0  0
 11 12  1  0  0  0
 11 94  1  0  0  0
 12 13  2  0  0  0
 12 95  1  0  0  0
 13 14  1  0  0  0
 13 31  1  0  0  0
 14 15  2  0  0  0
 14 96  1  0  0  0
 15 97  1  0  0  0
 16 17  2  0  0  0
 16 21  1  0  0  0
 16 31  1  0  0  0
 17 18  1  0  0  0
 17 98  1  0  0  0
 18 19  2  0  0  0
 18 99  1  0  0  0
 19 20  1  0  0  0
 19 24  1  0  0  0
 20 21  2  0  0  0
 20100  1  0  0  0
 21 23  1  0  0  0
 22 28  1  0  0  0
 22 32  2  0  0  0
 26 27  1  0  0  0
 28101  1  0  0  0
 28102  1  0  0  0
 29103  1  0  0  0
 29104  1  0  0  0
 33 34  1  0  0  0
 33 66  1  0  0  0
 33 70  2  0  0  0
 34 36  1  0  0  0
 34 59  1  0  0  0
 34105  1  0  0  0
 35 44  2  0  0  0
 35 45  1  0  0  0
 35 68  1  0  0  0
 36 56  1  0  0  0
 36106  1  0  0  0
 37 39  1  0  0  0
 37 47  1  0  0  0
 37 66  1  0  0  0
 37107  1  0  0  0
 38 43  2  0  0  0
 38 46  1  0  0  0
 38 47  1  0  0  0
 39 64  1  0  0  0
 39 67  2  0  0  0
 40 52  1  0  0  0
 40 53  2  0  0  0
 40 58  1  0  0  0
 41108  1  0  0  0
 41109  1  0  0  0
 41110  1  0  0  0
 41 48  1  0  0  0
 42 43  1  0  0  0
 42 66  1  0  0  0
 42111  1  0  0  0
 42112  1  0  0  0
 43 44  1  0  0  0
 44113  1  0  0  0
 45 46  2  0  0  0
 45114  1  0  0  0
 46115  1  0  0  0
 47116  1  0  0  0
 47117  1  0  0  0
 48 56  1  0  0  0
 48 65  1  0  0  0
 48118  1  0  0  0
 49 50  1  0  0  0
 49 53  1  0  0  0
 49 64  1  0  0  0
 49119  1  0  0  0
 50 51  1  0  0  0
 50120  1  0  0  0
 50121  1  0  0  0
 51 52  1  0  0  0
 51122  1  0  0  0
 51123  1  0  0  0
 52124  1  0  0  0
 52125  1  0  0  0
 53 54  1  0  0  0
 54 55  2  0  0  0
 54126  1  0  0  0
 55 57  1  0  0  0
 55127  1  0  0  0
 56 69  2  0  0  0
 57 58  2  0  0  0
 57128  1  0  0  0
 58129  1  0  0  0
 59 60  1  0  0  0
 59 61  1  0  0  0
 59 62  1  0  0  0
 60130  1  0  0  0
 60131  1  0  0  0
 60132  1  0  0  0
 61133  1  0  0  0
 61134  1  0  0  0
 61135  1  0  0  0
 62136  1  0  0  0
 62137  1  0  0  0
 62138  1  0  0  0
 63 65  1  0  0  0
 63139  1  0  0  0
 63140  1  0  0  0
 63141  1  0  0  0
 64142  1  0  0  0
 65143  1  0  0  0
 68 79  1  0  0  0
 71 72  2  0  0  0
 71 74  1  0  0  0
 71144  1  0  0  0
 72 75  1  0  0  0
 72145  1  0  0  0
 73 74  2  0  0  0
 73 76  1  0  0  0
 73146  1  0  0  0
 74 81  1  0  0  0
 75 76  2  0  0  0
 75 83  1  0  0  0
 76 82  1  0  0  0
 77 78  1  0  0  0
 77 79  2  0  0  0
 77 80  1  0  0  0
 78 81  1  0  0  0
 78 84  2  0  0  0
 79147  1  0  0  0
 80 81  1  0  0  0
 80148  1  0  0  0
 80149  1  0  0  0
 82150  1  0  0  0
 82151  1  0  0  0
 83152  1  0  0  0
M  ISO  4   1 100  68 101  79 101  83 100
M  END
> <chiral flag>
0

> <version>
0

> <s_m_source_file>
/data/baiqing/PycharmProjects/Reinvent-master-3.2/result/LINK_invent/BTK/process_docking_weight1_custom_product_contain_oxygen_bond_distance_aromatic_linkinvent_7_9_3/rearranged_h_0081.sdf

> <i_m_source_file_index>
74

> <r_mmod_Potential_Energy-OPLS-2005>
164.012237548828

> <r_mmod_Stretch_Energy-OPLS-2005>
102.459053039551

> <r_mmod_Bend_Energy-OPLS-2005>
264.789855957031

> <r_mmod_Torsional_Energy-OPLS-2005>
255.915130615234

> <r_mmod_Improper_Torsional_Energy-OPLS-2005>
12.7281932830811

> <r_mmod_Van_der_Waal_Energy-OPLS-2005>
144.490264892578

> <r_mmod_Electrostatic_Energy-OPLS-2005>
-490.863677978516

> <r_mmod_Solvation_Energy-OPLS-2005>
-215.716949462891

> <b_mmod_Minimization_Converged-OPLS-2005>
0

> <r_mmod_RMS_Derivative-OPLS-2005>
0.213552057743073

$$$$
74
                    3D
 Structure written by MMmdl.
154162  0  0  1  0            999 V2000
  -30.6033  -14.6187   20.5669 C   0  0  0  0  0  0
  -30.4531  -12.3985   19.4372 C   0  0  0  0  0  0
  -29.5116  -12.5279   18.2166 C   0  0  0  0  0  0
  -28.0331  -12.3594   18.6251 C   0  0  0  0  0  0
  -27.6606  -13.2071   19.8700 C   0  0  2  0  0  0
  -28.7053  -13.0098   20.9931 C   0  0  0  0  0  0
  -25.2594  -13.8136   20.5667 C   0  0  0  0  0  0
  -24.1849  -13.0424   20.9183 C   0  0  0  0  0  0
  -24.6397  -11.6889   20.8733 C   0  0  0  0  0  0
  -23.9049  -10.4287   21.0402 C   0  0  0  0  0  0
  -24.3606   -9.4209   21.9177 C   0  0  0  0  0  0
  -23.6290   -8.2243   22.0744 C   0  0  0  0  0  0
  -22.4273   -8.0276   21.3539 C   0  0  0  0  0  0
  -21.9902   -9.0248   20.4641 C   0  0  0  0  0  0
  -22.7221  -10.2128   20.3052 C   0  0  0  0  0  0
  -21.6847   -6.0736   22.5281 C   0  0  0  0  0  0
  -21.4014   -6.5638   23.8219 C   0  0  0  0  0  0
  -21.3660   -5.6789   24.9177 C   0  0  0  0  0  0
  -21.6050   -4.3053   24.7228 C   0  0  0  0  0  0
  -21.8820   -3.8141   23.4348 C   0  0  0  0  0  0
  -21.9194   -4.6964   22.3403 C   0  0  0  0  0  0
  -22.7874  -13.5229   21.1842 C   0  0  0  0  0  0
  -22.1661   -4.2152   21.0983 F   0  0  0  0  0  0
  -21.5633   -3.4542   25.7737 F   0  0  0  0  0  0
  -30.0245  -13.3812   20.4501 N   0  0  0  0  0  0
  -26.3023  -12.9303   20.3319 N   0  0  0  0  0  0
  -25.9326  -11.6469   20.5740 N   0  0  0  0  0  0
  -22.0505  -12.8231   22.0394 N   0  0  0  0  0  0
  -25.4317  -15.1864   20.4081 N   0  0  0  0  0  0
  -31.7076  -14.8809   20.0776 O   0  0  0  0  0  0
  -21.6635   -6.8875   21.4239 O   0  0  0  0  0  0
  -22.3562  -14.5543   20.6694 O   0  0  0  0  0  0
  -24.6234  -31.8612   23.2037 C   0  0  0  0  0  0
  -25.9088  -32.4788   23.8357 C   0  0  1  0  0  0
  -27.2301  -27.3392   20.1161 C   0  0  0  0  0  0
  -25.5919  -33.8591   24.2282 N   0  0  0  0  0  0
  -23.4169  -30.4832   21.5457 C   0  0  2  0  0  0
  -24.8653  -28.9351   20.1154 C   0  0  0  0  0  0
  -22.7461  -29.4629   22.4953 C   0  0  0  0  0  0
  -18.0283  -28.1380   22.8494 C   0  0  0  0  0  0
  -24.1489  -36.7297   23.2635 C   0  0  0  0  0  0
  -25.9557  -30.7961   21.3736 C   0  0  0  0  0  0
  -26.0316  -29.4231   20.7196 C   0  0  0  0  0  0
  -27.2177  -28.6344   20.7129 C   0  0  0  0  0  0
  -26.0447  -26.8947   19.4921 C   0  0  0  0  0  0
  -24.8714  -27.6747   19.4951 C   0  0  0  0  0  0
  -23.6315  -29.8137   20.1622 C   0  0  0  0  0  0
  -25.4112  -36.3092   24.0333 C   0  0  1  0  0  0
  -20.5880  -28.3684   23.1297 C   0  0  2  0  0  0
  -20.6773  -26.9410   22.5418 C   0  0  0  0  0  0
  -19.5748  -26.6383   21.5220 C   0  0  0  0  0  0
  -18.1929  -26.7928   22.1631 C   0  0  0  0  0  0
  -19.1535  -28.8848   23.2892 C   0  0  0  0  0  0
  -18.9457  -30.1453   23.8906 C   0  0  0  0  0  0
  -17.6458  -30.6588   24.0561 C   0  0  0  0  0  0
  -25.9050  -34.9461   23.5106 C   0  0  0  0  0  0
  -16.5352  -29.9087   23.6330 C   0  0  0  0  0  0
  -16.7269  -28.6503   23.0356 C   0  0  0  0  0  0
  -26.4479  -31.6600   25.0725 C   0  0  0  0  0  0
  -25.3721  -31.3752   26.1461 C   0  0  0  0  0  0
  -27.0307  -30.3020   24.6176 C   0  0  0  0  0  0
  -27.6053  -32.4329   25.7479 C   0  0  0  0  0  0
  -27.5591  -37.1787   24.8453 C   0  0  0  0  0  0
  -21.4177  -29.3040   22.3693 N   0  0  0  0  0  0
  -26.4287  -37.3793   23.9423 N   0  0  0  0  0  0
  -24.6837  -31.0631   22.0983 N   0  0  0  0  0  0
  -23.4192  -28.8175   23.3030 O   0  0  0  0  0  0
  -28.3601  -26.5171   20.1035 O   0  0  0  0  0  0
  -26.5622  -34.8929   22.4675 O   0  0  0  0  0  0
  -23.5400  -32.1404   23.7376 O   0  0  0  0  0  0
  -32.4708  -19.1637   19.8766 C   0  0  0  0  0  0
  -31.7737  -18.0511   20.3836 C   0  0  0  0  0  0
  -31.8357  -20.4113   19.7283 C   0  0  0  0  0  0
  -29.7706  -19.4471   20.5599 C   0  0  0  0  0  0
  -30.4098  -18.1526   20.7229 C   0  0  0  0  0  0
  -30.4833  -20.6021   20.0847 C   0  0  0  0  0  0
  -28.2299  -25.1460   20.3978 C   0  0  0  0  0  0
  -29.6976  -16.9910   21.3755 C   0  0  0  0  0  0
  -29.1201  -24.1758   20.0186 C   0  0  0  0  0  0
  -28.9855  -22.7279   20.3837 C   0  0  0  0  0  0
  -30.0068  -21.9711   19.8976 N   0  0  0  0  0  0
  -29.7668  -15.6189   21.2340 N   0  0  0  0  0  0
  -28.8031  -17.3875   22.2907 N   0  3  0  0  0  0
  -28.0649  -22.2435   21.0447 O   0  0  0  0  0  0
  -30.1794  -24.5531   19.2843 O   0  0  0  0  0  0
  -31.4901  -12.5525   19.1336 H   0  0  0  0  0  0
  -30.4101  -11.3896   19.8512 H   0  0  0  0  0  0
  -29.7779  -11.7928   17.4560 H   0  0  0  0  0  0
  -29.6500  -13.5062   17.7531 H   0  0  0  0  0  0
  -27.8637  -11.3020   18.8348 H   0  0  0  0  0  0
  -27.3798  -12.6107   17.7890 H   0  0  0  0  0  0
  -27.6923  -14.2517   19.5586 H   0  0  0  0  0  0
  -28.7205  -11.9668   21.3146 H   0  0  0  0  0  0
  -28.4364  -13.5752   21.8859 H   0  0  0  0  0  0
  -25.2758   -9.5705   22.4740 H   0  0  0  0  0  0
  -24.0018   -7.4637   22.7462 H   0  0  0  0  0  0
  -21.0831   -8.8759   19.8949 H   0  0  0  0  0  0
  -22.3674  -10.9666   19.6164 H   0  0  0  0  0  0
  -21.1999   -7.6143   23.9726 H   0  0  0  0  0  0
  -21.1480   -6.0514   25.9083 H   0  0  0  0  0  0
  -22.0594   -2.7608   23.2845 H   0  0  0  0  0  0
  -22.4094  -11.9889   22.4809 H   0  0  0  0  0  0
  -21.1122  -13.1274   22.2558 H   0  0  0  0  0  0
  -24.6523  -15.8289   20.4982 H   0  0  0  0  0  0
  -26.2568  -15.6232   20.0187 H   0  0  0  0  0  0
  -26.7157  -32.5461   23.1112 H   0  0  0  0  0  0
  -25.0061  -33.9738   25.0421 H   0  0  0  0  0  0
  -22.7106  -31.3038   21.4020 H   0  0  0  0  0  0
  -23.3766  -35.9611   23.3270 H   0  0  0  0  0  0
  -24.3589  -36.8942   22.2055 H   0  0  0  0  0  0
  -23.7218  -37.6483   23.6670 H   0  0  0  0  0  0
  -26.0854  -31.5591   20.6050 H   0  0  0  0  0  0
  -26.8366  -30.8458   22.0020 H   0  0  0  0  0  0
  -28.1171  -29.0062   21.1836 H   0  0  0  0  0  0
  -26.0223  -25.9304   19.0047 H   0  0  0  0  0  0
  -23.9770  -27.2963   19.0189 H   0  0  0  0  0  0
  -23.7488  -30.5883   19.4033 H   0  0  0  0  0  0
  -22.7524  -29.2406   19.8619 H   0  0  0  0  0  0
  -25.1287  -36.1941   25.0824 H   0  0  0  0  0  0
  -20.9974  -28.3250   24.1417 H   0  0  0  0  0  0
  -20.5683  -26.2290   23.3612 H   0  0  0  0  0  0
  -21.6640  -26.7450   22.1200 H   0  0  0  0  0  0
  -19.6910  -25.6295   21.1247 H   0  0  0  0  0  0
  -19.6685  -27.3197   20.6752 H   0  0  0  0  0  0
  -17.4199  -26.6680   21.4031 H   0  0  0  0  0  0
  -18.0327  -26.0067   22.9023 H   0  0  0  0  0  0
  -19.7931  -30.7269   24.2282 H   0  0  0  0  0  0
  -17.5011  -31.6270   24.5158 H   0  0  0  0  0  0
  -15.5350  -30.2992   23.7651 H   0  0  0  0  0  0
  -15.8667  -28.0823   22.7074 H   0  0  0  0  0  0
  -24.5859  -30.7149   25.7782 H   0  0  0  0  0  0
  -24.8960  -32.2932   26.4919 H   0  0  0  0  0  0
  -25.8038  -30.8884   27.0215 H   0  0  0  0  0  0
  -26.2871  -29.6785   24.1200 H   0  0  0  0  0  0
  -27.3996  -29.7269   25.4678 H   0  0  0  0  0  0
  -27.8748  -30.4295   23.9397 H   0  0  0  0  0  0
  -27.2674  -33.3627   26.2068 H   0  0  0  0  0  0
  -28.3848  -32.6896   25.0294 H   0  0  0  0  0  0
  -28.0740  -31.8451   26.5381 H   0  0  0  0  0  0
  -28.2567  -38.0127   24.7574 H   0  0  0  0  0  0
  -28.1131  -36.2668   24.6178 H   0  0  0  0  0  0
  -27.2326  -37.1310   25.8855 H   0  0  0  0  0  0
  -20.9358  -29.8751   21.6893 H   0  0  0  0  0  0
  -26.0168  -38.2858   24.1471 H   0  0  0  0  0  0
  -33.5171  -19.0692   19.6212 H   0  0  0  0  0  0
  -32.3198  -17.1351   20.5409 H   0  0  0  0  0  0
  -32.4198  -21.2403   19.3543 H   0  0  0  0  0  0
  -28.7292  -19.5656   20.8242 H   0  0  0  0  0  0
  -27.3439  -24.9293   20.9826 H   0  0  0  0  0  0
  -30.6378  -22.5684   19.3779 H   0  0  0  0  0  0
  -28.9568  -15.2268   21.6692 H   0  0  0  0  0  0
  -28.7482  -18.3764   22.4824 H   0  0  0  0  0  0
  -28.2935  -16.7737   22.9060 H   0  0  0  0  0  0
  -30.0987  -25.4901   19.1544 H   0  0  0  0  0  0
  1 25  1  0  0  0
  1 30  2  0  0  0
  1 82  1  0  0  0
  2  3  1  0  0  0
  2 25  1  0  0  0
  2 86  1  0  0  0
  2 87  1  0  0  0
  3  4  1  0  0  0
  3 88  1  0  0  0
  3 89  1  0  0  0
  4  5  1  0  0  0
  4 90  1  0  0  0
  4 91  1  0  0  0
  5  6  1  0  0  0
  5 26  1  0  0  0
  5 92  1  0  0  0
  6 25  1  0  0  0
  6 93  1  0  0  0
  6 94  1  0  0  0
  7  8  2  0  0  0
  7 26  1  0  0  0
  7 29  1  0  0  0
  8  9  1  0  0  0
  8 22  1  0  0  0
  9 10  1  0  0  0
  9 27  2  0  0  0
 10 11  2  0  0  0
 10 15  1  0  0  0
 11 12  1  0  0  0
 11 95  1  0  0  0
 12 13  2  0  0  0
 12 96  1  0  0  0
 13 14  1  0  0  0
 13 31  1  0  0  0
 14 15  2  0  0  0
 14 97  1  0  0  0
 15 98  1  0  0  0
 16 17  2  0  0  0
 16 21  1  0  0  0
 16 31  1  0  0  0
 17 18  1  0  0  0
 17 99  1  0  0  0
 18 19  2  0  0  0
 18100  1  0  0  0
 19 20  1  0  0  0
 19 24  1  0  0  0
 20 21  2  0  0  0
 20101  1  0  0  0
 21 23  1  0  0  0
 22 28  1  0  0  0
 22 32  2  0  0  0
 26 27  1  0  0  0
 28102  1  0  0  0
 28103  1  0  0  0
 29104  1  0  0  0
 29105  1  0  0  0
 33 34  1  0  0  0
 33 66  1  0  0  0
 33 70  2  0  0  0
 34 36  1  0  0  0
 34 59  1  0  0  0
 34106  1  0  0  0
 35 44  2  0  0  0
 35 45  1  0  0  0
 35 68  1  0  0  0
 36 56  1  0  0  0
 36107  1  0  0  0
 37 39  1  0  0  0
 37 47  1  0  0  0
 37 66  1  0  0  0
 37108  1  0  0  0
 38 43  2  0  0  0
 38 46  1  0  0  0
 38 47  1  0  0  0
 39 64  1  0  0  0
 39 67  2  0  0  0
 40 52  1  0  0  0
 40 53  2  0  0  0
 40 58  1  0  0  0
 41109  1  0  0  0
 41110  1  0  0  0
 41111  1  0  0  0
 41 48  1  0  0  0
 42 43  1  0  0  0
 42 66  1  0  0  0
 42112  1  0  0  0
 42113  1  0  0  0
 43 44  1  0  0  0
 44114  1  0  0  0
 45 46  2  0  0  0
 45115  1  0  0  0
 46116  1  0  0  0
 47117  1  0  0  0
 47118  1  0  0  0
 48 56  1  0  0  0
 48 65  1  0  0  0
 48119  1  0  0  0
 49 50  1  0  0  0
 49 53  1  0  0  0
 49 64  1  0  0  0
 49120  1  0  0  0
 50 51  1  0  0  0
 50121  1  0  0  0
 50122  1  0  0  0
 51 52  1  0  0  0
 51123  1  0  0  0
 51124  1  0  0  0
 52125  1  0  0  0
 52126  1  0  0  0
 53 54  1  0  0  0
 54 55  2  0  0  0
 54127  1  0  0  0
 55 57  1  0  0  0
 55128  1  0  0  0
 56 69  2  0  0  0
 57 58  2  0  0  0
 57129  1  0  0  0
 58130  1  0  0  0
 59 60  1  0  0  0
 59 61  1  0  0  0
 59 62  1  0  0  0
 60131  1  0  0  0
 60132  1  0  0  0
 60133  1  0  0  0
 61134  1  0  0  0
 61135  1  0  0  0
 61136  1  0  0  0
 62137  1  0  0  0
 62138  1  0  0  0
 62139  1  0  0  0
 63 65  1  0  0  0
 63140  1  0  0  0
 63141  1  0  0  0
 63142  1  0  0  0
 64143  1  0  0  0
 65144  1  0  0  0
 68 77  1  0  0  0
 71 72  2  0  0  0
 71 73  1  0  0  0
 71145  1  0  0  0
 72 75  1  0  0  0
 72146  1  0  0  0
 73 76  2  0  0  0
 73147  1  0  0  0
 74 75  2  0  0  0
 74 76  1  0  0  0
 74148  1  0  0  0
 75 78  1  0  0  0
 76 81  1  0  0  0
 77 79  2  0  0  0
 77149  1  0  0  0
 78 82  1  0  0  0
 78 83  2  0  0  0
 79 80  1  0  0  0
 79 85  1  0  0  0
 80 81  1  0  0  0
 80 84  2  0  0  0
 81150  1  0  0  0
 82151  1  0  0  0
 83152  1  0  0  0
 83153  1  0  0  0
 85154  1  0  0  0
M  CHG  1  83   1
M  ISO  4   1 100  68 101  77 101  82 100
M  END
> <chiral flag>
0

> <version>
0

> <s_m_source_file>
/data/baiqing/PycharmProjects/Reinvent-master-3.2/result/LINK_invent/BTK/process_docking_weight1_custom_product_contain_oxygen_bond_distance_aromatic_linkinvent_7_9_3/rearranged_h_0081.sdf

> <i_m_source_file_index>
75

> <r_mmod_Potential_Energy-OPLS-2005>
-258.068023681641

> <r_mmod_Stretch_Energy-OPLS-2005>
74.1367111206055

> <r_mmod_Bend_Energy-OPLS-2005>
198.607330322266

> <r_mmod_Torsional_Energy-OPLS-2005>
201.480560302734

> <r_mmod_Improper_Torsional_Energy-OPLS-2005>
4.0322585105896

> <r_mmod_Van_der_Waal_Energy-OPLS-2005>
148.894104003906

> <r_mmod_Electrostatic_Energy-OPLS-2005>
-482.795166015625

> <r_mmod_Solvation_Energy-OPLS-2005>
-443.319061279297

> <b_mmod_Minimization_Converged-OPLS-2005>
0

> <r_mmod_RMS_Derivative-OPLS-2005>
1.24373888969421

$$$$
75
                    3D
 Structure written by MMmdl.
154163  0  0  1  0            999 V2000
  -30.6158  -14.7614   20.5722 C   0  0  0  0  0  0
  -30.4427  -12.4937   19.4751 C   0  0  0  0  0  0
  -29.5165  -12.5438   18.2372 C   0  0  0  0  0  0
  -28.0415  -12.3484   18.6379 C   0  0  0  0  0  0
  -27.6455  -13.2262   19.8510 C   0  0  2  0  0  0
  -28.6797  -13.1011   20.9828 C   0  0  0  0  0  0
  -25.2532  -13.8182   20.5670 C   0  0  0  0  0  0
  -24.1812  -13.0436   20.9174 C   0  0  0  0  0  0
  -24.6395  -11.6911   20.8714 C   0  0  0  0  0  0
  -23.9069  -10.4293   21.0397 C   0  0  0  0  0  0
  -24.3620   -9.4211   21.9179 C   0  0  0  0  0  0
  -23.6295   -8.2247   22.0752 C   0  0  0  0  0  0
  -22.4276   -8.0282   21.3545 C   0  0  0  0  0  0
  -21.9911   -9.0254   20.4646 C   0  0  0  0  0  0
  -22.7239  -10.2133   20.3052 C   0  0  0  0  0  0
  -21.6855   -6.0736   22.5280 C   0  0  0  0  0  0
  -21.4017   -6.5641   23.8212 C   0  0  0  0  0  0
  -21.3660   -5.6793   24.9174 C   0  0  0  0  0  0
  -21.6044   -4.3056   24.7226 C   0  0  0  0  0  0
  -21.8818   -3.8148   23.4348 C   0  0  0  0  0  0
  -21.9194   -4.6965   22.3404 C   0  0  0  0  0  0
  -22.7838  -13.5224   21.1860 C   0  0  0  0  0  0
  -22.1661   -4.2150   21.0981 F   0  0  0  0  0  0
  -21.5629   -3.4538   25.7738 F   0  0  0  0  0  0
  -29.9901  -13.5238   20.4491 N   0  0  0  0  0  0
  -26.2942  -12.9371   20.3220 N   0  0  0  0  0  0
  -25.9315  -11.6518   20.5680 N   0  0  0  0  0  0
  -22.0493  -12.8208   22.0421 N   0  0  0  0  0  0
  -25.4258  -15.1908   20.4146 N   0  0  0  0  0  0
  -31.7182  -14.9228   20.0364 O   0  0  0  0  0  0
  -21.6641   -6.8880   21.4241 O   0  0  0  0  0  0
  -22.3517  -14.5533   20.6722 O   0  0  0  0  0  0
  -24.6333  -31.8537   23.1963 C   0  0  0  0  0  0
  -25.9149  -32.4750   23.8324 C   0  0  1  0  0  0
  -27.2265  -27.2491   20.1365 C   0  0  0  0  0  0
  -25.5931  -33.8552   24.2245 N   0  0  0  0  0  0
  -23.4327  -30.4736   21.5396 C   0  0  2  0  0  0
  -24.8835  -28.9135   20.1155 C   0  0  0  0  0  0
  -22.7519  -29.4595   22.4907 C   0  0  0  0  0  0
  -18.0293  -28.1395   22.8485 C   0  0  0  0  0  0
  -24.1489  -36.7284   23.2640 C   0  0  0  0  0  0
  -25.9795  -30.7621   21.3788 C   0  0  0  0  0  0
  -26.0563  -29.3807   20.7255 C   0  0  0  0  0  0
  -27.2345  -28.5617   20.7238 C   0  0  0  0  0  0
  -26.0320  -26.8478   19.5060 C   0  0  0  0  0  0
  -24.8761  -27.6541   19.4950 C   0  0  0  0  0  0
  -23.6544  -29.8030   20.1582 C   0  0  0  0  0  0
  -25.4116  -36.3069   24.0323 C   0  0  1  0  0  0
  -20.5901  -28.3710   23.1265 C   0  0  2  0  0  0
  -20.6783  -26.9425   22.5408 C   0  0  0  0  0  0
  -19.5756  -26.6390   21.5216 C   0  0  0  0  0  0
  -18.1935  -26.7936   22.1627 C   0  0  0  0  0  0
  -19.1549  -28.8869   23.2869 C   0  0  0  0  0  0
  -18.9467  -30.1468   23.8892 C   0  0  0  0  0  0
  -17.6465  -30.6594   24.0564 C   0  0  0  0  0  0
  -25.9058  -34.9440   23.5090 C   0  0  0  0  0  0
  -16.5357  -29.9092   23.6332 C   0  0  0  0  0  0
  -16.7280  -28.6510   23.0354 C   0  0  0  0  0  0
  -26.4505  -31.6579   25.0722 C   0  0  0  0  0  0
  -25.3716  -31.3734   26.1432 C   0  0  0  0  0  0
  -27.0354  -30.2991   24.6224 C   0  0  0  0  0  0
  -27.6057  -32.4323   25.7497 C   0  0  0  0  0  0
  -27.5577  -37.1799   24.8464 C   0  0  0  0  0  0
  -21.4223  -29.3049   22.3650 N   0  0  0  0  0  0
  -26.4292  -37.3768   23.9405 N   0  0  0  0  0  0
  -24.7008  -31.0481   22.0949 N   0  0  0  0  0  0
  -23.4208  -28.8142   23.3021 O   0  0  0  0  0  0
  -28.2947  -26.3209   20.1248 O   0  0  0  0  0  0
  -26.5640  -34.8921   22.4665 O   0  0  0  0  0  0
  -23.5476  -32.1364   23.7243 O   0  0  0  0  0  0
  -29.8778  -19.6764   21.8020 C   0  0  0  0  0  0
  -29.1316  -19.2817   19.6182 C   0  0  0  0  0  0
  -30.1813  -18.2845   21.9534 C   0  0  0  0  0  0
  -29.4018  -17.8627   19.7657 C   0  0  0  0  0  0
  -29.2992  -20.2757   20.6453 C   0  0  0  0  0  0
  -29.9018  -17.2810   20.9727 C   0  0  0  0  0  0
  -28.5187  -23.7695   20.6520 C   0  0  0  0  0  0
  -28.3828  -22.6474   21.5806 C   0  0  0  0  0  0
  -28.8286  -16.0204   23.4391 C   0  0  0  0  0  0
  -28.1513  -25.1059   20.8604 C   0  0  0  0  0  0
  -29.7750  -15.4743   22.6517 C   0  0  0  0  0  0
  -29.1675  -22.7806   19.6314 C   0  0  0  0  0  0
  -28.8708  -21.7133   20.6379 N   0  0  0  0  0  0
  -30.0154  -15.8037   21.2990 N   0  0  0  0  0  0
  -28.0262  -22.6187   22.7407 O   0  0  0  0  0  0
  -31.4794  -12.6418   19.1690 H   0  0  0  0  0  0
  -30.4166  -11.5036   19.9328 H   0  0  0  0  0  0
  -29.8113  -11.7828   17.5137 H   0  0  0  0  0  0
  -29.6329  -13.5050   17.7343 H   0  0  0  0  0  0
  -27.9001  -11.2952   18.8832 H   0  0  0  0  0  0
  -27.3871  -12.5543   17.7902 H   0  0  0  0  0  0
  -27.6573  -14.2607   19.5066 H   0  0  0  0  0  0
  -28.7311  -12.0721   21.3413 H   0  0  0  0  0  0
  -28.3340  -13.6762   21.8351 H   0  0  0  0  0  0
  -25.2767   -9.5690   22.4749 H   0  0  0  0  0  0
  -24.0006   -7.4640   22.7472 H   0  0  0  0  0  0
  -21.0841   -8.8775   19.8954 H   0  0  0  0  0  0
  -22.3699  -10.9670   19.6160 H   0  0  0  0  0  0
  -21.2008   -7.6148   23.9717 H   0  0  0  0  0  0
  -21.1483   -6.0523   25.9077 H   0  0  0  0  0  0
  -22.0598   -2.7611   23.2848 H   0  0  0  0  0  0
  -22.4111  -11.9863   22.4793 H   0  0  0  0  0  0
  -21.1115  -13.1235   22.2645 H   0  0  0  0  0  0
  -24.6691  -15.8528   20.5469 H   0  0  0  0  0  0
  -26.2956  -15.6317   20.1426 H   0  0  0  0  0  0
  -26.7220  -32.5401   23.1072 H   0  0  0  0  0  0
  -25.0049  -33.9682   25.0371 H   0  0  0  0  0  0
  -22.7302  -31.2959   21.3895 H   0  0  0  0  0  0
  -23.3753  -35.9615   23.3302 H   0  0  0  0  0  0
  -24.3575  -36.8907   22.2054 H   0  0  0  0  0  0
  -23.7244  -37.6484   23.6670 H   0  0  0  0  0  0
  -26.1176  -31.5199   20.6064 H   0  0  0  0  0  0
  -26.8572  -30.8164   22.0114 H   0  0  0  0  0  0
  -28.1359  -28.9152   21.2048 H   0  0  0  0  0  0
  -25.9896  -25.8766   19.0336 H   0  0  0  0  0  0
  -23.9783  -27.2894   19.0152 H   0  0  0  0  0  0
  -23.7827  -30.5775   19.4010 H   0  0  0  0  0  0
  -22.7726  -29.2371   19.8520 H   0  0  0  0  0  0
  -25.1301  -36.1914   25.0816 H   0  0  0  0  0  0
  -20.9990  -28.3297   24.1390 H   0  0  0  0  0  0
  -20.5682  -26.2327   23.3619 H   0  0  0  0  0  0
  -21.6650  -26.7448   22.1201 H   0  0  0  0  0  0
  -19.6917  -25.6300   21.1250 H   0  0  0  0  0  0
  -19.6689  -27.3197   20.6744 H   0  0  0  0  0  0
  -17.4201  -26.6684   21.4031 H   0  0  0  0  0  0
  -18.0337  -26.0083   22.9030 H   0  0  0  0  0  0
  -19.7941  -30.7286   24.2266 H   0  0  0  0  0  0
  -17.5016  -31.6270   24.5170 H   0  0  0  0  0  0
  -15.5357  -30.2990   23.7658 H   0  0  0  0  0  0
  -15.8682  -28.0825   22.7073 H   0  0  0  0  0  0
  -24.5902  -30.7075   25.7751 H   0  0  0  0  0  0
  -24.8893  -32.2903   26.4832 H   0  0  0  0  0  0
  -25.8019  -30.8926   27.0225 H   0  0  0  0  0  0
  -26.2943  -29.6734   24.1235 H   0  0  0  0  0  0
  -27.4008  -29.7262   25.4757 H   0  0  0  0  0  0
  -27.8834  -30.4252   23.9491 H   0  0  0  0  0  0
  -27.2667  -33.3633   26.2052 H   0  0  0  0  0  0
  -28.3881  -32.6861   25.0333 H   0  0  0  0  0  0
  -28.0713  -31.8460   26.5429 H   0  0  0  0  0  0
  -28.2599  -38.0092   24.7505 H   0  0  0  0  0  0
  -28.1071  -36.2623   24.6301 H   0  0  0  0  0  0
  -27.2295  -37.1455   25.8868 H   0  0  0  0  0  0
  -20.9424  -29.8764   21.6835 H   0  0  0  0  0  0
  -26.0170  -38.2844   24.1402 H   0  0  0  0  0  0
  -30.0787  -20.3125   22.6524 H   0  0  0  0  0  0
  -28.7038  -19.6040   18.6794 H   0  0  0  0  0  0
  -30.5969  -17.9862   22.9050 H   0  0  0  0  0  0
  -29.1574  -17.2110   18.9390 H   0  0  0  0  0  0
  -28.7226  -15.7103   24.4689 H   0  0  0  0  0  0
  -28.1443  -16.7753   23.0782 H   0  0  0  0  0  0
  -27.6888  -25.3381   21.8106 H   0  0  0  0  0  0
  -30.4390  -14.7137   23.0464 H   0  0  0  0  0  0
  -30.2395  -22.8814   19.4538 H   0  0  0  0  0  0
  -28.6435  -22.6062   18.6906 H   0  0  0  0  0  0
  1 25  1  0  0  0
  1 30  2  0  0  0
  1 84  1  0  0  0
  2  3  1  0  0  0
  2 25  1  0  0  0
  2 86  1  0  0  0
  2 87  1  0  0  0
  3  4  1  0  0  0
  3 88  1  0  0  0
  3 89  1  0  0  0
  4  5  1  0  0  0
  4 90  1  0  0  0
  4 91  1  0  0  0
  5  6  1  0  0  0
  5 26  1  0  0  0
  5 92  1  0  0  0
  6 25  1  0  0  0
  6 93  1  0  0  0
  6 94  1  0  0  0
  7  8  2  0  0  0
  7 26  1  0  0  0
  7 29  1  0  0  0
  8  9  1  0  0  0
  8 22  1  0  0  0
  9 10  1  0  0  0
  9 27  2  0  0  0
 10 11  2  0  0  0
 10 15  1  0  0  0
 11 12  1  0  0  0
 11 95  1  0  0  0
 12 13  2  0  0  0
 12 96  1  0  0  0
 13 14  1  0  0  0
 13 31  1  0  0  0
 14 15  2  0  0  0
 14 97  1  0  0  0
 15 98  1  0  0  0
 16 17  2  0  0  0
 16 21  1  0  0  0
 16 31  1  0  0  0
 17 18  1  0  0  0
 17 99  1  0  0  0
 18 19  2  0  0  0
 18100  1  0  0  0
 19 20  1  0  0  0
 19 24  1  0  0  0
 20 21  2  0  0  0
 20101  1  0  0  0
 21 23  1  0  0  0
 22 28  1  0  0  0
 22 32  2  0  0  0
 26 27  1  0  0  0
 28102  1  0  0  0
 28103  1  0  0  0
 29104  1  0  0  0
 29105  1  0  0  0
 33 34  1  0  0  0
 33 66  1  0  0  0
 33 70  2  0  0  0
 34 36  1  0  0  0
 34 59  1  0  0  0
 34106  1  0  0  0
 35 44  2  0  0  0
 35 45  1  0  0  0
 35 68  1  0  0  0
 36 56  1  0  0  0
 36107  1  0  0  0
 37 39  1  0  0  0
 37 47  1  0  0  0
 37 66  1  0  0  0
 37108  1  0  0  0
 38 43  2  0  0  0
 38 46  1  0  0  0
 38 47  1  0  0  0
 39 64  1  0  0  0
 39 67  2  0  0  0
 40 52  1  0  0  0
 40 53  2  0  0  0
 40 58  1  0  0  0
 41109  1  0  0  0
 41110  1  0  0  0
 41111  1  0  0  0
 41 48  1  0  0  0
 42 43  1  0  0  0
 42 66  1  0  0  0
 42112  1  0  0  0
 42113  1  0  0  0
 43 44  1  0  0  0
 44114  1  0  0  0
 45 46  2  0  0  0
 45115  1  0  0  0
 46116  1  0  0  0
 47117  1  0  0  0
 47118  1  0  0  0
 48 56  1  0  0  0
 48 65  1  0  0  0
 48119  1  0  0  0
 49 50  1  0  0  0
 49 53  1  0  0  0
 49 64  1  0  0  0
 49120  1  0  0  0
 50 51  1  0  0  0
 50121  1  0  0  0
 50122  1  0  0  0
 51 52  1  0  0  0
 51123  1  0  0  0
 51124  1  0  0  0
 52125  1  0  0  0
 52126  1  0  0  0
 53 54  1  0  0  0
 54 55  2  0  0  0
 54127  1  0  0  0
 55 57  1  0  0  0
 55128  1  0  0  0
 56 69  2  0  0  0
 57 58  2  0  0  0
 57129  1  0  0  0
 58130  1  0  0  0
 59 60  1  0  0  0
 59 61  1  0  0  0
 59 62  1  0  0  0
 60131  1  0  0  0
 60132  1  0  0  0
 60133  1  0  0  0
 61134  1  0  0  0
 61135  1  0  0  0
 61136  1  0  0  0
 62137  1  0  0  0
 62138  1  0  0  0
 62139  1  0  0  0
 63 65  1  0  0  0
 63140  1  0  0  0
 63141  1  0  0  0
 63142  1  0  0  0
 64143  1  0  0  0
 65144  1  0  0  0
 68 80  1  0  0  0
 71 73  2  0  0  0
 71 75  1  0  0  0
 71145  1  0  0  0
 72 74  1  0  0  0
 72 75  2  0  0  0
 72146  1  0  0  0
 73 76  1  0  0  0
 73147  1  0  0  0
 74 76  2  0  0  0
 74148  1  0  0  0
 75 83  1  0  0  0
 76 84  1  0  0  0
 77 78  1  0  0  0
 77 80  2  0  0  0
 77 82  1  0  0  0
 78 83  1  0  0  0
 78 85  2  0  0  0
 79 81  2  0  0  0
 79149  1  0  0  0
 79150  1  0  0  0
 80151  1  0  0  0
 81 84  1  0  0  0
 81152  1  0  0  0
 82 83  1  0  0  0
 82153  1  0  0  0
 82154  1  0  0  0
M  ISO  4   1 100  68 101  80 101  84 100
M  END
> <chiral flag>
0

> <version>
0

> <s_m_source_file>
/data/baiqing/PycharmProjects/Reinvent-master-3.2/result/LINK_invent/BTK/process_docking_weight1_custom_product_contain_oxygen_bond_distance_aromatic_linkinvent_7_9_3/rearranged_h_0081.sdf

> <i_m_source_file_index>
76

> <r_mmod_Potential_Energy-OPLS-2005>
466.903839111328

> <r_mmod_Stretch_Energy-OPLS-2005>
132.693572998047

> <r_mmod_Bend_Energy-OPLS-2005>
270.217742919922

> <r_mmod_Torsional_Energy-OPLS-2005>
333.806549072266

> <r_mmod_Improper_Torsional_Energy-OPLS-2005>
3.83038997650146

> <r_mmod_Van_der_Waal_Energy-OPLS-2005>
148.527328491211

> <r_mmod_Electrostatic_Energy-OPLS-2005>
-306.552551269531

> <r_mmod_Solvation_Energy-OPLS-2005>
-205.877853393555

> <b_mmod_Minimization_Converged-OPLS-2005>
0

> <r_mmod_RMS_Derivative-OPLS-2005>
0.514282763004303

$$$$
76
                    3D
 Structure written by MMmdl.
150159  0  0  1  0            999 V2000
  -30.5696  -14.8801   20.3962 C   0  0  0  0  0  0
  -30.4307  -12.5359   19.4917 C   0  0  0  0  0  0
  -29.5157  -12.5209   18.2467 C   0  0  0  0  0  0
  -28.0443  -12.3271   18.6577 C   0  0  0  0  0  0
  -27.6308  -13.2466   19.8377 C   0  0  2  0  0  0
  -28.6729  -13.2529   20.9765 C   0  0  0  0  0  0
  -25.2497  -13.8225   20.5736 C   0  0  0  0  0  0
  -24.1809  -13.0454   20.9229 C   0  0  0  0  0  0
  -24.6412  -11.6940   20.8770 C   0  0  0  0  0  0
  -23.9098  -10.4309   21.0425 C   0  0  0  0  0  0
  -24.3650   -9.4212   21.9187 C   0  0  0  0  0  0
  -23.6320   -8.2249   22.0749 C   0  0  0  0  0  0
  -22.4293   -8.0300   21.3544 C   0  0  0  0  0  0
  -21.9950   -9.0279   20.4642 C   0  0  0  0  0  0
  -22.7280  -10.2152   20.3063 C   0  0  0  0  0  0
  -21.6861   -6.0756   22.5284 C   0  0  0  0  0  0
  -21.4018   -6.5656   23.8220 C   0  0  0  0  0  0
  -21.3654   -5.6799   24.9178 C   0  0  0  0  0  0
  -21.6041   -4.3061   24.7222 C   0  0  0  0  0  0
  -21.8818   -3.8155   23.4342 C   0  0  0  0  0  0
  -21.9201   -4.6982   22.3402 C   0  0  0  0  0  0
  -22.7827  -13.5226   21.1885 C   0  0  0  0  0  0
  -22.1663   -4.2171   21.0979 F   0  0  0  0  0  0
  -21.5620   -3.4535   25.7729 F   0  0  0  0  0  0
  -29.9599  -13.6324   20.3824 N   0  0  0  0  0  0
  -26.2900  -12.9447   20.3241 N   0  0  0  0  0  0
  -25.9339  -11.6583   20.5743 N   0  0  0  0  0  0
  -22.0476  -12.8198   22.0435 N   0  0  0  0  0  0
  -25.4194  -15.1958   20.4201 N   0  0  0  0  0  0
  -31.7766  -14.9172   20.1366 O   0  0  0  0  0  0
  -21.6643   -6.8901   21.4249 O   0  0  0  0  0  0
  -22.3501  -14.5527   20.6730 O   0  0  0  0  0  0
  -24.6382  -31.8496   23.1907 C   0  0  0  0  0  0
  -25.9183  -32.4714   23.8290 C   0  0  1  0  0  0
  -27.2126  -27.1860   20.1474 C   0  0  0  0  0  0
  -25.5950  -33.8519   24.2222 N   0  0  0  0  0  0
  -23.4404  -30.4714   21.5345 C   0  0  2  0  0  0
  -24.8920  -28.9085   20.1070 C   0  0  0  0  0  0
  -22.7545  -29.4580   22.4846 C   0  0  0  0  0  0
  -18.0302  -28.1395   22.8486 C   0  0  0  0  0  0
  -24.1498  -36.7281   23.2639 C   0  0  0  0  0  0
  -25.9939  -30.7395   21.3849 C   0  0  0  0  0  0
  -26.0668  -29.3547   20.7293 C   0  0  0  0  0  0
  -27.2331  -28.5068   20.7385 C   0  0  0  0  0  0
  -26.0211  -26.8336   19.4821 C   0  0  0  0  0  0
  -24.8801  -27.6615   19.4655 C   0  0  0  0  0  0
  -23.6662  -29.8038   20.1520 C   0  0  0  0  0  0
  -25.4115  -36.3056   24.0327 C   0  0  1  0  0  0
  -20.5915  -28.3720   23.1237 C   0  0  2  0  0  0
  -20.6790  -26.9426   22.5403 C   0  0  0  0  0  0
  -19.5760  -26.6374   21.5215 C   0  0  0  0  0  0
  -18.1939  -26.7925   22.1633 C   0  0  0  0  0  0
  -19.1562  -28.8865   23.2858 C   0  0  0  0  0  0
  -18.9476  -30.1454   23.8887 C   0  0  0  0  0  0
  -17.6475  -30.6584   24.0565 C   0  0  0  0  0  0
  -25.9058  -34.9424   23.5079 C   0  0  0  0  0  0
  -16.5363  -29.9089   23.6325 C   0  0  0  0  0  0
  -16.7287  -28.6510   23.0347 C   0  0  0  0  0  0
  -26.4520  -31.6546   25.0703 C   0  0  0  0  0  0
  -25.3715  -31.3748   26.1403 C   0  0  0  0  0  0
  -27.0361  -30.2934   24.6247 C   0  0  0  0  0  0
  -27.6063  -32.4292   25.7493 C   0  0  0  0  0  0
  -27.5578  -37.1795   24.8454 C   0  0  0  0  0  0
  -21.4237  -29.3061   22.3608 N   0  0  0  0  0  0
  -26.4289  -37.3755   23.9402 N   0  0  0  0  0  0
  -24.7096  -31.0388   22.0928 N   0  0  0  0  0  0
  -23.4214  -28.8106   23.2964 O   0  0  0  0  0  0
  -28.2465  -26.1981   20.1722 O   0  0  0  0  0  0
  -26.5645  -34.8915   22.4654 O   0  0  0  0  0  0
  -23.5510  -32.1352   23.7144 O   0  0  0  0  0  0
  -31.3607  -18.9725   18.5904 C   0  0  0  0  0  0
  -30.6649  -20.1236   18.9972 C   0  0  0  0  0  0
  -31.0638  -17.7011   19.1021 C   0  0  0  0  0  0
  -29.3381  -18.7554   20.4457 C   0  0  0  0  0  0
  -29.6075  -20.1336   19.9406 C   0  0  0  0  0  0
  -30.0571  -17.5049   20.0688 C   0  0  0  0  0  0
  -28.4400  -23.5564   20.3858 C   0  0  0  0  0  0
  -28.0507  -22.2418   20.9572 C   0  0  0  0  0  0
  -27.9321  -24.8560   20.6236 C   0  0  0  0  0  0
  -29.5070  -22.7991   19.5536 C   0  0  0  0  0  0
  -29.0215  -21.5259   20.1946 N   0  0  0  0  0  0
  -29.8041  -16.0694   20.5272 N   0  0  0  0  0  0
  -27.2089  -21.9604   21.7867 O   0  0  0  0  0  0
  -31.4660  -12.6716   19.1777 H   0  0  0  0  0  0
  -30.4004  -11.5780   20.0146 H   0  0  0  0  0  0
  -29.8194  -11.7298   17.5604 H   0  0  0  0  0  0
  -29.6236  -13.4605   17.7012 H   0  0  0  0  0  0
  -27.9192  -11.2822   18.9397 H   0  0  0  0  0  0
  -27.3874  -12.4879   17.8025 H   0  0  0  0  0  0
  -27.6003  -14.2554   19.4274 H   0  0  0  0  0  0
  -28.7363  -12.2760   21.4589 H   0  0  0  0  0  0
  -28.3849  -13.9633   21.7544 H   0  0  0  0  0  0
  -25.2808   -9.5671   22.4761 H   0  0  0  0  0  0
  -24.0020   -7.4633   22.7469 H   0  0  0  0  0  0
  -21.0881   -8.8819   19.8959 H   0  0  0  0  0  0
  -22.3761  -10.9697   19.6175 H   0  0  0  0  0  0
  -21.2009   -7.6161   23.9741 H   0  0  0  0  0  0
  -21.1469   -6.0520   25.9084 H   0  0  0  0  0  0
  -22.0604   -2.7622   23.2840 H   0  0  0  0  0  0
  -22.4093  -11.9854   22.4799 H   0  0  0  0  0  0
  -21.1097  -13.1231   22.2658 H   0  0  0  0  0  0
  -24.6609  -15.8566   20.5508 H   0  0  0  0  0  0
  -26.2697  -15.6336   20.0892 H   0  0  0  0  0  0
  -26.7244  -32.5344   23.1023 H   0  0  0  0  0  0
  -25.0073  -33.9642   25.0355 H   0  0  0  0  0  0
  -22.7406  -31.2970   21.3816 H   0  0  0  0  0  0
  -23.3760  -35.9615   23.3286 H   0  0  0  0  0  0
  -24.3586  -36.8917   22.2053 H   0  0  0  0  0  0
  -23.7251  -37.6479   23.6676 H   0  0  0  0  0  0
  -26.1412  -31.4961   20.6134 H   0  0  0  0  0  0
  -26.8672  -30.7929   22.0231 H   0  0  0  0  0  0
  -28.1280  -28.8416   21.2438 H   0  0  0  0  0  0
  -25.9593  -25.8745   18.9876 H   0  0  0  0  0  0
  -23.9886  -27.3233   18.9562 H   0  0  0  0  0  0
  -23.7958  -30.5818   19.3983 H   0  0  0  0  0  0
  -22.7837  -29.2422   19.8392 H   0  0  0  0  0  0
  -25.1293  -36.1906   25.0820 H   0  0  0  0  0  0
  -21.0019  -28.3324   24.1356 H   0  0  0  0  0  0
  -20.5681  -26.2341   23.3630 H   0  0  0  0  0  0
  -21.6654  -26.7428   22.1202 H   0  0  0  0  0  0
  -19.6935  -25.6278   21.1251 H   0  0  0  0  0  0
  -19.6692  -27.3181   20.6744 H   0  0  0  0  0  0
  -17.4208  -26.6668   21.4045 H   0  0  0  0  0  0
  -18.0359  -26.0062   22.9029 H   0  0  0  0  0  0
  -19.7942  -30.7274   24.2273 H   0  0  0  0  0  0
  -17.5019  -31.6262   24.5170 H   0  0  0  0  0  0
  -15.5361  -30.2995   23.7626 H   0  0  0  0  0  0
  -15.8694  -28.0814   22.7070 H   0  0  0  0  0  0
  -24.5890  -30.7098   25.7727 H   0  0  0  0  0  0
  -24.8917  -32.2942   26.4764 H   0  0  0  0  0  0
  -25.7999  -30.8954   27.0211 H   0  0  0  0  0  0
  -26.2959  -29.6670   24.1249 H   0  0  0  0  0  0
  -27.3973  -29.7207   25.4800 H   0  0  0  0  0  0
  -27.8876  -30.4152   23.9551 H   0  0  0  0  0  0
  -27.2656  -33.3593   26.2050 H   0  0  0  0  0  0
  -28.3899  -32.6830   25.0346 H   0  0  0  0  0  0
  -28.0706  -31.8421   26.5426 H   0  0  0  0  0  0
  -28.2577  -38.0111   24.7491 H   0  0  0  0  0  0
  -28.1096  -36.2630   24.6288 H   0  0  0  0  0  0
  -27.2293  -37.1439   25.8860 H   0  0  0  0  0  0
  -20.9435  -29.8810   21.6824 H   0  0  0  0  0  0
  -26.0169  -38.2836   24.1382 H   0  0  0  0  0  0
  -32.1416  -19.0711   17.8502 H   0  0  0  0  0  0
  -30.9837  -21.0387   18.5228 H   0  0  0  0  0  0
  -31.6327  -16.8740   18.7060 H   0  0  0  0  0  0
  -28.5370  -18.6568   21.1632 H   0  0  0  0  0  0
  -27.1227  -24.9196   21.3393 H   0  0  0  0  0  0
  -30.5511  -23.0052   19.7933 H   0  0  0  0  0  0
  -29.3636  -22.7857   18.4711 H   0  0  0  0  0  0
  -28.8767  -15.9071   20.8887 H   0  0  0  0  0  0
  1 25  1  0  0  0
  1 30  2  0  0  0
  1 82  1  0  0  0
  2  3  1  0  0  0
  2 25  1  0  0  0
  2 84  1  0  0  0
  2 85  1  0  0  0
  3  4  1  0  0  0
  3 86  1  0  0  0
  3 87  1  0  0  0
  4  5  1  0  0  0
  4 88  1  0  0  0
  4 89  1  0  0  0
  5  6  1  0  0  0
  5 26  1  0  0  0
  5 90  1  0  0  0
  6 25  1  0  0  0
  6 91  1  0  0  0
  6 92  1  0  0  0
  7  8  2  0  0  0
  7 26  1  0  0  0
  7 29  1  0  0  0
  8  9  1  0  0  0
  8 22  1  0  0  0
  9 10  1  0  0  0
  9 27  2  0  0  0
 10 11  2  0  0  0
 10 15  1  0  0  0
 11 12  1  0  0  0
 11 93  1  0  0  0
 12 13  2  0  0  0
 12 94  1  0  0  0
 13 14  1  0  0  0
 13 31  1  0  0  0
 14 15  2  0  0  0
 14 95  1  0  0  0
 15 96  1  0  0  0
 16 17  2  0  0  0
 16 21  1  0  0  0
 16 31  1  0  0  0
 17 18  1  0  0  0
 17 97  1  0  0  0
 18 19  2  0  0  0
 18 98  1  0  0  0
 19 20  1  0  0  0
 19 24  1  0  0  0
 20 21  2  0  0  0
 20 99  1  0  0  0
 21 23  1  0  0  0
 22 28  1  0  0  0
 22 32  2  0  0  0
 26 27  1  0  0  0
 28100  1  0  0  0
 28101  1  0  0  0
 29102  1  0  0  0
 29103  1  0  0  0
 33 34  1  0  0  0
 33 66  1  0  0  0
 33 70  2  0  0  0
 34 36  1  0  0  0
 34 59  1  0  0  0
 34104  1  0  0  0
 35 44  2  0  0  0
 35 45  1  0  0  0
 35 68  1  0  0  0
 36 56  1  0  0  0
 36105  1  0  0  0
 37 39  1  0  0  0
 37 47  1  0  0  0
 37 66  1  0  0  0
 37106  1  0  0  0
 38 43  2  0  0  0
 38 46  1  0  0  0
 38 47  1  0  0  0
 39 64  1  0  0  0
 39 67  2  0  0  0
 40 52  1  0  0  0
 40 53  2  0  0  0
 40 58  1  0  0  0
 41107  1  0  0  0
 41108  1  0  0  0
 41109  1  0  0  0
 41 48  1  0  0  0
 42 43  1  0  0  0
 42 66  1  0  0  0
 42110  1  0  0  0
 42111  1  0  0  0
 43 44  1  0  0  0
 44112  1  0  0  0
 45 46  2  0  0  0
 45113  1  0  0  0
 46114  1  0  0  0
 47115  1  0  0  0
 47116  1  0  0  0
 48 56  1  0  0  0
 48 65  1  0  0  0
 48117  1  0  0  0
 49 50  1  0  0  0
 49 53  1  0  0  0
 49 64  1  0  0  0
 49118  1  0  0  0
 50 51  1  0  0  0
 50119  1  0  0  0
 50120  1  0  0  0
 51 52  1  0  0  0
 51121  1  0  0  0
 51122  1  0  0  0
 52123  1  0  0  0
 52124  1  0  0  0
 53 54  1  0  0  0
 54 55  2  0  0  0
 54125  1  0  0  0
 55 57  1  0  0  0
 55126  1  0  0  0
 56 69  2  0  0  0
 57 58  2  0  0  0
 57127  1  0  0  0
 58128  1  0  0  0
 59 60  1  0  0  0
 59 61  1  0  0  0
 59 62  1  0  0  0
 60129  1  0  0  0
 60130  1  0  0  0
 60131  1  0  0  0
 61132  1  0  0  0
 61133  1  0  0  0
 61134  1  0  0  0
 62135  1  0  0  0
 62136  1  0  0  0
 62137  1  0  0  0
 63 65  1  0  0  0
 63138  1  0  0  0
 63139  1  0  0  0
 63140  1  0  0  0
 64141  1  0  0  0
 65142  1  0  0  0
 68 79  1  0  0  0
 71 72  2  0  0  0
 71 73  1  0  0  0
 71143  1  0  0  0
 72 75  1  0  0  0
 72144  1  0  0  0
 73 76  2  0  0  0
 73145  1  0  0  0
 74 75  2  0  0  0
 74 76  1  0  0  0
 74146  1  0  0  0
 75 81  1  0  0  0
 76 82  1  0  0  0
 77 78  1  0  0  0
 77 79  2  0  0  0
 77 80  1  0  0  0
 78 81  1  0  0  0
 78 83  2  0  0  0
 79147  1  0  0  0
 80 81  1  0  0  0
 80148  1  0  0  0
 80149  1  0  0  0
 82150  1  0  0  0
M  ISO  4   1 100  68 101  79 101  82 100
M  END
> <chiral flag>
0

> <version>
0

> <s_m_source_file>
/data/baiqing/PycharmProjects/Reinvent-master-3.2/result/LINK_invent/BTK/process_docking_weight1_custom_product_contain_oxygen_bond_distance_aromatic_linkinvent_7_9_3/rearranged_h_0081.sdf

> <i_m_source_file_index>
77

> <r_mmod_Potential_Energy-OPLS-2005>
425.973876953125

> <r_mmod_Stretch_Energy-OPLS-2005>
189.846633911133

> <r_mmod_Bend_Energy-OPLS-2005>
286.796478271484

> <r_mmod_Torsional_Energy-OPLS-2005>
229.020645141602

> <r_mmod_Improper_Torsional_Energy-OPLS-2005>
3.90353059768677

> <r_mmod_Van_der_Waal_Energy-OPLS-2005>
138.095962524414

> <r_mmod_Electrostatic_Energy-OPLS-2005>
-353.359039306641

> <r_mmod_Solvation_Energy-OPLS-2005>
-220.569519042969

> <b_mmod_Minimization_Converged-OPLS-2005>
0

> <r_mmod_RMS_Derivative-OPLS-2005>
2.75274920463562

$$$$
77
                    3D
 Structure written by MMmdl.
152161  0  0  1  0            999 V2000
  -30.5709  -14.7596   20.4619 C   0  0  0  0  0  0
  -30.4511  -12.4601   19.4690 C   0  0  0  0  0  0
  -29.5215  -12.5082   18.2343 C   0  0  0  0  0  0
  -28.0443  -12.3307   18.6434 C   0  0  0  0  0  0
  -27.6465  -13.2228   19.8492 C   0  0  2  0  0  0
  -28.6930  -13.1378   20.9837 C   0  0  0  0  0  0
  -25.2535  -13.8172   20.5654 C   0  0  0  0  0  0
  -24.1823  -13.0434   20.9200 C   0  0  0  0  0  0
  -24.6406  -11.6911   20.8752 C   0  0  0  0  0  0
  -23.9078  -10.4298   21.0421 C   0  0  0  0  0  0
  -24.3630   -9.4212   21.9199 C   0  0  0  0  0  0
  -23.6301   -8.2248   22.0764 C   0  0  0  0  0  0
  -22.4282   -8.0287   21.3550 C   0  0  0  0  0  0
  -21.9923   -9.0270   20.4659 C   0  0  0  0  0  0
  -22.7252  -10.2148   20.3068 C   0  0  0  0  0  0
  -21.6853   -6.0744   22.5285 C   0  0  0  0  0  0
  -21.4014   -6.5646   23.8220 C   0  0  0  0  0  0
  -21.3655   -5.6795   24.9179 C   0  0  0  0  0  0
  -21.6038   -4.3058   24.7224 C   0  0  0  0  0  0
  -21.8816   -3.8153   23.4346 C   0  0  0  0  0  0
  -21.9192   -4.6973   22.3404 C   0  0  0  0  0  0
  -22.7846  -13.5233   21.1849 C   0  0  0  0  0  0
  -22.1659   -4.2160   21.0984 F   0  0  0  0  0  0
  -21.5631   -3.4537   25.7734 F   0  0  0  0  0  0
  -29.9956  -13.5084   20.4090 N   0  0  0  0  0  0
  -26.2960  -12.9362   20.3241 N   0  0  0  0  0  0
  -25.9329  -11.6519   20.5726 N   0  0  0  0  0  0
  -22.0469  -12.8247   22.0406 N   0  0  0  0  0  0
  -25.4203  -15.1897   20.4027 N   0  0  0  0  0  0
  -31.7617  -14.9122   20.1700 O   0  0  0  0  0  0
  -21.6638   -6.8891   21.4245 O   0  0  0  0  0  0
  -22.3543  -14.5539   20.6692 O   0  0  0  0  0  0
  -24.6314  -31.8550   23.1985 C   0  0  0  0  0  0
  -25.9140  -32.4751   23.8336 C   0  0  1  0  0  0
  -27.2282  -27.2632   20.1383 C   0  0  0  0  0  0
  -25.5942  -33.8555   24.2255 N   0  0  0  0  0  0
  -23.4296  -30.4753   21.5423 C   0  0  2  0  0  0
  -24.8820  -28.9172   20.1184 C   0  0  0  0  0  0
  -22.7504  -29.4597   22.4923 C   0  0  0  0  0  0
  -18.0288  -28.1383   22.8485 C   0  0  0  0  0  0
  -24.1497  -36.7275   23.2640 C   0  0  0  0  0  0
  -25.9767  -30.7655   21.3828 C   0  0  0  0  0  0
  -26.0533  -29.3852   20.7315 C   0  0  0  0  0  0
  -27.2322  -28.5692   20.7352 C   0  0  0  0  0  0
  -26.0380  -26.8582   19.5028 C   0  0  0  0  0  0
  -24.8783  -27.6592   19.4948 C   0  0  0  0  0  0
  -23.6510  -29.8043   20.1612 C   0  0  0  0  0  0
  -25.4124  -36.3061   24.0325 C   0  0  1  0  0  0
  -20.5893  -28.3695   23.1274 C   0  0  2  0  0  0
  -20.6773  -26.9411   22.5418 C   0  0  0  0  0  0
  -19.5757  -26.6374   21.5219 C   0  0  0  0  0  0
  -18.1930  -26.7927   22.1620 C   0  0  0  0  0  0
  -19.1543  -28.8856   23.2869 C   0  0  0  0  0  0
  -18.9464  -30.1460   23.8882 C   0  0  0  0  0  0
  -17.6462  -30.6586   24.0556 C   0  0  0  0  0  0
  -25.9061  -34.9433   23.5087 C   0  0  0  0  0  0
  -16.5352  -29.9077   23.6335 C   0  0  0  0  0  0
  -16.7275  -28.6493   23.0358 C   0  0  0  0  0  0
  -26.4497  -31.6578   25.0727 C   0  0  0  0  0  0
  -25.3709  -31.3744   26.1441 C   0  0  0  0  0  0
  -27.0343  -30.2987   24.6233 C   0  0  0  0  0  0
  -27.6048  -32.4321   25.7499 C   0  0  0  0  0  0
  -27.5583  -37.1793   24.8459 C   0  0  0  0  0  0
  -21.4211  -29.3036   22.3655 N   0  0  0  0  0  0
  -26.4294  -37.3766   23.9403 N   0  0  0  0  0  0
  -24.6977  -31.0503   22.0970 N   0  0  0  0  0  0
  -23.4202  -28.8148   23.3031 O   0  0  0  0  0  0
  -28.2959  -26.3418   20.0900 O   0  0  0  0  0  0
  -26.5631  -34.8907   22.4653 O   0  0  0  0  0  0
  -23.5460  -32.1378   23.7267 O   0  0  0  0  0  0
  -28.5000  -19.4728   20.1595 C   0  0  0  0  0  0
  -30.6741  -19.5660   21.1390 C   0  0  0  0  0  0
  -28.6114  -18.0411   20.1011 C   0  0  0  0  0  0
  -30.7987  -18.1332   21.0509 C   0  0  0  0  0  0
  -29.5165  -20.2977   20.7148 C   0  0  0  0  0  0
  -29.7497  -17.3064   20.5584 C   0  0  0  0  0  0
  -28.7712  -24.0488   21.2523 C   0  0  0  0  0  0
  -29.0173  -23.5134   22.5844 C   0  0  0  0  0  0
  -28.9599  -22.8778   20.3309 C   0  0  0  0  0  0
  -28.4608  -25.4127   21.1421 C   0  0  0  0  0  0
  -29.4765  -22.0752   22.4806 C   0  0  0  0  0  0
  -29.3158  -21.7376   21.0660 N   0  0  0  0  0  0
  -29.6894  -15.8197   20.6181 N   0  0  0  0  0  0
  -28.9153  -24.1045   23.6660 O   0  0  0  0  0  0
  -28.8244  -22.8885   19.1018 O   0  0  0  0  0  0
  -31.4890  -12.6083   19.1665 H   0  0  0  0  0  0
  -30.4135  -11.4790   19.9451 H   0  0  0  0  0  0
  -29.8066  -11.7352   17.5193 H   0  0  0  0  0  0
  -29.6466  -13.4612   17.7177 H   0  0  0  0  0  0
  -27.8962  -11.2802   18.8976 H   0  0  0  0  0  0
  -27.3917  -12.5314   17.7928 H   0  0  0  0  0  0
  -27.6434  -14.2450   19.4717 H   0  0  0  0  0  0
  -28.7330  -12.1295   21.3988 H   0  0  0  0  0  0
  -28.4228  -13.7951   21.8118 H   0  0  0  0  0  0
  -25.2780   -9.5683   22.4769 H   0  0  0  0  0  0
  -24.0008   -7.4637   22.7485 H   0  0  0  0  0  0
  -21.0851   -8.8802   19.8972 H   0  0  0  0  0  0
  -22.3721  -10.9693   19.6179 H   0  0  0  0  0  0
  -21.2007   -7.6156   23.9731 H   0  0  0  0  0  0
  -21.1474   -6.0524   25.9086 H   0  0  0  0  0  0
  -22.0597   -2.7617   23.2842 H   0  0  0  0  0  0
  -22.4056  -11.9915   22.4828 H   0  0  0  0  0  0
  -21.1098  -13.1319   22.2594 H   0  0  0  0  0  0
  -24.6434  -15.8341   20.5007 H   0  0  0  0  0  0
  -26.2473  -15.6262   20.0203 H   0  0  0  0  0  0
  -26.7205  -32.5402   23.1076 H   0  0  0  0  0  0
  -25.0088  -33.9698   25.0399 H   0  0  0  0  0  0
  -22.7264  -31.2975   21.3938 H   0  0  0  0  0  0
  -23.3763  -35.9603   23.3291 H   0  0  0  0  0  0
  -24.3588  -36.8906   22.2056 H   0  0  0  0  0  0
  -23.7246  -37.6470   23.6673 H   0  0  0  0  0  0
  -26.1183  -31.5252   20.6127 H   0  0  0  0  0  0
  -26.8518  -30.8145   22.0194 H   0  0  0  0  0  0
  -28.1322  -28.9260   21.2162 H   0  0  0  0  0  0
  -26.0033  -25.8894   19.0240 H   0  0  0  0  0  0
  -23.9827  -27.2946   19.0104 H   0  0  0  0  0  0
  -23.7720  -30.5779   19.4020 H   0  0  0  0  0  0
  -22.7698  -29.2351   19.8594 H   0  0  0  0  0  0
  -25.1309  -36.1900   25.0820 H   0  0  0  0  0  0
  -20.9985  -28.3271   24.1396 H   0  0  0  0  0  0
  -20.5669  -26.2308   23.3624 H   0  0  0  0  0  0
  -21.6644  -26.7426   22.1216 H   0  0  0  0  0  0
  -19.6913  -25.6278   21.1264 H   0  0  0  0  0  0
  -19.6702  -27.3172   20.6743 H   0  0  0  0  0  0
  -17.4210  -26.6684   21.4012 H   0  0  0  0  0  0
  -18.0316  -26.0069   22.9013 H   0  0  0  0  0  0
  -19.7940  -30.7280   24.2243 H   0  0  0  0  0  0
  -17.5014  -31.6271   24.5147 H   0  0  0  0  0  0
  -15.5348  -30.2967   23.7674 H   0  0  0  0  0  0
  -15.8676  -28.0806   22.7081 H   0  0  0  0  0  0
  -24.5878  -30.7104   25.7764 H   0  0  0  0  0  0
  -24.8908  -32.2923   26.4845 H   0  0  0  0  0  0
  -25.8009  -30.8927   27.0231 H   0  0  0  0  0  0
  -26.2937  -29.6737   24.1229 H   0  0  0  0  0  0
  -27.3976  -29.7250   25.4769 H   0  0  0  0  0  0
  -27.8838  -30.4245   23.9517 H   0  0  0  0  0  0
  -27.2656  -33.3630   26.2056 H   0  0  0  0  0  0
  -28.3866  -32.6867   25.0332 H   0  0  0  0  0  0
  -28.0708  -31.8460   26.5430 H   0  0  0  0  0  0
  -28.2594  -38.0097   24.7505 H   0  0  0  0  0  0
  -28.1084  -36.2623   24.6283 H   0  0  0  0  0  0
  -27.2300  -37.1435   25.8863 H   0  0  0  0  0  0
  -20.9401  -29.8748   21.6850 H   0  0  0  0  0  0
  -26.0165  -38.2839   24.1402 H   0  0  0  0  0  0
  -27.5716  -19.9288   19.8453 H   0  0  0  0  0  0
  -31.4914  -20.1086   21.5926 H   0  0  0  0  0  0
  -27.7599  -17.4941   19.7225 H   0  0  0  0  0  0
  -31.6971  -17.6701   21.4344 H   0  0  0  0  0  0
  -28.3897  -25.9754   22.0640 H   0  0  0  0  0  0
  -28.8622  -21.4325   23.1113 H   0  0  0  0  0  0
  -30.5175  -21.9901   22.7912 H   0  0  0  0  0  0
  -28.7484  -15.4707   20.7085 H   0  0  0  0  0  0
  1 25  1  0  0  0
  1 30  2  0  0  0
  1 83  1  0  0  0
  2  3  1  0  0  0
  2 25  1  0  0  0
  2 86  1  0  0  0
  2 87  1  0  0  0
  3  4  1  0  0  0
  3 88  1  0  0  0
  3 89  1  0  0  0
  4  5  1  0  0  0
  4 90  1  0  0  0
  4 91  1  0  0  0
  5  6  1  0  0  0
  5 26  1  0  0  0
  5 92  1  0  0  0
  6 25  1  0  0  0
  6 93  1  0  0  0
  6 94  1  0  0  0
  7  8  2  0  0  0
  7 26  1  0  0  0
  7 29  1  0  0  0
  8  9  1  0  0  0
  8 22  1  0  0  0
  9 10  1  0  0  0
  9 27  2  0  0  0
 10 11  2  0  0  0
 10 15  1  0  0  0
 11 12  1  0  0  0
 11 95  1  0  0  0
 12 13  2  0  0  0
 12 96  1  0  0  0
 13 14  1  0  0  0
 13 31  1  0  0  0
 14 15  2  0  0  0
 14 97  1  0  0  0
 15 98  1  0  0  0
 16 17  2  0  0  0
 16 21  1  0  0  0
 16 31  1  0  0  0
 17 18  1  0  0  0
 17 99  1  0  0  0
 18 19  2  0  0  0
 18100  1  0  0  0
 19 20  1  0  0  0
 19 24  1  0  0  0
 20 21  2  0  0  0
 20101  1  0  0  0
 21 23  1  0  0  0
 22 28  1  0  0  0
 22 32  2  0  0  0
 26 27  1  0  0  0
 28102  1  0  0  0
 28103  1  0  0  0
 29104  1  0  0  0
 29105  1  0  0  0
 33 34  1  0  0  0
 33 66  1  0  0  0
 33 70  2  0  0  0
 34 36  1  0  0  0
 34 59  1  0  0  0
 34106  1  0  0  0
 35 44  2  0  0  0
 35 45  1  0  0  0
 35 68  1  0  0  0
 36 56  1  0  0  0
 36107  1  0  0  0
 37 39  1  0  0  0
 37 47  1  0  0  0
 37 66  1  0  0  0
 37108  1  0  0  0
 38 43  2  0  0  0
 38 46  1  0  0  0
 38 47  1  0  0  0
 39 64  1  0  0  0
 39 67  2  0  0  0
 40 52  1  0  0  0
 40 53  2  0  0  0
 40 58  1  0  0  0
 41109  1  0  0  0
 41110  1  0  0  0
 41111  1  0  0  0
 41 48  1  0  0  0
 42 43  1  0  0  0
 42 66  1  0  0  0
 42112  1  0  0  0
 42113  1  0  0  0
 43 44  1  0  0  0
 44114  1  0  0  0
 45 46  2  0  0  0
 45115  1  0  0  0
 46116  1  0  0  0
 47117  1  0  0  0
 47118  1  0  0  0
 48 56  1  0  0  0
 48 65  1  0  0  0
 48119  1  0  0  0
 49 50  1  0  0  0
 49 53  1  0  0  0
 49 64  1  0  0  0
 49120  1  0  0  0
 50 51  1  0  0  0
 50121  1  0  0  0
 50122  1  0  0  0
 51 52  1  0  0  0
 51123  1  0  0  0
 51124  1  0  0  0
 52125  1  0  0  0
 52126  1  0  0  0
 53 54  1  0  0  0
 54 55  2  0  0  0
 54127  1  0  0  0
 55 57  1  0  0  0
 55128  1  0  0  0
 56 69  2  0  0  0
 57 58  2  0  0  0
 57129  1  0  0  0
 58130  1  0  0  0
 59 60  1  0  0  0
 59 61  1  0  0  0
 59 62  1  0  0  0
 60131  1  0  0  0
 60132  1  0  0  0
 60133  1  0  0  0
 61134  1  0  0  0
 61135  1  0  0  0
 61136  1  0  0  0
 62137  1  0  0  0
 62138  1  0  0  0
 62139  1  0  0  0
 63 65  1  0  0  0
 63140  1  0  0  0
 63141  1  0  0  0
 63142  1  0  0  0
 64143  1  0  0  0
 65144  1  0  0  0
 68 80  1  0  0  0
 71 73  2  0  0  0
 71 75  1  0  0  0
 71145  1  0  0  0
 72 74  1  0  0  0
 72 75  2  0  0  0
 72146  1  0  0  0
 73 76  1  0  0  0
 73147  1  0  0  0
 74 76  2  0  0  0
 74148  1  0  0  0
 75 82  1  0  0  0
 76 83  1  0  0  0
 77 78  1  0  0  0
 77 79  1  0  0  0
 77 80  2  0  0  0
 78 81  1  0  0  0
 78 84  2  0  0  0
 79 82  1  0  0  0
 79 85  2  0  0  0
 80149  1  0  0  0
 81 82  1  0  0  0
 81150  1  0  0  0
 81151  1  0  0  0
 83152  1  0  0  0
M  ISO  4   1 100  68 101  80 101  83 100
M  END
> <chiral flag>
0

> <version>
0

> <s_m_source_file>
/data/baiqing/PycharmProjects/Reinvent-master-3.2/result/LINK_invent/BTK/process_docking_weight1_custom_product_contain_oxygen_bond_distance_aromatic_linkinvent_7_9_3/rearranged_h_0081.sdf

> <i_m_source_file_index>
78

> <r_mmod_Potential_Energy-OPLS-2005>
288.390350341797

> <r_mmod_Stretch_Energy-OPLS-2005>
113.899597167969

> <r_mmod_Bend_Energy-OPLS-2005>
252.969711303711

> <r_mmod_Torsional_Energy-OPLS-2005>
300.813354492188

> <r_mmod_Improper_Torsional_Energy-OPLS-2005>
7.98848342895508

> <r_mmod_Van_der_Waal_Energy-OPLS-2005>
125.28759765625

> <r_mmod_Electrostatic_Energy-OPLS-2005>
-362.604187011719

> <r_mmod_Solvation_Energy-OPLS-2005>
-240.025238037109

> <b_mmod_Minimization_Converged-OPLS-2005>
0

> <r_mmod_RMS_Derivative-OPLS-2005>
1.27533888816833

$$$$
78
                    3D
 Structure written by MMmdl.
152161  0  0  1  0            999 V2000
  -30.5624  -14.7475   20.4770 C   0  0  0  0  0  0
  -30.4513  -12.4578   19.4657 C   0  0  0  0  0  0
  -29.5181  -12.5227   18.2336 C   0  0  0  0  0  0
  -28.0423  -12.3407   18.6439 C   0  0  0  0  0  0
  -27.6517  -13.2206   19.8607 C   0  0  2  0  0  0
  -28.6971  -13.1061   20.9932 C   0  0  0  0  0  0
  -25.2558  -13.8165   20.5675 C   0  0  0  0  0  0
  -24.1830  -13.0428   20.9180 C   0  0  0  0  0  0
  -24.6403  -11.6898   20.8729 C   0  0  0  0  0  0
  -23.9071  -10.4283   21.0395 C   0  0  0  0  0  0
  -24.3616   -9.4199   21.9177 C   0  0  0  0  0  0
  -23.6285   -8.2240   22.0756 C   0  0  0  0  0  0
  -22.4267   -8.0277   21.3546 C   0  0  0  0  0  0
  -21.9902   -9.0253   20.4653 C   0  0  0  0  0  0
  -22.7238  -10.2128   20.3052 C   0  0  0  0  0  0
  -21.6851   -6.0725   22.5273 C   0  0  0  0  0  0
  -21.4021   -6.5631   23.8206 C   0  0  0  0  0  0
  -21.3662   -5.6786   24.9168 C   0  0  0  0  0  0
  -21.6042   -4.3047   24.7218 C   0  0  0  0  0  0
  -21.8821   -3.8136   23.4340 C   0  0  0  0  0  0
  -21.9197   -4.6954   22.3399 C   0  0  0  0  0  0
  -22.7855  -13.5230   21.1834 C   0  0  0  0  0  0
  -22.1663   -4.2138   21.0975 F   0  0  0  0  0  0
  -21.5627   -3.4534   25.7733 F   0  0  0  0  0  0
  -30.0016  -13.4886   20.4284 N   0  0  0  0  0  0
  -26.2985  -12.9350   20.3300 N   0  0  0  0  0  0
  -25.9335  -11.6501   20.5740 N   0  0  0  0  0  0
  -22.0498  -12.8233   22.0399 N   0  0  0  0  0  0
  -25.4264  -15.1885   20.4071 N   0  0  0  0  0  0
  -31.7225  -14.9302   20.0923 O   0  0  0  0  0  0
  -21.6637   -6.8869   21.4234 O   0  0  0  0  0  0
  -22.3544  -14.5539   20.6681 O   0  0  0  0  0  0
  -24.6333  -31.8546   23.1981 C   0  0  0  0  0  0
  -25.9153  -32.4748   23.8340 C   0  0  1  0  0  0
  -27.2267  -27.2643   20.1301 C   0  0  0  0  0  0
  -25.5939  -33.8549   24.2260 N   0  0  0  0  0  0
  -23.4323  -30.4763   21.5405 C   0  0  2  0  0  0
  -24.8830  -28.9231   20.1103 C   0  0  0  0  0  0
  -22.7521  -29.4598   22.4897 C   0  0  0  0  0  0
  -18.0291  -28.1388   22.8473 C   0  0  0  0  0  0
  -24.1490  -36.7282   23.2642 C   0  0  0  0  0  0
  -25.9787  -30.7673   21.3797 C   0  0  0  0  0  0
  -26.0550  -29.3901   20.7211 C   0  0  0  0  0  0
  -27.2334  -28.5734   20.7209 C   0  0  0  0  0  0
  -26.0352  -26.8643   19.4911 C   0  0  0  0  0  0
  -24.8779  -27.6675   19.4829 C   0  0  0  0  0  0
  -23.6532  -29.8105   20.1570 C   0  0  0  0  0  0
  -25.4116  -36.3066   24.0324 C   0  0  1  0  0  0
  -20.5899  -28.3710   23.1251 C   0  0  2  0  0  0
  -20.6779  -26.9423   22.5405 C   0  0  0  0  0  0
  -19.5756  -26.6384   21.5207 C   0  0  0  0  0  0
  -18.1935  -26.7927   22.1616 C   0  0  0  0  0  0
  -19.1548  -28.8865   23.2855 C   0  0  0  0  0  0
  -18.9467  -30.1462   23.8881 C   0  0  0  0  0  0
  -17.6468  -30.6588   24.0560 C   0  0  0  0  0  0
  -25.9056  -34.9434   23.5093 C   0  0  0  0  0  0
  -16.5358  -29.9086   23.6328 C   0  0  0  0  0  0
  -16.7278  -28.6503   23.0345 C   0  0  0  0  0  0
  -26.4515  -31.6576   25.0735 C   0  0  0  0  0  0
  -25.3738  -31.3732   26.1458 C   0  0  0  0  0  0
  -27.0371  -30.2987   24.6245 C   0  0  0  0  0  0
  -27.6062  -32.4328   25.7507 C   0  0  0  0  0  0
  -27.5575  -37.1801   24.8466 C   0  0  0  0  0  0
  -21.4225  -29.3054   22.3645 N   0  0  0  0  0  0
  -26.4287  -37.3767   23.9406 N   0  0  0  0  0  0
  -24.7003  -31.0507   22.0957 N   0  0  0  0  0  0
  -23.4208  -28.8142   23.3008 O   0  0  0  0  0  0
  -28.2783  -26.3197   20.1648 O   0  0  0  0  0  0
  -26.5630  -34.8912   22.4663 O   0  0  0  0  0  0
  -23.5475  -32.1366   23.7266 O   0  0  0  0  0  0
  -28.3832  -19.3352   21.3764 C   0  0  0  0  0  0
  -28.5930  -17.9225   21.4246 C   0  0  0  0  0  0
  -30.4603  -18.1557   19.9838 C   0  0  0  0  0  0
  -29.1740  -20.2691   20.6432 C   0  0  0  0  0  0
  -29.6440  -17.2601   20.7404 C   0  0  0  0  0  0
  -30.2273  -19.5868   19.9342 C   0  0  0  0  0  0
  -28.4019  -23.7625   20.7169 C   0  0  0  0  0  0
  -28.0797  -22.6614   21.4424 C   0  0  0  0  0  0
  -27.2832  -22.5340   22.5148 C   0  0  0  0  0  0
  -28.0037  -25.0971   20.8416 C   0  0  0  0  0  0
  -29.2897  -22.8468   19.8355 C   0  0  0  0  0  0
  -28.8433  -21.7298   20.7210 N   0  0  0  0  0  0
  -29.7105  -15.7742   20.8508 N   0  0  0  0  0  0
  -31.0672  -20.3332   19.1756 F   0  0  0  0  0  0
  -31.4885  -12.6085   19.1618 H   0  0  0  0  0  0
  -30.4152  -11.4687   19.9254 H   0  0  0  0  0  0
  -29.8009  -11.7612   17.5054 H   0  0  0  0  0  0
  -29.6407  -13.4833   17.7310 H   0  0  0  0  0  0
  -27.8945  -11.2880   18.8888 H   0  0  0  0  0  0
  -27.3868  -12.5523   17.7983 H   0  0  0  0  0  0
  -27.6585  -14.2509   19.5036 H   0  0  0  0  0  0
  -28.7350  -12.0868   21.3802 H   0  0  0  0  0  0
  -28.4241  -13.7345   21.8417 H   0  0  0  0  0  0
  -25.2763   -9.5675   22.4746 H   0  0  0  0  0  0
  -23.9989   -7.4639   22.7484 H   0  0  0  0  0  0
  -21.0828   -8.8776   19.8969 H   0  0  0  0  0  0
  -22.3694  -10.9662   19.6158 H   0  0  0  0  0  0
  -21.2018   -7.6140   23.9703 H   0  0  0  0  0  0
  -21.1486   -6.0516   25.9070 H   0  0  0  0  0  0
  -22.0603   -2.7598   23.2841 H   0  0  0  0  0  0
  -22.4105  -11.9892   22.4791 H   0  0  0  0  0  0
  -21.1129  -13.1282   22.2622 H   0  0  0  0  0  0
  -24.6517  -15.8367   20.4959 H   0  0  0  0  0  0
  -26.2644  -15.6235   20.0434 H   0  0  0  0  0  0
  -26.7224  -32.5403   23.1086 H   0  0  0  0  0  0
  -25.0095  -33.9689   25.0413 H   0  0  0  0  0  0
  -22.7291  -31.2984   21.3927 H   0  0  0  0  0  0
  -23.3745  -35.9623   23.3314 H   0  0  0  0  0  0
  -24.3580  -36.8896   22.2056 H   0  0  0  0  0  0
  -23.7257  -37.6491   23.6660 H   0  0  0  0  0  0
  -26.1206  -31.5286   20.6121 H   0  0  0  0  0  0
  -26.8538  -30.8154   22.0158 H   0  0  0  0  0  0
  -28.1302  -28.9221   21.2132 H   0  0  0  0  0  0
  -25.9935  -25.8936   19.0169 H   0  0  0  0  0  0
  -23.9826  -27.3033   18.9984 H   0  0  0  0  0  0
  -23.7805  -30.5879   19.4026 H   0  0  0  0  0  0
  -22.7720  -29.2456   19.8486 H   0  0  0  0  0  0
  -25.1299  -36.1914   25.0816 H   0  0  0  0  0  0
  -20.9983  -28.3293   24.1375 H   0  0  0  0  0  0
  -20.5674  -26.2325   23.3616 H   0  0  0  0  0  0
  -21.6647  -26.7443   22.1207 H   0  0  0  0  0  0
  -19.6928  -25.6293   21.1245 H   0  0  0  0  0  0
  -19.6690  -27.3185   20.6727 H   0  0  0  0  0  0
  -17.4206  -26.6660   21.4020 H   0  0  0  0  0  0
  -18.0341  -26.0076   22.9020 H   0  0  0  0  0  0
  -19.7947  -30.7275   24.2243 H   0  0  0  0  0  0
  -17.5025  -31.6264   24.5171 H   0  0  0  0  0  0
  -15.5360  -30.2983   23.7664 H   0  0  0  0  0  0
  -15.8673  -28.0825   22.7061 H   0  0  0  0  0  0
  -24.5895  -30.7102   25.7788 H   0  0  0  0  0  0
  -24.8956  -32.2903   26.4902 H   0  0  0  0  0  0
  -25.8055  -30.8892   27.0227 H   0  0  0  0  0  0
  -26.2966  -29.6720   24.1260 H   0  0  0  0  0  0
  -27.4027  -29.7266   25.4786 H   0  0  0  0  0  0
  -27.8855  -30.4250   23.9516 H   0  0  0  0  0  0
  -27.2660  -33.3623   26.2084 H   0  0  0  0  0  0
  -28.3868  -32.6900   25.0336 H   0  0  0  0  0  0
  -28.0740  -31.8464   26.5427 H   0  0  0  0  0  0
  -28.2599  -38.0091   24.7494 H   0  0  0  0  0  0
  -28.1057  -36.2618   24.6303 H   0  0  0  0  0  0
  -27.2291  -37.1473   25.8870 H   0  0  0  0  0  0
  -20.9418  -29.8772   21.6842 H   0  0  0  0  0  0
  -26.0163  -38.2841   24.1392 H   0  0  0  0  0  0
  -27.5449  -19.7128   21.9404 H   0  0  0  0  0  0
  -27.9034  -17.3377   22.0180 H   0  0  0  0  0  0
  -31.2821  -17.7525   19.4109 H   0  0  0  0  0  0
  -26.7707  -23.3856   22.9393 H   0  0  0  0  0  0
  -27.1326  -21.5824   23.0004 H   0  0  0  0  0  0
  -27.3218  -25.3121   21.6538 H   0  0  0  0  0  0
  -30.3693  -22.9948   19.8829 H   0  0  0  0  0  0
  -28.9735  -22.6916   18.8027 H   0  0  0  0  0  0
  -28.8666  -15.3801   21.2383 H   0  0  0  0  0  0
  1 25  1  0  0  0
  1 30  2  0  0  0
  1 83  1  0  0  0
  2  3  1  0  0  0
  2 25  1  0  0  0
  2 85  1  0  0  0
  2 86  1  0  0  0
  3  4  1  0  0  0
  3 87  1  0  0  0
  3 88  1  0  0  0
  4  5  1  0  0  0
  4 89  1  0  0  0
  4 90  1  0  0  0
  5  6  1  0  0  0
  5 26  1  0  0  0
  5 91  1  0  0  0
  6 25  1  0  0  0
  6 92  1  0  0  0
  6 93  1  0  0  0
  7  8  2  0  0  0
  7 26  1  0  0  0
  7 29  1  0  0  0
  8  9  1  0  0  0
  8 22  1  0  0  0
  9 10  1  0  0  0
  9 27  2  0  0  0
 10 11  2  0  0  0
 10 15  1  0  0  0
 11 12  1  0  0  0
 11 94  1  0  0  0
 12 13  2  0  0  0
 12 95  1  0  0  0
 13 14  1  0  0  0
 13 31  1  0  0  0
 14 15  2  0  0  0
 14 96  1  0  0  0
 15 97  1  0  0  0
 16 17  2  0  0  0
 16 21  1  0  0  0
 16 31  1  0  0  0
 17 18  1  0  0  0
 17 98  1  0  0  0
 18 19  2  0  0  0
 18 99  1  0  0  0
 19 20  1  0  0  0
 19 24  1  0  0  0
 20 21  2  0  0  0
 20100  1  0  0  0
 21 23  1  0  0  0
 22 28  1  0  0  0
 22 32  2  0  0  0
 26 27  1  0  0  0
 28101  1  0  0  0
 28102  1  0  0  0
 29103  1  0  0  0
 29104  1  0  0  0
 33 34  1  0  0  0
 33 66  1  0  0  0
 33 70  2  0  0  0
 34 36  1  0  0  0
 34 59  1  0  0  0
 34105  1  0  0  0
 35 44  2  0  0  0
 35 45  1  0  0  0
 35 68  1  0  0  0
 36 56  1  0  0  0
 36106  1  0  0  0
 37 39  1  0  0  0
 37 47  1  0  0  0
 37 66  1  0  0  0
 37107  1  0  0  0
 38 43  2  0  0  0
 38 46  1  0  0  0
 38 47  1  0  0  0
 39 64  1  0  0  0
 39 67  2  0  0  0
 40 52  1  0  0  0
 40 53  2  0  0  0
 40 58  1  0  0  0
 41108  1  0  0  0
 41109  1  0  0  0
 41110  1  0  0  0
 41 48  1  0  0  0
 42 43  1  0  0  0
 42 66  1  0  0  0
 42111  1  0  0  0
 42112  1  0  0  0
 43 44  1  0  0  0
 44113  1  0  0  0
 45 46  2  0  0  0
 45114  1  0  0  0
 46115  1  0  0  0
 47116  1  0  0  0
 47117  1  0  0  0
 48 56  1  0  0  0
 48 65  1  0  0  0
 48118  1  0  0  0
 49 50  1  0  0  0
 49 53  1  0  0  0
 49 64  1  0  0  0
 49119  1  0  0  0
 50 51  1  0  0  0
 50120  1  0  0  0
 50121  1  0  0  0
 51 52  1  0  0  0
 51122  1  0  0  0
 51123  1  0  0  0
 52124  1  0  0  0
 52125  1  0  0  0
 53 54  1  0  0  0
 54 55  2  0  0  0
 54126  1  0  0  0
 55 57  1  0  0  0
 55127  1  0  0  0
 56 69  2  0  0  0
 57 58  2  0  0  0
 57128  1  0  0  0
 58129  1  0  0  0
 59 60  1  0  0  0
 59 61  1  0  0  0
 59 62  1  0  0  0
 60130  1  0  0  0
 60131  1  0  0  0
 60132  1  0  0  0
 61133  1  0  0  0
 61134  1  0  0  0
 61135  1  0  0  0
 62136  1  0  0  0
 62137  1  0  0  0
 62138  1  0  0  0
 63 65  1  0  0  0
 63139  1  0  0  0
 63140  1  0  0  0
 63141  1  0  0  0
 64142  1  0  0  0
 65143  1  0  0  0
 68 80  1  0  0  0
 71 72  2  0  0  0
 71 74  1  0  0  0
 71144  1  0  0  0
 72 75  1  0  0  0
 72145  1  0  0  0
 73 75  2  0  0  0
 73 76  1  0  0  0
 73146  1  0  0  0
 74 76  2  0  0  0
 74 82  1  0  0  0
 75 83  1  0  0  0
 76 84  1  0  0  0
 77 78  1  0  0  0
 77 80  2  0  0  0
 77 81  1  0  0  0
 78 79  2  0  0  0
 78 82  1  0  0  0
 79147  1  0  0  0
 79148  1  0  0  0
 80149  1  0  0  0
 81 82  1  0  0  0
 81150  1  0  0  0
 81151  1  0  0  0
 83152  1  0  0  0
M  ISO  4   1 100  68 101  80 101  83 100
M  END
> <chiral flag>
0

> <version>
0

> <s_m_source_file>
/data/baiqing/PycharmProjects/Reinvent-master-3.2/result/LINK_invent/BTK/process_docking_weight1_custom_product_contain_oxygen_bond_distance_aromatic_linkinvent_7_9_3/rearranged_h_0081.sdf

> <i_m_source_file_index>
79

> <r_mmod_Potential_Energy-OPLS-2005>
252.761566162109

> <r_mmod_Stretch_Energy-OPLS-2005>
109.736061096191

> <r_mmod_Bend_Energy-OPLS-2005>
252.677490234375

> <r_mmod_Torsional_Energy-OPLS-2005>
226.674621582031

> <r_mmod_Improper_Torsional_Energy-OPLS-2005>
3.57740569114685

> <r_mmod_Van_der_Waal_Energy-OPLS-2005>
133.070419311523

> <r_mmod_Electrostatic_Energy-OPLS-2005>
-359.393310546875

> <r_mmod_Solvation_Energy-OPLS-2005>
-203.195617675781

> <b_mmod_Minimization_Converged-OPLS-2005>
0

> <r_mmod_RMS_Derivative-OPLS-2005>
1.10564982891083

$$$$
79
                    3D
 Structure written by MMmdl.
147155  0  0  1  0            999 V2000
  -30.5723  -14.7171   20.4715 C   0  0  0  0  0  0
  -30.4478  -12.4368   19.4577 C   0  0  0  0  0  0
  -29.5133  -12.5095   18.2276 C   0  0  0  0  0  0
  -28.0364  -12.3361   18.6394 C   0  0  0  0  0  0
  -27.6488  -13.2171   19.8556 C   0  0  2  0  0  0
  -28.6943  -13.0966   20.9871 C   0  0  0  0  0  0
  -25.2539  -13.8158   20.5636 C   0  0  0  0  0  0
  -24.1827  -13.0423   20.9201 C   0  0  0  0  0  0
  -24.6403  -11.6898   20.8757 C   0  0  0  0  0  0
  -23.9069  -10.4284   21.0419 C   0  0  0  0  0  0
  -24.3621   -9.4199   21.9193 C   0  0  0  0  0  0
  -23.6300   -8.2234   22.0755 C   0  0  0  0  0  0
  -22.4278   -8.0282   21.3547 C   0  0  0  0  0  0
  -21.9912   -9.0256   20.4647 C   0  0  0  0  0  0
  -22.7241  -10.2134   20.3065 C   0  0  0  0  0  0
  -21.6838   -6.0744   22.5287 C   0  0  0  0  0  0
  -21.4010   -6.5647   23.8224 C   0  0  0  0  0  0
  -21.3661   -5.6801   24.9187 C   0  0  0  0  0  0
  -21.6040   -4.3063   24.7235 C   0  0  0  0  0  0
  -21.8816   -3.8151   23.4357 C   0  0  0  0  0  0
  -21.9190   -4.6971   22.3412 C   0  0  0  0  0  0
  -22.7850  -13.5219   21.1858 C   0  0  0  0  0  0
  -22.1655   -4.2156   21.0989 F   0  0  0  0  0  0
  -21.5631   -3.4549   25.7747 F   0  0  0  0  0  0
  -30.0009  -13.4672   20.4191 N   0  0  0  0  0  0
  -26.2965  -12.9335   20.3267 N   0  0  0  0  0  0
  -25.9327  -11.6495   20.5759 N   0  0  0  0  0  0
  -22.0497  -12.8216   22.0423 N   0  0  0  0  0  0
  -25.4194  -15.1866   20.3921 N   0  0  0  0  0  0
  -31.7456  -14.8880   20.1239 O   0  0  0  0  0  0
  -21.6636   -6.8882   21.4247 O   0  0  0  0  0  0
  -22.3535  -14.5521   20.6699 O   0  0  0  0  0  0
  -24.6264  -31.8582   23.2000 C   0  0  0  0  0  0
  -25.9100  -32.4779   23.8337 C   0  0  1  0  0  0
  -27.2207  -27.2875   20.1279 C   0  0  0  0  0  0
  -25.5900  -33.8581   24.2258 N   0  0  0  0  0  0
  -23.4232  -30.4793   21.5442 C   0  0  2  0  0  0
  -24.8728  -28.9295   20.1120 C   0  0  0  0  0  0
  -22.7472  -29.4609   22.4933 C   0  0  0  0  0  0
  -18.0282  -28.1377   22.8494 C   0  0  0  0  0  0
  -24.1495  -36.7297   23.2643 C   0  0  0  0  0  0
  -25.9668  -30.7778   21.3778 C   0  0  0  0  0  0
  -26.0430  -29.4009   20.7233 C   0  0  0  0  0  0
  -27.2222  -28.5899   20.7252 C   0  0  0  0  0  0
  -26.0329  -26.8807   19.4838 C   0  0  0  0  0  0
  -24.8707  -27.6753   19.4833 C   0  0  0  0  0  0
  -23.6417  -29.8124   20.1603 C   0  0  0  0  0  0
  -25.4124  -36.3087   24.0325 C   0  0  1  0  0  0
  -20.5888  -28.3686   23.1293 C   0  0  2  0  0  0
  -20.6784  -26.9414   22.5413 C   0  0  0  0  0  0
  -19.5754  -26.6383   21.5223 C   0  0  0  0  0  0
  -18.1934  -26.7912   22.1641 C   0  0  0  0  0  0
  -19.1537  -28.8846   23.2884 C   0  0  0  0  0  0
  -18.9461  -30.1446   23.8902 C   0  0  0  0  0  0
  -17.6467  -30.6589   24.0562 C   0  0  0  0  0  0
  -25.9058  -34.9455   23.5101 C   0  0  0  0  0  0
  -16.5356  -29.9091   23.6330 C   0  0  0  0  0  0
  -16.7269  -28.6502   23.0360 C   0  0  0  0  0  0
  -26.4474  -31.6587   25.0709 C   0  0  0  0  0  0
  -25.3702  -31.3741   26.1431 C   0  0  0  0  0  0
  -27.0307  -30.3011   24.6155 C   0  0  0  0  0  0
  -27.6029  -32.4315   25.7485 C   0  0  0  0  0  0
  -27.5575  -37.1813   24.8466 C   0  0  0  0  0  0
  -21.4180  -29.3036   22.3675 N   0  0  0  0  0  0
  -26.4300  -37.3781   23.9389 N   0  0  0  0  0  0
  -24.6909  -31.0559   22.0974 N   0  0  0  0  0  0
  -23.4182  -28.8149   23.3026 O   0  0  0  0  0  0
  -28.2966  -26.3778   20.1553 O   0  0  0  0  0  0
  -26.5644  -34.8917   22.4677 O   0  0  0  0  0  0
  -23.5416  -32.1393   23.7307 O   0  0  0  0  0  0
  -28.5190  -23.8225   20.3076 C   0  0  0  0  0  0
  -28.4660  -19.3960   20.9148 C   0  0  0  0  0  0
  -30.7684  -19.4789   20.2680 C   0  0  0  0  0  0
  -28.5416  -17.9648   20.9345 C   0  0  0  0  0  0
  -30.8452  -18.0435   20.2865 C   0  0  0  0  0  0
  -29.5851  -20.2107   20.5956 C   0  0  0  0  0  0
  -29.7318  -17.2320   20.6446 C   0  0  0  0  0  0
  -28.0234  -25.0484   20.5820 C   0  0  0  0  0  0
  -29.5929  -21.7606   20.7719 C   0  0  0  0  0  0
  -28.6650  -22.6003   20.0952 N   0  0  0  0  0  0
  -29.7052  -15.7554   20.7528 N   0  0  0  0  0  0
  -30.4876  -22.2008   21.4970 O   0  0  0  0  0  0
  -31.4847  -12.5856   19.1505 H   0  0  0  0  0  0
  -30.4104  -11.4471   19.9160 H   0  0  0  0  0  0
  -29.7887  -11.7454   17.4992 H   0  0  0  0  0  0
  -29.6417  -13.4699   17.7247 H   0  0  0  0  0  0
  -27.8802  -11.2844   18.8836 H   0  0  0  0  0  0
  -27.3816  -12.5522   17.7948 H   0  0  0  0  0  0
  -27.6569  -14.2468   19.4988 H   0  0  0  0  0  0
  -28.7248  -12.0770   21.3748 H   0  0  0  0  0  0
  -28.4285  -13.7306   21.8346 H   0  0  0  0  0  0
  -25.2766   -9.5678   22.4772 H   0  0  0  0  0  0
  -24.0015   -7.4616   22.7462 H   0  0  0  0  0  0
  -21.0848   -8.8773   19.8946 H   0  0  0  0  0  0
  -22.3696  -10.9681   19.6183 H   0  0  0  0  0  0
  -21.1995   -7.6155   23.9730 H   0  0  0  0  0  0
  -21.1482   -6.0531   25.9089 H   0  0  0  0  0  0
  -22.0591   -2.7614   23.2859 H   0  0  0  0  0  0
  -22.4134  -11.9897   22.4828 H   0  0  0  0  0  0
  -21.1112  -13.1232   22.2625 H   0  0  0  0  0  0
  -24.6227  -15.8135   20.4356 H   0  0  0  0  0  0
  -26.2199  -15.5989   19.9307 H   0  0  0  0  0  0
  -26.7158  -32.5445   23.1072 H   0  0  0  0  0  0
  -24.9981  -33.9721   25.0353 H   0  0  0  0  0  0
  -22.7183  -31.3010   21.3985 H   0  0  0  0  0  0
  -23.3747  -35.9642   23.3331 H   0  0  0  0  0  0
  -24.3577  -36.8888   22.2050 H   0  0  0  0  0  0
  -23.7257  -37.6512   23.6648 H   0  0  0  0  0  0
  -26.0997  -31.5385   20.6074 H   0  0  0  0  0  0
  -26.8465  -30.8305   22.0075 H   0  0  0  0  0  0
  -28.1176  -28.9415   21.2177 H   0  0  0  0  0  0
  -25.9925  -25.9165   18.9970 H   0  0  0  0  0  0
  -23.9750  -27.3095   18.9994 H   0  0  0  0  0  0
  -23.7630  -30.5879   19.4028 H   0  0  0  0  0  0
  -22.7612  -29.2420   19.8587 H   0  0  0  0  0  0
  -25.1316  -36.1951   25.0822 H   0  0  0  0  0  0
  -20.9974  -28.3260   24.1420 H   0  0  0  0  0  0
  -20.5705  -26.2293   23.3606 H   0  0  0  0  0  0
  -21.6649  -26.7461   22.1195 H   0  0  0  0  0  0
  -19.6924  -25.6294   21.1248 H   0  0  0  0  0  0
  -19.6684  -27.3204   20.6760 H   0  0  0  0  0  0
  -17.4198  -26.6629   21.4054 H   0  0  0  0  0  0
  -18.0357  -26.0062   22.9050 H   0  0  0  0  0  0
  -19.7939  -30.7247   24.2286 H   0  0  0  0  0  0
  -17.5030  -31.6277   24.5144 H   0  0  0  0  0  0
  -15.5356  -30.3005   23.7649 H   0  0  0  0  0  0
  -15.8659  -28.0822   22.7095 H   0  0  0  0  0  0
  -24.5795  -30.7205   25.7729 H   0  0  0  0  0  0
  -24.9002  -32.2933   26.4942 H   0  0  0  0  0  0
  -25.7998  -30.8798   27.0152 H   0  0  0  0  0  0
  -26.2881  -29.6777   24.1159 H   0  0  0  0  0  0
  -27.3989  -29.7248   25.4650 H   0  0  0  0  0  0
  -27.8761  -30.4302   23.9391 H   0  0  0  0  0  0
  -27.2631  -33.3595   26.2097 H   0  0  0  0  0  0
  -28.3826  -32.6906   25.0312 H   0  0  0  0  0  0
  -28.0705  -31.8415   26.5371 H   0  0  0  0  0  0
  -28.2623  -38.0085   24.7488 H   0  0  0  0  0  0
  -28.1042  -36.2608   24.6345 H   0  0  0  0  0  0
  -27.2273  -37.1528   25.8868 H   0  0  0  0  0  0
  -20.9362  -29.8758   21.6884 H   0  0  0  0  0  0
  -26.0185  -38.2863   24.1370 H   0  0  0  0  0  0
  -27.5354  -19.8713   21.1928 H   0  0  0  0  0  0
  -31.6666  -20.0333   20.0336 H   0  0  0  0  0  0
  -27.6464  -17.4229   21.2079 H   0  0  0  0  0  0
  -31.7889  -17.5755   20.0457 H   0  0  0  0  0  0
  -27.2139  -25.0924   21.2984 H   0  0  0  0  0  0
  -28.8033  -15.3947   21.0243 H   0  0  0  0  0  0
  1 25  1  0  0  0
  1 30  2  0  0  0
  1 81  1  0  0  0
  2  3  1  0  0  0
  2 25  1  0  0  0
  2 83  1  0  0  0
  2 84  1  0  0  0
  3  4  1  0  0  0
  3 85  1  0  0  0
  3 86  1  0  0  0
  4  5  1  0  0  0
  4 87  1  0  0  0
  4 88  1  0  0  0
  5  6  1  0  0  0
  5 26  1  0  0  0
  5 89  1  0  0  0
  6 25  1  0  0  0
  6 90  1  0  0  0
  6 91  1  0  0  0
  7  8  2  0  0  0
  7 26  1  0  0  0
  7 29  1  0  0  0
  8  9  1  0  0  0
  8 22  1  0  0  0
  9 10  1  0  0  0
  9 27  2  0  0  0
 10 11  2  0  0  0
 10 15  1  0  0  0
 11 12  1  0  0  0
 11 92  1  0  0  0
 12 13  2  0  0  0
 12 93  1  0  0  0
 13 14  1  0  0  0
 13 31  1  0  0  0
 14 15  2  0  0  0
 14 94  1  0  0  0
 15 95  1  0  0  0
 16 17  2  0  0  0
 16 21  1  0  0  0
 16 31  1  0  0  0
 17 18  1  0  0  0
 17 96  1  0  0  0
 18 19  2  0  0  0
 18 97  1  0  0  0
 19 20  1  0  0  0
 19 24  1  0  0  0
 20 21  2  0  0  0
 20 98  1  0  0  0
 21 23  1  0  0  0
 22 28  1  0  0  0
 22 32  2  0  0  0
 26 27  1  0  0  0
 28 99  1  0  0  0
 28100  1  0  0  0
 29101  1  0  0  0
 29102  1  0  0  0
 33 34  1  0  0  0
 33 66  1  0  0  0
 33 70  2  0  0  0
 34 36  1  0  0  0
 34 59  1  0  0  0
 34103  1  0  0  0
 35 44  2  0  0  0
 35 45  1  0  0  0
 35 68  1  0  0  0
 36 56  1  0  0  0
 36104  1  0  0  0
 37 39  1  0  0  0
 37 47  1  0  0  0
 37 66  1  0  0  0
 37105  1  0  0  0
 38 43  2  0  0  0
 38 46  1  0  0  0
 38 47  1  0  0  0
 39 64  1  0  0  0
 39 67  2  0  0  0
 40 52  1  0  0  0
 40 53  2  0  0  0
 40 58  1  0  0  0
 41106  1  0  0  0
 41107  1  0  0  0
 41108  1  0  0  0
 41 48  1  0  0  0
 42 43  1  0  0  0
 42 66  1  0  0  0
 42109  1  0  0  0
 42110  1  0  0  0
 43 44  1  0  0  0
 44111  1  0  0  0
 45 46  2  0  0  0
 45112  1  0  0  0
 46113  1  0  0  0
 47114  1  0  0  0
 47115  1  0  0  0
 48 56  1  0  0  0
 48 65  1  0  0  0
 48116  1  0  0  0
 49 50  1  0  0  0
 49 53  1  0  0  0
 49 64  1  0  0  0
 49117  1  0  0  0
 50 51  1  0  0  0
 50118  1  0  0  0
 50119  1  0  0  0
 51 52  1  0  0  0
 51120  1  0  0  0
 51121  1  0  0  0
 52122  1  0  0  0
 52123  1  0  0  0
 53 54  1  0  0  0
 54 55  2  0  0  0
 54124  1  0  0  0
 55 57  1  0  0  0
 55125  1  0  0  0
 56 69  2  0  0  0
 57 58  2  0  0  0
 57126  1  0  0  0
 58127  1  0  0  0
 59 60  1  0  0  0
 59 61  1  0  0  0
 59 62  1  0  0  0
 60128  1  0  0  0
 60129  1  0  0  0
 60130  1  0  0  0
 61131  1  0  0  0
 61132  1  0  0  0
 61133  1  0  0  0
 62134  1  0  0  0
 62135  1  0  0  0
 62136  1  0  0  0
 63 65  1  0  0  0
 63137  1  0  0  0
 63138  1  0  0  0
 63139  1  0  0  0
 64140  1  0  0  0
 65141  1  0  0  0
 68 78  1  0  0  0
 71 78  2  0  0  0
 71 80  2  0  0  0
 72 74  2  0  0  0
 72 76  1  0  0  0
 72142  1  0  0  0
 73 75  1  0  0  0
 73 76  2  0  0  0
 73143  1  0  0  0
 74 77  1  0  0  0
 74144  1  0  0  0
 75 77  2  0  0  0
 75145  1  0  0  0
 76 79  1  0  0  0
 77 81  1  0  0  0
 78146  1  0  0  0
 79 80  1  0  0  0
 79 82  2  0  0  0
 81147  1  0  0  0
M  ISO  4   1 100  68 101  78 101  81 100
M  END
> <chiral flag>
0

> <version>
0

> <s_m_source_file>
/data/baiqing/PycharmProjects/Reinvent-master-3.2/result/LINK_invent/BTK/process_docking_weight1_custom_product_contain_oxygen_bond_distance_aromatic_linkinvent_7_9_3/rearranged_h_0081.sdf

> <i_m_source_file_index>
80

> <r_mmod_Potential_Energy-OPLS-2005>
74.8328475952148

> <r_mmod_Stretch_Energy-OPLS-2005>
92.1393814086914

> <r_mmod_Bend_Energy-OPLS-2005>
153.313568115234

> <r_mmod_Torsional_Energy-OPLS-2005>
176.239059448242

> <r_mmod_Improper_Torsional_Energy-OPLS-2005>
6.16555452346802

> <r_mmod_Van_der_Waal_Energy-OPLS-2005>
141.20524597168

> <r_mmod_Electrostatic_Energy-OPLS-2005>
-367.582580566406

> <r_mmod_Solvation_Energy-OPLS-2005>
-200.962783813477

> <b_mmod_Minimization_Converged-OPLS-2005>
0

> <r_mmod_RMS_Derivative-OPLS-2005>
1.59745025634766

$$$$
80
                    3D
 Structure written by MMmdl.
151160  0  0  1  0            999 V2000
  -30.5817  -14.7478   20.4399 C   0  0  0  0  0  0
  -30.4534  -12.4487   19.4609 C   0  0  0  0  0  0
  -29.5164  -12.5048   18.2318 C   0  0  0  0  0  0
  -28.0409  -12.3323   18.6468 C   0  0  0  0  0  0
  -27.6528  -13.2229   19.8574 C   0  0  2  0  0  0
  -28.7056  -13.1230   20.9857 C   0  0  0  0  0  0
  -25.2572  -13.8177   20.5699 C   0  0  0  0  0  0
  -24.1835  -13.0431   20.9159 C   0  0  0  0  0  0
  -24.6417  -11.6907   20.8726 C   0  0  0  0  0  0
  -23.9083  -10.4303   21.0403 C   0  0  0  0  0  0
  -24.3628   -9.4221   21.9172 C   0  0  0  0  0  0
  -23.6306   -8.2257   22.0751 C   0  0  0  0  0  0
  -22.4285   -8.0293   21.3545 C   0  0  0  0  0  0
  -21.9920   -9.0272   20.4649 C   0  0  0  0  0  0
  -22.7255  -10.2148   20.3057 C   0  0  0  0  0  0
  -21.6864   -6.0739   22.5274 C   0  0  0  0  0  0
  -21.4024   -6.5646   23.8203 C   0  0  0  0  0  0
  -21.3660   -5.6800   24.9169 C   0  0  0  0  0  0
  -21.6042   -4.3060   24.7219 C   0  0  0  0  0  0
  -21.8824   -3.8153   23.4342 C   0  0  0  0  0  0
  -21.9200   -4.6970   22.3404 C   0  0  0  0  0  0
  -22.7853  -13.5225   21.1809 C   0  0  0  0  0  0
  -22.1660   -4.2152   21.0991 F   0  0  0  0  0  0
  -21.5637   -3.4547   25.7742 F   0  0  0  0  0  0
  -30.0089  -13.4939   20.4093 N   0  0  0  0  0  0
  -26.3017  -12.9373   20.3357 N   0  0  0  0  0  0
  -25.9355  -11.6521   20.5763 N   0  0  0  0  0  0
  -22.0506  -12.8230   22.0388 N   0  0  0  0  0  0
  -25.4333  -15.1885   20.4189 N   0  0  0  0  0  0
  -31.7513  -14.9105   20.0756 O   0  0  0  0  0  0
  -21.6652   -6.8883   21.4244 O   0  0  0  0  0  0
  -22.3515  -14.5512   20.6652 O   0  0  0  0  0  0
  -24.6303  -31.8546   23.1964 C   0  0  0  0  0  0
  -25.9121  -32.4747   23.8313 C   0  0  1  0  0  0
  -27.2322  -27.2684   20.1178 C   0  0  0  0  0  0
  -25.5906  -33.8554   24.2234 N   0  0  0  0  0  0
  -23.4294  -30.4738   21.5401 C   0  0  2  0  0  0
  -24.8808  -28.9191   20.1112 C   0  0  0  0  0  0
  -22.7502  -29.4597   22.4910 C   0  0  0  0  0  0
  -18.0301  -28.1370   22.8490 C   0  0  0  0  0  0
  -24.1490  -36.7293   23.2644 C   0  0  0  0  0  0
  -25.9734  -30.7663   21.3778 C   0  0  0  0  0  0
  -26.0521  -29.3889   20.7209 C   0  0  0  0  0  0
  -27.2340  -28.5736   20.7170 C   0  0  0  0  0  0
  -26.0399  -26.8664   19.4812 C   0  0  0  0  0  0
  -24.8795  -27.6642   19.4818 C   0  0  0  0  0  0
  -23.6482  -29.8025   20.1592 C   0  0  0  0  0  0
  -25.4121  -36.3071   24.0319 C   0  0  1  0  0  0
  -20.5908  -28.3695   23.1264 C   0  0  2  0  0  0
  -20.6777  -26.9413   22.5408 C   0  0  0  0  0  0
  -19.5758  -26.6370   21.5202 C   0  0  0  0  0  0
  -18.1940  -26.7906   22.1634 C   0  0  0  0  0  0
  -19.1553  -28.8849   23.2875 C   0  0  0  0  0  0
  -18.9468  -30.1445   23.8895 C   0  0  0  0  0  0
  -17.6469  -30.6573   24.0567 C   0  0  0  0  0  0
  -25.9048  -34.9436   23.5083 C   0  0  0  0  0  0
  -16.5357  -29.9083   23.6317 C   0  0  0  0  0  0
  -16.7288  -28.6493   23.0349 C   0  0  0  0  0  0
  -26.4488  -31.6568   25.0701 C   0  0  0  0  0  0
  -25.3713  -31.3756   26.1422 C   0  0  0  0  0  0
  -27.0308  -30.2970   24.6190 C   0  0  0  0  0  0
  -27.6032  -32.4313   25.7477 C   0  0  0  0  0  0
  -27.5575  -37.1823   24.8479 C   0  0  0  0  0  0
  -21.4208  -29.3048   22.3654 N   0  0  0  0  0  0
  -26.4309  -37.3763   23.9386 N   0  0  0  0  0  0
  -24.6963  -31.0501   22.0945 N   0  0  0  0  0  0
  -23.4184  -28.8141   23.3027 O   0  0  0  0  0  0
  -28.3010  -26.3412   20.1284 O   0  0  0  0  0  0
  -26.5645  -34.8912   22.4668 O   0  0  0  0  0  0
  -23.5452  -32.1374   23.7257 O   0  0  0  0  0  0
  -30.3374  -19.5858   19.8259 C   0  0  0  0  0  0
  -30.5712  -18.1559   19.8892 C   0  0  0  0  0  0
  -28.3976  -19.3436   21.1384 C   0  0  0  0  0  0
  -29.2479  -20.2742   20.4655 C   0  0  0  0  0  0
  -29.6979  -17.2732   20.5945 C   0  0  0  0  0  0
  -28.5953  -17.9280   21.1967 C   0  0  0  0  0  0
  -28.4982  -23.7659   20.5308 C   0  0  0  0  0  0
  -28.1202  -22.5832   21.2961 C   0  0  0  0  0  0
  -28.0502  -25.0749   20.7333 C   0  0  0  0  0  0
  -29.4067  -22.8559   19.6445 C   0  0  0  0  0  0
  -28.9448  -21.7383   20.5257 N   0  0  0  0  0  0
  -29.7377  -15.7949   20.7454 N   0  0  0  0  0  0
  -27.3686  -22.4537   22.2408 O   0  0  0  0  0  0
  -27.6838  -17.1488   21.8547 O   0  0  0  0  0  0
  -31.4900  -12.5915   19.1497 H   0  0  0  0  0  0
  -30.4155  -11.4659   19.9328 H   0  0  0  0  0  0
  -29.7925  -11.7332   17.5103 H   0  0  0  0  0  0
  -29.6438  -13.4600   17.7191 H   0  0  0  0  0  0
  -27.8914  -11.2821   18.9004 H   0  0  0  0  0  0
  -27.3830  -12.5350   17.8010 H   0  0  0  0  0  0
  -27.6562  -14.2509   19.4898 H   0  0  0  0  0  0
  -28.7464  -12.1073   21.3837 H   0  0  0  0  0  0
  -28.4454  -13.7691   21.8264 H   0  0  0  0  0  0
  -25.2778   -9.5702   22.4727 H   0  0  0  0  0  0
  -24.0023   -7.4665   22.7474 H   0  0  0  0  0  0
  -21.0843   -8.8790   19.8966 H   0  0  0  0  0  0
  -22.3701  -10.9683   19.6168 H   0  0  0  0  0  0
  -21.2005   -7.6151   23.9718 H   0  0  0  0  0  0
  -21.1475   -6.0526   25.9077 H   0  0  0  0  0  0
  -22.0593   -2.7617   23.2854 H   0  0  0  0  0  0
  -22.4133  -11.9901   22.4788 H   0  0  0  0  0  0
  -21.1142  -13.1290   22.2631 H   0  0  0  0  0  0
  -24.6817  -15.8528   20.5650 H   0  0  0  0  0  0
  -26.3342  -15.6328   20.2873 H   0  0  0  0  0  0
  -26.7187  -32.5413   23.1060 H   0  0  0  0  0  0
  -24.9995  -33.9678   25.0338 H   0  0  0  0  0  0
  -22.7267  -31.2967   21.3907 H   0  0  0  0  0  0
  -23.3710  -35.9674   23.3381 H   0  0  0  0  0  0
  -24.3554  -36.8840   22.2041 H   0  0  0  0  0  0
  -23.7307  -37.6550   23.6613 H   0  0  0  0  0  0
  -26.1099  -31.5252   20.6046 H   0  0  0  0  0  0
  -26.8518  -30.8190   22.0099 H   0  0  0  0  0  0
  -28.1314  -28.9268   21.2070 H   0  0  0  0  0  0
  -26.0015  -25.9026   18.9910 H   0  0  0  0  0  0
  -23.9844  -27.3015   18.9936 H   0  0  0  0  0  0
  -23.7680  -30.5757   19.3982 H   0  0  0  0  0  0
  -22.7675  -29.2318   19.8586 H   0  0  0  0  0  0
  -25.1312  -36.1932   25.0816 H   0  0  0  0  0  0
  -21.0001  -28.3273   24.1379 H   0  0  0  0  0  0
  -20.5644  -26.2312   23.3624 H   0  0  0  0  0  0
  -21.6642  -26.7404   22.1232 H   0  0  0  0  0  0
  -19.6920  -25.6286   21.1236 H   0  0  0  0  0  0
  -19.6678  -27.3190   20.6739 H   0  0  0  0  0  0
  -17.4201  -26.6642   21.4053 H   0  0  0  0  0  0
  -18.0375  -26.0051   22.9033 H   0  0  0  0  0  0
  -19.7953  -30.7268   24.2257 H   0  0  0  0  0  0
  -17.5026  -31.6248   24.5188 H   0  0  0  0  0  0
  -15.5362  -30.2991   23.7624 H   0  0  0  0  0  0
  -15.8698  -28.0816   22.7056 H   0  0  0  0  0  0
  -24.5846  -30.7146   25.7761 H   0  0  0  0  0  0
  -24.8952  -32.2952   26.4851 H   0  0  0  0  0  0
  -25.8002  -30.8920   27.0205 H   0  0  0  0  0  0
  -26.2874  -29.6739   24.1183 H   0  0  0  0  0  0
  -27.3945  -29.7214   25.4712 H   0  0  0  0  0  0
  -27.8793  -30.4218   23.9452 H   0  0  0  0  0  0
  -27.2601  -33.3586   26.2088 H   0  0  0  0  0  0
  -28.3829  -32.6923   25.0303 H   0  0  0  0  0  0
  -28.0722  -31.8430   26.5381 H   0  0  0  0  0  0
  -28.2661  -38.0046   24.7393 H   0  0  0  0  0  0
  -28.0995  -36.2566   24.6464 H   0  0  0  0  0  0
  -27.2268  -37.1672   25.8881 H   0  0  0  0  0  0
  -20.9391  -29.8767   21.6861 H   0  0  0  0  0  0
  -26.0189  -38.2860   24.1298 H   0  0  0  0  0  0
  -31.0489  -20.1841   19.2727 H   0  0  0  0  0  0
  -31.4283  -17.7423   19.3757 H   0  0  0  0  0  0
  -27.5299  -19.7444   21.6421 H   0  0  0  0  0  0
  -27.3543  -25.2187   21.5502 H   0  0  0  0  0  0
  -30.4857  -23.0052   19.7039 H   0  0  0  0  0  0
  -29.1010  -22.6956   18.6078 H   0  0  0  0  0  0
  -28.8655  -15.4637   21.1339 H   0  0  0  0  0  0
  -26.9642  -17.6454   22.2286 H   0  0  0  0  0  0
  1 25  1  0  0  0
  1 30  2  0  0  0
  1 82  1  0  0  0
  2  3  1  0  0  0
  2 25  1  0  0  0
  2 85  1  0  0  0
  2 86  1  0  0  0
  3  4  1  0  0  0
  3 87  1  0  0  0
  3 88  1  0  0  0
  4  5  1  0  0  0
  4 89  1  0  0  0
  4 90  1  0  0  0
  5  6  1  0  0  0
  5 26  1  0  0  0
  5 91  1  0  0  0
  6 25  1  0  0  0
  6 92  1  0  0  0
  6 93  1  0  0  0
  7  8  2  0  0  0
  7 26  1  0  0  0
  7 29  1  0  0  0
  8  9  1  0  0  0
  8 22  1  0  0  0
  9 10  1  0  0  0
  9 27  2  0  0  0
 10 11  2  0  0  0
 10 15  1  0  0  0
 11 12  1  0  0  0
 11 94  1  0  0  0
 12 13  2  0  0  0
 12 95  1  0  0  0
 13 14  1  0  0  0
 13 31  1  0  0  0
 14 15  2  0  0  0
 14 96  1  0  0  0
 15 97  1  0  0  0
 16 17  2  0  0  0
 16 21  1  0  0  0
 16 31  1  0  0  0
 17 18  1  0  0  0
 17 98  1  0  0  0
 18 19  2  0  0  0
 18 99  1  0  0  0
 19 20  1  0  0  0
 19 24  1  0  0  0
 20 21  2  0  0  0
 20100  1  0  0  0
 21 23  1  0  0  0
 22 28  1  0  0  0
 22 32  2  0  0  0
 26 27  1  0  0  0
 28101  1  0  0  0
 28102  1  0  0  0
 29103  1  0  0  0
 29104  1  0  0  0
 33 34  1  0  0  0
 33 66  1  0  0  0
 33 70  2  0  0  0
 34 36  1  0  0  0
 34 59  1  0  0  0
 34105  1  0  0  0
 35 44  2  0  0  0
 35 45  1  0  0  0
 35 68  1  0  0  0
 36 56  1  0  0  0
 36106  1  0  0  0
 37 39  1  0  0  0
 37 47  1  0  0  0
 37 66  1  0  0  0
 37107  1  0  0  0
 38 43  2  0  0  0
 38 46  1  0  0  0
 38 47  1  0  0  0
 39 64  1  0  0  0
 39 67  2  0  0  0
 40 52  1  0  0  0
 40 53  2  0  0  0
 40 58  1  0  0  0
 41108  1  0  0  0
 41109  1  0  0  0
 41110  1  0  0  0
 41 48  1  0  0  0
 42 43  1  0  0  0
 42 66  1  0  0  0
 42111  1  0  0  0
 42112  1  0  0  0
 43 44  1  0  0  0
 44113  1  0  0  0
 45 46  2  0  0  0
 45114  1  0  0  0
 46115  1  0  0  0
 47116  1  0  0  0
 47117  1  0  0  0
 48 56  1  0  0  0
 48 65  1  0  0  0
 48118  1  0  0  0
 49 50  1  0  0  0
 49 53  1  0  0  0
 49 64  1  0  0  0
 49119  1  0  0  0
 50 51  1  0  0  0
 50120  1  0  0  0
 50121  1  0  0  0
 51 52  1  0  0  0
 51122  1  0  0  0
 51123  1  0  0  0
 52124  1  0  0  0
 52125  1  0  0  0
 53 54  1  0  0  0
 54 55  2  0  0  0
 54126  1  0  0  0
 55 57  1  0  0  0
 55127  1  0  0  0
 56 69  2  0  0  0
 57 58  2  0  0  0
 57128  1  0  0  0
 58129  1  0  0  0
 59 60  1  0  0  0
 59 61  1  0  0  0
 59 62  1  0  0  0
 60130  1  0  0  0
 60131  1  0  0  0
 60132  1  0  0  0
 61133  1  0  0  0
 61134  1  0  0  0
 61135  1  0  0  0
 62136  1  0  0  0
 62137  1  0  0  0
 62138  1  0  0  0
 63 65  1  0  0  0
 63139  1  0  0  0
 63140  1  0  0  0
 63141  1  0  0  0
 64142  1  0  0  0
 65143  1  0  0  0
 68 79  1  0  0  0
 71 72  2  0  0  0
 71 74  1  0  0  0
 71144  1  0  0  0
 72 75  1  0  0  0
 72145  1  0  0  0
 73 74  2  0  0  0
 73 76  1  0  0  0
 73146  1  0  0  0
 74 81  1  0  0  0
 75 76  2  0  0  0
 75 82  1  0  0  0
 76 84  1  0  0  0
 77 78  1  0  0  0
 77 79  2  0  0  0
 77 80  1  0  0  0
 78 81  1  0  0  0
 78 83  2  0  0  0
 79147  1  0  0  0
 80 81  1  0  0  0
 80148  1  0  0  0
 80149  1  0  0  0
 82150  1  0  0  0
 84151  1  0  0  0
M  ISO  4   1 100  68 101  79 101  82 100
M  END
> <chiral flag>
0

> <version>
0

> <s_m_source_file>
/data/baiqing/PycharmProjects/Reinvent-master-3.2/result/LINK_invent/BTK/process_docking_weight1_custom_product_contain_oxygen_bond_distance_aromatic_linkinvent_7_9_3/rearranged_h_0081.sdf

> <i_m_source_file_index>
81

> <r_mmod_Potential_Energy-OPLS-2005>
149.255661010742

> <r_mmod_Stretch_Energy-OPLS-2005>
106.898498535156

> <r_mmod_Bend_Energy-OPLS-2005>
274.961578369141

> <r_mmod_Torsional_Energy-OPLS-2005>
226.343780517578

> <r_mmod_Improper_Torsional_Energy-OPLS-2005>
3.74618339538574

> <r_mmod_Van_der_Waal_Energy-OPLS-2005>
133.344589233398

> <r_mmod_Electrostatic_Energy-OPLS-2005>
-458.456848144531

> <r_mmod_Solvation_Energy-OPLS-2005>
-223.676498413086

> <b_mmod_Minimization_Converged-OPLS-2005>
0

> <r_mmod_RMS_Derivative-OPLS-2005>
3.54978513717651

$$$$
81
                    3D
 Structure written by MMmdl.
160169  0  0  1  0            999 V2000
  -30.7412  -14.5266   20.4950 C   0  0  0  0  0  0
  -30.3978  -12.3288   19.4421 C   0  0  0  0  0  0
  -29.4883  -12.4864   18.2085 C   0  0  0  0  0  0
  -28.0075  -12.3600   18.6188 C   0  0  0  0  0  0
  -27.6422  -13.2288   19.8539 C   0  0  2  0  0  0
  -28.6910  -13.1083   20.9823 C   0  0  0  0  0  0
  -25.2493  -13.8200   20.5709 C   0  0  0  0  0  0
  -24.1796  -13.0441   20.9255 C   0  0  0  0  0  0
  -24.6390  -11.6927   20.8784 C   0  0  0  0  0  0
  -23.9053  -10.4308   21.0439 C   0  0  0  0  0  0
  -24.3618   -9.4219   21.9206 C   0  0  0  0  0  0
  -23.6318   -8.2231   22.0760 C   0  0  0  0  0  0
  -22.4289   -8.0278   21.3559 C   0  0  0  0  0  0
  -21.9925   -9.0248   20.4652 C   0  0  0  0  0  0
  -22.7239  -10.2136   20.3070 C   0  0  0  0  0  0
  -21.6841   -6.0740   22.5306 C   0  0  0  0  0  0
  -21.3996   -6.5646   23.8243 C   0  0  0  0  0  0
  -21.3664   -5.6793   24.9208 C   0  0  0  0  0  0
  -21.6046   -4.3055   24.7255 C   0  0  0  0  0  0
  -21.8817   -3.8152   23.4371 C   0  0  0  0  0  0
  -21.9186   -4.6967   22.3425 C   0  0  0  0  0  0
  -22.7811  -13.5218   21.1899 C   0  0  0  0  0  0
  -22.1652   -4.2150   21.1002 F   0  0  0  0  0  0
  -21.5646   -3.4549   25.7765 F   0  0  0  0  0  0
  -30.0073  -13.3824   20.3971 N   0  0  0  0  0  0
  -26.2936  -12.9413   20.3310 N   0  0  0  0  0  0
  -25.9318  -11.6560   20.5771 N   0  0  0  0  0  0
  -22.0416  -12.8224   22.0442 N   0  0  0  0  0  0
  -25.4129  -15.1927   20.4085 N   0  0  0  0  0  0
  -31.9418  -14.5430   20.2046 O   0  0  0  0  0  0
  -21.6642   -6.8880   21.4266 O   0  0  0  0  0  0
  -22.3514  -14.5533   20.6746 O   0  0  0  0  0  0
  -24.6169  -31.8670   23.2097 C   0  0  0  0  0  0
  -25.9052  -32.4821   23.8399 C   0  0  1  0  0  0
  -27.2317  -27.4117   20.0878 C   0  0  0  0  0  0
  -25.5904  -33.8618   24.2321 N   0  0  0  0  0  0
  -23.4071  -30.4901   21.5513 C   0  0  2  0  0  0
  -24.8533  -28.9546   20.1149 C   0  0  0  0  0  0
  -22.7431  -29.4644   22.4987 C   0  0  0  0  0  0
  -18.0273  -28.1372   22.8494 C   0  0  0  0  0  0
  -24.1473  -36.7295   23.2643 C   0  0  0  0  0  0
  -25.9396  -30.8210   21.3707 C   0  0  0  0  0  0
  -26.0164  -29.4544   20.7162 C   0  0  0  0  0  0
  -27.2090  -28.6871   20.7073 C   0  0  0  0  0  0
  -26.0443  -26.9266   19.4977 C   0  0  0  0  0  0
  -24.8620  -27.6891   19.5050 C   0  0  0  0  0  0
  -23.6171  -29.8258   20.1648 C   0  0  0  0  0  0
  -25.4105  -36.3109   24.0344 C   0  0  1  0  0  0
  -20.5863  -28.3660   23.1321 C   0  0  2  0  0  0
  -20.6758  -26.9395   22.5420 C   0  0  0  0  0  0
  -19.5737  -26.6384   21.5214 C   0  0  0  0  0  0
  -18.1915  -26.7925   22.1616 C   0  0  0  0  0  0
  -19.1522  -28.8833   23.2901 C   0  0  0  0  0  0
  -18.9451  -30.1439   23.8902 C   0  0  0  0  0  0
  -17.6453  -30.6577   24.0560 C   0  0  0  0  0  0
  -25.9036  -34.9480   23.5129 C   0  0  0  0  0  0
  -16.5342  -29.9072   23.6331 C   0  0  0  0  0  0
  -16.7262  -28.6493   23.0350 C   0  0  0  0  0  0
  -26.4479  -31.6609   25.0741 C   0  0  0  0  0  0
  -25.3748  -31.3707   26.1493 C   0  0  0  0  0  0
  -27.0319  -30.3050   24.6125 C   0  0  0  0  0  0
  -27.6044  -32.4343   25.7502 C   0  0  0  0  0  0
  -27.5578  -37.1813   24.8464 C   0  0  0  0  0  0
  -21.4154  -29.3029   22.3733 N   0  0  0  0  0  0
  -26.4282  -37.3805   23.9420 N   0  0  0  0  0  0
  -24.6725  -31.0735   22.1018 N   0  0  0  0  0  0
  -23.4199  -28.8188   23.3029 O   0  0  0  0  0  0
  -28.3653  -26.6185   20.0740 O   0  0  0  0  0  0
  -26.5581  -34.8933   22.4671 O   0  0  0  0  0  0
  -23.5355  -32.1440   23.7474 O   0  0  0  0  0  0
  -28.9706  -18.4668   19.3782 C   0  0  0  0  0  0
  -30.4606  -19.5674   20.9224 C   0  0  0  0  0  0
  -28.5078  -19.7388   18.9481 C   0  0  0  0  0  0
  -30.0126  -20.8371   20.4701 C   0  0  0  0  0  0
  -29.9881  -18.3535   20.3515 C   0  0  0  0  0  0
  -29.0560  -20.9630   19.4326 C   0  0  0  0  0  0
  -29.0122  -24.7890   18.5525 C   0  0  0  0  0  0
  -29.3520  -24.5218   17.1338 C   0  0  0  0  0  0
  -28.7212  -26.0852   18.8571 C   0  0  0  0  0  0
  -30.6662  -17.0484   20.6471 C   0  0  0  0  0  0
  -29.0295  -23.5521   19.4949 C   0  0  0  0  0  0
  -29.1606  -23.1082   16.5994 C   0  0  0  0  0  0
  -28.2179  -22.2841   17.4859 C   0  0  0  0  0  0
  -28.6925  -22.2361   18.8736 N   0  0  0  0  0  0
  -30.0583  -15.8150   20.6260 N   0  0  0  0  0  0
  -31.9811  -17.1473   20.8873 N   0  3  0  0  0  0
  -29.7791  -25.3855   16.3562 O   0  0  0  0  0  0
  -31.4476  -12.3805   19.1475 H   0  0  0  0  0  0
  -30.2678  -11.3404   19.8877 H   0  0  0  0  0  0
  -29.7372  -11.7337   17.4603 H   0  0  0  0  0  0
  -29.6635  -13.4549   17.7359 H   0  0  0  0  0  0
  -27.8175  -11.3076   18.8345 H   0  0  0  0  0  0
  -27.3566  -12.6169   17.7825 H   0  0  0  0  0  0
  -27.6512  -14.2623   19.5088 H   0  0  0  0  0  0
  -28.6765  -12.1025   21.4071 H   0  0  0  0  0  0
  -28.4679  -13.7885   21.8061 H   0  0  0  0  0  0
  -25.2757   -9.5698   22.4783 H   0  0  0  0  0  0
  -24.0054   -7.4600   22.7461 H   0  0  0  0  0  0
  -21.0859   -8.8754   19.8944 H   0  0  0  0  0  0
  -22.3705  -10.9677   19.6180 H   0  0  0  0  0  0
  -21.1965   -7.6142   23.9753 H   0  0  0  0  0  0
  -21.1492   -6.0514   25.9104 H   0  0  0  0  0  0
  -22.0585   -2.7610   23.2862 H   0  0  0  0  0  0
  -22.3984  -11.9864   22.4841 H   0  0  0  0  0  0
  -21.1026  -13.1274   22.2610 H   0  0  0  0  0  0
  -24.6326  -15.8304   20.5172 H   0  0  0  0  0  0
  -26.2312  -15.6341   20.0128 H   0  0  0  0  0  0
  -26.7128  -32.5527   23.1164 H   0  0  0  0  0  0
  -25.0048  -33.9779   25.0466 H   0  0  0  0  0  0
  -22.6969  -31.3072   21.4135 H   0  0  0  0  0  0
  -23.3762  -35.9600   23.3298 H   0  0  0  0  0  0
  -24.3570  -36.8915   22.2061 H   0  0  0  0  0  0
  -23.7195  -37.6486   23.6657 H   0  0  0  0  0  0
  -26.0593  -31.5880   20.6043 H   0  0  0  0  0  0
  -26.8249  -30.8716   21.9922 H   0  0  0  0  0  0
  -28.1071  -29.0638   21.1766 H   0  0  0  0  0  0
  -26.0273  -25.9473   19.0401 H   0  0  0  0  0  0
  -23.9664  -27.2961   19.0441 H   0  0  0  0  0  0
  -23.7275  -30.6029   19.4071 H   0  0  0  0  0  0
  -22.7402  -29.2473   19.8678 H   0  0  0  0  0  0
  -25.1282  -36.1970   25.0839 H   0  0  0  0  0  0
  -20.9947  -28.3213   24.1446 H   0  0  0  0  0  0
  -20.5658  -26.2260   23.3608 H   0  0  0  0  0  0
  -21.6629  -26.7437   22.1212 H   0  0  0  0  0  0
  -19.6893  -25.6305   21.1221 H   0  0  0  0  0  0
  -19.6677  -27.3210   20.6763 H   0  0  0  0  0  0
  -17.4196  -26.6704   21.4001 H   0  0  0  0  0  0
  -18.0283  -26.0051   22.8989 H   0  0  0  0  0  0
  -19.7927  -30.7247   24.2276 H   0  0  0  0  0  0
  -17.5010  -31.6263   24.5154 H   0  0  0  0  0  0
  -15.5342  -30.2971   23.7662 H   0  0  0  0  0  0
  -15.8667  -28.0817   22.7054 H   0  0  0  0  0  0
  -24.5870  -30.7123   25.7813 H   0  0  0  0  0  0
  -24.9015  -32.2869   26.5033 H   0  0  0  0  0  0
  -25.8099  -30.8782   27.0199 H   0  0  0  0  0  0
  -26.2872  -29.6804   24.1174 H   0  0  0  0  0  0
  -27.4088  -29.7281   25.4580 H   0  0  0  0  0  0
  -27.8709  -30.4363   23.9287 H   0  0  0  0  0  0
  -27.2651  -33.3639   26.2077 H   0  0  0  0  0  0
  -28.3858  -32.6911   25.0340 H   0  0  0  0  0  0
  -28.0711  -31.8483   26.5425 H   0  0  0  0  0  0
  -28.2590  -38.0115   24.7530 H   0  0  0  0  0  0
  -28.1072  -36.2650   24.6252 H   0  0  0  0  0  0
  -27.2300  -37.1422   25.8866 H   0  0  0  0  0  0
  -20.9316  -29.8749   21.6959 H   0  0  0  0  0  0
  -26.0163  -38.2880   24.1430 H   0  0  0  0  0  0
  -28.5717  -17.5794   18.9072 H   0  0  0  0  0  0
  -31.2300  -19.5477   21.6815 H   0  0  0  0  0  0
  -27.7296  -19.7371   18.2000 H   0  0  0  0  0  0
  -30.4665  -21.7126   20.9060 H   0  0  0  0  0  0
  -28.7362  -26.8663   18.1050 H   0  0  0  0  0  0
  -28.3616  -23.7388   20.3352 H   0  0  0  0  0  0
  -30.0391  -23.5181   19.9012 H   0  0  0  0  0  0
  -30.1365  -22.6271   16.5219 H   0  0  0  0  0  0
  -28.7533  -23.1670   15.5894 H   0  0  0  0  0  0
  -28.1281  -21.3097   17.0141 H   0  0  0  0  0  0
  -27.2158  -22.7164   17.4649 H   0  0  0  0  0  0
  -29.0600  -15.8699   20.7043 H   0  0  0  0  0  0
  -32.4605  -18.0293   20.8020 H   0  0  0  0  0  0
  -32.5196  -16.2874   20.8818 H   0  0  0  0  0  0
  1 25  1  0  0  0
  1 30  2  0  0  0
  1 85  1  0  0  0
  2  3  1  0  0  0
  2 25  1  0  0  0
  2 88  1  0  0  0
  2 89  1  0  0  0
  3  4  1  0  0  0
  3 90  1  0  0  0
  3 91  1  0  0  0
  4  5  1  0  0  0
  4 92  1  0  0  0
  4 93  1  0  0  0
  5  6  1  0  0  0
  5 26  1  0  0  0
  5 94  1  0  0  0
  6 25  1  0  0  0
  6 95  1  0  0  0
  6 96  1  0  0  0
  7  8  2  0  0  0
  7 26  1  0  0  0
  7 29  1  0  0  0
  8  9  1  0  0  0
  8 22  1  0  0  0
  9 10  1  0  0  0
  9 27  2  0  0  0
 10 11  2  0  0  0
 10 15  1  0  0  0
 11 12  1  0  0  0
 11 97  1  0  0  0
 12 13  2  0  0  0
 12 98  1  0  0  0
 13 14  1  0  0  0
 13 31  1  0  0  0
 14 15  2  0  0  0
 14 99  1  0  0  0
 15100  1  0  0  0
 16 17  2  0  0  0
 16 21  1  0  0  0
 16 31  1  0  0  0
 17 18  1  0  0  0
 17101  1  0  0  0
 18 19  2  0  0  0
 18102  1  0  0  0
 19 20  1  0  0  0
 19 24  1  0  0  0
 20 21  2  0  0  0
 20103  1  0  0  0
 21 23  1  0  0  0
 22 28  1  0  0  0
 22 32  2  0  0  0
 26 27  1  0  0  0
 28104  1  0  0  0
 28105  1  0  0  0
 29106  1  0  0  0
 29107  1  0  0  0
 33 34  1  0  0  0
 33 66  1  0  0  0
 33 70  2  0  0  0
 34 36  1  0  0  0
 34 59  1  0  0  0
 34108  1  0  0  0
 35 44  2  0  0  0
 35 45  1  0  0  0
 35 68  1  0  0  0
 36 56  1  0  0  0
 36109  1  0  0  0
 37 39  1  0  0  0
 37 47  1  0  0  0
 37 66  1  0  0  0
 37110  1  0  0  0
 38 43  2  0  0  0
 38 46  1  0  0  0
 38 47  1  0  0  0
 39 64  1  0  0  0
 39 67  2  0  0  0
 40 52  1  0  0  0
 40 53  2  0  0  0
 40 58  1  0  0  0
 41111  1  0  0  0
 41112  1  0  0  0
 41113  1  0  0  0
 41 48  1  0  0  0
 42 43  1  0  0  0
 42 66  1  0  0  0
 42114  1  0  0  0
 42115  1  0  0  0
 43 44  1  0  0  0
 44116  1  0  0  0
 45 46  2  0  0  0
 45117  1  0  0  0
 46118  1  0  0  0
 47119  1  0  0  0
 47120  1  0  0  0
 48 56  1  0  0  0
 48 65  1  0  0  0
 48121  1  0  0  0
 49 50  1  0  0  0
 49 53  1  0  0  0
 49 64  1  0  0  0
 49122  1  0  0  0
 50 51  1  0  0  0
 50123  1  0  0  0
 50124  1  0  0  0
 51 52  1  0  0  0
 51125  1  0  0  0
 51126  1  0  0  0
 52127  1  0  0  0
 52128  1  0  0  0
 53 54  1  0  0  0
 54 55  2  0  0  0
 54129  1  0  0  0
 55 57  1  0  0  0
 55130  1  0  0  0
 56 69  2  0  0  0
 57 58  2  0  0  0
 57131  1  0  0  0
 58132  1  0  0  0
 59 60  1  0  0  0
 59 61  1  0  0  0
 59 62  1  0  0  0
 60133  1  0  0  0
 60134  1  0  0  0
 60135  1  0  0  0
 61136  1  0  0  0
 61137  1  0  0  0
 61138  1  0  0  0
 62139  1  0  0  0
 62140  1  0  0  0
 62141  1  0  0  0
 63 65  1  0  0  0
 63142  1  0  0  0
 63143  1  0  0  0
 63144  1  0  0  0
 64145  1  0  0  0
 65146  1  0  0  0
 68 79  1  0  0  0
 71 73  2  0  0  0
 71 75  1  0  0  0
 71147  1  0  0  0
 72 74  1  0  0  0
 72 75  2  0  0  0
 72148  1  0  0  0
 73 76  1  0  0  0
 73149  1  0  0  0
 74 76  2  0  0  0
 74150  1  0  0  0
 75 80  1  0  0  0
 76 84  1  0  0  0
 77 78  1  0  0  0
 77 79  2  0  0  0
 77 81  1  0  0  0
 78 82  1  0  0  0
 78 87  2  0  0  0
 79151  1  0  0  0
 80 85  1  0  0  0
 80 86  2  0  0  0
 81 84  1  0  0  0
 81152  1  0  0  0
 81153  1  0  0  0
 82 83  1  0  0  0
 82154  1  0  0  0
 82155  1  0  0  0
 83 84  1  0  0  0
 83156  1  0  0  0
 83157  1  0  0  0
 85158  1  0  0  0
 86159  1  0  0  0
 86160  1  0  0  0
M  CHG  1  86   1
M  ISO  4   1 100  68 101  79 101  85 100
M  END
> <chiral flag>
0

> <version>
0

> <s_m_source_file>
/data/baiqing/PycharmProjects/Reinvent-master-3.2/result/LINK_invent/BTK/process_docking_weight1_custom_product_contain_oxygen_bond_distance_aromatic_linkinvent_7_9_3/rearranged_h_0081.sdf

> <i_m_source_file_index>
82

> <r_mmod_Potential_Energy-OPLS-2005>
-189.083923339844

> <r_mmod_Stretch_Energy-OPLS-2005>
57.0689888000488

> <r_mmod_Bend_Energy-OPLS-2005>
136.779571533203

> <r_mmod_Torsional_Energy-OPLS-2005>
212.413726806641

> <r_mmod_Improper_Torsional_Energy-OPLS-2005>
9.6395902633667

> <r_mmod_Van_der_Waal_Energy-OPLS-2005>
187.175033569336

> <r_mmod_Electrostatic_Energy-OPLS-2005>
-371.828826904297

> <r_mmod_Solvation_Energy-OPLS-2005>
-450.363464355469

> <b_mmod_Minimization_Converged-OPLS-2005>
0

> <r_mmod_RMS_Derivative-OPLS-2005>
3.08695769309998

$$$$
82
                    3D
 Structure written by MMmdl.
157166  0  0  1  0            999 V2000
  -30.6147  -14.7125   20.5538 C   0  0  0  0  0  0
  -30.4463  -12.4565   19.4701 C   0  0  0  0  0  0
  -29.5173  -12.5441   18.2356 C   0  0  0  0  0  0
  -28.0382  -12.3619   18.6332 C   0  0  0  0  0  0
  -27.6531  -13.2195   19.8658 C   0  0  2  0  0  0
  -28.6912  -13.0471   20.9915 C   0  0  0  0  0  0
  -25.2552  -13.8167   20.5674 C   0  0  0  0  0  0
  -24.1822  -13.0429   20.9172 C   0  0  0  0  0  0
  -24.6397  -11.6901   20.8719 C   0  0  0  0  0  0
  -23.9068  -10.4288   21.0396 C   0  0  0  0  0  0
  -24.3619   -9.4207   21.9178 C   0  0  0  0  0  0
  -23.6293   -8.2243   22.0751 C   0  0  0  0  0  0
  -22.4274   -8.0281   21.3542 C   0  0  0  0  0  0
  -21.9909   -9.0254   20.4644 C   0  0  0  0  0  0
  -22.7239  -10.2131   20.3049 C   0  0  0  0  0  0
  -21.6853   -6.0736   22.5281 C   0  0  0  0  0  0
  -21.4014   -6.5640   23.8214 C   0  0  0  0  0  0
  -21.3659   -5.6791   24.9176 C   0  0  0  0  0  0
  -21.6043   -4.3054   24.7226 C   0  0  0  0  0  0
  -21.8820   -3.8146   23.4347 C   0  0  0  0  0  0
  -21.9194   -4.6965   22.3403 C   0  0  0  0  0  0
  -22.7848  -13.5222   21.1853 C   0  0  0  0  0  0
  -22.1662   -4.2152   21.0980 F   0  0  0  0  0  0
  -21.5628   -3.4536   25.7738 F   0  0  0  0  0  0
  -30.0033  -13.4692   20.4629 N   0  0  0  0  0  0
  -26.2980  -12.9352   20.3295 N   0  0  0  0  0  0
  -25.9321  -11.6500   20.5709 N   0  0  0  0  0  0
  -22.0496  -12.8213   22.0415 N   0  0  0  0  0  0
  -25.4263  -15.1891   20.4117 N   0  0  0  0  0  0
  -31.7183  -14.8916   20.0241 O   0  0  0  0  0  0
  -21.6637   -6.8878   21.4242 O   0  0  0  0  0  0
  -22.3532  -14.5534   20.6714 O   0  0  0  0  0  0
  -24.6308  -31.8569   23.1991 C   0  0  0  0  0  0
  -25.9139  -32.4766   23.8335 C   0  0  1  0  0  0
  -27.2305  -27.2841   20.1085 C   0  0  0  0  0  0
  -25.5946  -33.8565   24.2270 N   0  0  0  0  0  0
  -23.4275  -30.4799   21.5423 C   0  0  2  0  0  0
  -24.8763  -28.9316   20.1077 C   0  0  0  0  0  0
  -22.7505  -29.4610   22.4910 C   0  0  0  0  0  0
  -18.0297  -28.1391   22.8481 C   0  0  0  0  0  0
  -24.1490  -36.7276   23.2634 C   0  0  0  0  0  0
  -25.9731  -30.7746   21.3776 C   0  0  0  0  0  0
  -26.0482  -29.3996   20.7165 C   0  0  0  0  0  0
  -27.2265  -28.5860   20.7119 C   0  0  0  0  0  0
  -26.0267  -26.8740   19.4893 C   0  0  0  0  0  0
  -24.8690  -27.6746   19.4858 C   0  0  0  0  0  0
  -23.6457  -29.8161   20.1575 C   0  0  0  0  0  0
  -25.4116  -36.3073   24.0327 C   0  0  1  0  0  0
  -20.5901  -28.3703   23.1268 C   0  0  2  0  0  0
  -20.6787  -26.9420   22.5407 C   0  0  0  0  0  0
  -19.5763  -26.6387   21.5211 C   0  0  0  0  0  0
  -18.1943  -26.7934   22.1620 C   0  0  0  0  0  0
  -19.1549  -28.8864   23.2870 C   0  0  0  0  0  0
  -18.9469  -30.1464   23.8891 C   0  0  0  0  0  0
  -17.6467  -30.6590   24.0563 C   0  0  0  0  0  0
  -25.9056  -34.9444   23.5097 C   0  0  0  0  0  0
  -16.5359  -29.9086   23.6331 C   0  0  0  0  0  0
  -16.7282  -28.6505   23.0348 C   0  0  0  0  0  0
  -26.4509  -31.6578   25.0715 C   0  0  0  0  0  0
  -25.3731  -31.3727   26.1433 C   0  0  0  0  0  0
  -27.0346  -30.2993   24.6190 C   0  0  0  0  0  0
  -27.6072  -32.4305   25.7489 C   0  0  0  0  0  0
  -27.5580  -37.1794   24.8468 C   0  0  0  0  0  0
  -21.4214  -29.3048   22.3652 N   0  0  0  0  0  0
  -26.4292  -37.3771   23.9411 N   0  0  0  0  0  0
  -24.6960  -31.0545   22.0962 N   0  0  0  0  0  0
  -23.4207  -28.8149   23.3007 O   0  0  0  0  0  0
  -28.3080  -26.3709   20.1840 O   0  0  0  0  0  0
  -26.5617  -34.8917   22.4659 O   0  0  0  0  0  0
  -23.5461  -32.1387   23.7292 O   0  0  0  0  0  0
  -30.1734  -17.9165   19.5998 C   0  0  0  0  0  0
  -29.9949  -19.2975   19.2446 C   0  0  0  0  0  0
  -29.3599  -18.4281   21.7658 C   0  0  0  0  0  0
  -29.8488  -17.4054   20.8846 C   0  0  0  0  0  0
  -29.4742  -20.3157   20.1183 C   0  0  0  0  0  0
  -29.1699  -19.8082   21.4194 C   0  0  0  0  0  0
  -28.7287  -24.0126   19.1570 C   0  0  0  0  0  0
  -28.8023  -23.2897   17.9101 C   0  0  0  0  0  0
  -29.0074  -22.9675   20.1993 C   0  0  0  0  0  0
  -28.5213  -23.7613   16.6794 C   0  0  0  0  0  0
  -28.4470  -25.3805   19.1896 C   0  0  0  0  0  0
  -29.9177  -15.9076   21.3621 C   0  0  0  0  0  0
  -29.2043  -21.8700   18.1470 C   0  0  0  0  0  0
  -29.4289  -15.6545   22.5053 N   0  0  0  0  0  0
  -29.2300  -21.7124   19.6032 N   0  0  0  0  0  0
  -28.6268  -20.6310   22.4013 N   0  0  0  0  0  0
  -29.0622  -23.1892   21.4127 O   0  0  0  0  0  0
  -31.4842  -12.6010   19.1658 H   0  0  0  0  0  0
  -30.4120  -11.4564   19.9049 H   0  0  0  0  0  0
  -29.8008  -11.7948   17.4954 H   0  0  0  0  0  0
  -29.6478  -13.5141   17.7532 H   0  0  0  0  0  0
  -27.8805  -11.3059   18.8554 H   0  0  0  0  0  0
  -27.3874  -12.5961   17.7900 H   0  0  0  0  0  0
  -27.6779  -14.2617   19.5467 H   0  0  0  0  0  0
  -28.7335  -12.0024   21.3033 H   0  0  0  0  0  0
  -28.3704  -13.5742   21.8838 H   0  0  0  0  0  0
  -25.2765   -9.5684   22.4750 H   0  0  0  0  0  0
  -24.0006   -7.4633   22.7468 H   0  0  0  0  0  0
  -21.0841   -8.8775   19.8948 H   0  0  0  0  0  0
  -22.3701  -10.9670   19.6157 H   0  0  0  0  0  0
  -21.2004   -7.6148   23.9720 H   0  0  0  0  0  0
  -21.1479   -6.0519   25.9080 H   0  0  0  0  0  0
  -22.0599   -2.7609   23.2846 H   0  0  0  0  0  0
  -22.4110  -11.9868   22.4794 H   0  0  0  0  0  0
  -21.1118  -13.1241   22.2630 H   0  0  0  0  0  0
  -24.6657  -15.8482   20.5360 H   0  0  0  0  0  0
  -26.2919  -15.6319   20.1303 H   0  0  0  0  0  0
  -26.7203  -32.5430   23.1076 H   0  0  0  0  0  0
  -25.0120  -33.9708   25.0435 H   0  0  0  0  0  0
  -22.7235  -31.3020   21.3975 H   0  0  0  0  0  0
  -23.3757  -35.9602   23.3300 H   0  0  0  0  0  0
  -24.3576  -36.8890   22.2045 H   0  0  0  0  0  0
  -23.7235  -37.6476   23.6652 H   0  0  0  0  0  0
  -26.1109  -31.5374   20.6101 H   0  0  0  0  0  0
  -26.8507  -30.8225   22.0108 H   0  0  0  0  0  0
  -28.1221  -28.9353   21.2063 H   0  0  0  0  0  0
  -25.9516  -25.8986   19.0310 H   0  0  0  0  0  0
  -23.9687  -27.3045   19.0150 H   0  0  0  0  0  0
  -23.7692  -30.5941   19.4031 H   0  0  0  0  0  0
  -22.7642  -29.2496   19.8520 H   0  0  0  0  0  0
  -25.1292  -36.1919   25.0818 H   0  0  0  0  0  0
  -20.9995  -28.3285   24.1387 H   0  0  0  0  0  0
  -20.5690  -26.2313   23.3613 H   0  0  0  0  0  0
  -21.6656  -26.7449   22.1202 H   0  0  0  0  0  0
  -19.6925  -25.6296   21.1245 H   0  0  0  0  0  0
  -19.6699  -27.3193   20.6737 H   0  0  0  0  0  0
  -17.4212  -26.6681   21.4022 H   0  0  0  0  0  0
  -18.0339  -26.0080   22.9020 H   0  0  0  0  0  0
  -19.7944  -30.7284   24.2256 H   0  0  0  0  0  0
  -17.5020  -31.6269   24.5167 H   0  0  0  0  0  0
  -15.5357  -30.2983   23.7663 H   0  0  0  0  0  0
  -15.8684  -28.0824   22.7062 H   0  0  0  0  0  0
  -24.5938  -30.7034   25.7769 H   0  0  0  0  0  0
  -24.8884  -32.2892   26.4808 H   0  0  0  0  0  0
  -25.8052  -30.8955   27.0238 H   0  0  0  0  0  0
  -26.2923  -29.6744   24.1212 H   0  0  0  0  0  0
  -27.4025  -29.7251   25.4703 H   0  0  0  0  0  0
  -27.8805  -30.4259   23.9430 H   0  0  0  0  0  0
  -27.2699  -33.3619   26.2047 H   0  0  0  0  0  0
  -28.3899  -32.6834   25.0324 H   0  0  0  0  0  0
  -28.0722  -31.8433   26.5418 H   0  0  0  0  0  0
  -28.2601  -38.0088   24.7513 H   0  0  0  0  0  0
  -28.1075  -36.2620   24.6298 H   0  0  0  0  0  0
  -27.2301  -37.1451   25.8873 H   0  0  0  0  0  0
  -20.9399  -29.8760   21.6849 H   0  0  0  0  0  0
  -26.0172  -38.2845   24.1412 H   0  0  0  0  0  0
  -30.5522  -17.2372   18.8487 H   0  0  0  0  0  0
  -30.2657  -19.5509   18.2312 H   0  0  0  0  0  0
  -29.0834  -18.1455   22.7705 H   0  0  0  0  0  0
  -28.2090  -24.7755   16.4835 H   0  0  0  0  0  0
  -28.5977  -23.1120   15.8183 H   0  0  0  0  0  0
  -28.3012  -25.8824   18.2459 H   0  0  0  0  0  0
  -30.1918  -21.7020   17.7152 H   0  0  0  0  0  0
  -28.4859  -21.1875   17.6902 H   0  0  0  0  0  0
  -29.0316  -16.4835   22.9268 H   0  0  0  0  0  0
  -28.7180  -20.3507   23.3723 H   0  0  0  0  0  0
  -28.7459  -21.6390   22.2728 H   0  0  0  0  0  0
  1 25  1  0  0  0
  1 30  2  0  0  0
  1 82  1  0  0  0
  2  3  1  0  0  0
  2 25  1  0  0  0
  2 88  1  0  0  0
  2 89  1  0  0  0
  3  4  1  0  0  0
  3 90  1  0  0  0
  3 91  1  0  0  0
  4  5  1  0  0  0
  4 92  1  0  0  0
  4 93  1  0  0  0
  5  6  1  0  0  0
  5 26  1  0  0  0
  5 94  1  0  0  0
  6 25  1  0  0  0
  6 95  1  0  0  0
  6 96  1  0  0  0
  7  8  2  0  0  0
  7 26  1  0  0  0
  7 29  1  0  0  0
  8  9  1  0  0  0
  8 22  1  0  0  0
  9 10  1  0  0  0
  9 27  2  0  0  0
 10 11  2  0  0  0
 10 15  1  0  0  0
 11 12  1  0  0  0
 11 97  1  0  0  0
 12 13  2  0  0  0
 12 98  1  0  0  0
 13 14  1  0  0  0
 13 31  1  0  0  0
 14 15  2  0  0  0
 14 99  1  0  0  0
 15100  1  0  0  0
 16 17  2  0  0  0
 16 21  1  0  0  0
 16 31  1  0  0  0
 17 18  1  0  0  0
 17101  1  0  0  0
 18 19  2  0  0  0
 18102  1  0  0  0
 19 20  1  0  0  0
 19 24  1  0  0  0
 20 21  2  0  0  0
 20103  1  0  0  0
 21 23  1  0  0  0
 22 28  1  0  0  0
 22 32  2  0  0  0
 26 27  1  0  0  0
 28104  1  0  0  0
 28105  1  0  0  0
 29106  1  0  0  0
 29107  1  0  0  0
 33 34  1  0  0  0
 33 66  1  0  0  0
 33 70  2  0  0  0
 34 36  1  0  0  0
 34 59  1  0  0  0
 34108  1  0  0  0
 35 44  2  0  0  0
 35 45  1  0  0  0
 35 68  1  0  0  0
 36 56  1  0  0  0
 36109  1  0  0  0
 37 39  1  0  0  0
 37 47  1  0  0  0
 37 66  1  0  0  0
 37110  1  0  0  0
 38 43  2  0  0  0
 38 46  1  0  0  0
 38 47  1  0  0  0
 39 64  1  0  0  0
 39 67  2  0  0  0
 40 52  1  0  0  0
 40 53  2  0  0  0
 40 58  1  0  0  0
 41111  1  0  0  0
 41112  1  0  0  0
 41113  1  0  0  0
 41 48  1  0  0  0
 42 43  1  0  0  0
 42 66  1  0  0  0
 42114  1  0  0  0
 42115  1  0  0  0
 43 44  1  0  0  0
 44116  1  0  0  0
 45 46  2  0  0  0
 45117  1  0  0  0
 46118  1  0  0  0
 47119  1  0  0  0
 47120  1  0  0  0
 48 56  1  0  0  0
 48 65  1  0  0  0
 48121  1  0  0  0
 49 50  1  0  0  0
 49 53  1  0  0  0
 49 64  1  0  0  0
 49122  1  0  0  0
 50 51  1  0  0  0
 50123  1  0  0  0
 50124  1  0  0  0
 51 52  1  0  0  0
 51125  1  0  0  0
 51126  1  0  0  0
 52127  1  0  0  0
 52128  1  0  0  0
 53 54  1  0  0  0
 54 55  2  0  0  0
 54129  1  0  0  0
 55 57  1  0  0  0
 55130  1  0  0  0
 56 69  2  0  0  0
 57 58  2  0  0  0
 57131  1  0  0  0
 58132  1  0  0  0
 59 60  1  0  0  0
 59 61  1  0  0  0
 59 62  1  0  0  0
 60133  1  0  0  0
 60134  1  0  0  0
 60135  1  0  0  0
 61136  1  0  0  0
 61137  1  0  0  0
 61138  1  0  0  0
 62139  1  0  0  0
 62140  1  0  0  0
 62141  1  0  0  0
 63 65  1  0  0  0
 63142  1  0  0  0
 63143  1  0  0  0
 63144  1  0  0  0
 64145  1  0  0  0
 65146  1  0  0  0
 68 81  1  0  0  0
 71 72  2  0  0  0
 71 74  1  0  0  0
 71147  1  0  0  0
 72 75  1  0  0  0
 72148  1  0  0  0
 73 74  2  0  0  0
 73 76  1  0  0  0
 73149  1  0  0  0
 74 82  1  0  0  0
 75 76  2  0  0  0
 75 85  1  0  0  0
 76 86  1  0  0  0
 77 78  1  0  0  0
 77 79  1  0  0  0
 77 81  2  0  0  0
 78 80  2  0  0  0
 78 83  1  0  0  0
 79 85  1  0  0  0
 79 87  2  0  0  0
 80150  1  0  0  0
 80151  1  0  0  0
 81152  1  0  0  0
 82 84  2  0  0  0
 83 85  1  0  0  0
 83153  1  0  0  0
 83154  1  0  0  0
 84155  1  0  0  0
 86156  1  0  0  0
 86157  1  0  0  0
M  ISO  4   1 100  68 101  81 101  82 100
M  END
> <chiral flag>
0

> <version>
0

> <s_m_source_file>
/data/baiqing/PycharmProjects/Reinvent-master-3.2/result/LINK_invent/BTK/process_docking_weight1_custom_product_contain_oxygen_bond_distance_aromatic_linkinvent_7_9_3/rearranged_h_0081.sdf

> <i_m_source_file_index>
83

> <r_mmod_Potential_Energy-OPLS-2005>
430.0185546875

> <r_mmod_Stretch_Energy-OPLS-2005>
135.206954956055

> <r_mmod_Bend_Energy-OPLS-2005>
268.683319091797

> <r_mmod_Torsional_Energy-OPLS-2005>
236.818664550781

> <r_mmod_Improper_Torsional_Energy-OPLS-2005>
6.3646936416626

> <r_mmod_Van_der_Waal_Energy-OPLS-2005>
168.209655761719

> <r_mmod_Electrostatic_Energy-OPLS-2005>
-243.916488647461

> <r_mmod_Solvation_Energy-OPLS-2005>
-213.180770874023

> <b_mmod_Minimization_Converged-OPLS-2005>
0

> <r_mmod_RMS_Derivative-OPLS-2005>
0.454246908426285

$$$$
83
                    3D
 Structure written by MMmdl.
149158  0  0  1  0            999 V2000
  -30.5776  -14.8724   20.3889 C   0  0  0  0  0  0
  -30.4324  -12.5300   19.4883 C   0  0  0  0  0  0
  -29.5181  -12.5278   18.2446 C   0  0  0  0  0  0
  -28.0463  -12.3336   18.6534 C   0  0  0  0  0  0
  -27.6337  -13.2468   19.8417 C   0  0  2  0  0  0
  -28.6785  -13.2475   20.9768 C   0  0  0  0  0  0
  -25.2511  -13.8240   20.5736 C   0  0  0  0  0  0
  -24.1822  -13.0457   20.9236 C   0  0  0  0  0  0
  -24.6442  -11.6945   20.8766 C   0  0  0  0  0  0
  -23.9135  -10.4317   21.0425 C   0  0  0  0  0  0
  -24.3679   -9.4201   21.9191 C   0  0  0  0  0  0
  -23.6338   -8.2242   22.0753 C   0  0  0  0  0  0
  -22.4314   -8.0308   21.3560 C   0  0  0  0  0  0
  -21.9982   -9.0297   20.4655 C   0  0  0  0  0  0
  -22.7318  -10.2180   20.3061 C   0  0  0  0  0  0
  -21.6866   -6.0770   22.5279 C   0  0  0  0  0  0
  -21.4019   -6.5653   23.8225 C   0  0  0  0  0  0
  -21.3656   -5.6788   24.9182 C   0  0  0  0  0  0
  -21.6034   -4.3055   24.7217 C   0  0  0  0  0  0
  -21.8822   -3.8173   23.4330 C   0  0  0  0  0  0
  -21.9207   -4.6997   22.3398 C   0  0  0  0  0  0
  -22.7836  -13.5213   21.1877 C   0  0  0  0  0  0
  -22.1659   -4.2176   21.0983 F   0  0  0  0  0  0
  -21.5630   -3.4528   25.7721 F   0  0  0  0  0  0
  -29.9639  -13.6269   20.3788 N   0  0  0  0  0  0
  -26.2928  -12.9466   20.3282 N   0  0  0  0  0  0
  -25.9366  -11.6589   20.5771 N   0  0  0  0  0  0
  -22.0500  -12.8189   22.0434 N   0  0  0  0  0  0
  -25.4192  -15.1972   20.4182 N   0  0  0  0  0  0
  -31.7870  -14.9028   20.1424 O   0  0  0  0  0  0
  -21.6650   -6.8925   21.4256 O   0  0  0  0  0  0
  -22.3511  -14.5523   20.6739 O   0  0  0  0  0  0
  -24.6377  -31.8473   23.1939 C   0  0  0  0  0  0
  -25.9169  -32.4705   23.8315 C   0  0  1  0  0  0
  -27.2061  -27.1798   20.1439 C   0  0  0  0  0  0
  -25.5953  -33.8518   24.2231 N   0  0  0  0  0  0
  -23.4400  -30.4724   21.5348 C   0  0  2  0  0  0
  -24.8906  -28.9084   20.1075 C   0  0  0  0  0  0
  -22.7543  -29.4579   22.4828 C   0  0  0  0  0  0
  -18.0300  -28.1407   22.8464 C   0  0  0  0  0  0
  -24.1495  -36.7273   23.2630 C   0  0  0  0  0  0
  -25.9941  -30.7347   21.3900 C   0  0  0  0  0  0
  -26.0640  -29.3482   20.7342 C   0  0  0  0  0  0
  -27.2278  -28.4958   20.7432 C   0  0  0  0  0  0
  -26.0159  -26.8347   19.4731 C   0  0  0  0  0  0
  -24.8773  -27.6635   19.4625 C   0  0  0  0  0  0
  -23.6689  -29.8110   20.1494 C   0  0  0  0  0  0
  -25.4122  -36.3056   24.0327 C   0  0  1  0  0  0
  -20.5922  -28.3734   23.1223 C   0  0  2  0  0  0
  -20.6796  -26.9443   22.5393 C   0  0  0  0  0  0
  -19.5773  -26.6394   21.5200 C   0  0  0  0  0  0
  -18.1949  -26.7941   22.1623 C   0  0  0  0  0  0
  -19.1551  -28.8883   23.2844 C   0  0  0  0  0  0
  -18.9479  -30.1476   23.8898 C   0  0  0  0  0  0
  -17.6477  -30.6605   24.0572 C   0  0  0  0  0  0
  -25.9060  -34.9417   23.5083 C   0  0  0  0  0  0
  -16.5370  -29.9112   23.6323 C   0  0  0  0  0  0
  -16.7287  -28.6527   23.0337 C   0  0  0  0  0  0
  -26.4534  -31.6530   25.0714 C   0  0  0  0  0  0
  -25.3738  -31.3705   26.1424 C   0  0  0  0  0  0
  -27.0355  -30.2919   24.6228 C   0  0  0  0  0  0
  -27.6090  -32.4248   25.7483 C   0  0  0  0  0  0
  -27.5594  -37.1789   24.8460 C   0  0  0  0  0  0
  -21.4240  -29.3069   22.3586 N   0  0  0  0  0  0
  -26.4294  -37.3763   23.9409 N   0  0  0  0  0  0
  -24.7093  -31.0381   22.0949 N   0  0  0  0  0  0
  -23.4197  -28.8099   23.2938 O   0  0  0  0  0  0
  -28.2361  -26.1883   20.1678 O   0  0  0  0  0  0
  -26.5639  -34.8898   22.4659 O   0  0  0  0  0  0
  -23.5498  -32.1359   23.7156 O   0  0  0  0  0  0
  -31.4315  -18.9397   18.5734 C   0  0  0  0  0  0
  -30.7389  -20.1000   18.9615 C   0  0  0  0  0  0
  -31.1180  -17.6762   19.0916 C   0  0  0  0  0  0
  -29.3609  -18.7554   20.3806 C   0  0  0  0  0  0
  -29.6581  -20.1335   19.8810 C   0  0  0  0  0  0
  -30.0830  -17.4968   20.0328 C   0  0  0  0  0  0
  -28.4188  -23.5395   20.3588 C   0  0  0  0  0  0
  -29.4464  -22.8680   19.5795 C   0  0  0  0  0  0
  -28.0653  -22.1961   20.8602 C   0  0  0  0  0  0
  -27.9085  -24.8390   20.5963 C   0  0  0  0  0  0
  -29.0976  -21.5482   20.0967 N   0  0  0  0  0  0
  -29.8142  -16.0649   20.4935 N   0  0  0  0  0  0
  -30.2550  -23.3313   18.7954 O   0  0  0  0  0  0
  -27.2045  -21.8492   21.6454 O   0  0  0  0  0  0
  -31.4683  -12.6619   19.1787 H   0  0  0  0  0  0
  -30.3959  -11.5705   20.0063 H   0  0  0  0  0  0
  -29.8227  -11.7465   17.5463 H   0  0  0  0  0  0
  -29.6307  -13.4735   17.7108 H   0  0  0  0  0  0
  -27.9133  -11.2858   18.9236 H   0  0  0  0  0  0
  -27.3919  -12.5074   17.7981 H   0  0  0  0  0  0
  -27.6067  -14.2568   19.4368 H   0  0  0  0  0  0
  -28.7414  -12.2654   21.4487 H   0  0  0  0  0  0
  -28.4010  -13.9553   21.7596 H   0  0  0  0  0  0
  -25.2847   -9.5654   22.4760 H   0  0  0  0  0  0
  -24.0041   -7.4628   22.7447 H   0  0  0  0  0  0
  -21.0917   -8.8836   19.8950 H   0  0  0  0  0  0
  -22.3791  -10.9729   19.6165 H   0  0  0  0  0  0
  -21.1990   -7.6170   23.9745 H   0  0  0  0  0  0
  -21.1465   -6.0519   25.9087 H   0  0  0  0  0  0
  -22.0607   -2.7633   23.2828 H   0  0  0  0  0  0
  -22.4128  -11.9836   22.4799 H   0  0  0  0  0  0
  -21.1126  -13.1207   22.2646 H   0  0  0  0  0  0
  -24.6621  -15.8580   20.5445 H   0  0  0  0  0  0
  -26.2706  -15.6354   20.0888 H   0  0  0  0  0  0
  -26.7215  -32.5336   23.1027 H   0  0  0  0  0  0
  -25.0087  -33.9639   25.0370 H   0  0  0  0  0  0
  -22.7414  -31.2971   21.3852 H   0  0  0  0  0  0
  -23.3762  -35.9603   23.3269 H   0  0  0  0  0  0
  -24.3582  -36.8922   22.2054 H   0  0  0  0  0  0
  -23.7243  -37.6461   23.6670 H   0  0  0  0  0  0
  -26.1404  -31.4902   20.6166 H   0  0  0  0  0  0
  -26.8674  -30.7928   22.0277 H   0  0  0  0  0  0
  -28.1213  -28.8200   21.2587 H   0  0  0  0  0  0
  -25.9490  -25.8799   18.9686 H   0  0  0  0  0  0
  -23.9828  -27.3347   18.9503 H   0  0  0  0  0  0
  -23.8112  -30.5932   19.4044 H   0  0  0  0  0  0
  -22.7834  -29.2589   19.8305 H   0  0  0  0  0  0
  -25.1289  -36.1914   25.0819 H   0  0  0  0  0  0
  -21.0003  -28.3343   24.1347 H   0  0  0  0  0  0
  -20.5683  -26.2364   23.3612 H   0  0  0  0  0  0
  -21.6665  -26.7438   22.1208 H   0  0  0  0  0  0
  -19.6947  -25.6287   21.1249 H   0  0  0  0  0  0
  -19.6713  -27.3187   20.6714 H   0  0  0  0  0  0
  -17.4206  -26.6644   21.4048 H   0  0  0  0  0  0
  -18.0392  -26.0099   22.9048 H   0  0  0  0  0  0
  -19.7955  -30.7280   24.2281 H   0  0  0  0  0  0
  -17.5033  -31.6278   24.5188 H   0  0  0  0  0  0
  -15.5365  -30.3026   23.7632 H   0  0  0  0  0  0
  -15.8691  -28.0848   22.7043 H   0  0  0  0  0  0
  -24.5931  -30.7038   25.7729 H   0  0  0  0  0  0
  -24.8921  -32.2888   26.4783 H   0  0  0  0  0  0
  -25.8048  -30.8912   27.0222 H   0  0  0  0  0  0
  -26.2944  -29.6662   24.1248 H   0  0  0  0  0  0
  -27.3993  -29.7185   25.4754 H   0  0  0  0  0  0
  -27.8851  -30.4119   23.9513 H   0  0  0  0  0  0
  -27.2724  -33.3559   26.2045 H   0  0  0  0  0  0
  -28.3936  -32.6770   25.0338 H   0  0  0  0  0  0
  -28.0734  -31.8376   26.5417 H   0  0  0  0  0  0
  -28.2566  -38.0120   24.7520 H   0  0  0  0  0  0
  -28.1132  -36.2649   24.6262 H   0  0  0  0  0  0
  -27.2309  -37.1397   25.8856 H   0  0  0  0  0  0
  -20.9420  -29.8819   21.6819 H   0  0  0  0  0  0
  -26.0173  -38.2833   24.1413 H   0  0  0  0  0  0
  -32.2310  -19.0307   17.8516 H   0  0  0  0  0  0
  -31.0835  -21.0086   18.4919 H   0  0  0  0  0  0
  -31.6953  -16.8444   18.7165 H   0  0  0  0  0  0
  -28.5337  -18.6644   21.0684 H   0  0  0  0  0  0
  -27.0834  -24.8952   21.2906 H   0  0  0  0  0  0
  -28.8792  -15.9030   20.8366 H   0  0  0  0  0  0
  1 25  1  0  0  0
  1 30  2  0  0  0
  1 82  1  0  0  0
  2  3  1  0  0  0
  2 25  1  0  0  0
  2 85  1  0  0  0
  2 86  1  0  0  0
  3  4  1  0  0  0
  3 87  1  0  0  0
  3 88  1  0  0  0
  4  5  1  0  0  0
  4 89  1  0  0  0
  4 90  1  0  0  0
  5  6  1  0  0  0
  5 26  1  0  0  0
  5 91  1  0  0  0
  6 25  1  0  0  0
  6 92  1  0  0  0
  6 93  1  0  0  0
  7  8  2  0  0  0
  7 26  1  0  0  0
  7 29  1  0  0  0
  8  9  1  0  0  0
  8 22  1  0  0  0
  9 10  1  0  0  0
  9 27  2  0  0  0
 10 11  2  0  0  0
 10 15  1  0  0  0
 11 12  1  0  0  0
 11 94  1  0  0  0
 12 13  2  0  0  0
 12 95  1  0  0  0
 13 14  1  0  0  0
 13 31  1  0  0  0
 14 15  2  0  0  0
 14 96  1  0  0  0
 15 97  1  0  0  0
 16 17  2  0  0  0
 16 21  1  0  0  0
 16 31  1  0  0  0
 17 18  1  0  0  0
 17 98  1  0  0  0
 18 19  2  0  0  0
 18 99  1  0  0  0
 19 20  1  0  0  0
 19 24  1  0  0  0
 20 21  2  0  0  0
 20100  1  0  0  0
 21 23  1  0  0  0
 22 28  1  0  0  0
 22 32  2  0  0  0
 26 27  1  0  0  0
 28101  1  0  0  0
 28102  1  0  0  0
 29103  1  0  0  0
 29104  1  0  0  0
 33 34  1  0  0  0
 33 66  1  0  0  0
 33 70  2  0  0  0
 34 36  1  0  0  0
 34 59  1  0  0  0
 34105  1  0  0  0
 35 44  2  0  0  0
 35 45  1  0  0  0
 35 68  1  0  0  0
 36 56  1  0  0  0
 36106  1  0  0  0
 37 39  1  0  0  0
 37 47  1  0  0  0
 37 66  1  0  0  0
 37107  1  0  0  0
 38 43  2  0  0  0
 38 46  1  0  0  0
 38 47  1  0  0  0
 39 64  1  0  0  0
 39 67  2  0  0  0
 40 52  1  0  0  0
 40 53  2  0  0  0
 40 58  1  0  0  0
 41108  1  0  0  0
 41109  1  0  0  0
 41110  1  0  0  0
 41 48  1  0  0  0
 42 43  1  0  0  0
 42 66  1  0  0  0
 42111  1  0  0  0
 42112  1  0  0  0
 43 44  1  0  0  0
 44113  1  0  0  0
 45 46  2  0  0  0
 45114  1  0  0  0
 46115  1  0  0  0
 47116  1  0  0  0
 47117  1  0  0  0
 48 56  1  0  0  0
 48 65  1  0  0  0
 48118  1  0  0  0
 49 50  1  0  0  0
 49 53  1  0  0  0
 49 64  1  0  0  0
 49119  1  0  0  0
 50 51  1  0  0  0
 50120  1  0  0  0
 50121  1  0  0  0
 51 52  1  0  0  0
 51122  1  0  0  0
 51123  1  0  0  0
 52124  1  0  0  0
 52125  1  0  0  0
 53 54  1  0  0  0
 54 55  2  0  0  0
 54126  1  0  0  0
 55 57  1  0  0  0
 55127  1  0  0  0
 56 69  2  0  0  0
 57 58  2  0  0  0
 57128  1  0  0  0
 58129  1  0  0  0
 59 60  1  0  0  0
 59 61  1  0  0  0
 59 62  1  0  0  0
 60130  1  0  0  0
 60131  1  0  0  0
 60132  1  0  0  0
 61133  1  0  0  0
 61134  1  0  0  0
 61135  1  0  0  0
 62136  1  0  0  0
 62137  1  0  0  0
 62138  1  0  0  0
 63 65  1  0  0  0
 63139  1  0  0  0
 63140  1  0  0  0
 63141  1  0  0  0
 64142  1  0  0  0
 65143  1  0  0  0
 68 80  1  0  0  0
 71 72  2  0  0  0
 71 73  1  0  0  0
 71144  1  0  0  0
 72 75  1  0  0  0
 72145  1  0  0  0
 73 76  2  0  0  0
 73146  1  0  0  0
 74 75  2  0  0  0
 74 76  1  0  0  0
 74147  1  0  0  0
 75 81  1  0  0  0
 76 82  1  0  0  0
 77 78  1  0  0  0
 77 79  1  0  0  0
 77 80  2  0  0  0
 78 81  1  0  0  0
 78 83  2  0  0  0
 79 81  1  0  0  0
 79 84  2  0  0  0
 80148  1  0  0  0
 82149  1  0  0  0
M  ISO  4   1 100  68 101  80 101  82 100
M  END
> <chiral flag>
0

> <version>
0

> <s_m_source_file>
/data/baiqing/PycharmProjects/Reinvent-master-3.2/result/LINK_invent/BTK/process_docking_weight1_custom_product_contain_oxygen_bond_distance_aromatic_linkinvent_7_9_3/rearranged_h_0081.sdf

> <i_m_source_file_index>
84

> <r_mmod_Potential_Energy-OPLS-2005>
396.563018798828

> <r_mmod_Stretch_Energy-OPLS-2005>
197.687377929688

> <r_mmod_Bend_Energy-OPLS-2005>
293.702209472656

> <r_mmod_Torsional_Energy-OPLS-2005>
214.117111206055

> <r_mmod_Improper_Torsional_Energy-OPLS-2005>
4.10763216018677

> <r_mmod_Van_der_Waal_Energy-OPLS-2005>
137.703628540039

> <r_mmod_Electrostatic_Energy-OPLS-2005>
-375.018859863281

> <r_mmod_Solvation_Energy-OPLS-2005>
-227.980758666992

> <b_mmod_Minimization_Converged-OPLS-2005>
0

> <r_mmod_RMS_Derivative-OPLS-2005>
4.03958082199097

$$$$
84
                    3D
 Structure written by MMmdl.
152161  0  0  1  0            999 V2000
  -30.6197  -14.6464   20.5049 C   0  0  0  0  0  0
  -30.4423  -12.3999   19.4499 C   0  0  0  0  0  0
  -29.5082  -12.5158   18.2239 C   0  0  0  0  0  0
  -28.0309  -12.3531   18.6343 C   0  0  0  0  0  0
  -27.6549  -13.2185   19.8671 C   0  0  2  0  0  0
  -28.7016  -13.0643   20.9942 C   0  0  0  0  0  0
  -25.2556  -13.8170   20.5692 C   0  0  0  0  0  0
  -24.1816  -13.0434   20.9157 C   0  0  0  0  0  0
  -24.6400  -11.6908   20.8733 C   0  0  0  0  0  0
  -23.9076  -10.4291   21.0402 C   0  0  0  0  0  0
  -24.3629   -9.4209   21.9181 C   0  0  0  0  0  0
  -23.6302   -8.2245   22.0754 C   0  0  0  0  0  0
  -22.4280   -8.0285   21.3548 C   0  0  0  0  0  0
  -21.9917   -9.0258   20.4649 C   0  0  0  0  0  0
  -22.7250  -10.2134   20.3053 C   0  0  0  0  0  0
  -21.6847   -6.0748   22.5289 C   0  0  0  0  0  0
  -21.4012   -6.5650   23.8225 C   0  0  0  0  0  0
  -21.3656   -5.6797   24.9184 C   0  0  0  0  0  0
  -21.6040   -4.3058   24.7226 C   0  0  0  0  0  0
  -21.8817   -3.8157   23.4344 C   0  0  0  0  0  0
  -21.9191   -4.6978   22.3406 C   0  0  0  0  0  0
  -22.7842  -13.5229   21.1825 C   0  0  0  0  0  0
  -22.1657   -4.2170   21.0981 F   0  0  0  0  0  0
  -21.5626   -3.4535   25.7731 F   0  0  0  0  0  0
  -30.0181  -13.4151   20.4345 N   0  0  0  0  0  0
  -26.3003  -12.9362   20.3352 N   0  0  0  0  0  0
  -25.9332  -11.6513   20.5770 N   0  0  0  0  0  0
  -22.0481  -12.8234   22.0395 N   0  0  0  0  0  0
  -25.4243  -15.1900   20.4178 N   0  0  0  0  0  0
  -31.7741  -14.8186   20.1024 O   0  0  0  0  0  0
  -21.6639   -6.8889   21.4250 O   0  0  0  0  0  0
  -22.3528  -14.5537   20.6680 O   0  0  0  0  0  0
  -24.6307  -31.8605   23.2035 C   0  0  0  0  0  0
  -25.9150  -32.4774   23.8362 C   0  0  1  0  0  0
  -27.2168  -27.2969   20.1128 C   0  0  0  0  0  0
  -25.5960  -33.8576   24.2296 N   0  0  0  0  0  0
  -23.4255  -30.4904   21.5447 C   0  0  2  0  0  0
  -24.8708  -28.9516   20.1070 C   0  0  0  0  0  0
  -22.7505  -29.4661   22.4889 C   0  0  0  0  0  0
  -18.0310  -28.1407   22.8499 C   0  0  0  0  0  0
  -24.1489  -36.7281   23.2631 C   0  0  0  0  0  0
  -25.9707  -30.7853   21.3796 C   0  0  0  0  0  0
  -26.0434  -29.4127   20.7187 C   0  0  0  0  0  0
  -27.2192  -28.5973   20.7158 C   0  0  0  0  0  0
  -26.0181  -26.9124   19.4599 C   0  0  0  0  0  0
  -24.8615  -27.7074   19.4677 C   0  0  0  0  0  0
  -23.6432  -29.8364   20.1574 C   0  0  0  0  0  0
  -25.4105  -36.3074   24.0341 C   0  0  1  0  0  0
  -20.5917  -28.3730   23.1254 C   0  0  2  0  0  0
  -20.6811  -26.9453   22.5396 C   0  0  0  0  0  0
  -19.5772  -26.6402   21.5220 C   0  0  0  0  0  0
  -18.1953  -26.7950   22.1634 C   0  0  0  0  0  0
  -19.1564  -28.8880   23.2878 C   0  0  0  0  0  0
  -18.9481  -30.1473   23.8906 C   0  0  0  0  0  0
  -17.6481  -30.6606   24.0578 C   0  0  0  0  0  0
  -25.9055  -34.9448   23.5112 C   0  0  0  0  0  0
  -16.5372  -29.9114   23.6331 C   0  0  0  0  0  0
  -16.7295  -28.6529   23.0358 C   0  0  0  0  0  0
  -26.4517  -31.6567   25.0725 C   0  0  0  0  0  0
  -25.3742  -31.3734   26.1448 C   0  0  0  0  0  0
  -27.0330  -30.2974   24.6177 C   0  0  0  0  0  0
  -27.6092  -32.4274   25.7486 C   0  0  0  0  0  0
  -27.5587  -37.1784   24.8457 C   0  0  0  0  0  0
  -21.4212  -29.3085   22.3633 N   0  0  0  0  0  0
  -26.4270  -37.3782   23.9444 N   0  0  0  0  0  0
  -24.6948  -31.0616   22.0994 N   0  0  0  0  0  0
  -23.4220  -28.8184   23.2967 O   0  0  0  0  0  0
  -28.3021  -26.3926   20.1802 O   0  0  0  0  0  0
  -26.5613  -34.8923   22.4670 O   0  0  0  0  0  0
  -23.5461  -32.1409   23.7348 O   0  0  0  0  0  0
  -30.8347  -19.3356   20.1202 C   0  0  0  0  0  0
  -30.9191  -17.9093   20.2127 C   0  0  0  0  0  0
  -28.6357  -19.2878   21.0783 C   0  0  0  0  0  0
  -29.6957  -20.0841   20.5571 C   0  0  0  0  0  0
  -29.8569  -17.1342   20.7516 C   0  0  0  0  0  0
  -28.7175  -17.8662   21.1736 C   0  0  0  0  0  0
  -30.2145  -23.7694   20.6443 C   0  0  0  0  0  0
  -28.9310  -23.7684   20.2838 C   0  0  0  0  0  0
  -30.6723  -22.3962   20.7906 C   0  0  0  0  0  0
  -28.5455  -22.3464   20.2000 C   0  0  0  0  0  0
  -27.9648  -24.9575   19.9435 C   0  0  0  0  0  0
  -29.6329  -21.5715   20.5048 N   0  0  0  0  0  0
  -29.8139  -15.6772   20.9060 N   0  0  0  0  0  0
  -31.8081  -22.0415   21.1275 O   0  0  0  0  0  0
  -27.4307  -21.9093   19.8914 O   0  0  0  0  0  0
  -27.6692  -17.1801   21.6902 F   0  0  0  0  0  0
  -31.4819  -12.5337   19.1447 H   0  0  0  0  0  0
  -30.3867  -11.4015   19.8859 H   0  0  0  0  0  0
  -29.7730  -11.7679   17.4757 H   0  0  0  0  0  0
  -29.6481  -13.4877   17.7470 H   0  0  0  0  0  0
  -27.8629  -11.2984   18.8557 H   0  0  0  0  0  0
  -27.3782  -12.5922   17.7940 H   0  0  0  0  0  0
  -27.6728  -14.2561   19.5335 H   0  0  0  0  0  0
  -28.7135  -12.0379   21.3638 H   0  0  0  0  0  0
  -28.4438  -13.6843   21.8542 H   0  0  0  0  0  0
  -25.2770   -9.5682   22.4759 H   0  0  0  0  0  0
  -24.0007   -7.4630   22.7467 H   0  0  0  0  0  0
  -21.0848   -8.8784   19.8951 H   0  0  0  0  0  0
  -22.3713  -10.9679   19.6166 H   0  0  0  0  0  0
  -21.2005   -7.6158   23.9737 H   0  0  0  0  0  0
  -21.1478   -6.0521   25.9088 H   0  0  0  0  0  0
  -22.0599   -2.7621   23.2831 H   0  0  0  0  0  0
  -22.4086  -11.9901   22.4791 H   0  0  0  0  0  0
  -21.1105  -13.1288   22.2602 H   0  0  0  0  0  0
  -24.6649  -15.8436   20.5702 H   0  0  0  0  0  0
  -26.3036  -15.6508   20.2210 H   0  0  0  0  0  0
  -26.7223  -32.5444   23.1115 H   0  0  0  0  0  0
  -25.0139  -33.9712   25.0459 H   0  0  0  0  0  0
  -22.7215  -31.3137   21.4040 H   0  0  0  0  0  0
  -23.3771  -35.9588   23.3234 H   0  0  0  0  0  0
  -24.3614  -36.8950   22.2060 H   0  0  0  0  0  0
  -23.7202  -37.6454   23.6676 H   0  0  0  0  0  0
  -26.1068  -31.5497   20.6130 H   0  0  0  0  0  0
  -26.8506  -30.8317   22.0098 H   0  0  0  0  0  0
  -28.1133  -28.9445   21.2158 H   0  0  0  0  0  0
  -25.9226  -25.9736   18.9380 H   0  0  0  0  0  0
  -23.9678  -27.3529   18.9722 H   0  0  0  0  0  0
  -23.7723  -30.6198   19.4093 H   0  0  0  0  0  0
  -22.7613  -29.2748   19.8450 H   0  0  0  0  0  0
  -25.1268  -36.1908   25.0829 H   0  0  0  0  0  0
  -21.0031  -28.3325   24.1365 H   0  0  0  0  0  0
  -20.5745  -26.2351   23.3611 H   0  0  0  0  0  0
  -21.6670  -26.7505   22.1158 H   0  0  0  0  0  0
  -19.6942  -25.6311   21.1257 H   0  0  0  0  0  0
  -19.6699  -27.3208   20.6747 H   0  0  0  0  0  0
  -17.4231  -26.6712   21.4032 H   0  0  0  0  0  0
  -18.0348  -26.0090   22.9024 H   0  0  0  0  0  0
  -19.7956  -30.7289   24.2279 H   0  0  0  0  0  0
  -17.5042  -31.6285   24.5183 H   0  0  0  0  0  0
  -15.5374  -30.3031   23.7638 H   0  0  0  0  0  0
  -15.8700  -28.0848   22.7063 H   0  0  0  0  0  0
  -24.5916  -30.7083   25.7782 H   0  0  0  0  0  0
  -24.8937  -32.2915   26.4845 H   0  0  0  0  0  0
  -25.8055  -30.8931   27.0238 H   0  0  0  0  0  0
  -26.2895  -29.6733   24.1209 H   0  0  0  0  0  0
  -27.4025  -29.7221   25.4674 H   0  0  0  0  0  0
  -27.8778  -30.4235   23.9402 H   0  0  0  0  0  0
  -27.2740  -33.3601   26.2031 H   0  0  0  0  0  0
  -28.3929  -32.6771   25.0321 H   0  0  0  0  0  0
  -28.0723  -31.8398   26.5423 H   0  0  0  0  0  0
  -28.2540  -38.0145   24.7587 H   0  0  0  0  0  0
  -28.1146  -36.2683   24.6152 H   0  0  0  0  0  0
  -27.2340  -37.1272   25.8864 H   0  0  0  0  0  0
  -20.9387  -29.8813   21.6850 H   0  0  0  0  0  0
  -26.0139  -38.2839   24.1501 H   0  0  0  0  0  0
  -31.6841  -19.8574   19.7015 H   0  0  0  0  0  0
  -31.8196  -17.4226   19.8664 H   0  0  0  0  0  0
  -27.7344  -19.7634   21.4367 H   0  0  0  0  0  0
  -30.8288  -24.6444   20.7843 H   0  0  0  0  0  0
  -27.0486  -24.7268   20.4906 H   0  0  0  0  0  0
  -27.7452  -24.8380   18.8822 H   0  0  0  0  0  0
  -28.9330  -15.3541   21.2783 H   0  0  0  0  0  0
  1 25  1  0  0  0
  1 30  2  0  0  0
  1 83  1  0  0  0
  2  3  1  0  0  0
  2 25  1  0  0  0
  2 87  1  0  0  0
  2 88  1  0  0  0
  3  4  1  0  0  0
  3 89  1  0  0  0
  3 90  1  0  0  0
  4  5  1  0  0  0
  4 91  1  0  0  0
  4 92  1  0  0  0
  5  6  1  0  0  0
  5 26  1  0  0  0
  5 93  1  0  0  0
  6 25  1  0  0  0
  6 94  1  0  0  0
  6 95  1  0  0  0
  7  8  2  0  0  0
  7 26  1  0  0  0
  7 29  1  0  0  0
  8  9  1  0  0  0
  8 22  1  0  0  0
  9 10  1  0  0  0
  9 27  2  0  0  0
 10 11  2  0  0  0
 10 15  1  0  0  0
 11 12  1  0  0  0
 11 96  1  0  0  0
 12 13  2  0  0  0
 12 97  1  0  0  0
 13 14  1  0  0  0
 13 31  1  0  0  0
 14 15  2  0  0  0
 14 98  1  0  0  0
 15 99  1  0  0  0
 16 17  2  0  0  0
 16 21  1  0  0  0
 16 31  1  0  0  0
 17 18  1  0  0  0
 17100  1  0  0  0
 18 19  2  0  0  0
 18101  1  0  0  0
 19 20  1  0  0  0
 19 24  1  0  0  0
 20 21  2  0  0  0
 20102  1  0  0  0
 21 23  1  0  0  0
 22 28  1  0  0  0
 22 32  2  0  0  0
 26 27  1  0  0  0
 28103  1  0  0  0
 28104  1  0  0  0
 29105  1  0  0  0
 29106  1  0  0  0
 33 34  1  0  0  0
 33 66  1  0  0  0
 33 70  2  0  0  0
 34 36  1  0  0  0
 34 59  1  0  0  0
 34107  1  0  0  0
 35 44  2  0  0  0
 35 45  1  0  0  0
 35 68  1  0  0  0
 36 56  1  0  0  0
 36108  1  0  0  0
 37 39  1  0  0  0
 37 47  1  0  0  0
 37 66  1  0  0  0
 37109  1  0  0  0
 38 43  2  0  0  0
 38 46  1  0  0  0
 38 47  1  0  0  0
 39 64  1  0  0  0
 39 67  2  0  0  0
 40 52  1  0  0  0
 40 53  2  0  0  0
 40 58  1  0  0  0
 41110  1  0  0  0
 41111  1  0  0  0
 41112  1  0  0  0
 41 48  1  0  0  0
 42 43  1  0  0  0
 42 66  1  0  0  0
 42113  1  0  0  0
 42114  1  0  0  0
 43 44  1  0  0  0
 44115  1  0  0  0
 45 46  2  0  0  0
 45116  1  0  0  0
 46117  1  0  0  0
 47118  1  0  0  0
 47119  1  0  0  0
 48 56  1  0  0  0
 48 65  1  0  0  0
 48120  1  0  0  0
 49 50  1  0  0  0
 49 53  1  0  0  0
 49 64  1  0  0  0
 49121  1  0  0  0
 50 51  1  0  0  0
 50122  1  0  0  0
 50123  1  0  0  0
 51 52  1  0  0  0
 51124  1  0  0  0
 51125  1  0  0  0
 52126  1  0  0  0
 52127  1  0  0  0
 53 54  1  0  0  0
 54 55  2  0  0  0
 54128  1  0  0  0
 55 57  1  0  0  0
 55129  1  0  0  0
 56 69  2  0  0  0
 57 58  2  0  0  0
 57130  1  0  0  0
 58131  1  0  0  0
 59 60  1  0  0  0
 59 61  1  0  0  0
 59 62  1  0  0  0
 60132  1  0  0  0
 60133  1  0  0  0
 60134  1  0  0  0
 61135  1  0  0  0
 61136  1  0  0  0
 61137  1  0  0  0
 62138  1  0  0  0
 62139  1  0  0  0
 62140  1  0  0  0
 63 65  1  0  0  0
 63141  1  0  0  0
 63142  1  0  0  0
 63143  1  0  0  0
 64144  1  0  0  0
 65145  1  0  0  0
 68 81  1  0  0  0
 71 72  2  0  0  0
 71 74  1  0  0  0
 71146  1  0  0  0
 72 75  1  0  0  0
 72147  1  0  0  0
 73 74  2  0  0  0
 73 76  1  0  0  0
 73148  1  0  0  0
 74 82  1  0  0  0
 75 76  2  0  0  0
 75 83  1  0  0  0
 76 86  1  0  0  0
 77 78  2  0  0  0
 77 79  1  0  0  0
 77149  1  0  0  0
 78 80  1  0  0  0
 78 81  1  0  0  0
 79 82  1  0  0  0
 79 84  2  0  0  0
 80 82  1  0  0  0
 80 85  2  0  0  0
 81150  1  0  0  0
 81151  1  0  0  0
 83152  1  0  0  0
M  ISO  4   1 100  68 101  81 101  83 100
M  END
> <chiral flag>
0

> <version>
0

> <s_m_source_file>
/data/baiqing/PycharmProjects/Reinvent-master-3.2/result/LINK_invent/BTK/process_docking_weight1_custom_product_contain_oxygen_bond_distance_aromatic_linkinvent_7_9_3/rearranged_h_0081.sdf

> <i_m_source_file_index>
85

> <r_mmod_Potential_Energy-OPLS-2005>
65.9530868530273

> <r_mmod_Stretch_Energy-OPLS-2005>
87.4591217041016

> <r_mmod_Bend_Energy-OPLS-2005>
191.136459350586

> <r_mmod_Torsional_Energy-OPLS-2005>
234.692810058594

> <r_mmod_Improper_Torsional_Energy-OPLS-2005>
3.64476919174194

> <r_mmod_Van_der_Waal_Energy-OPLS-2005>
149.155960083008

> <r_mmod_Electrostatic_Energy-OPLS-2005>
-432.338836669922

> <r_mmod_Solvation_Energy-OPLS-2005>
-225.600738525391

> <b_mmod_Minimization_Converged-OPLS-2005>
0

> <r_mmod_RMS_Derivative-OPLS-2005>
1.32441449165344

$$$$
85
                    3D
 Structure written by MMmdl.
148156  0  0  1  0            999 V2000
  -30.6167  -14.8101   20.4432 C   0  0  0  0  0  0
  -30.4281  -12.4961   19.4862 C   0  0  0  0  0  0
  -29.5110  -12.5107   18.2441 C   0  0  0  0  0  0
  -28.0405  -12.3243   18.6602 C   0  0  0  0  0  0
  -27.6361  -13.2417   19.8449 C   0  0  2  0  0  0
  -28.6809  -13.2235   20.9823 C   0  0  0  0  0  0
  -25.2484  -13.8214   20.5706 C   0  0  0  0  0  0
  -24.1792  -13.0441   20.9219 C   0  0  0  0  0  0
  -24.6400  -11.6924   20.8757 C   0  0  0  0  0  0
  -23.9081  -10.4295   21.0409 C   0  0  0  0  0  0
  -24.3628   -9.4207   21.9186 C   0  0  0  0  0  0
  -23.6301   -8.2243   22.0755 C   0  0  0  0  0  0
  -22.4282   -8.0282   21.3543 C   0  0  0  0  0  0
  -21.9920   -9.0257   20.4645 C   0  0  0  0  0  0
  -22.7252  -10.2136   20.3056 C   0  0  0  0  0  0
  -21.6856   -6.0737   22.5278 C   0  0  0  0  0  0
  -21.4015   -6.5642   23.8212 C   0  0  0  0  0  0
  -21.3659   -5.6794   24.9174 C   0  0  0  0  0  0
  -21.6042   -4.3057   24.7227 C   0  0  0  0  0  0
  -21.8820   -3.8147   23.4347 C   0  0  0  0  0  0
  -21.9194   -4.6965   22.3404 C   0  0  0  0  0  0
  -22.7811  -13.5212   21.1872 C   0  0  0  0  0  0
  -22.1662   -4.2151   21.0982 F   0  0  0  0  0  0
  -21.5629   -3.4541   25.7739 F   0  0  0  0  0  0
  -29.9743  -13.5851   20.3904 N   0  0  0  0  0  0
  -26.2916  -12.9439   20.3274 N   0  0  0  0  0  0
  -25.9332  -11.6570   20.5757 N   0  0  0  0  0  0
  -22.0461  -12.8200   22.0429 N   0  0  0  0  0  0
  -25.4150  -15.1941   20.4111 N   0  0  0  0  0  0
  -31.8129  -14.8361   20.1445 O   0  0  0  0  0  0
  -21.6644   -6.8882   21.4240 O   0  0  0  0  0  0
  -22.3491  -14.5515   20.6716 O   0  0  0  0  0  0
  -24.6359  -31.8524   23.1959 C   0  0  0  0  0  0
  -25.9172  -32.4737   23.8318 C   0  0  1  0  0  0
  -27.2135  -27.2244   20.1374 C   0  0  0  0  0  0
  -25.5953  -33.8539   24.2240 N   0  0  0  0  0  0
  -23.4356  -30.4749   21.5393 C   0  0  2  0  0  0
  -24.8869  -28.9220   20.1047 C   0  0  0  0  0  0
  -22.7533  -29.4589   22.4883 C   0  0  0  0  0  0
  -18.0304  -28.1394   22.8489 C   0  0  0  0  0  0
  -24.1489  -36.7267   23.2639 C   0  0  0  0  0  0
  -25.9862  -30.7527   21.3847 C   0  0  0  0  0  0
  -26.0607  -29.3732   20.7245 C   0  0  0  0  0  0
  -27.2303  -28.5362   20.7342 C   0  0  0  0  0  0
  -26.0249  -26.8615   19.4694 C   0  0  0  0  0  0
  -24.8766  -27.6754   19.4626 C   0  0  0  0  0  0
  -23.6583  -29.8119   20.1548 C   0  0  0  0  0  0
  -25.4117  -36.3055   24.0323 C   0  0  1  0  0  0
  -20.5913  -28.3716   23.1254 C   0  0  2  0  0  0
  -20.6784  -26.9427   22.5406 C   0  0  0  0  0  0
  -19.5756  -26.6391   21.5212 C   0  0  0  0  0  0
  -18.1941  -26.7936   22.1628 C   0  0  0  0  0  0
  -19.1560  -28.8874   23.2866 C   0  0  0  0  0  0
  -18.9474  -30.1471   23.8886 C   0  0  0  0  0  0
  -17.6470  -30.6591   24.0569 C   0  0  0  0  0  0
  -25.9064  -34.9428   23.5084 C   0  0  0  0  0  0
  -16.5363  -29.9085   23.6338 C   0  0  0  0  0  0
  -16.7288  -28.6506   23.0357 C   0  0  0  0  0  0
  -26.4517  -31.6572   25.0723 C   0  0  0  0  0  0
  -25.3721  -31.3752   26.1436 C   0  0  0  0  0  0
  -27.0361  -30.2974   24.6251 C   0  0  0  0  0  0
  -27.6067  -32.4318   25.7499 C   0  0  0  0  0  0
  -27.5575  -37.1789   24.8467 C   0  0  0  0  0  0
  -21.4236  -29.3048   22.3628 N   0  0  0  0  0  0
  -26.4286  -37.3759   23.9413 N   0  0  0  0  0  0
  -24.7048  -31.0452   22.0956 N   0  0  0  0  0  0
  -23.4213  -28.8132   23.3005 O   0  0  0  0  0  0
  -28.2170  -26.2176   20.2198 O   0  0  0  0  0  0
  -26.5638  -34.8911   22.4654 O   0  0  0  0  0  0
  -23.5498  -32.1372   23.7222 O   0  0  0  0  0  0
  -32.0352  -19.1681   20.3356 C   0  0  0  0  0  0
  -31.6176  -17.8247   20.4166 C   0  0  0  0  0  0
  -31.1238  -20.2404   20.3709 C   0  0  0  0  0  0
  -29.3330  -18.6118   20.5690 C   0  0  0  0  0  0
  -30.2537  -17.4609   20.5298 C   0  0  0  0  0  0
  -29.7328  -20.0298   20.4913 C   0  0  0  0  0  0
  -28.0937  -23.6129   20.8413 C   0  0  0  0  0  0
  -27.7915  -24.9869   20.8279 C   0  0  0  0  0  0
  -29.0818  -22.6020   20.2198 C   0  0  0  0  0  0
  -29.8765  -15.9956   20.6188 N   0  0  0  0  0  0
  -29.9957  -22.9649   19.4761 O   0  0  0  0  0  0
  -28.8476  -21.1669   20.5999 O   0  0  0  0  0  0
  -31.4686  -12.6136   19.1782 H   0  0  0  0  0  0
  -30.3770  -11.5320   19.9944 H   0  0  0  0  0  0
  -29.8046  -11.7253   17.5461 H   0  0  0  0  0  0
  -29.6267  -13.4555   17.7106 H   0  0  0  0  0  0
  -27.9128  -11.2792   18.9444 H   0  0  0  0  0  0
  -27.3800  -12.4898   17.8080 H   0  0  0  0  0  0
  -27.6161  -14.2538   19.4399 H   0  0  0  0  0  0
  -28.7325  -12.2399   21.4519 H   0  0  0  0  0  0
  -28.4060  -13.9280   21.7689 H   0  0  0  0  0  0
  -25.2770   -9.5686   22.4763 H   0  0  0  0  0  0
  -24.0009   -7.4638   22.7476 H   0  0  0  0  0  0
  -21.0850   -8.8779   19.8952 H   0  0  0  0  0  0
  -22.3709  -10.9675   19.6168 H   0  0  0  0  0  0
  -21.2007   -7.6148   23.9715 H   0  0  0  0  0  0
  -21.1479   -6.0525   25.9078 H   0  0  0  0  0  0
  -22.0599   -2.7609   23.2849 H   0  0  0  0  0  0
  -22.4084  -11.9865   22.4814 H   0  0  0  0  0  0
  -21.1075  -13.1215   22.2631 H   0  0  0  0  0  0
  -24.6418  -15.8427   20.5142 H   0  0  0  0  0  0
  -26.2531  -15.6337   20.0538 H   0  0  0  0  0  0
  -26.7242  -32.5380   23.1059 H   0  0  0  0  0  0
  -25.0095  -33.9666   25.0385 H   0  0  0  0  0  0
  -22.7337  -31.2983   21.3915 H   0  0  0  0  0  0
  -23.3752  -35.9599   23.3300 H   0  0  0  0  0  0
  -24.3578  -36.8894   22.2055 H   0  0  0  0  0  0
  -23.7243  -37.6466   23.6665 H   0  0  0  0  0  0
  -26.1330  -31.5122   20.6156 H   0  0  0  0  0  0
  -26.8597  -30.8004   22.0230 H   0  0  0  0  0  0
  -28.1204  -28.8649   21.2519 H   0  0  0  0  0  0
  -25.9664  -25.8958   18.9871 H   0  0  0  0  0  0
  -23.9815  -27.3251   18.9670 H   0  0  0  0  0  0
  -23.7858  -30.5902   19.4012 H   0  0  0  0  0  0
  -22.7755  -29.2483   19.8471 H   0  0  0  0  0  0
  -25.1297  -36.1895   25.0814 H   0  0  0  0  0  0
  -21.0012  -28.3300   24.1374 H   0  0  0  0  0  0
  -20.5678  -26.2326   23.3614 H   0  0  0  0  0  0
  -21.6649  -26.7437   22.1203 H   0  0  0  0  0  0
  -19.6912  -25.6301   21.1247 H   0  0  0  0  0  0
  -19.6686  -27.3194   20.6736 H   0  0  0  0  0  0
  -17.4206  -26.6694   21.4034 H   0  0  0  0  0  0
  -18.0340  -26.0071   22.9018 H   0  0  0  0  0  0
  -19.7947  -30.7301   24.2239 H   0  0  0  0  0  0
  -17.5021  -31.6268   24.5178 H   0  0  0  0  0  0
  -15.5362  -30.2983   23.7668 H   0  0  0  0  0  0
  -15.8689  -28.0822   22.7072 H   0  0  0  0  0  0
  -24.5914  -30.7075   25.7776 H   0  0  0  0  0  0
  -24.8891  -32.2927   26.4804 H   0  0  0  0  0  0
  -25.8026  -30.8982   27.0249 H   0  0  0  0  0  0
  -26.2959  -29.6715   24.1256 H   0  0  0  0  0  0
  -27.3995  -29.7254   25.4799 H   0  0  0  0  0  0
  -27.8860  -30.4220   23.9538 H   0  0  0  0  0  0
  -27.2680  -33.3638   26.2034 H   0  0  0  0  0  0
  -28.3897  -32.6845   25.0335 H   0  0  0  0  0  0
  -28.0705  -31.8467   26.5448 H   0  0  0  0  0  0
  -28.2597  -38.0082   24.7507 H   0  0  0  0  0  0
  -28.1067  -36.2615   24.6296 H   0  0  0  0  0  0
  -27.2296  -37.1447   25.8872 H   0  0  0  0  0  0
  -20.9429  -29.8756   21.6814 H   0  0  0  0  0  0
  -26.0159  -38.2832   24.1413 H   0  0  0  0  0  0
  -33.0915  -19.3845   20.2592 H   0  0  0  0  0  0
  -32.4014  -17.0851   20.4014 H   0  0  0  0  0  0
  -31.5311  -21.2393   20.3360 H   0  0  0  0  0  0
  -28.2779  -18.4061   20.6761 H   0  0  0  0  0  0
  -27.4249  -23.0835   21.5044 H   0  0  0  0  0  0
  -26.9669  -25.2323   21.4852 H   0  0  0  0  0  0
  -28.8983  -15.8233   20.7945 H   0  0  0  0  0  0
  1 25  1  0  0  0
  1 30  2  0  0  0
  1 80  1  0  0  0
  2  3  1  0  0  0
  2 25  1  0  0  0
  2 83  1  0  0  0
  2 84  1  0  0  0
  3  4  1  0  0  0
  3 85  1  0  0  0
  3 86  1  0  0  0
  4  5  1  0  0  0
  4 87  1  0  0  0
  4 88  1  0  0  0
  5  6  1  0  0  0
  5 26  1  0  0  0
  5 89  1  0  0  0
  6 25  1  0  0  0
  6 90  1  0  0  0
  6 91  1  0  0  0
  7  8  2  0  0  0
  7 26  1  0  0  0
  7 29  1  0  0  0
  8  9  1  0  0  0
  8 22  1  0  0  0
  9 10  1  0  0  0
  9 27  2  0  0  0
 10 11  2  0  0  0
 10 15  1  0  0  0
 11 12  1  0  0  0
 11 92  1  0  0  0
 12 13  2  0  0  0
 12 93  1  0  0  0
 13 14  1  0  0  0
 13 31  1  0  0  0
 14 15  2  0  0  0
 14 94  1  0  0  0
 15 95  1  0  0  0
 16 17  2  0  0  0
 16 21  1  0  0  0
 16 31  1  0  0  0
 17 18  1  0  0  0
 17 96  1  0  0  0
 18 19  2  0  0  0
 18 97  1  0  0  0
 19 20  1  0  0  0
 19 24  1  0  0  0
 20 21  2  0  0  0
 20 98  1  0  0  0
 21 23  1  0  0  0
 22 28  1  0  0  0
 22 32  2  0  0  0
 26 27  1  0  0  0
 28 99  1  0  0  0
 28100  1  0  0  0
 29101  1  0  0  0
 29102  1  0  0  0
 33 34  1  0  0  0
 33 66  1  0  0  0
 33 70  2  0  0  0
 34 36  1  0  0  0
 34 59  1  0  0  0
 34103  1  0  0  0
 35 44  2  0  0  0
 35 45  1  0  0  0
 35 68  1  0  0  0
 36 56  1  0  0  0
 36104  1  0  0  0
 37 39  1  0  0  0
 37 47  1  0  0  0
 37 66  1  0  0  0
 37105  1  0  0  0
 38 43  2  0  0  0
 38 46  1  0  0  0
 38 47  1  0  0  0
 39 64  1  0  0  0
 39 67  2  0  0  0
 40 52  1  0  0  0
 40 53  2  0  0  0
 40 58  1  0  0  0
 41106  1  0  0  0
 41107  1  0  0  0
 41108  1  0  0  0
 41 48  1  0  0  0
 42 43  1  0  0  0
 42 66  1  0  0  0
 42109  1  0  0  0
 42110  1  0  0  0
 43 44  1  0  0  0
 44111  1  0  0  0
 45 46  2  0  0  0
 45112  1  0  0  0
 46113  1  0  0  0
 47114  1  0  0  0
 47115  1  0  0  0
 48 56  1  0  0  0
 48 65  1  0  0  0
 48116  1  0  0  0
 49 50  1  0  0  0
 49 53  1  0  0  0
 49 64  1  0  0  0
 49117  1  0  0  0
 50 51  1  0  0  0
 50118  1  0  0  0
 50119  1  0  0  0
 51 52  1  0  0  0
 51120  1  0  0  0
 51121  1  0  0  0
 52122  1  0  0  0
 52123  1  0  0  0
 53 54  1  0  0  0
 54 55  2  0  0  0
 54124  1  0  0  0
 55 57  1  0  0  0
 55125  1  0  0  0
 56 69  2  0  0  0
 57 58  2  0  0  0
 57126  1  0  0  0
 58127  1  0  0  0
 59 60  1  0  0  0
 59 61  1  0  0  0
 59 62  1  0  0  0
 60128  1  0  0  0
 60129  1  0  0  0
 60130  1  0  0  0
 61131  1  0  0  0
 61132  1  0  0  0
 61133  1  0  0  0
 62134  1  0  0  0
 62135  1  0  0  0
 62136  1  0  0  0
 63 65  1  0  0  0
 63137  1  0  0  0
 63138  1  0  0  0
 63139  1  0  0  0
 64140  1  0  0  0
 65141  1  0  0  0
 68 78  1  0  0  0
 71 72  2  0  0  0
 71 73  1  0  0  0
 71142  1  0  0  0
 72 75  1  0  0  0
 72143  1  0  0  0
 73 76  2  0  0  0
 73144  1  0  0  0
 74 75  2  0  0  0
 74 76  1  0  0  0
 74145  1  0  0  0
 75 80  1  0  0  0
 76 82  1  0  0  0
 77 78  2  0  0  0
 77 79  1  0  0  0
 77146  1  0  0  0
 78147  1  0  0  0
 79 81  2  0  0  0
 79 82  1  0  0  0
 80148  1  0  0  0
M  ISO  4   1 100  68 101  78 101  80 100
M  END
> <chiral flag>
0

> <version>
0

> <s_m_source_file>
/data/baiqing/PycharmProjects/Reinvent-master-3.2/result/LINK_invent/BTK/process_docking_weight1_custom_product_contain_oxygen_bond_distance_aromatic_linkinvent_7_9_3/rearranged_h_0081.sdf

> <i_m_source_file_index>
86

> <r_mmod_Potential_Energy-OPLS-2005>
344.007965087891

> <r_mmod_Stretch_Energy-OPLS-2005>
171.801055908203

> <r_mmod_Bend_Energy-OPLS-2005>
246.977310180664

> <r_mmod_Torsional_Energy-OPLS-2005>
215.411544799805

> <r_mmod_Improper_Torsional_Energy-OPLS-2005>
5.03073692321777

> <r_mmod_Van_der_Waal_Energy-OPLS-2005>
147.356307983398

> <r_mmod_Electrostatic_Energy-OPLS-2005>
-345.918884277344

> <r_mmod_Solvation_Energy-OPLS-2005>
-221.285049438477

> <b_mmod_Minimization_Converged-OPLS-2005>
0

> <r_mmod_RMS_Derivative-OPLS-2005>
0.705360412597656

$$$$
