0
                    3D
 Structure written by MMmdl.
164173  0  0  1  0            999 V2000
  -30.5996  -14.2922   21.5829 C   0  0  0  0  0  0
  -30.6412  -14.9835   19.1743 C   0  0  0  0  0  0
  -29.6042  -14.7484   17.5944 C   0  0  0  0  0  0
  -27.7255  -14.9393   17.6586 C   0  0  0  0  0  0
  -26.8412  -15.1409   19.3488 C   0  0  2  0  0  0
  -28.0773  -15.3293   21.0903 C   0  0  0  0  0  0
  -25.0303  -14.4139   20.9300 C   0  0  0  0  0  0
  -24.3442  -13.0885   21.6747 C   0  0  0  0  0  0
  -24.8603  -11.5125   20.8802 C   0  0  0  0  0  0
  -24.0513  -10.3048   20.9848 C   0  0  0  0  0  0
  -24.4231   -9.3176   21.9091 C   0  0  0  0  0  0
  -23.6256   -8.1725   22.0846 C   0  0  0  0  0  0
  -22.4256   -8.0189   21.3525 C   0  0  0  0  0  0
  -22.0361   -9.0281   20.4522 C   0  0  0  0  0  0
  -22.8419  -10.1671   20.2666 C   0  0  0  0  0  0
  -21.6661   -6.0759   22.5288 C   0  0  0  0  0  0
  -21.3884   -6.5625   23.8238 C   0  0  0  0  0  0
  -21.3636   -5.6780   24.9192 C   0  0  0  0  0  0
  -21.6042   -4.3048   24.7207 C   0  0  0  0  0  0
  -21.8815   -3.8165   23.4308 C   0  0  0  0  0  0
  -21.9120   -4.7004   22.3372 C   0  0  0  0  0  0
  -22.8355  -13.3918   21.6832 C   0  0  0  0  0  0
  -22.1620   -4.2213   21.0945 F   0  0  0  0  0  0
  -21.5657   -3.4525   25.7696 F   0  0  0  0  0  0
  -29.8990  -15.1281   20.8273 N   0  0  0  0  0  0
  -25.9854  -13.9837   19.5028 N   0  0  0  0  0  0
  -25.9352  -11.9339   19.3950 N   0  0  0  0  0  0
  -22.0381  -12.5763   22.3350 N   0  0  0  0  0  0
  -24.9680  -15.7548   21.1673 N   0  0  0  0  0  0
  -31.7932  -14.1869   21.2486 O   0  0  0  0  0  0
  -21.6307   -6.9022   21.4323 O   0  0  0  0  0  0
  -22.3479  -14.3247   21.0177 O   0  0  0  0  0  0
  -24.8169  -31.6137   23.0350 C   0  0  0  0  0  0
  -26.0013  -32.3627   23.7407 C   0  0  1  0  0  0
  -27.0987  -25.3057   20.0762 C   0  0  0  0  0  0
  -25.5977  -33.7533   24.1114 N   0  0  0  0  0  0
  -23.6780  -30.1650   21.4321 C   0  0  2  0  0  0
  -25.0783  -28.2113   20.1007 C   0  0  0  0  0  0
  -22.8262  -29.3346   22.4402 C   0  0  0  0  0  0
  -18.0400  -28.1499   22.8392 C   0  0  0  0  0  0
  -24.1485  -36.6803   23.2698 C   0  0  0  0  0  0
  -26.2752  -29.8544   21.4870 C   0  0  0  0  0  0
  -26.2858  -28.2798   20.7969 C   0  0  0  0  0  0
  -27.2179  -26.9079   20.7287 C   0  0  0  0  0  0
  -25.8907  -25.7998   19.3607 C   0  0  0  0  0  0
  -24.9983  -26.9988   19.3623 C   0  0  0  0  0  0
  -23.9669  -29.3489   20.1125 C   0  0  0  0  0  0
  -25.4182  -36.2419   24.0194 C   0  0  1  0  0  0
  -20.6078  -28.3853   23.0972 C   0  0  2  0  0  0
  -20.6782  -26.9407   22.5469 C   0  0  0  0  0  0
  -19.5795  -26.6314   21.5251 C   0  0  0  0  0  0
  -18.1966  -26.8003   22.1596 C   0  0  0  0  0  0
  -19.1699  -28.9031   23.2616 C   0  0  0  0  0  0
  -18.9591  -30.1591   23.8696 C   0  0  0  0  0  0
  -17.6570  -30.6641   24.0527 C   0  0  0  0  0  0
  -25.9239  -34.8841   23.4626 C   0  0  0  0  0  0
  -16.5445  -29.9102   23.6390 C   0  0  0  0  0  0
  -16.7372  -28.6547   23.0364 C   0  0  0  0  0  0
  -26.4818  -31.6334   25.0580 C   0  0  0  0  0  0
  -25.3556  -31.3960   26.0955 C   0  0  0  0  0  0
  -27.0995  -30.2620   24.7355 C   0  0  0  0  0  0
  -27.5995  -32.4577   25.7435 C   0  0  0  0  0  0
  -27.5523  -37.1534   24.8456 C   0  0  0  0  0  0
  -21.4811  -29.2812   22.3140 N   0  0  0  0  0  0
  -26.4197  -37.3334   23.9420 N   0  0  0  0  0  0
  -24.9750  -30.6135   22.0379 N   0  0  0  0  0  0
  -23.4102  -28.7235   23.3368 O   0  0  0  0  0  0
  -27.8256  -23.4761   20.0032 O   0  0  0  0  0  0
  -26.6122  -34.8717   22.4414 O   0  0  0  0  0  0
  -23.6951  -31.9856   23.4491 O   0  0  0  0  0  0
  -28.1604  -10.6579   21.8648 C   0  0  0  0  0  0
  -27.3423  -11.2630   22.8402 C   0  0  0  0  0  0
  -28.6232  -11.4622   20.7878 C   0  0  0  0  0  0
  -27.1385  -12.6395   22.6425 C   0  0  0  0  0  0
  -28.0270  -12.7752   20.5979 C   0  0  0  0  0  0
  -26.6711  -12.8473   21.2663 C   0  0  0  0  0  0
  -29.1621  -18.0833   18.3291 C   0  0  0  0  0  0
  -30.2222  -17.9286   17.5143 C   0  0  0  0  0  0
  -28.6294  -19.8307   18.4214 C   0  0  0  0  0  0
  -27.9848  -18.5842   19.9627 C   0  0  0  0  0  0
  -28.0622  -20.9986   19.6746 C   0  0  2  0  0  0
  -29.7186  -10.8692   19.9106 C   0  0  0  0  0  0
  -28.5096  -13.3783   23.2235 C   0  0  0  0  0  0
  -28.6324  -13.8549   19.4662 C   0  0  0  0  0  0
  -29.9154  -13.5144   22.5293 N   0  0  0  0  0  0
  -28.6725  -16.6889   19.2860 N   0  3  1  0  0  0
  -24.3078  -12.9944   19.6629 F   0  0  0  0  0  0
  -31.2512  -15.8826   19.0817 H   0  0  0  0  0  0
  -31.4109  -14.2164   19.0512 H   0  0  0  0  0  0
  -29.8221  -13.7436   17.2164 H   0  0  0  0  0  0
  -29.9803  -15.3177   16.7503 H   0  0  0  0  0  0
  -27.2382  -14.1718   17.0509 H   0  0  0  0  0  0
  -27.5106  -15.8482   17.0935 H   0  0  0  0  0  0
  -26.2098  -16.0158   19.1785 H   0  0  0  0  0  0
  -27.5577  -15.0125   21.9593 H   0  0  0  0  0  0
  -27.9935  -16.3397   21.4862 H   0  0  0  0  0  0
  -25.3327   -9.4241   22.4804 H   0  0  0  0  0  0
  -23.9491   -7.4169   22.7832 H   0  0  0  0  0  0
  -21.1174   -8.9225   19.8926 H   0  0  0  0  0  0
  -22.5327  -10.9383   19.5739 H   0  0  0  0  0  0
  -21.1856   -7.6137   23.9742 H   0  0  0  0  0  0
  -21.1491   -6.0513   25.9113 H   0  0  0  0  0  0
  -22.0625   -2.7630   23.2790 H   0  0  0  0  0  0
  -22.4111  -11.8002   22.8595 H   0  0  0  0  0  0
  -21.0430  -12.7397   22.3297 H   0  0  0  0  0  0
  -24.3265  -16.1317   21.8576 H   0  0  0  0  0  0
  -25.2801  -16.4611   20.5135 H   0  0  0  0  0  0
  -26.8318  -32.3981   23.0334 H   0  0  0  0  0  0
  -24.9732  -33.8286   24.9007 H   0  0  0  0  0  0
  -23.0905  -31.0412   21.1466 H   0  0  0  0  0  0
  -23.3811  -35.9060   23.3151 H   0  0  0  0  0  0
  -24.3514  -36.8768   22.2162 H   0  0  0  0  0  0
  -23.7181  -37.5838   23.7026 H   0  0  0  0  0  0
  -26.6631  -30.5090   20.7052 H   0  0  0  0  0  0
  -27.0673  -29.8652   22.2206 H   0  0  0  0  0  0
  -28.1073  -27.0181   21.3349 H   0  0  0  0  0  0
  -25.5018  -25.0301   18.7088 H   0  0  0  0  0  0
  -24.1295  -26.9057   18.7259 H   0  0  0  0  0  0
  -24.2512  -30.0588   19.3362 H   0  0  0  0  0  0
  -23.0348  -28.9111   19.7569 H   0  0  0  0  0  0
  -25.1454  -36.0992   25.0678 H   0  0  0  0  0  0
  -21.0089  -28.3569   24.1131 H   0  0  0  0  0  0
  -20.5526  -26.2515   23.3828 H   0  0  0  0  0  0
  -21.6637  -26.7156   22.1372 H   0  0  0  0  0  0
  -19.6921  -25.6164   21.1413 H   0  0  0  0  0  0
  -19.6802  -27.3025   20.6709 H   0  0  0  0  0  0
  -17.4262  -26.6779   21.3965 H   0  0  0  0  0  0
  -18.0278  -26.0186   22.9023 H   0  0  0  0  0  0
  -19.8057  -30.7458   24.1984 H   0  0  0  0  0  0
  -17.5106  -31.6299   24.5184 H   0  0  0  0  0  0
  -15.5435  -30.2945   23.7822 H   0  0  0  0  0  0
  -15.8768  -28.0807   22.7167 H   0  0  0  0  0  0
  -24.5822  -30.7283   25.7138 H   0  0  0  0  0  0
  -24.8689  -32.3286   26.3846 H   0  0  0  0  0  0
  -25.7426  -30.9406   27.0089 H   0  0  0  0  0  0
  -26.3794  -29.5699   24.3005 H   0  0  0  0  0  0
  -27.4594  -29.7792   25.6456 H   0  0  0  0  0  0
  -27.9689  -30.3556   24.0848 H   0  0  0  0  0  0
  -27.2351  -33.4116   26.1290 H   0  0  0  0  0  0
  -28.4125  -32.6795   25.0493 H   0  0  0  0  0  0
  -28.0339  -31.9263   26.5924 H   0  0  0  0  0  0
  -28.2390  -37.9962   24.7564 H   0  0  0  0  0  0
  -28.1163  -36.2472   24.6203 H   0  0  0  0  0  0
  -27.2251  -37.1045   25.8855 H   0  0  0  0  0  0
  -21.0423  -29.8234   21.5815 H   0  0  0  0  0  0
  -25.9909  -38.2319   24.1476 H   0  0  0  0  0  0
  -28.5408   -9.6590   22.0343 H   0  0  0  0  0  0
  -27.3246  -10.8086   23.8206 H   0  0  0  0  0  0
  -30.7793  -17.0264   17.3846 H   0  0  0  0  0  0
  -30.5978  -18.7698   16.9475 H   0  0  0  0  0  0
  -27.9208  -19.9315   17.5987 H   0  0  0  0  0  0
  -29.5092  -20.3531   18.0484 H   0  0  0  0  0  0
  -26.9111  -18.4049   19.9177 H   0  0  0  0  0  0
  -28.1997  -18.5018   21.0270 H   0  0  0  0  0  0
  -28.9330  -21.0957   20.3206 H   0  0  0  0  0  0
  -29.9549   -9.8462   20.2048 H   0  0  0  0  0  0
  -30.6415  -11.4406   19.9817 H   0  0  0  0  0  0
  -29.4049  -10.8365   18.8688 H   0  0  0  0  0  0
  -28.2677  -14.3303   23.6933 H   0  0  0  0  0  0
  -28.7568  -12.8146   24.1259 H   0  0  0  0  0  0
  -28.1961  -13.1528   18.7331 H   0  0  0  0  0  0
  -29.5030  -13.2071   19.3743 H   0  0  0  0  0  0
  -30.5568  -12.8487   22.9368 H   0  0  0  0  0  0
  -29.4148  -16.6176   19.9672 H   0  0  0  0  0  0
  1 25  1  0  0  0
  1 30  2  0  0  0
  1 85  1  0  0  0
  2  3  1  0  0  0
  2 25  1  0  0  0
  2 88  1  0  0  0
  2 89  1  0  0  0
  3  4  1  0  0  0
  3 90  1  0  0  0
  3 91  1  0  0  0
  4  5  1  0  0  0
  4 92  1  0  0  0
  4 93  1  0  0  0
  5  6  1  0  0  0
  5 26  1  0  0  0
  5 94  1  0  0  0
  6 25  1  0  0  0
  6 95  1  0  0  0
  6 96  1  0  0  0
  7  8  2  0  0  0
  7 26  1  0  0  0
  7 29  1  0  0  0
  8  9  1  0  0  0
  8 22  1  0  0  0
  9 10  1  0  0  0
  9 27  2  0  0  0
 10 11  2  0  0  0
 10 15  1  0  0  0
 11 12  1  0  0  0
 11 97  1  0  0  0
 12 13  2  0  0  0
 12 98  1  0  0  0
 13 14  1  0  0  0
 13 31  1  0  0  0
 14 15  2  0  0  0
 14 99  1  0  0  0
 15100  1  0  0  0
 16 17  2  0  0  0
 16 21  1  0  0  0
 16 31  1  0  0  0
 17 18  1  0  0  0
 17101  1  0  0  0
 18 19  2  0  0  0
 18102  1  0  0  0
 19 20  1  0  0  0
 19 24  1  0  0  0
 20 21  2  0  0  0
 20103  1  0  0  0
 21 23  1  0  0  0
 22 28  1  0  0  0
 22 32  2  0  0  0
 26 27  1  0  0  0
 28104  1  0  0  0
 28105  1  0  0  0
 29106  1  0  0  0
 29107  1  0  0  0
 33 34  1  0  0  0
 33 66  1  0  0  0
 33 70  2  0  0  0
 34 36  1  0  0  0
 34 59  1  0  0  0
 34108  1  0  0  0
 35 44  2  0  0  0
 35 45  1  0  0  0
 35 68  1  0  0  0
 36 56  1  0  0  0
 36109  1  0  0  0
 37 39  1  0  0  0
 37 47  1  0  0  0
 37 66  1  0  0  0
 37110  1  0  0  0
 38 43  2  0  0  0
 38 46  1  0  0  0
 38 47  1  0  0  0
 39 64  1  0  0  0
 39 67  2  0  0  0
 40 52  1  0  0  0
 40 53  2  0  0  0
 40 58  1  0  0  0
 41111  1  0  0  0
 41112  1  0  0  0
 41113  1  0  0  0
 41 48  1  0  0  0
 42 43  1  0  0  0
 42 66  1  0  0  0
 42114  1  0  0  0
 42115  1  0  0  0
 43 44  1  0  0  0
 44116  1  0  0  0
 45 46  2  0  0  0
 45117  1  0  0  0
 46118  1  0  0  0
 47119  1  0  0  0
 47120  1  0  0  0
 48 56  1  0  0  0
 48 65  1  0  0  0
 48121  1  0  0  0
 49 50  1  0  0  0
 49 53  1  0  0  0
 49 64  1  0  0  0
 49122  1  0  0  0
 50 51  1  0  0  0
 50123  1  0  0  0
 50124  1  0  0  0
 51 52  1  0  0  0
 51125  1  0  0  0
 51126  1  0  0  0
 52127  1  0  0  0
 52128  1  0  0  0
 53 54  1  0  0  0
 54 55  2  0  0  0
 54129  1  0  0  0
 55 57  1  0  0  0
 55130  1  0  0  0
 56 69  2  0  0  0
 57 58  2  0  0  0
 57131  1  0  0  0
 58132  1  0  0  0
 59 60  1  0  0  0
 59 61  1  0  0  0
 59 62  1  0  0  0
 60133  1  0  0  0
 60134  1  0  0  0
 60135  1  0  0  0
 61136  1  0  0  0
 61137  1  0  0  0
 61138  1  0  0  0
 62139  1  0  0  0
 62140  1  0  0  0
 62141  1  0  0  0
 63 65  1  0  0  0
 63142  1  0  0  0
 63143  1  0  0  0
 63144  1  0  0  0
 64145  1  0  0  0
 65146  1  0  0  0
 68 81  1  0  0  0
 71 72  2  0  0  0
 71 73  1  0  0  0
 71147  1  0  0  0
 72 74  1  0  0  0
 72148  1  0  0  0
 73 75  2  0  0  0
 73 82  1  0  0  0
 74 76  2  0  0  0
 74 83  1  0  0  0
 75 76  1  0  0  0
 75 84  1  0  0  0
 76 87  1  0  0  0
 77 78  2  0  0  0
 77 79  1  0  0  0
 77 86  1  0  0  0
 78149  1  0  0  0
 78150  1  0  0  0
 79 81  1  0  0  0
 79151  1  0  0  0
 79152  1  0  0  0
 80 81  1  0  0  0
 80 86  1  0  0  0
 80153  1  0  0  0
 80154  1  0  0  0
 81155  1  0  0  0
 82156  1  0  0  0
 82157  1  0  0  0
 82158  1  0  0  0
 83 85  1  0  0  0
 83159  1  0  0  0
 83160  1  0  0  0
 84161  1  0  0  0
 84162  1  0  0  0
 84 86  1  0  0  0
 85163  1  0  0  0
 86164  1  0  0  0
M  CHG  1  86   1
M  ISO  4   1 100  68 101  81 101  85 100
M  END
> <chiral flag>
0

> <version>
0

> <s_m_source_file>
/data/baiqing/PycharmProjects/Reinvent-master-3.2/result/LINK_invent/BTK/process_docking_weight1_custom_product_contain_oxygen_bond_distance_aromatic_linkinvent_7_9_3/rearranged_h_0031.sdf

> <i_m_source_file_index>
1

> <r_mmod_Potential_Energy-OPLS-2005>
29453.546875

> <r_mmod_Stretch_Energy-OPLS-2005>
15256.615234375

> <r_mmod_Bend_Energy-OPLS-2005>
2615.76098632812

> <r_mmod_Torsional_Energy-OPLS-2005>
700.651245117188

> <r_mmod_Improper_Torsional_Energy-OPLS-2005>
82.5096893310547

> <r_mmod_Van_der_Waal_Energy-OPLS-2005>
4565.5693359375

> <r_mmod_Electrostatic_Energy-OPLS-2005>
-312.531616210938

> <r_mmod_Solvation_Energy-OPLS-2005>
-426.413269042969

> <b_mmod_Minimization_Converged-OPLS-2005>
0

> <r_mmod_RMS_Derivative-OPLS-2005>
6.96332216262817

$$$$
1
                    3D
 Structure written by MMmdl.
166175  0  0  1  0            999 V2000
  -30.5884  -14.6622   20.5093 C   0  0  0  0  0  0
  -30.4499  -12.4104   19.4532 C   0  0  0  0  0  0
  -29.5165  -12.5140   18.2249 C   0  0  0  0  0  0
  -28.0368  -12.3435   18.6329 C   0  0  0  0  0  0
  -27.6505  -13.2114   19.8611 C   0  0  2  0  0  0
  -28.6933  -13.0582   20.9901 C   0  0  0  0  0  0
  -25.2519  -13.8132   20.5714 C   0  0  0  0  0  0
  -24.1784  -13.0393   20.9185 C   0  0  0  0  0  0
  -24.6363  -11.6874   20.8702 C   0  0  0  0  0  0
  -23.9038  -10.4269   21.0382 C   0  0  0  0  0  0
  -24.3598   -9.4194   21.9158 C   0  0  0  0  0  0
  -23.6282   -8.2228   22.0730 C   0  0  0  0  0  0
  -22.4264   -8.0260   21.3527 C   0  0  0  0  0  0
  -21.9892   -9.0231   20.4629 C   0  0  0  0  0  0
  -22.7215  -10.2108   20.3033 C   0  0  0  0  0  0
  -21.6845   -6.0727   22.5277 C   0  0  0  0  0  0
  -21.4013   -6.5631   23.8214 C   0  0  0  0  0  0
  -21.3653   -5.6777   24.9173 C   0  0  0  0  0  0
  -21.6044   -4.3043   24.7218 C   0  0  0  0  0  0
  -21.8821   -3.8139   23.4341 C   0  0  0  0  0  0
  -21.9187   -4.6956   22.3401 C   0  0  0  0  0  0
  -22.7804  -13.5191   21.1866 C   0  0  0  0  0  0
  -22.1657   -4.2150   21.0973 F   0  0  0  0  0  0
  -21.5634   -3.4522   25.7728 F   0  0  0  0  0  0
  -30.0072  -13.4211   20.4336 N   0  0  0  0  0  0
  -26.2958  -12.9316   20.3295 N   0  0  0  0  0  0
  -25.9286  -11.6470   20.5706 N   0  0  0  0  0  0
  -22.0438  -12.8196   22.0429 N   0  0  0  0  0  0
  -25.4176  -15.1859   20.4259 N   0  0  0  0  0  0
  -31.7511  -14.8525   20.1391 O   0  0  0  0  0  0
  -21.6623   -6.8863   21.4236 O   0  0  0  0  0  0
  -22.3494  -14.5500   20.6711 O   0  0  0  0  0  0
  -24.6244  -31.8568   23.1990 C   0  0  0  0  0  0
  -25.9092  -32.4758   23.8314 C   0  0  1  0  0  0
  -27.2403  -27.3241   20.1067 C   0  0  0  0  0  0
  -25.5904  -33.8559   24.2246 N   0  0  0  0  0  0
  -23.4176  -30.4762   21.5418 C   0  0  2  0  0  0
  -24.8639  -28.9207   20.1107 C   0  0  0  0  0  0
  -22.7453  -29.4598   22.4952 C   0  0  0  0  0  0
  -18.0280  -28.1382   22.8483 C   0  0  0  0  0  0
  -24.1488  -36.7283   23.2641 C   0  0  0  0  0  0
  -25.9554  -30.7874   21.3658 C   0  0  0  0  0  0
  -26.0286  -29.4136   20.7098 C   0  0  0  0  0  0
  -27.2130  -28.6261   20.6951 C   0  0  0  0  0  0
  -26.0447  -26.8617   19.5130 C   0  0  0  0  0  0
  -24.8739  -27.6506   19.5062 C   0  0  0  0  0  0
  -23.6302  -29.8001   20.1595 C   0  0  0  0  0  0
  -25.4110  -36.3071   24.0331 C   0  0  1  0  0  0
  -20.5872  -28.3674   23.1299 C   0  0  2  0  0  0
  -20.6764  -26.9402   22.5416 C   0  0  0  0  0  0
  -19.5748  -26.6378   21.5211 C   0  0  0  0  0  0
  -18.1925  -26.7921   22.1624 C   0  0  0  0  0  0
  -19.1529  -28.8846   23.2882 C   0  0  0  0  0  0
  -18.9459  -30.1449   23.8892 C   0  0  0  0  0  0
  -17.6460  -30.6583   24.0562 C   0  0  0  0  0  0
  -25.9048  -34.9441   23.5097 C   0  0  0  0  0  0
  -16.5352  -29.9081   23.6328 C   0  0  0  0  0  0
  -16.7265  -28.6501   23.0344 C   0  0  0  0  0  0
  -26.4480  -31.6577   25.0686 C   0  0  0  0  0  0
  -25.3718  -31.3712   26.1421 C   0  0  0  0  0  0
  -27.0324  -30.3009   24.6121 C   0  0  0  0  0  0
  -27.6042  -32.4312   25.7454 C   0  0  0  0  0  0
  -27.5583  -37.1791   24.8464 C   0  0  0  0  0  0
  -21.4170  -29.3026   22.3692 N   0  0  0  0  0  0
  -26.4283  -37.3771   23.9414 N   0  0  0  0  0  0
  -24.6849  -31.0577   22.0928 N   0  0  0  0  0  0
  -23.4181  -28.8147   23.3031 O   0  0  0  0  0  0
  -28.4185  -26.5691   20.1590 O   0  0  0  0  0  0
  -26.5627  -34.8924   22.4672 O   0  0  0  0  0  0
  -23.5414  -32.1369   23.7322 O   0  0  0  0  0  0
  -30.3151  -19.3693   21.7156 C   0  0  0  0  0  0
  -28.7957  -19.2676   19.8655 C   0  0  0  0  0  0
  -29.4533  -20.0740   20.8297 C   0  0  0  0  0  0
  -30.4788  -17.9491   21.6949 C   0  0  0  0  0  0
  -28.9667  -17.8455   19.8138 C   0  0  0  0  0  0
  -29.7984  -17.1419   20.7404 C   0  0  0  0  0  0
  -28.6280  -23.5160   17.7172 C   0  0  0  0  0  0
  -28.5355  -24.9970   18.1566 C   0  0  0  0  0  0
  -29.3457  -22.6051   18.7379 C   0  0  0  0  0  0
  -28.1116  -23.9147   20.4982 C   0  0  0  0  0  0
  -28.6346  -25.1794   19.6880 C   0  0  1  0  0  0
  -31.3533  -17.3070   22.7590 C   0  0  0  0  0  0
  -28.2022  -17.0806   18.7492 C   0  0  0  0  0  0
  -29.2253  -21.6274   21.0539 C   0  0  0  0  0  0
  -29.7333  -15.6799   20.8504 N   0  0  0  0  0  0
  -28.5857  -22.5337   20.0126 N   0  3  2  0  0  0
  -31.4885  -12.5613   19.1547 H   0  0  0  0  0  0
  -30.4072  -11.4115   19.8902 H   0  0  0  0  0  0
  -29.7907  -11.7654   17.4805 H   0  0  0  0  0  0
  -29.6536  -13.4837   17.7430 H   0  0  0  0  0  0
  -27.8795  -11.2888   18.8641 H   0  0  0  0  0  0
  -27.3832  -12.5681   17.7885 H   0  0  0  0  0  0
  -27.6670  -14.2465   19.5236 H   0  0  0  0  0  0
  -28.7092  -12.0296   21.3530 H   0  0  0  0  0  0
  -28.4284  -13.6699   21.8538 H   0  0  0  0  0  0
  -25.2740   -9.5686   22.4730 H   0  0  0  0  0  0
  -23.9996   -7.4617   22.7449 H   0  0  0  0  0  0
  -21.0820   -8.8734   19.8942 H   0  0  0  0  0  0
  -22.3657  -10.9630   19.6144 H   0  0  0  0  0  0
  -21.2012   -7.6141   23.9720 H   0  0  0  0  0  0
  -21.1474   -6.0502   25.9073 H   0  0  0  0  0  0
  -22.0612   -2.7604   23.2828 H   0  0  0  0  0  0
  -22.4033  -11.9869   22.4864 H   0  0  0  0  0  0
  -21.1048  -13.1219   22.2617 H   0  0  0  0  0  0
  -24.6483  -15.8352   20.5516 H   0  0  0  0  0  0
  -26.2748  -15.6369   20.1393 H   0  0  0  0  0  0
  -26.7149  -32.5420   23.1053 H   0  0  0  0  0  0
  -25.0039  -33.9687   25.0382 H   0  0  0  0  0  0
  -22.7113  -31.2959   21.3936 H   0  0  0  0  0  0
  -23.3756  -35.9616   23.3297 H   0  0  0  0  0  0
  -24.3577  -36.8909   22.2059 H   0  0  0  0  0  0
  -23.7244  -37.6480   23.6666 H   0  0  0  0  0  0
  -26.0815  -31.5488   20.5953 H   0  0  0  0  0  0
  -26.8392  -30.8389   21.9903 H   0  0  0  0  0  0
  -28.1117  -29.0060   21.1609 H   0  0  0  0  0  0
  -25.9872  -25.8797   19.0698 H   0  0  0  0  0  0
  -23.9764  -27.2598   19.0466 H   0  0  0  0  0  0
  -23.7455  -30.5705   19.3969 H   0  0  0  0  0  0
  -22.7516  -29.2245   19.8637 H   0  0  0  0  0  0
  -25.1300  -36.1914   25.0824 H   0  0  0  0  0  0
  -20.9963  -28.3255   24.1424 H   0  0  0  0  0  0
  -20.5661  -26.2288   23.3609 H   0  0  0  0  0  0
  -21.6634  -26.7434   22.1220 H   0  0  0  0  0  0
  -19.6912  -25.6289   21.1238 H   0  0  0  0  0  0
  -19.6697  -27.3191   20.6739 H   0  0  0  0  0  0
  -17.4197  -26.6666   21.4022 H   0  0  0  0  0  0
  -18.0340  -26.0064   22.9023 H   0  0  0  0  0  0
  -19.7934  -30.7266   24.2261 H   0  0  0  0  0  0
  -17.5015  -31.6263   24.5164 H   0  0  0  0  0  0
  -15.5353  -30.2991   23.7640 H   0  0  0  0  0  0
  -15.8664  -28.0825   22.7057 H   0  0  0  0  0  0
  -24.5886  -30.7067   25.7755 H   0  0  0  0  0  0
  -24.8915  -32.2877   26.4855 H   0  0  0  0  0  0
  -25.8054  -30.8882   27.0184 H   0  0  0  0  0  0
  -26.2890  -29.6755   24.1167 H   0  0  0  0  0  0
  -27.4060  -29.7266   25.4606 H   0  0  0  0  0  0
  -27.8738  -30.4305   23.9312 H   0  0  0  0  0  0
  -27.2650  -33.3609   26.2029 H   0  0  0  0  0  0
  -28.3850  -32.6871   25.0282 H   0  0  0  0  0  0
  -28.0704  -31.8431   26.5365 H   0  0  0  0  0  0
  -28.2591  -38.0098   24.7525 H   0  0  0  0  0  0
  -28.1088  -36.2630   24.6273 H   0  0  0  0  0  0
  -27.2299  -37.1424   25.8865 H   0  0  0  0  0  0
  -20.9346  -29.8740   21.6905 H   0  0  0  0  0  0
  -26.0168  -38.2845   24.1421 H   0  0  0  0  0  0
  -30.8303  -19.9326   22.4818 H   0  0  0  0  0  0
  -28.1144  -19.7320   19.1660 H   0  0  0  0  0  0
  -29.1275  -23.4528   16.7500 H   0  0  0  0  0  0
  -27.6222  -23.1292   17.5503 H   0  0  0  0  0  0
  -27.6235  -25.4276   17.7495 H   0  0  0  0  0  0
  -29.3467  -25.5613   17.6955 H   0  0  0  0  0  0
  -30.3580  -22.9652   18.9266 H   0  0  0  0  0  0
  -29.4551  -21.6041   18.3175 H   0  0  0  0  0  0
  -27.0227  -23.9147   20.4699 H   0  0  0  0  0  0
  -28.3746  -24.0445   21.5474 H   0  0  0  0  0  0
  -29.7089  -25.1145   19.8713 H   0  0  0  0  0  0
  -32.3223  -17.0421   22.3360 H   0  0  0  0  0  0
  -30.8923  -16.4052   23.1628 H   0  0  0  0  0  0
  -31.5212  -17.9840   23.5978 H   0  0  0  0  0  0
  -27.9608  -17.7228   17.9026 H   0  0  0  0  0  0
  -27.2679  -16.6981   19.1515 H   0  0  0  0  0  0
  -28.7852  -16.2438   18.3654 H   0  0  0  0  0  0
  -30.1901  -22.0661   21.3137 H   0  0  0  0  0  0
  -28.6218  -21.7057   21.9591 H   0  0  0  0  0  0
  -28.8167  -15.3300   21.0804 H   0  0  0  0  0  0
  -27.7294  -22.0516   19.7810 H   0  0  0  0  0  0
  1 25  1  0  0  0
  1 30  2  0  0  0
  1 85  1  0  0  0
  2  3  1  0  0  0
  2 25  1  0  0  0
  2 87  1  0  0  0
  2 88  1  0  0  0
  3  4  1  0  0  0
  3 89  1  0  0  0
  3 90  1  0  0  0
  4  5  1  0  0  0
  4 91  1  0  0  0
  4 92  1  0  0  0
  5  6  1  0  0  0
  5 26  1  0  0  0
  5 93  1  0  0  0
  6 25  1  0  0  0
  6 94  1  0  0  0
  6 95  1  0  0  0
  7  8  2  0  0  0
  7 26  1  0  0  0
  7 29  1  0  0  0
  8  9  1  0  0  0
  8 22  1  0  0  0
  9 10  1  0  0  0
  9 27  2  0  0  0
 10 11  2  0  0  0
 10 15  1  0  0  0
 11 12  1  0  0  0
 11 96  1  0  0  0
 12 13  2  0  0  0
 12 97  1  0  0  0
 13 14  1  0  0  0
 13 31  1  0  0  0
 14 15  2  0  0  0
 14 98  1  0  0  0
 15 99  1  0  0  0
 16 17  2  0  0  0
 16 21  1  0  0  0
 16 31  1  0  0  0
 17 18  1  0  0  0
 17100  1  0  0  0
 18 19  2  0  0  0
 18101  1  0  0  0
 19 20  1  0  0  0
 19 24  1  0  0  0
 20 21  2  0  0  0
 20102  1  0  0  0
 21 23  1  0  0  0
 22 28  1  0  0  0
 22 32  2  0  0  0
 26 27  1  0  0  0
 28103  1  0  0  0
 28104  1  0  0  0
 29105  1  0  0  0
 29106  1  0  0  0
 33 34  1  0  0  0
 33 66  1  0  0  0
 33 70  2  0  0  0
 34 36  1  0  0  0
 34 59  1  0  0  0
 34107  1  0  0  0
 35 44  2  0  0  0
 35 45  1  0  0  0
 35 68  1  0  0  0
 36 56  1  0  0  0
 36108  1  0  0  0
 37 39  1  0  0  0
 37 47  1  0  0  0
 37 66  1  0  0  0
 37109  1  0  0  0
 38 43  2  0  0  0
 38 46  1  0  0  0
 38 47  1  0  0  0
 39 64  1  0  0  0
 39 67  2  0  0  0
 40 52  1  0  0  0
 40 53  2  0  0  0
 40 58  1  0  0  0
 41110  1  0  0  0
 41111  1  0  0  0
 41112  1  0  0  0
 41 48  1  0  0  0
 42 43  1  0  0  0
 42 66  1  0  0  0
 42113  1  0  0  0
 42114  1  0  0  0
 43 44  1  0  0  0
 44115  1  0  0  0
 45 46  2  0  0  0
 45116  1  0  0  0
 46117  1  0  0  0
 47118  1  0  0  0
 47119  1  0  0  0
 48 56  1  0  0  0
 48 65  1  0  0  0
 48120  1  0  0  0
 49 50  1  0  0  0
 49 53  1  0  0  0
 49 64  1  0  0  0
 49121  1  0  0  0
 50 51  1  0  0  0
 50122  1  0  0  0
 50123  1  0  0  0
 51 52  1  0  0  0
 51124  1  0  0  0
 51125  1  0  0  0
 52126  1  0  0  0
 52127  1  0  0  0
 53 54  1  0  0  0
 54 55  2  0  0  0
 54128  1  0  0  0
 55 57  1  0  0  0
 55129  1  0  0  0
 56 69  2  0  0  0
 57 58  2  0  0  0
 57130  1  0  0  0
 58131  1  0  0  0
 59 60  1  0  0  0
 59 61  1  0  0  0
 59 62  1  0  0  0
 60132  1  0  0  0
 60133  1  0  0  0
 60134  1  0  0  0
 61135  1  0  0  0
 61136  1  0  0  0
 61137  1  0  0  0
 62138  1  0  0  0
 62139  1  0  0  0
 62140  1  0  0  0
 63 65  1  0  0  0
 63141  1  0  0  0
 63142  1  0  0  0
 63143  1  0  0  0
 64144  1  0  0  0
 65145  1  0  0  0
 68 81  1  0  0  0
 71 73  2  0  0  0
 71 74  1  0  0  0
 71146  1  0  0  0
 72 73  1  0  0  0
 72 75  2  0  0  0
 72147  1  0  0  0
 73 84  1  0  0  0
 74 76  2  0  0  0
 74 82  1  0  0  0
 75 76  1  0  0  0
 75 83  1  0  0  0
 76 85  1  0  0  0
 77 78  1  0  0  0
 77 79  1  0  0  0
 77148  1  0  0  0
 77149  1  0  0  0
 78 81  1  0  0  0
 78150  1  0  0  0
 78151  1  0  0  0
 79 86  1  0  0  0
 79152  1  0  0  0
 79153  1  0  0  0
 80 81  1  0  0  0
 80 86  1  0  0  0
 80154  1  0  0  0
 80155  1  0  0  0
 81156  1  0  0  0
 82157  1  0  0  0
 82158  1  0  0  0
 82159  1  0  0  0
 83160  1  0  0  0
 83161  1  0  0  0
 83162  1  0  0  0
 84163  1  0  0  0
 84164  1  0  0  0
 84 86  1  0  0  0
 85165  1  0  0  0
 86166  1  0  0  0
M  CHG  1  86   1
M  ISO  4   1 100  68 101  81 101  85 100
M  END
> <chiral flag>
0

> <version>
0

> <s_m_source_file>
/data/baiqing/PycharmProjects/Reinvent-master-3.2/result/LINK_invent/BTK/process_docking_weight1_custom_product_contain_oxygen_bond_distance_aromatic_linkinvent_7_9_3/rearranged_h_0031.sdf

> <i_m_source_file_index>
2

> <r_mmod_Potential_Energy-OPLS-2005>
28.8717937469482

> <r_mmod_Stretch_Energy-OPLS-2005>
85.9745788574219

> <r_mmod_Bend_Energy-OPLS-2005>
187.304946899414

> <r_mmod_Torsional_Energy-OPLS-2005>
277.282684326172

> <r_mmod_Improper_Torsional_Energy-OPLS-2005>
6.04803943634033

> <r_mmod_Van_der_Waal_Energy-OPLS-2005>
136.795684814453

> <r_mmod_Electrostatic_Energy-OPLS-2005>
-283.955688476562

> <r_mmod_Solvation_Energy-OPLS-2005>
-429.563629150391

> <b_mmod_Minimization_Converged-OPLS-2005>
0

> <r_mmod_RMS_Derivative-OPLS-2005>
1.94436347484589

$$$$
2
                    3D
 Structure written by MMmdl.
157165  0  0  1  0            999 V2000
  -30.7237  -14.4611   20.6379 C   0  0  0  0  0  0
  -30.4189  -12.3273   19.4204 C   0  0  0  0  0  0
  -29.4912  -12.5219   18.2055 C   0  0  0  0  0  0
  -28.0145  -12.3709   18.6166 C   0  0  0  0  0  0
  -27.6568  -13.2118   19.8714 C   0  0  2  0  0  0
  -28.6944  -12.9936   20.9940 C   0  0  0  0  0  0
  -25.2554  -13.8178   20.5692 C   0  0  0  0  0  0
  -24.1815  -13.0448   20.9178 C   0  0  0  0  0  0
  -24.6379  -11.6915   20.8730 C   0  0  0  0  0  0
  -23.9062  -10.4295   21.0402 C   0  0  0  0  0  0
  -24.3625   -9.4206   21.9166 C   0  0  0  0  0  0
  -23.6305   -8.2239   22.0734 C   0  0  0  0  0  0
  -22.4273   -8.0284   21.3544 C   0  0  0  0  0  0
  -21.9918   -9.0256   20.4639 C   0  0  0  0  0  0
  -22.7247  -10.2136   20.3045 C   0  0  0  0  0  0
  -21.6852   -6.0750   22.5295 C   0  0  0  0  0  0
  -21.4017   -6.5645   23.8234 C   0  0  0  0  0  0
  -21.3660   -5.6784   24.9191 C   0  0  0  0  0  0
  -21.6045   -4.3051   24.7230 C   0  0  0  0  0  0
  -21.8815   -3.8154   23.4344 C   0  0  0  0  0  0
  -21.9192   -4.6980   22.3409 C   0  0  0  0  0  0
  -22.7839  -13.5241   21.1854 C   0  0  0  0  0  0
  -22.1651   -4.2178   21.0984 F   0  0  0  0  0  0
  -21.5630   -3.4522   25.7731 F   0  0  0  0  0  0
  -30.0269  -13.3064   20.4463 N   0  0  0  0  0  0
  -26.2988  -12.9360   20.3335 N   0  0  0  0  0  0
  -25.9301  -11.6508   20.5735 N   0  0  0  0  0  0
  -22.0485  -12.8234   22.0415 N   0  0  0  0  0  0
  -25.4292  -15.1905   20.4157 N   0  0  0  0  0  0
  -31.8219  -14.6726   20.1157 O   0  0  0  0  0  0
  -21.6632   -6.8889   21.4249 O   0  0  0  0  0  0
  -22.3526  -14.5551   20.6710 O   0  0  0  0  0  0
  -24.6180  -31.8693   23.2131 C   0  0  0  0  0  0
  -25.9074  -32.4840   23.8405 C   0  0  1  0  0  0
  -27.2156  -27.4136   20.0884 C   0  0  0  0  0  0
  -25.5931  -33.8632   24.2344 N   0  0  0  0  0  0
  -23.4033  -30.4986   21.5568 C   0  0  2  0  0  0
  -24.8428  -28.9713   20.1114 C   0  0  0  0  0  0
  -22.7426  -29.4672   22.5013 C   0  0  0  0  0  0
  -18.0281  -28.1369   22.8510 C   0  0  0  0  0  0
  -24.1489  -36.7308   23.2637 C   0  0  0  0  0  0
  -25.9368  -30.8293   21.3676 C   0  0  0  0  0  0
  -26.0096  -29.4651   20.7086 C   0  0  0  0  0  0
  -27.1993  -28.6962   20.6918 C   0  0  0  0  0  0
  -26.0247  -26.9499   19.4765 C   0  0  0  0  0  0
  -24.8477  -27.7150   19.4903 C   0  0  0  0  0  0
  -23.6086  -29.8417   20.1675 C   0  0  0  0  0  0
  -25.4112  -36.3119   24.0344 C   0  0  1  0  0  0
  -20.5874  -28.3654   23.1331 C   0  0  2  0  0  0
  -20.6771  -26.9392   22.5418 C   0  0  0  0  0  0
  -19.5747  -26.6392   21.5216 C   0  0  0  0  0  0
  -18.1928  -26.7927   22.1624 C   0  0  0  0  0  0
  -19.1530  -28.8830   23.2920 C   0  0  0  0  0  0
  -18.9449  -30.1435   23.8935 C   0  0  0  0  0  0
  -17.6450  -30.6583   24.0567 C   0  0  0  0  0  0
  -25.9040  -34.9486   23.5135 C   0  0  0  0  0  0
  -16.5343  -29.9083   23.6323 C   0  0  0  0  0  0
  -16.7267  -28.6487   23.0370 C   0  0  0  0  0  0
  -26.4497  -31.6614   25.0732 C   0  0  0  0  0  0
  -25.3757  -31.3712   26.1474 C   0  0  0  0  0  0
  -27.0340  -30.3068   24.6093 C   0  0  0  0  0  0
  -27.6085  -32.4322   25.7486 C   0  0  0  0  0  0
  -27.5585  -37.1809   24.8472 C   0  0  0  0  0  0
  -21.4154  -29.3030   22.3751 N   0  0  0  0  0  0
  -26.4298  -37.3804   23.9419 N   0  0  0  0  0  0
  -24.6719  -31.0792   22.1040 N   0  0  0  0  0  0
  -23.4205  -28.8203   23.3039 O   0  0  0  0  0  0
  -28.3664  -26.6387   20.1192 O   0  0  0  0  0  0
  -26.5584  -34.8931   22.4682 O   0  0  0  0  0  0
  -23.5372  -32.1435   23.7534 O   0  0  0  0  0  0
  -29.7076  -18.8483   22.1957 C   0  0  0  0  0  0
  -31.2285  -18.3749   20.3641 C   0  0  0  0  0  0
  -29.6526  -20.2094   21.8056 C   0  0  0  0  0  0
  -31.1766  -19.7328   19.9768 C   0  0  0  0  0  0
  -30.5303  -17.9268   21.5041 C   0  0  0  0  0  0
  -30.4213  -20.6746   20.7138 C   0  0  0  0  0  0
  -29.4167  -24.3650   20.2934 C   0  0  0  0  0  0
  -28.1879  -22.3435   19.5608 C   0  0  0  0  0  0
  -30.7935  -16.5241   22.0722 C   0  0  0  0  0  0
  -30.5656  -22.1760   20.3927 C   0  0  0  0  0  0
  -28.1763  -25.2149   19.9260 C   0  0  0  0  0  0
  -30.1348  -15.3789   21.4269 N   0  0  0  0  0  0
  -29.3605  -23.0063   20.1497 N   0  0  0  0  0  0
  -30.4320  -24.9437   20.6965 O   0  0  0  0  0  0
  -31.4627  -12.4309   19.1199 H   0  0  0  0  0  0
  -30.3258  -11.3162   19.8181 H   0  0  0  0  0  0
  -29.7385  -11.8010   17.4255 H   0  0  0  0  0  0
  -29.6526  -13.5118   17.7749 H   0  0  0  0  0  0
  -27.8304  -11.3147   18.8148 H   0  0  0  0  0  0
  -27.3652  -12.6395   17.7824 H   0  0  0  0  0  0
  -27.7003  -14.2605   19.5761 H   0  0  0  0  0  0
  -28.6721  -11.9572   21.3328 H   0  0  0  0  0  0
  -28.4382  -13.5875   21.8722 H   0  0  0  0  0  0
  -25.2788   -9.5678   22.4723 H   0  0  0  0  0  0
  -24.0032   -7.4629   22.7440 H   0  0  0  0  0  0
  -21.0856   -8.8782   19.8944 H   0  0  0  0  0  0
  -22.3720  -10.9670   19.6145 H   0  0  0  0  0  0
  -21.1997   -7.6147   23.9759 H   0  0  0  0  0  0
  -21.1487   -6.0499   25.9101 H   0  0  0  0  0  0
  -22.0590   -2.7619   23.2831 H   0  0  0  0  0  0
  -22.4107  -11.9905   22.4821 H   0  0  0  0  0  0
  -21.1103  -13.1255   22.2622 H   0  0  0  0  0  0
  -24.6702  -15.8520   20.5400 H   0  0  0  0  0  0
  -26.2934  -15.6316   20.1270 H   0  0  0  0  0  0
  -26.7147  -32.5536   23.1160 H   0  0  0  0  0  0
  -25.0160  -33.9791   25.0543 H   0  0  0  0  0  0
  -22.6924  -31.3172   21.4278 H   0  0  0  0  0  0
  -23.3758  -35.9632   23.3315 H   0  0  0  0  0  0
  -24.3585  -36.8897   22.2046 H   0  0  0  0  0  0
  -23.7223  -37.6512   23.6632 H   0  0  0  0  0  0
  -26.0534  -31.5977   20.6026 H   0  0  0  0  0  0
  -26.8234  -30.8775   21.9884 H   0  0  0  0  0  0
  -28.0971  -29.0735   21.1608 H   0  0  0  0  0  0
  -25.9651  -25.9954   18.9755 H   0  0  0  0  0  0
  -23.9533  -27.3330   19.0179 H   0  0  0  0  0  0
  -23.7223  -30.6225   19.4155 H   0  0  0  0  0  0
  -22.7272  -29.2718   19.8675 H   0  0  0  0  0  0
  -25.1288  -36.1989   25.0839 H   0  0  0  0  0  0
  -20.9967  -28.3195   24.1449 H   0  0  0  0  0  0
  -20.5684  -26.2250   23.3596 H   0  0  0  0  0  0
  -21.6640  -26.7450   22.1197 H   0  0  0  0  0  0
  -19.6902  -25.6313   21.1222 H   0  0  0  0  0  0
  -19.6679  -27.3222   20.6765 H   0  0  0  0  0  0
  -17.4201  -26.6704   21.4017 H   0  0  0  0  0  0
  -18.0304  -26.0049   22.8995 H   0  0  0  0  0  0
  -19.7921  -30.7242   24.2329 H   0  0  0  0  0  0
  -17.5003  -31.6273   24.5149 H   0  0  0  0  0  0
  -15.5341  -30.2994   23.7633 H   0  0  0  0  0  0
  -15.8666  -28.0808   22.7090 H   0  0  0  0  0  0
  -24.5926  -30.7076   25.7786 H   0  0  0  0  0  0
  -24.8955  -32.2870   26.4932 H   0  0  0  0  0  0
  -25.8094  -30.8854   27.0222 H   0  0  0  0  0  0
  -26.2883  -29.6818   24.1163 H   0  0  0  0  0  0
  -27.4160  -29.7318   25.4537 H   0  0  0  0  0  0
  -27.8699  -30.4428   23.9226 H   0  0  0  0  0  0
  -27.2735  -33.3621   26.2089 H   0  0  0  0  0  0
  -28.3875  -32.6869   25.0289 H   0  0  0  0  0  0
  -28.0777  -31.8423   26.5370 H   0  0  0  0  0  0
  -28.2622  -38.0089   24.7527 H   0  0  0  0  0  0
  -28.1067  -36.2627   24.6300 H   0  0  0  0  0  0
  -27.2312  -37.1463   25.8876 H   0  0  0  0  0  0
  -20.9315  -29.8738   21.6957 H   0  0  0  0  0  0
  -26.0196  -38.2890   24.1403 H   0  0  0  0  0  0
  -29.1653  -18.5299   23.0768 H   0  0  0  0  0  0
  -31.8694  -17.6924   19.8233 H   0  0  0  0  0  0
  -29.0700  -20.9088   22.3907 H   0  0  0  0  0  0
  -31.7765  -20.0612   19.1393 H   0  0  0  0  0  0
  -27.3193  -22.4495   20.2112 H   0  0  0  0  0  0
  -28.3349  -21.2789   19.3846 H   0  0  0  0  0  0
  -27.9440  -22.7733   18.5885 H   0  0  0  0  0  0
  -30.5007  -16.5152   23.1229 H   0  0  0  0  0  0
  -31.8745  -16.3712   22.0887 H   0  0  0  0  0  0
  -31.2155  -22.2973   19.5254 H   0  0  0  0  0  0
  -31.1282  -22.5915   21.2307 H   0  0  0  0  0  0
  -27.3475  -24.8659   20.5462 H   0  0  0  0  0  0
  -27.9342  -25.0277   18.8798 H   0  0  0  0  0  0
  -29.2122  -15.1478   21.7641 H   0  0  0  0  0  0
  1 25  1  0  0  0
  1 30  2  0  0  0
  1 82  1  0  0  0
  2  3  1  0  0  0
  2 25  1  0  0  0
  2 85  1  0  0  0
  2 86  1  0  0  0
  3  4  1  0  0  0
  3 87  1  0  0  0
  3 88  1  0  0  0
  4  5  1  0  0  0
  4 89  1  0  0  0
  4 90  1  0  0  0
  5  6  1  0  0  0
  5 26  1  0  0  0
  5 91  1  0  0  0
  6 25  1  0  0  0
  6 92  1  0  0  0
  6 93  1  0  0  0
  7  8  2  0  0  0
  7 26  1  0  0  0
  7 29  1  0  0  0
  8  9  1  0  0  0
  8 22  1  0  0  0
  9 10  1  0  0  0
  9 27  2  0  0  0
 10 11  2  0  0  0
 10 15  1  0  0  0
 11 12  1  0  0  0
 11 94  1  0  0  0
 12 13  2  0  0  0
 12 95  1  0  0  0
 13 14  1  0  0  0
 13 31  1  0  0  0
 14 15  2  0  0  0
 14 96  1  0  0  0
 15 97  1  0  0  0
 16 17  2  0  0  0
 16 21  1  0  0  0
 16 31  1  0  0  0
 17 18  1  0  0  0
 17 98  1  0  0  0
 18 19  2  0  0  0
 18 99  1  0  0  0
 19 20  1  0  0  0
 19 24  1  0  0  0
 20 21  2  0  0  0
 20100  1  0  0  0
 21 23  1  0  0  0
 22 28  1  0  0  0
 22 32  2  0  0  0
 26 27  1  0  0  0
 28101  1  0  0  0
 28102  1  0  0  0
 29103  1  0  0  0
 29104  1  0  0  0
 33 34  1  0  0  0
 33 66  1  0  0  0
 33 70  2  0  0  0
 34 36  1  0  0  0
 34 59  1  0  0  0
 34105  1  0  0  0
 35 44  2  0  0  0
 35 45  1  0  0  0
 35 68  1  0  0  0
 36 56  1  0  0  0
 36106  1  0  0  0
 37 39  1  0  0  0
 37 47  1  0  0  0
 37 66  1  0  0  0
 37107  1  0  0  0
 38 43  2  0  0  0
 38 46  1  0  0  0
 38 47  1  0  0  0
 39 64  1  0  0  0
 39 67  2  0  0  0
 40 52  1  0  0  0
 40 53  2  0  0  0
 40 58  1  0  0  0
 41108  1  0  0  0
 41109  1  0  0  0
 41110  1  0  0  0
 41 48  1  0  0  0
 42 43  1  0  0  0
 42 66  1  0  0  0
 42111  1  0  0  0
 42112  1  0  0  0
 43 44  1  0  0  0
 44113  1  0  0  0
 45 46  2  0  0  0
 45114  1  0  0  0
 46115  1  0  0  0
 47116  1  0  0  0
 47117  1  0  0  0
 48 56  1  0  0  0
 48 65  1  0  0  0
 48118  1  0  0  0
 49 50  1  0  0  0
 49 53  1  0  0  0
 49 64  1  0  0  0
 49119  1  0  0  0
 50 51  1  0  0  0
 50120  1  0  0  0
 50121  1  0  0  0
 51 52  1  0  0  0
 51122  1  0  0  0
 51123  1  0  0  0
 52124  1  0  0  0
 52125  1  0  0  0
 53 54  1  0  0  0
 54 55  2  0  0  0
 54126  1  0  0  0
 55 57  1  0  0  0
 55127  1  0  0  0
 56 69  2  0  0  0
 57 58  2  0  0  0
 57128  1  0  0  0
 58129  1  0  0  0
 59 60  1  0  0  0
 59 61  1  0  0  0
 59 62  1  0  0  0
 60130  1  0  0  0
 60131  1  0  0  0
 60132  1  0  0  0
 61133  1  0  0  0
 61134  1  0  0  0
 61135  1  0  0  0
 62136  1  0  0  0
 62137  1  0  0  0
 62138  1  0  0  0
 63 65  1  0  0  0
 63139  1  0  0  0
 63140  1  0  0  0
 63141  1  0  0  0
 64142  1  0  0  0
 65143  1  0  0  0
 68 81  1  0  0  0
 71 73  2  0  0  0
 71 75  1  0  0  0
 71144  1  0  0  0
 72 74  1  0  0  0
 72 75  2  0  0  0
 72145  1  0  0  0
 73 76  1  0  0  0
 73146  1  0  0  0
 74 76  2  0  0  0
 74147  1  0  0  0
 75 79  1  0  0  0
 76 80  1  0  0  0
 77 81  1  0  0  0
 77 83  1  0  0  0
 77 84  2  0  0  0
 78 83  1  0  0  0
 78148  1  0  0  0
 78149  1  0  0  0
 78150  1  0  0  0
 79 82  1  0  0  0
 79151  1  0  0  0
 79152  1  0  0  0
 80 83  1  0  0  0
 80153  1  0  0  0
 80154  1  0  0  0
 81155  1  0  0  0
 81156  1  0  0  0
 82157  1  0  0  0
M  ISO  4   1 100  68 101  81 101  82 100
M  END
> <chiral flag>
0

> <version>
0

> <s_m_source_file>
/data/baiqing/PycharmProjects/Reinvent-master-3.2/result/LINK_invent/BTK/process_docking_weight1_custom_product_contain_oxygen_bond_distance_aromatic_linkinvent_7_9_3/rearranged_h_0031.sdf

> <i_m_source_file_index>
3

> <r_mmod_Potential_Energy-OPLS-2005>
-77.6209030151367

> <r_mmod_Stretch_Energy-OPLS-2005>
43.9278869628906

> <r_mmod_Bend_Energy-OPLS-2005>
101.650726318359

> <r_mmod_Torsional_Energy-OPLS-2005>
215.999710083008

> <r_mmod_Improper_Torsional_Energy-OPLS-2005>
3.39857459068298

> <r_mmod_Van_der_Waal_Energy-OPLS-2005>
166.780746459961

> <r_mmod_Electrostatic_Energy-OPLS-2005>
-382.009704589844

> <r_mmod_Solvation_Energy-OPLS-2005>
-242.074615478516

> <b_mmod_Minimization_Converged-OPLS-2005>
0

> <r_mmod_RMS_Derivative-OPLS-2005>
2.06162285804749

$$$$
3
                    3D
 Structure written by MMmdl.
161170  0  0  1  0            999 V2000
  -30.6315  -14.7226   20.4425 C   0  0  0  0  0  0
  -30.4266  -12.4320   19.4812 C   0  0  0  0  0  0
  -29.5077  -12.5018   18.2418 C   0  0  0  0  0  0
  -28.0334  -12.3372   18.6528 C   0  0  0  0  0  0
  -27.6449  -13.2341   19.8580 C   0  0  2  0  0  0
  -28.6909  -13.1646   20.9932 C   0  0  0  0  0  0
  -25.2518  -13.8208   20.5709 C   0  0  0  0  0  0
  -24.1806  -13.0438   20.9192 C   0  0  0  0  0  0
  -24.6409  -11.6920   20.8763 C   0  0  0  0  0  0
  -23.9093  -10.4285   21.0404 C   0  0  0  0  0  0
  -24.3632   -9.4203   21.9186 C   0  0  0  0  0  0
  -23.6290   -8.2245   22.0758 C   0  0  0  0  0  0
  -22.4282   -8.0280   21.3537 C   0  0  0  0  0  0
  -21.9925   -9.0266   20.4650 C   0  0  0  0  0  0
  -22.7263  -10.2135   20.3052 C   0  0  0  0  0  0
  -21.6864   -6.0732   22.5272 C   0  0  0  0  0  0
  -21.4022   -6.5636   23.8208 C   0  0  0  0  0  0
  -21.3660   -5.6793   24.9172 C   0  0  0  0  0  0
  -21.6042   -4.3057   24.7222 C   0  0  0  0  0  0
  -21.8818   -3.8149   23.4345 C   0  0  0  0  0  0
  -21.9195   -4.6963   22.3400 C   0  0  0  0  0  0
  -22.7826  -13.5216   21.1855 C   0  0  0  0  0  0
  -22.1661   -4.2149   21.0978 F   0  0  0  0  0  0
  -21.5629   -3.4547   25.7735 F   0  0  0  0  0  0
  -29.9991  -13.4994   20.4152 N   0  0  0  0  0  0
  -26.2955  -12.9424   20.3341 N   0  0  0  0  0  0
  -25.9340  -11.6558   20.5786 N   0  0  0  0  0  0
  -22.0497  -12.8181   22.0414 N   0  0  0  0  0  0
  -25.4206  -15.1927   20.4122 N   0  0  0  0  0  0
  -31.8147  -14.8046   20.1016 O   0  0  0  0  0  0
  -21.6642   -6.8877   21.4233 O   0  0  0  0  0  0
  -22.3505  -14.5538   20.6736 O   0  0  0  0  0  0
  -24.6356  -31.8533   23.2013 C   0  0  0  0  0  0
  -25.9187  -32.4745   23.8345 C   0  0  1  0  0  0
  -27.2026  -27.2441   20.1223 C   0  0  0  0  0  0
  -25.5960  -33.8541   24.2260 N   0  0  0  0  0  0
  -23.4303  -30.4818   21.5467 C   0  0  2  0  0  0
  -24.8713  -28.9347   20.1164 C   0  0  0  0  0  0
  -22.7518  -29.4590   22.4917 C   0  0  0  0  0  0
  -18.0299  -28.1387   22.8457 C   0  0  0  0  0  0
  -24.1503  -36.7287   23.2635 C   0  0  0  0  0  0
  -25.9814  -30.7618   21.3853 C   0  0  0  0  0  0
  -26.0494  -29.3859   20.7239 C   0  0  0  0  0  0
  -27.2193  -28.5554   20.7137 C   0  0  0  0  0  0
  -25.9997  -26.8804   19.4802 C   0  0  0  0  0  0
  -24.8522  -27.6874   19.4854 C   0  0  0  0  0  0
  -23.6485  -29.8261   20.1610 C   0  0  0  0  0  0
  -25.4118  -36.3058   24.0333 C   0  0  1  0  0  0
  -20.5902  -28.3689   23.1258 C   0  0  2  0  0  0
  -20.6789  -26.9396   22.5411 C   0  0  0  0  0  0
  -19.5773  -26.6364   21.5213 C   0  0  0  0  0  0
  -18.1933  -26.7924   22.1602 C   0  0  0  0  0  0
  -19.1550  -28.8849   23.2849 C   0  0  0  0  0  0
  -18.9482  -30.1444   23.8873 C   0  0  0  0  0  0
  -17.6481  -30.6571   24.0546 C   0  0  0  0  0  0
  -25.9066  -34.9427   23.5095 C   0  0  0  0  0  0
  -16.5369  -29.9068   23.6340 C   0  0  0  0  0  0
  -16.7284  -28.6501   23.0332 C   0  0  0  0  0  0
  -26.4530  -31.6578   25.0750 C   0  0  0  0  0  0
  -25.3738  -31.3740   26.1469 C   0  0  0  0  0  0
  -27.0383  -30.2988   24.6275 C   0  0  0  0  0  0
  -27.6066  -32.4340   25.7529 C   0  0  0  0  0  0
  -27.5587  -37.1788   24.8455 C   0  0  0  0  0  0
  -21.4221  -29.3040   22.3661 N   0  0  0  0  0  0
  -26.4281  -37.3764   23.9424 N   0  0  0  0  0  0
  -24.7027  -31.0494   22.0999 N   0  0  0  0  0  0
  -23.4221  -28.8107   23.2991 O   0  0  0  0  0  0
  -28.2892  -26.3323   20.1567 O   0  0  0  0  0  0
  -26.5613  -34.8901   22.4654 O   0  0  0  0  0  0
  -23.5502  -32.1367   23.7300 O   0  0  0  0  0  0
  -30.3690  -19.8677   18.9923 C   0  0  0  0  0  0
  -30.6704  -17.4338   18.9188 C   0  0  0  0  0  0
  -29.7404  -19.8093   20.2549 C   0  0  0  0  0  0
  -29.5993  -18.4729   20.8439 C   0  0  0  0  0  0
  -30.0688  -17.2555   20.1859 C   0  0  0  0  0  0
  -30.8167  -18.7070   18.3354 C   0  0  0  0  0  0
  -27.8947  -22.5744   19.2319 C   0  0  0  0  0  0
  -27.2182  -21.5274   18.7262 C   0  0  0  0  0  0
  -27.5261  -24.0487   19.0803 C   0  0  0  0  0  0
  -29.1820  -23.8441   20.8009 C   0  0  0  0  0  0
  -28.0385  -24.8395   20.3054 C   0  0  1  0  0  0
  -28.9518  -18.3412   22.2114 C   0  0  0  0  0  0
  -29.3018  -21.1941   20.9399 C   0  0  0  0  0  0
  -29.8842  -15.8652   20.6923 N   0  0  0  0  0  0
  -29.0942  -22.4829   20.1104 N   0  3  1  0  0  0
  -31.5510  -18.8491   16.7802 Cl  0  0  0  0  0  0
  -31.4715  -12.5330   19.1806 H   0  0  0  0  0  0
  -30.3526  -11.4560   19.9639 H   0  0  0  0  0  0
  -29.7813  -11.7294   17.5231 H   0  0  0  0  0  0
  -29.6427  -13.4576   17.7337 H   0  0  0  0  0  0
  -27.8820  -11.2875   18.9103 H   0  0  0  0  0  0
  -27.3779  -12.5399   17.8051 H   0  0  0  0  0  0
  -27.6399  -14.2568   19.4797 H   0  0  0  0  0  0
  -28.7160  -12.1679   21.4367 H   0  0  0  0  0  0
  -28.4342  -13.8530   21.7994 H   0  0  0  0  0  0
  -25.2772   -9.5685   22.4766 H   0  0  0  0  0  0
  -24.0010   -7.4635   22.7484 H   0  0  0  0  0  0
  -21.0858   -8.8777   19.8952 H   0  0  0  0  0  0
  -22.3718  -10.9675   19.6163 H   0  0  0  0  0  0
  -21.2015   -7.6146   23.9715 H   0  0  0  0  0  0
  -21.1487   -6.0525   25.9078 H   0  0  0  0  0  0
  -22.0599   -2.7608   23.2850 H   0  0  0  0  0  0
  -22.4138  -11.9822   22.4740 H   0  0  0  0  0  0
  -21.1130  -13.1199   22.2682 H   0  0  0  0  0  0
  -24.6498  -15.8444   20.5138 H   0  0  0  0  0  0
  -26.2646  -15.6333   20.0693 H   0  0  0  0  0  0
  -26.7241  -32.5377   23.1054 H   0  0  0  0  0  0
  -25.0140  -33.9688   25.0434 H   0  0  0  0  0  0
  -22.7286  -31.3058   21.4004 H   0  0  0  0  0  0
  -23.3773  -35.9612   23.3266 H   0  0  0  0  0  0
  -24.3592  -36.8945   22.2055 H   0  0  0  0  0  0
  -23.7260  -37.6474   23.6687 H   0  0  0  0  0  0
  -26.1305  -31.5208   20.6166 H   0  0  0  0  0  0
  -26.8559  -30.7976   22.0224 H   0  0  0  0  0  0
  -28.1236  -28.8957   21.2002 H   0  0  0  0  0  0
  -25.8901  -25.9637   18.9418 H   0  0  0  0  0  0
  -23.9533  -27.3382   18.9970 H   0  0  0  0  0  0
  -23.7851  -30.6055   19.4112 H   0  0  0  0  0  0
  -22.7635  -29.2707   19.8455 H   0  0  0  0  0  0
  -25.1298  -36.1880   25.0822 H   0  0  0  0  0  0
  -20.9981  -28.3265   24.1388 H   0  0  0  0  0  0
  -20.5688  -26.2290   23.3618 H   0  0  0  0  0  0
  -21.6654  -26.7408   22.1191 H   0  0  0  0  0  0
  -19.6941  -25.6276   21.1237 H   0  0  0  0  0  0
  -19.6730  -27.3163   20.6732 H   0  0  0  0  0  0
  -17.4218  -26.6681   21.3987 H   0  0  0  0  0  0
  -18.0290  -26.0058   22.8983 H   0  0  0  0  0  0
  -19.7951  -30.7251   24.2236 H   0  0  0  0  0  0
  -17.5031  -31.6253   24.5139 H   0  0  0  0  0  0
  -15.5363  -30.2954   23.7692 H   0  0  0  0  0  0
  -15.8688  -28.0821   22.7066 H   0  0  0  0  0  0
  -24.5954  -30.7032   25.7816 H   0  0  0  0  0  0
  -24.8884  -32.2902   26.4831 H   0  0  0  0  0  0
  -25.8040  -30.8984   27.0291 H   0  0  0  0  0  0
  -26.2974  -29.6718   24.1290 H   0  0  0  0  0  0
  -27.4029  -29.7278   25.4821 H   0  0  0  0  0  0
  -27.8870  -30.4256   23.9551 H   0  0  0  0  0  0
  -27.2674  -33.3673   26.2028 H   0  0  0  0  0  0
  -28.3905  -32.6839   25.0372 H   0  0  0  0  0  0
  -28.0691  -31.8515   26.5502 H   0  0  0  0  0  0
  -28.2553  -38.0131   24.7526 H   0  0  0  0  0  0
  -28.1132  -36.2652   24.6237 H   0  0  0  0  0  0
  -27.2307  -37.1378   25.8856 H   0  0  0  0  0  0
  -20.9425  -29.8817   21.6905 H   0  0  0  0  0  0
  -26.0161  -38.2834   24.1438 H   0  0  0  0  0  0
  -30.5217  -20.8145   18.4945 H   0  0  0  0  0  0
  -31.0155  -16.5832   18.3516 H   0  0  0  0  0  0
  -26.3333  -21.6913   18.1261 H   0  0  0  0  0  0
  -27.5138  -20.5031   18.8934 H   0  0  0  0  0  0
  -26.4423  -24.0629   19.0016 H   0  0  0  0  0  0
  -27.9498  -24.4362   18.1536 H   0  0  0  0  0  0
  -29.1340  -23.7318   21.8847 H   0  0  0  0  0  0
  -30.1598  -24.2646   20.5684 H   0  0  0  0  0  0
  -27.2540  -24.7696   21.0629 H   0  0  0  0  0  0
  -27.8661  -18.3322   22.1187 H   0  0  0  0  0  0
  -29.2352  -19.1641   22.8671 H   0  0  0  0  0  0
  -29.2549  -17.4229   22.7118 H   0  0  0  0  0  0
  -30.0843  -21.4182   21.6660 H   0  0  0  0  0  0
  -28.3951  -21.0269   21.5207 H   0  0  0  0  0  0
  -28.9932  -15.6866   21.1305 H   0  0  0  0  0  0
  -29.9004  -22.4955   19.5037 H   0  0  0  0  0  0
  1 25  1  0  0  0
  1 30  2  0  0  0
  1 84  1  0  0  0
  2  3  1  0  0  0
  2 25  1  0  0  0
  2 87  1  0  0  0
  2 88  1  0  0  0
  3  4  1  0  0  0
  3 89  1  0  0  0
  3 90  1  0  0  0
  4  5  1  0  0  0
  4 91  1  0  0  0
  4 92  1  0  0  0
  5  6  1  0  0  0
  5 26  1  0  0  0
  5 93  1  0  0  0
  6 25  1  0  0  0
  6 94  1  0  0  0
  6 95  1  0  0  0
  7  8  2  0  0  0
  7 26  1  0  0  0
  7 29  1  0  0  0
  8  9  1  0  0  0
  8 22  1  0  0  0
  9 10  1  0  0  0
  9 27  2  0  0  0
 10 11  2  0  0  0
 10 15  1  0  0  0
 11 12  1  0  0  0
 11 96  1  0  0  0
 12 13  2  0  0  0
 12 97  1  0  0  0
 13 14  1  0  0  0
 13 31  1  0  0  0
 14 15  2  0  0  0
 14 98  1  0  0  0
 15 99  1  0  0  0
 16 17  2  0  0  0
 16 21  1  0  0  0
 16 31  1  0  0  0
 17 18  1  0  0  0
 17100  1  0  0  0
 18 19  2  0  0  0
 18101  1  0  0  0
 19 20  1  0  0  0
 19 24  1  0  0  0
 20 21  2  0  0  0
 20102  1  0  0  0
 21 23  1  0  0  0
 22 28  1  0  0  0
 22 32  2  0  0  0
 26 27  1  0  0  0
 28103  1  0  0  0
 28104  1  0  0  0
 29105  1  0  0  0
 29106  1  0  0  0
 33 34  1  0  0  0
 33 66  1  0  0  0
 33 70  2  0  0  0
 34 36  1  0  0  0
 34 59  1  0  0  0
 34107  1  0  0  0
 35 44  2  0  0  0
 35 45  1  0  0  0
 35 68  1  0  0  0
 36 56  1  0  0  0
 36108  1  0  0  0
 37 39  1  0  0  0
 37 47  1  0  0  0
 37 66  1  0  0  0
 37109  1  0  0  0
 38 43  2  0  0  0
 38 46  1  0  0  0
 38 47  1  0  0  0
 39 64  1  0  0  0
 39 67  2  0  0  0
 40 52  1  0  0  0
 40 53  2  0  0  0
 40 58  1  0  0  0
 41110  1  0  0  0
 41111  1  0  0  0
 41112  1  0  0  0
 41 48  1  0  0  0
 42 43  1  0  0  0
 42 66  1  0  0  0
 42113  1  0  0  0
 42114  1  0  0  0
 43 44  1  0  0  0
 44115  1  0  0  0
 45 46  2  0  0  0
 45116  1  0  0  0
 46117  1  0  0  0
 47118  1  0  0  0
 47119  1  0  0  0
 48 56  1  0  0  0
 48 65  1  0  0  0
 48120  1  0  0  0
 49 50  1  0  0  0
 49 53  1  0  0  0
 49 64  1  0  0  0
 49121  1  0  0  0
 50 51  1  0  0  0
 50122  1  0  0  0
 50123  1  0  0  0
 51 52  1  0  0  0
 51124  1  0  0  0
 51125  1  0  0  0
 52126  1  0  0  0
 52127  1  0  0  0
 53 54  1  0  0  0
 54 55  2  0  0  0
 54128  1  0  0  0
 55 57  1  0  0  0
 55129  1  0  0  0
 56 69  2  0  0  0
 57 58  2  0  0  0
 57130  1  0  0  0
 58131  1  0  0  0
 59 60  1  0  0  0
 59 61  1  0  0  0
 59 62  1  0  0  0
 60132  1  0  0  0
 60133  1  0  0  0
 60134  1  0  0  0
 61135  1  0  0  0
 61136  1  0  0  0
 61137  1  0  0  0
 62138  1  0  0  0
 62139  1  0  0  0
 62140  1  0  0  0
 63 65  1  0  0  0
 63141  1  0  0  0
 63142  1  0  0  0
 63143  1  0  0  0
 64144  1  0  0  0
 65145  1  0  0  0
 68 81  1  0  0  0
 71 73  2  0  0  0
 71 76  1  0  0  0
 71146  1  0  0  0
 72 75  1  0  0  0
 72 76  2  0  0  0
 72147  1  0  0  0
 73 74  1  0  0  0
 73 83  1  0  0  0
 74 75  2  0  0  0
 74 82  1  0  0  0
 75 84  1  0  0  0
 76 86  1  0  0  0
 77 78  2  0  0  0
 77 79  1  0  0  0
 77 85  1  0  0  0
 78148  1  0  0  0
 78149  1  0  0  0
 79 81  1  0  0  0
 79150  1  0  0  0
 79151  1  0  0  0
 80 81  1  0  0  0
 80 85  1  0  0  0
 80152  1  0  0  0
 80153  1  0  0  0
 81154  1  0  0  0
 82155  1  0  0  0
 82156  1  0  0  0
 82157  1  0  0  0
 83158  1  0  0  0
 83159  1  0  0  0
 83 85  1  0  0  0
 84160  1  0  0  0
 85161  1  0  0  0
M  CHG  1  85   1
M  ISO  4   1 100  68 101  81 101  84 100
M  END
> <chiral flag>
0

> <version>
0

> <s_m_source_file>
/data/baiqing/PycharmProjects/Reinvent-master-3.2/result/LINK_invent/BTK/process_docking_weight1_custom_product_contain_oxygen_bond_distance_aromatic_linkinvent_7_9_3/rearranged_h_0031.sdf

> <i_m_source_file_index>
4

> <r_mmod_Potential_Energy-OPLS-2005>
101.142486572266

> <r_mmod_Stretch_Energy-OPLS-2005>
127.1162109375

> <r_mmod_Bend_Energy-OPLS-2005>
190.394424438477

> <r_mmod_Torsional_Energy-OPLS-2005>
267.341247558594

> <r_mmod_Improper_Torsional_Energy-OPLS-2005>
4.38927221298218

> <r_mmod_Van_der_Waal_Energy-OPLS-2005>
139.226333618164

> <r_mmod_Electrostatic_Energy-OPLS-2005>
-265.020843505859

> <r_mmod_Solvation_Energy-OPLS-2005>
-447.157470703125

> <b_mmod_Minimization_Converged-OPLS-2005>
0

> <r_mmod_RMS_Derivative-OPLS-2005>
2.88287973403931

$$$$
4
                    3D
 Structure written by MMmdl.
164173  0  0  1  0            999 V2000
  -30.5858  -14.6665   20.5026 C   0  0  0  0  0  0
  -30.4392  -12.4145   19.4463 C   0  0  0  0  0  0
  -29.5023  -12.5197   18.2201 C   0  0  0  0  0  0
  -28.0255  -12.3550   18.6300 C   0  0  0  0  0  0
  -27.6509  -13.2162   19.8651 C   0  0  2  0  0  0
  -28.6947  -13.0549   20.9925 C   0  0  0  0  0  0
  -25.2537  -13.8172   20.5655 C   0  0  0  0  0  0
  -24.1811  -13.0445   20.9184 C   0  0  0  0  0  0
  -24.6370  -11.6911   20.8738 C   0  0  0  0  0  0
  -23.9037  -10.4296   21.0408 C   0  0  0  0  0  0
  -24.3593   -9.4216   21.9190 C   0  0  0  0  0  0
  -23.6286   -8.2243   22.0746 C   0  0  0  0  0  0
  -22.4281   -8.0266   21.3520 C   0  0  0  0  0  0
  -21.9897   -9.0245   20.4639 C   0  0  0  0  0  0
  -22.7205  -10.2136   20.3059 C   0  0  0  0  0  0
  -21.6860   -6.0727   22.5272 C   0  0  0  0  0  0
  -21.4013   -6.5635   23.8201 C   0  0  0  0  0  0
  -21.3663   -5.6793   24.9165 C   0  0  0  0  0  0
  -21.6056   -4.3058   24.7221 C   0  0  0  0  0  0
  -21.8820   -3.8140   23.4345 C   0  0  0  0  0  0
  -21.9195   -4.6953   22.3397 C   0  0  0  0  0  0
  -22.7843  -13.5238   21.1888 C   0  0  0  0  0  0
  -22.1669   -4.2138   21.0976 F   0  0  0  0  0  0
  -21.5631   -3.4544   25.7733 F   0  0  0  0  0  0
  -30.0103  -13.4204   20.4391 N   0  0  0  0  0  0
  -26.2961  -12.9347   20.3319 N   0  0  0  0  0  0
  -25.9292  -11.6508   20.5756 N   0  0  0  0  0  0
  -22.0485  -12.8208   22.0433 N   0  0  0  0  0  0
  -25.4290  -15.1878   20.4001 N   0  0  0  0  0  0
  -31.7190  -14.8749   20.0591 O   0  0  0  0  0  0
  -21.6648   -6.8864   21.4231 O   0  0  0  0  0  0
  -22.3523  -14.5549   20.6758 O   0  0  0  0  0  0
  -24.6174  -31.8580   23.1989 C   0  0  0  0  0  0
  -25.9018  -32.4760   23.8334 C   0  0  1  0  0  0
  -27.2487  -27.3270   20.1452 C   0  0  0  0  0  0
  -25.5860  -33.8566   24.2262 N   0  0  0  0  0  0
  -23.4124  -30.4757   21.5377 C   0  0  2  0  0  0
  -24.8643  -28.9109   20.1236 C   0  0  0  0  0  0
  -22.7450  -29.4592   22.4923 C   0  0  0  0  0  0
  -18.0275  -28.1371   22.8449 C   0  0  0  0  0  0
  -24.1494  -36.7275   23.2653 C   0  0  0  0  0  0
  -25.9467  -30.7956   21.3622 C   0  0  0  0  0  0
  -26.0248  -29.4157   20.7206 C   0  0  0  0  0  0
  -27.2161  -28.6370   20.7124 C   0  0  0  0  0  0
  -26.0634  -26.8498   19.5477 C   0  0  0  0  0  0
  -24.8846  -27.6323   19.5327 C   0  0  0  0  0  0
  -23.6289  -29.7932   20.1589 C   0  0  0  0  0  0
  -25.4109  -36.3054   24.0354 C   0  0  1  0  0  0
  -20.5883  -28.3642   23.1285 C   0  0  2  0  0  0
  -20.6766  -26.9367   22.5413 C   0  0  0  0  0  0
  -19.5759  -26.6356   21.5196 C   0  0  0  0  0  0
  -18.1926  -26.7901   22.1598 C   0  0  0  0  0  0
  -19.1538  -28.8825   23.2861 C   0  0  0  0  0  0
  -18.9476  -30.1437   23.8854 C   0  0  0  0  0  0
  -17.6482  -30.6569   24.0550 C   0  0  0  0  0  0
  -25.9040  -34.9432   23.5116 C   0  0  0  0  0  0
  -16.5357  -29.9073   23.6335 C   0  0  0  0  0  0
  -16.7278  -28.6510   23.0314 C   0  0  0  0  0  0
  -26.4440  -31.6574   25.0692 C   0  0  0  0  0  0
  -25.3706  -31.3730   26.1459 C   0  0  0  0  0  0
  -27.0307  -30.3029   24.6072 C   0  0  0  0  0  0
  -27.5989  -32.4338   25.7456 C   0  0  0  0  0  0
  -27.5572  -37.1786   24.8471 C   0  0  0  0  0  0
  -21.4166  -29.3005   22.3686 N   0  0  0  0  0  0
  -26.4274  -37.3752   23.9416 N   0  0  0  0  0  0
  -24.6771  -31.0618   22.0908 N   0  0  0  0  0  0
  -23.4191  -28.8117   23.2979 O   0  0  0  0  0  0
  -28.4642  -26.6401   20.0567 O   0  0  0  0  0  0
  -26.5627  -34.8919   22.4685 O   0  0  0  0  0  0
  -23.5358  -32.1361   23.7349 O   0  0  0  0  0  0
  -29.7728  -19.2184   19.5484 C   0  0  0  0  0  0
  -30.0986  -17.8406   19.7497 C   0  0  0  0  0  0
  -29.0182  -19.9848   20.4828 C   0  0  0  0  0  0
  -28.6719  -19.2936   21.6919 C   0  0  0  0  0  0
  -28.9938  -17.8921   21.9077 C   0  0  0  0  0  0
  -29.6847  -17.1234   20.9032 C   0  0  0  0  0  0
  -29.2619  -23.2474   21.6858 C   0  0  0  0  0  0
  -29.9728  -22.5696   22.6029 C   0  0  0  0  0  0
  -28.7919  -24.7092   21.7837 C   0  0  0  0  0  0
  -28.3459  -23.9245   19.5798 C   0  0  0  0  0  0
  -28.7758  -25.2162   20.3452 C   0  0  1  0  0  0
  -27.8610  -20.0355   22.7576 C   0  0  0  0  0  0
  -28.3843  -21.3896   20.0534 C   0  0  0  0  0  0
  -28.5369  -17.2262   23.2327 C   0  0  0  0  0  0
  -29.7827  -15.6549   21.0099 N   0  0  0  0  0  0
  -29.0294  -22.7591   20.2810 N   0  3  2  0  0  0
  -27.2135  -17.3058   23.3608 F   0  0  0  0  0  0
  -28.8323  -15.9334   23.3669 F   0  0  0  0  0  0
  -29.1044  -17.8372   24.2726 F   0  0  0  0  0  0
  -31.4769  -12.5568   19.1389 H   0  0  0  0  0  0
  -30.3883  -11.4143   19.8781 H   0  0  0  0  0  0
  -29.7649  -11.7643   17.4780 H   0  0  0  0  0  0
  -29.6401  -13.4864   17.7335 H   0  0  0  0  0  0
  -27.8595  -11.3003   18.8517 H   0  0  0  0  0  0
  -27.3709  -12.5934   17.7909 H   0  0  0  0  0  0
  -27.6729  -14.2553   19.5368 H   0  0  0  0  0  0
  -28.7101  -12.0237   21.3497 H   0  0  0  0  0  0
  -28.4260  -13.6577   21.8601 H   0  0  0  0  0  0
  -25.2729   -9.5713   22.4764 H   0  0  0  0  0  0
  -24.0016   -7.4629   22.7447 H   0  0  0  0  0  0
  -21.0838   -8.8747   19.8931 H   0  0  0  0  0  0
  -22.3653  -10.9673   19.6180 H   0  0  0  0  0  0
  -21.2006   -7.6141   23.9698 H   0  0  0  0  0  0
  -21.1491   -6.0523   25.9065 H   0  0  0  0  0  0
  -22.0599   -2.7603   23.2848 H   0  0  0  0  0  0
  -22.4113  -11.9865   22.4800 H   0  0  0  0  0  0
  -21.1099  -13.1216   22.2653 H   0  0  0  0  0  0
  -24.6622  -15.8456   20.4835 H   0  0  0  0  0  0
  -26.2761  -15.6106   20.0442 H   0  0  0  0  0  0
  -26.7068  -32.5431   23.1076 H   0  0  0  0  0  0
  -25.0004  -33.9741   25.0405 H   0  0  0  0  0  0
  -22.7027  -31.2921   21.3877 H   0  0  0  0  0  0
  -23.3764  -35.9597   23.3312 H   0  0  0  0  0  0
  -24.3593  -36.8896   22.2063 H   0  0  0  0  0  0
  -23.7272  -37.6493   23.6680 H   0  0  0  0  0  0
  -26.0681  -31.5539   20.5882 H   0  0  0  0  0  0
  -26.8288  -30.8526   21.9866 H   0  0  0  0  0  0
  -28.1175  -29.0385   21.1531 H   0  0  0  0  0  0
  -26.0519  -25.8818   19.0680 H   0  0  0  0  0  0
  -23.9923  -27.2394   19.0642 H   0  0  0  0  0  0
  -23.7459  -30.5617   19.3930 H   0  0  0  0  0  0
  -22.7502  -29.2167   19.8596 H   0  0  0  0  0  0
  -25.1302  -36.1901   25.0856 H   0  0  0  0  0  0
  -20.9975  -28.3195   24.1404 H   0  0  0  0  0  0
  -20.5642  -26.2234   23.3597 H   0  0  0  0  0  0
  -21.6636  -26.7375   22.1220 H   0  0  0  0  0  0
  -19.6934  -25.6267   21.1230 H   0  0  0  0  0  0
  -19.6734  -27.3147   20.6713 H   0  0  0  0  0  0
  -17.4205  -26.6639   21.3993 H   0  0  0  0  0  0
  -18.0343  -26.0051   22.9010 H   0  0  0  0  0  0
  -19.7969  -30.7269   24.2180 H   0  0  0  0  0  0
  -17.5050  -31.6245   24.5154 H   0  0  0  0  0  0
  -15.5367  -30.2970   23.7695 H   0  0  0  0  0  0
  -15.8673  -28.0852   22.7000 H   0  0  0  0  0  0
  -24.5865  -30.7091   25.7827 H   0  0  0  0  0  0
  -24.8925  -32.2918   26.4889 H   0  0  0  0  0  0
  -25.8075  -30.8930   27.0228 H   0  0  0  0  0  0
  -26.2855  -29.6789   24.1129 H   0  0  0  0  0  0
  -27.4124  -29.7283   25.4521 H   0  0  0  0  0  0
  -27.8664  -30.4415   23.9204 H   0  0  0  0  0  0
  -27.2584  -33.3648   26.2000 H   0  0  0  0  0  0
  -28.3799  -32.6894   25.0290 H   0  0  0  0  0  0
  -28.0640  -31.8502   26.5409 H   0  0  0  0  0  0
  -28.2578  -38.0090   24.7488 H   0  0  0  0  0  0
  -28.1098  -36.2618   24.6331 H   0  0  0  0  0  0
  -27.2295  -37.1454   25.8881 H   0  0  0  0  0  0
  -20.9318  -29.8755   21.6930 H   0  0  0  0  0  0
  -26.0172  -38.2837   24.1429 H   0  0  0  0  0  0
  -30.0412  -19.6609   18.5983 H   0  0  0  0  0  0
  -30.6087  -17.3140   18.9554 H   0  0  0  0  0  0
  -30.1918  -23.0064   23.5658 H   0  0  0  0  0  0
  -30.3627  -21.5811   22.4072 H   0  0  0  0  0  0
  -29.4755  -25.2961   22.3974 H   0  0  0  0  0  0
  -27.8023  -24.7526   22.2392 H   0  0  0  0  0  0
  -28.6192  -23.9657   18.5248 H   0  0  0  0  0  0
  -27.2629  -23.8142   19.6441 H   0  0  0  0  0  0
  -29.8389  -25.2749   20.1033 H   0  0  0  0  0  0
  -27.6751  -21.0823   22.5410 H   0  0  0  0  0  0
  -28.3740  -20.0256   23.7175 H   0  0  0  0  0  0
  -26.8772  -19.5866   22.8831 H   0  0  0  0  0  0
  -27.3615  -21.4439   20.4236 H   0  0  0  0  0  0
  -28.2477  -21.3182   18.9751 H   0  0  0  0  0  0
  -29.0303  -15.2529   21.5495 H   0  0  0  0  0  0
  -29.9347  -22.6813   19.8399 H   0  0  0  0  0  0
  1 25  1  0  0  0
  1 30  2  0  0  0
  1 85  1  0  0  0
  2  3  1  0  0  0
  2 25  1  0  0  0
  2 90  1  0  0  0
  2 91  1  0  0  0
  3  4  1  0  0  0
  3 92  1  0  0  0
  3 93  1  0  0  0
  4  5  1  0  0  0
  4 94  1  0  0  0
  4 95  1  0  0  0
  5  6  1  0  0  0
  5 26  1  0  0  0
  5 96  1  0  0  0
  6 25  1  0  0  0
  6 97  1  0  0  0
  6 98  1  0  0  0
  7  8  2  0  0  0
  7 26  1  0  0  0
  7 29  1  0  0  0
  8  9  1  0  0  0
  8 22  1  0  0  0
  9 10  1  0  0  0
  9 27  2  0  0  0
 10 11  2  0  0  0
 10 15  1  0  0  0
 11 12  1  0  0  0
 11 99  1  0  0  0
 12 13  2  0  0  0
 12100  1  0  0  0
 13 14  1  0  0  0
 13 31  1  0  0  0
 14 15  2  0  0  0
 14101  1  0  0  0
 15102  1  0  0  0
 16 17  2  0  0  0
 16 21  1  0  0  0
 16 31  1  0  0  0
 17 18  1  0  0  0
 17103  1  0  0  0
 18 19  2  0  0  0
 18104  1  0  0  0
 19 20  1  0  0  0
 19 24  1  0  0  0
 20 21  2  0  0  0
 20105  1  0  0  0
 21 23  1  0  0  0
 22 28  1  0  0  0
 22 32  2  0  0  0
 26 27  1  0  0  0
 28106  1  0  0  0
 28107  1  0  0  0
 29108  1  0  0  0
 29109  1  0  0  0
 33 34  1  0  0  0
 33 66  1  0  0  0
 33 70  2  0  0  0
 34 36  1  0  0  0
 34 59  1  0  0  0
 34110  1  0  0  0
 35 44  2  0  0  0
 35 45  1  0  0  0
 35 68  1  0  0  0
 36 56  1  0  0  0
 36111  1  0  0  0
 37 39  1  0  0  0
 37 47  1  0  0  0
 37 66  1  0  0  0
 37112  1  0  0  0
 38 43  2  0  0  0
 38 46  1  0  0  0
 38 47  1  0  0  0
 39 64  1  0  0  0
 39 67  2  0  0  0
 40 52  1  0  0  0
 40 53  2  0  0  0
 40 58  1  0  0  0
 41113  1  0  0  0
 41114  1  0  0  0
 41115  1  0  0  0
 41 48  1  0  0  0
 42 43  1  0  0  0
 42 66  1  0  0  0
 42116  1  0  0  0
 42117  1  0  0  0
 43 44  1  0  0  0
 44118  1  0  0  0
 45 46  2  0  0  0
 45119  1  0  0  0
 46120  1  0  0  0
 47121  1  0  0  0
 47122  1  0  0  0
 48 56  1  0  0  0
 48 65  1  0  0  0
 48123  1  0  0  0
 49 50  1  0  0  0
 49 53  1  0  0  0
 49 64  1  0  0  0
 49124  1  0  0  0
 50 51  1  0  0  0
 50125  1  0  0  0
 50126  1  0  0  0
 51 52  1  0  0  0
 51127  1  0  0  0
 51128  1  0  0  0
 52129  1  0  0  0
 52130  1  0  0  0
 53 54  1  0  0  0
 54 55  2  0  0  0
 54131  1  0  0  0
 55 57  1  0  0  0
 55132  1  0  0  0
 56 69  2  0  0  0
 57 58  2  0  0  0
 57133  1  0  0  0
 58134  1  0  0  0
 59 60  1  0  0  0
 59 61  1  0  0  0
 59 62  1  0  0  0
 60135  1  0  0  0
 60136  1  0  0  0
 60137  1  0  0  0
 61138  1  0  0  0
 61139  1  0  0  0
 61140  1  0  0  0
 62141  1  0  0  0
 62142  1  0  0  0
 62143  1  0  0  0
 63 65  1  0  0  0
 63144  1  0  0  0
 63145  1  0  0  0
 63146  1  0  0  0
 64147  1  0  0  0
 65148  1  0  0  0
 68 81  1  0  0  0
 71 72  2  0  0  0
 71 73  1  0  0  0
 71149  1  0  0  0
 72 76  1  0  0  0
 72150  1  0  0  0
 73 74  2  0  0  0
 73 83  1  0  0  0
 74 75  1  0  0  0
 74 82  1  0  0  0
 75 76  2  0  0  0
 75 84  1  0  0  0
 76 85  1  0  0  0
 77 78  2  0  0  0
 77 79  1  0  0  0
 77 86  1  0  0  0
 78151  1  0  0  0
 78152  1  0  0  0
 79 81  1  0  0  0
 79153  1  0  0  0
 79154  1  0  0  0
 80 81  1  0  0  0
 80 86  1  0  0  0
 80155  1  0  0  0
 80156  1  0  0  0
 81157  1  0  0  0
 82158  1  0  0  0
 82159  1  0  0  0
 82160  1  0  0  0
 83161  1  0  0  0
 83162  1  0  0  0
 83 86  1  0  0  0
 84 87  1  0  0  0
 84 88  1  0  0  0
 84 89  1  0  0  0
 85163  1  0  0  0
 86164  1  0  0  0
M  CHG  1  86   1
M  ISO  4   1 100  68 101  81 101  85 100
M  END
> <chiral flag>
0

> <version>
0

> <s_m_source_file>
/data/baiqing/PycharmProjects/Reinvent-master-3.2/result/LINK_invent/BTK/process_docking_weight1_custom_product_contain_oxygen_bond_distance_aromatic_linkinvent_7_9_3/rearranged_h_0031.sdf

> <i_m_source_file_index>
5

> <r_mmod_Potential_Energy-OPLS-2005>
179.506195068359

> <r_mmod_Stretch_Energy-OPLS-2005>
97.3154296875

> <r_mmod_Bend_Energy-OPLS-2005>
259.612915039062

> <r_mmod_Torsional_Energy-OPLS-2005>
247.285430908203

> <r_mmod_Improper_Torsional_Energy-OPLS-2005>
6.30004501342773

> <r_mmod_Van_der_Waal_Energy-OPLS-2005>
143.514846801758

> <r_mmod_Electrostatic_Energy-OPLS-2005>
-178.064102172852

> <r_mmod_Solvation_Energy-OPLS-2005>
-442.083251953125

> <b_mmod_Minimization_Converged-OPLS-2005>
0

> <r_mmod_RMS_Derivative-OPLS-2005>
3.04603004455566

$$$$
5
                    3D
 Structure written by MMmdl.
169178  0  0  1  0            999 V2000
  -30.7251  -14.4825   20.5614 C   0  0  0  0  0  0
  -30.4216  -12.3123   19.4193 C   0  0  0  0  0  0
  -29.4922  -12.4975   18.2019 C   0  0  0  0  0  0
  -28.0156  -12.3642   18.6224 C   0  0  0  0  0  0
  -27.6643  -13.2126   19.8739 C   0  0  2  0  0  0
  -28.7117  -13.0132   20.9933 C   0  0  0  0  0  0
  -25.2617  -13.8175   20.5689 C   0  0  0  0  0  0
  -24.1861  -13.0434   20.9167 C   0  0  0  0  0  0
  -24.6427  -11.6913   20.8746 C   0  0  0  0  0  0
  -23.9088  -10.4287   21.0412 C   0  0  0  0  0  0
  -24.3633   -9.4192   21.9186 C   0  0  0  0  0  0
  -23.6291   -8.2241   22.0763 C   0  0  0  0  0  0
  -22.4274   -8.0286   21.3552 C   0  0  0  0  0  0
  -21.9919   -9.0263   20.4657 C   0  0  0  0  0  0
  -22.7261  -10.2132   20.3059 C   0  0  0  0  0  0
  -21.6849   -6.0736   22.5271 C   0  0  0  0  0  0
  -21.4018   -6.5642   23.8206 C   0  0  0  0  0  0
  -21.3654   -5.6796   24.9170 C   0  0  0  0  0  0
  -21.6046   -4.3061   24.7223 C   0  0  0  0  0  0
  -21.8821   -3.8148   23.4346 C   0  0  0  0  0  0
  -21.9194   -4.6963   22.3399 C   0  0  0  0  0  0
  -22.7882  -13.5238   21.1821 C   0  0  0  0  0  0
  -22.1659   -4.2149   21.0976 F   0  0  0  0  0  0
  -21.5627   -3.4543   25.7738 F   0  0  0  0  0  0
  -30.0377  -13.3125   20.4329 N   0  0  0  0  0  0
  -26.3062  -12.9358   20.3390 N   0  0  0  0  0  0
  -25.9365  -11.6515   20.5791 N   0  0  0  0  0  0
  -22.0527  -12.8223   22.0384 N   0  0  0  0  0  0
  -25.4310  -15.1889   20.4064 N   0  0  0  0  0  0
  -31.8512  -14.6380   20.0839 O   0  0  0  0  0  0
  -21.6635   -6.8881   21.4240 O   0  0  0  0  0  0
  -22.3555  -14.5534   20.6663 O   0  0  0  0  0  0
  -24.6172  -31.8655   23.2100 C   0  0  0  0  0  0
  -25.9035  -32.4821   23.8413 C   0  0  1  0  0  0
  -27.2275  -27.3933   20.1146 C   0  0  0  0  0  0
  -25.5889  -33.8627   24.2342 N   0  0  0  0  0  0
  -23.4107  -30.4925   21.5487 C   0  0  2  0  0  0
  -24.8578  -28.9591   20.1135 C   0  0  0  0  0  0
  -22.7439  -29.4645   22.4920 C   0  0  0  0  0  0
  -18.0288  -28.1400   22.8439 C   0  0  0  0  0  0
  -24.1497  -36.7334   23.2650 C   0  0  0  0  0  0
  -25.9429  -30.8242   21.3677 C   0  0  0  0  0  0
  -26.0201  -29.4558   20.7153 C   0  0  0  0  0  0
  -27.2101  -28.6834   20.7084 C   0  0  0  0  0  0
  -26.0431  -26.9274   19.4980 C   0  0  0  0  0  0
  -24.8655  -27.6972   19.4994 C   0  0  0  0  0  0
  -23.6269  -29.8364   20.1589 C   0  0  0  0  0  0
  -25.4110  -36.3124   24.0355 C   0  0  1  0  0  0
  -20.5878  -28.3696   23.1273 C   0  0  2  0  0  0
  -20.6794  -26.9427   22.5392 C   0  0  0  0  0  0
  -19.5784  -26.6386   21.5188 C   0  0  0  0  0  0
  -18.1953  -26.7926   22.1594 C   0  0  0  0  0  0
  -19.1541  -28.8855   23.2848 C   0  0  0  0  0  0
  -18.9474  -30.1454   23.8865 C   0  0  0  0  0  0
  -17.6479  -30.6582   24.0572 C   0  0  0  0  0  0
  -25.9030  -34.9480   23.5150 C   0  0  0  0  0  0
  -16.5363  -29.9099   23.6326 C   0  0  0  0  0  0
  -16.7275  -28.6531   23.0299 C   0  0  0  0  0  0
  -26.4459  -31.6612   25.0729 C   0  0  0  0  0  0
  -25.3705  -31.3727   26.1467 C   0  0  0  0  0  0
  -27.0325  -30.3079   24.6084 C   0  0  0  0  0  0
  -27.6034  -32.4323   25.7479 C   0  0  0  0  0  0
  -27.5592  -37.1827   24.8462 C   0  0  0  0  0  0
  -21.4157  -29.3067   22.3688 N   0  0  0  0  0  0
  -26.4304  -37.3794   23.9411 N   0  0  0  0  0  0
  -24.6760  -31.0747   22.1013 N   0  0  0  0  0  0
  -23.4177  -28.8130   23.2946 O   0  0  0  0  0  0
  -28.3732  -26.6087   20.1505 O   0  0  0  0  0  0
  -26.5595  -34.8922   22.4708 O   0  0  0  0  0  0
  -23.5347  -32.1419   23.7464 O   0  0  0  0  0  0
  -28.2703  -17.8393   21.6648 C   0  0  0  0  0  0
  -27.3055  -18.8637   21.6701 C   0  0  0  0  0  0
  -29.5649  -18.0634   21.1620 C   0  0  0  0  0  0
  -27.6188  -20.1522   21.1602 C   0  0  0  0  0  0
  -28.9367  -20.4306   20.6916 C   0  0  0  0  0  0
  -29.9013  -19.3733   20.7035 C   0  0  0  0  0  0
  -30.1977  -24.0774   23.0008 C   0  0  0  0  0  0
  -30.2928  -25.0194   21.8037 C   0  0  0  0  0  0
  -30.0048  -22.7124   22.3561 C   0  0  0  0  0  0
  -29.4535  -24.3633   20.6821 C   0  0  2  0  0  0
  -25.9292  -18.5266   22.2275 C   0  0  0  0  0  0
  -26.5366  -21.2312   21.1303 C   0  0  0  0  0  0
  -30.5930  -16.9097   21.1636 C   0  0  0  0  0  0
  -29.2963  -21.8472   20.1470 C   0  0  0  0  0  0
  -28.1649  -25.1803   20.3341 C   0  0  0  0  0  0
  -30.0674  -15.5248   21.1133 N   0  0  0  0  0  0
  -29.1791  -22.9516   21.1517 N   0  3  1  0  0  0
  -31.5178  -19.6746   20.1580 Cl  0  0  0  0  0  0
  -31.4649  -12.3999   19.1104 H   0  0  0  0  0  0
  -30.3192  -11.3042   19.8247 H   0  0  0  0  0  0
  -29.7250  -11.7594   17.4328 H   0  0  0  0  0  0
  -29.6626  -13.4746   17.7468 H   0  0  0  0  0  0
  -27.8306  -11.3091   18.8298 H   0  0  0  0  0  0
  -27.3610  -12.6288   17.7922 H   0  0  0  0  0  0
  -27.7042  -14.2581   19.5678 H   0  0  0  0  0  0
  -28.6937  -11.9809   21.3481 H   0  0  0  0  0  0
  -28.4826  -13.6294   21.8632 H   0  0  0  0  0  0
  -25.2786   -9.5653   22.4753 H   0  0  0  0  0  0
  -23.9992   -7.4634   22.7489 H   0  0  0  0  0  0
  -21.0846   -8.8796   19.8966 H   0  0  0  0  0  0
  -22.3735  -10.9676   19.6166 H   0  0  0  0  0  0
  -21.2015   -7.6150   23.9710 H   0  0  0  0  0  0
  -21.1472   -6.0526   25.9071 H   0  0  0  0  0  0
  -22.0607   -2.7611   23.2845 H   0  0  0  0  0  0
  -22.4145  -11.9885   22.4768 H   0  0  0  0  0  0
  -21.1151  -13.1264   22.2603 H   0  0  0  0  0  0
  -24.6619  -15.8398   20.5056 H   0  0  0  0  0  0
  -26.2778  -15.6264   20.0659 H   0  0  0  0  0  0
  -26.7105  -32.5530   23.1177 H   0  0  0  0  0  0
  -25.0011  -33.9795   25.0477 H   0  0  0  0  0  0
  -22.7017  -31.3106   21.4102 H   0  0  0  0  0  0
  -23.3744  -35.9679   23.3305 H   0  0  0  0  0  0
  -24.3595  -36.8945   22.2063 H   0  0  0  0  0  0
  -23.7265  -37.6547   23.6653 H   0  0  0  0  0  0
  -26.0563  -31.5894   20.5979 H   0  0  0  0  0  0
  -26.8290  -30.8807   21.9878 H   0  0  0  0  0  0
  -28.1045  -29.0591   21.1861 H   0  0  0  0  0  0
  -26.0017  -25.9683   19.0008 H   0  0  0  0  0  0
  -23.9754  -27.3146   19.0201 H   0  0  0  0  0  0
  -23.7591  -30.6208   19.4122 H   0  0  0  0  0  0
  -22.7470  -29.2746   19.8404 H   0  0  0  0  0  0
  -25.1284  -36.2002   25.0851 H   0  0  0  0  0  0
  -20.9979  -28.3286   24.1389 H   0  0  0  0  0  0
  -20.5748  -26.2297   23.3588 H   0  0  0  0  0  0
  -21.6665  -26.7479   22.1184 H   0  0  0  0  0  0
  -19.6961  -25.6289   21.1251 H   0  0  0  0  0  0
  -19.6752  -27.3158   20.6685 H   0  0  0  0  0  0
  -17.4234  -26.6639   21.3985 H   0  0  0  0  0  0
  -18.0366  -26.0073   22.9004 H   0  0  0  0  0  0
  -19.7963  -30.7253   24.2233 H   0  0  0  0  0  0
  -17.5052  -31.6264   24.5172 H   0  0  0  0  0  0
  -15.5374  -30.3002   23.7664 H   0  0  0  0  0  0
  -15.8672  -28.0888   22.6962 H   0  0  0  0  0  0
  -24.5872  -30.7082   25.7804 H   0  0  0  0  0  0
  -24.8900  -32.2888   26.4897 H   0  0  0  0  0  0
  -25.8040  -30.8905   27.0240 H   0  0  0  0  0  0
  -26.2900  -29.6794   24.1149 H   0  0  0  0  0  0
  -27.4156  -29.7326   25.4520 H   0  0  0  0  0  0
  -27.8680  -30.4449   23.9218 H   0  0  0  0  0  0
  -27.2681  -33.3631   26.2059 H   0  0  0  0  0  0
  -28.3836  -32.6857   25.0295 H   0  0  0  0  0  0
  -28.0696  -31.8436   26.5390 H   0  0  0  0  0  0
  -28.2595  -38.0143   24.7509 H   0  0  0  0  0  0
  -28.1114  -36.2660   24.6284 H   0  0  0  0  0  0
  -27.2308  -37.1466   25.8871 H   0  0  0  0  0  0
  -20.9304  -29.8884   21.6996 H   0  0  0  0  0  0
  -26.0201  -38.2879   24.1399 H   0  0  0  0  0  0
  -28.0078  -16.8683   22.0603 H   0  0  0  0  0  0
  -29.3279  -24.3276   23.6099 H   0  0  0  0  0  0
  -31.0824  -24.1144   23.6382 H   0  0  0  0  0  0
  -31.3334  -25.0858   21.4796 H   0  0  0  0  0  0
  -29.9778  -26.0306   22.0647 H   0  0  0  0  0  0
  -29.5485  -21.9896   23.0354 H   0  0  0  0  0  0
  -30.9770  -22.3118   22.0628 H   0  0  0  0  0  0
  -30.0655  -24.3271   19.7807 H   0  0  0  0  0  0
  -25.2206  -18.3737   21.4124 H   0  0  0  0  0  0
  -25.5502  -19.3168   22.8752 H   0  0  0  0  0  0
  -25.9529  -17.6088   22.8169 H   0  0  0  0  0  0
  -25.5310  -20.8126   21.0970 H   0  0  0  0  0  0
  -26.6070  -21.8582   20.2433 H   0  0  0  0  0  0
  -26.6051  -21.8656   22.0153 H   0  0  0  0  0  0
  -31.2087  -17.0087   22.0595 H   0  0  0  0  0  0
  -31.2641  -17.0554   20.3158 H   0  0  0  0  0  0
  -28.6512  -22.0650   19.2967 H   0  0  0  0  0  0
  -30.3041  -21.8796   19.7383 H   0  0  0  0  0  0
  -27.7441  -24.7492   19.4249 H   0  0  0  0  0  0
  -27.4257  -25.0325   21.1243 H   0  0  0  0  0  0
  -29.1408  -15.3559   21.4689 H   0  0  0  0  0  0
  -28.2219  -22.9294   21.4692 H   0  0  0  0  0  0
  1 25  1  0  0  0
  1 30  2  0  0  0
  1 86  1  0  0  0
  2  3  1  0  0  0
  2 25  1  0  0  0
  2 89  1  0  0  0
  2 90  1  0  0  0
  3  4  1  0  0  0
  3 91  1  0  0  0
  3 92  1  0  0  0
  4  5  1  0  0  0
  4 93  1  0  0  0
  4 94  1  0  0  0
  5  6  1  0  0  0
  5 26  1  0  0  0
  5 95  1  0  0  0
  6 25  1  0  0  0
  6 96  1  0  0  0
  6 97  1  0  0  0
  7  8  2  0  0  0
  7 26  1  0  0  0
  7 29  1  0  0  0
  8  9  1  0  0  0
  8 22  1  0  0  0
  9 10  1  0  0  0
  9 27  2  0  0  0
 10 11  2  0  0  0
 10 15  1  0  0  0
 11 12  1  0  0  0
 11 98  1  0  0  0
 12 13  2  0  0  0
 12 99  1  0  0  0
 13 14  1  0  0  0
 13 31  1  0  0  0
 14 15  2  0  0  0
 14100  1  0  0  0
 15101  1  0  0  0
 16 17  2  0  0  0
 16 21  1  0  0  0
 16 31  1  0  0  0
 17 18  1  0  0  0
 17102  1  0  0  0
 18 19  2  0  0  0
 18103  1  0  0  0
 19 20  1  0  0  0
 19 24  1  0  0  0
 20 21  2  0  0  0
 20104  1  0  0  0
 21 23  1  0  0  0
 22 28  1  0  0  0
 22 32  2  0  0  0
 26 27  1  0  0  0
 28105  1  0  0  0
 28106  1  0  0  0
 29107  1  0  0  0
 29108  1  0  0  0
 33 34  1  0  0  0
 33 66  1  0  0  0
 33 70  2  0  0  0
 34 36  1  0  0  0
 34 59  1  0  0  0
 34109  1  0  0  0
 35 44  2  0  0  0
 35 45  1  0  0  0
 35 68  1  0  0  0
 36 56  1  0  0  0
 36110  1  0  0  0
 37 39  1  0  0  0
 37 47  1  0  0  0
 37 66  1  0  0  0
 37111  1  0  0  0
 38 43  2  0  0  0
 38 46  1  0  0  0
 38 47  1  0  0  0
 39 64  1  0  0  0
 39 67  2  0  0  0
 40 52  1  0  0  0
 40 53  2  0  0  0
 40 58  1  0  0  0
 41112  1  0  0  0
 41113  1  0  0  0
 41114  1  0  0  0
 41 48  1  0  0  0
 42 43  1  0  0  0
 42 66  1  0  0  0
 42115  1  0  0  0
 42116  1  0  0  0
 43 44  1  0  0  0
 44117  1  0  0  0
 45 46  2  0  0  0
 45118  1  0  0  0
 46119  1  0  0  0
 47120  1  0  0  0
 47121  1  0  0  0
 48 56  1  0  0  0
 48 65  1  0  0  0
 48122  1  0  0  0
 49 50  1  0  0  0
 49 53  1  0  0  0
 49 64  1  0  0  0
 49123  1  0  0  0
 50 51  1  0  0  0
 50124  1  0  0  0
 50125  1  0  0  0
 51 52  1  0  0  0
 51126  1  0  0  0
 51127  1  0  0  0
 52128  1  0  0  0
 52129  1  0  0  0
 53 54  1  0  0  0
 54 55  2  0  0  0
 54130  1  0  0  0
 55 57  1  0  0  0
 55131  1  0  0  0
 56 69  2  0  0  0
 57 58  2  0  0  0
 57132  1  0  0  0
 58133  1  0  0  0
 59 60  1  0  0  0
 59 61  1  0  0  0
 59 62  1  0  0  0
 60134  1  0  0  0
 60135  1  0  0  0
 60136  1  0  0  0
 61137  1  0  0  0
 61138  1  0  0  0
 61139  1  0  0  0
 62140  1  0  0  0
 62141  1  0  0  0
 62142  1  0  0  0
 63 65  1  0  0  0
 63143  1  0  0  0
 63144  1  0  0  0
 63145  1  0  0  0
 64146  1  0  0  0
 65147  1  0  0  0
 68 85  1  0  0  0
 71 72  2  0  0  0
 71 73  1  0  0  0
 71148  1  0  0  0
 72 74  1  0  0  0
 72 81  1  0  0  0
 73 76  2  0  0  0
 73 83  1  0  0  0
 74 75  2  0  0  0
 74 82  1  0  0  0
 75 76  1  0  0  0
 75 84  1  0  0  0
 76 88  1  0  0  0
 77 78  1  0  0  0
 77 79  1  0  0  0
 77149  1  0  0  0
 77150  1  0  0  0
 78 80  1  0  0  0
 78151  1  0  0  0
 78152  1  0  0  0
 79 87  1  0  0  0
 79153  1  0  0  0
 79154  1  0  0  0
 80 85  1  0  0  0
 80 87  1  0  0  0
 80155  1  0  0  0
 81156  1  0  0  0
 81157  1  0  0  0
 81158  1  0  0  0
 82159  1  0  0  0
 82160  1  0  0  0
 82161  1  0  0  0
 83 86  1  0  0  0
 83162  1  0  0  0
 83163  1  0  0  0
 84164  1  0  0  0
 84165  1  0  0  0
 84 87  1  0  0  0
 85166  1  0  0  0
 85167  1  0  0  0
 86168  1  0  0  0
 87169  1  0  0  0
M  CHG  1  87   1
M  ISO  4   1 100  68 101  85 101  86 100
M  END
> <chiral flag>
0

> <version>
0

> <s_m_source_file>
/data/baiqing/PycharmProjects/Reinvent-master-3.2/result/LINK_invent/BTK/process_docking_weight1_custom_product_contain_oxygen_bond_distance_aromatic_linkinvent_7_9_3/rearranged_h_0031.sdf

> <i_m_source_file_index>
6

> <r_mmod_Potential_Energy-OPLS-2005>
-84.4074249267578

> <r_mmod_Stretch_Energy-OPLS-2005>
53.4735488891602

> <r_mmod_Bend_Energy-OPLS-2005>
121.378913879395

> <r_mmod_Torsional_Energy-OPLS-2005>
262.117584228516

> <r_mmod_Improper_Torsional_Energy-OPLS-2005>
3.15819764137268

> <r_mmod_Van_der_Waal_Energy-OPLS-2005>
153.139938354492

> <r_mmod_Electrostatic_Energy-OPLS-2005>
-282.776062011719

> <r_mmod_Solvation_Energy-OPLS-2005>
-413.2001953125

> <b_mmod_Minimization_Converged-OPLS-2005>
0

> <r_mmod_RMS_Derivative-OPLS-2005>
3.03804636001587

$$$$
6
                    3D
 Structure written by MMmdl.
163172  0  0  1  0            999 V2000
  -30.5925  -14.7147   20.4899 C   0  0  0  0  0  0
  -30.4469  -12.4372   19.4694 C   0  0  0  0  0  0
  -29.5170  -12.5157   18.2365 C   0  0  0  0  0  0
  -28.0411  -12.3403   18.6471 C   0  0  0  0  0  0
  -27.6524  -13.2221   19.8632 C   0  0  2  0  0  0
  -28.6964  -13.1053   20.9972 C   0  0  0  0  0  0
  -25.2561  -13.8182   20.5705 C   0  0  0  0  0  0
  -24.1827  -13.0446   20.9199 C   0  0  0  0  0  0
  -24.6396  -11.6914   20.8735 C   0  0  0  0  0  0
  -23.9062  -10.4295   21.0401 C   0  0  0  0  0  0
  -24.3610   -9.4212   21.9182 C   0  0  0  0  0  0
  -23.6286   -8.2248   22.0756 C   0  0  0  0  0  0
  -22.4267   -8.0285   21.3546 C   0  0  0  0  0  0
  -21.9900   -9.0263   20.4653 C   0  0  0  0  0  0
  -22.7229  -10.2142   20.3057 C   0  0  0  0  0  0
  -21.6856   -6.0732   22.5275 C   0  0  0  0  0  0
  -21.4016   -6.5634   23.8209 C   0  0  0  0  0  0
  -21.3660   -5.6788   24.9172 C   0  0  0  0  0  0
  -21.6045   -4.3052   24.7222 C   0  0  0  0  0  0
  -21.8817   -3.8143   23.4343 C   0  0  0  0  0  0
  -21.9194   -4.6960   22.3399 C   0  0  0  0  0  0
  -22.7849  -13.5245   21.1853 C   0  0  0  0  0  0
  -22.1658   -4.2146   21.0976 F   0  0  0  0  0  0
  -21.5630   -3.4535   25.7734 F   0  0  0  0  0  0
  -30.0066  -13.4698   20.4337 N   0  0  0  0  0  0
  -26.2986  -12.9369   20.3317 N   0  0  0  0  0  0
  -25.9327  -11.6519   20.5748 N   0  0  0  0  0  0
  -22.0475  -12.8250   22.0410 N   0  0  0  0  0  0
  -25.4283  -15.1905   20.4134 N   0  0  0  0  0  0
  -31.7477  -14.8834   20.0865 O   0  0  0  0  0  0
  -21.6639   -6.8878   21.4238 O   0  0  0  0  0  0
  -22.3535  -14.5549   20.6696 O   0  0  0  0  0  0
  -24.6309  -31.8564   23.2003 C   0  0  0  0  0  0
  -25.9141  -32.4760   23.8340 C   0  0  1  0  0  0
  -27.2219  -27.2658   20.1228 C   0  0  0  0  0  0
  -25.5941  -33.8563   24.2265 N   0  0  0  0  0  0
  -23.4273  -30.4803   21.5438 C   0  0  2  0  0  0
  -24.8744  -28.9305   20.1116 C   0  0  0  0  0  0
  -22.7503  -29.4605   22.4913 C   0  0  0  0  0  0
  -18.0294  -28.1386   22.8477 C   0  0  0  0  0  0
  -24.1490  -36.7282   23.2636 C   0  0  0  0  0  0
  -25.9744  -30.7681   21.3835 C   0  0  0  0  0  0
  -26.0460  -29.3914   20.7254 C   0  0  0  0  0  0
  -27.2200  -28.5711   20.7230 C   0  0  0  0  0  0
  -26.0317  -26.8888   19.4574 C   0  0  0  0  0  0
  -24.8731  -27.6866   19.4669 C   0  0  0  0  0  0
  -23.6459  -29.8172   20.1595 C   0  0  0  0  0  0
  -25.4115  -36.3073   24.0326 C   0  0  1  0  0  0
  -20.5898  -28.3697   23.1267 C   0  0  2  0  0  0
  -20.6779  -26.9412   22.5410 C   0  0  0  0  0  0
  -19.5757  -26.6380   21.5208 C   0  0  0  0  0  0
  -18.1935  -26.7928   22.1617 C   0  0  0  0  0  0
  -19.1547  -28.8856   23.2867 C   0  0  0  0  0  0
  -18.9468  -30.1455   23.8887 C   0  0  0  0  0  0
  -17.6468  -30.6586   24.0558 C   0  0  0  0  0  0
  -25.9054  -34.9443   23.5095 C   0  0  0  0  0  0
  -16.5358  -29.9081   23.6332 C   0  0  0  0  0  0
  -16.7280  -28.6501   23.0347 C   0  0  0  0  0  0
  -26.4505  -31.6587   25.0732 C   0  0  0  0  0  0
  -25.3725  -31.3755   26.1456 C   0  0  0  0  0  0
  -27.0344  -30.2993   24.6234 C   0  0  0  0  0  0
  -27.6063  -32.4326   25.7496 C   0  0  0  0  0  0
  -27.5584  -37.1791   24.8460 C   0  0  0  0  0  0
  -21.4209  -29.3045   22.3655 N   0  0  0  0  0  0
  -26.4286  -37.3775   23.9415 N   0  0  0  0  0  0
  -24.6965  -31.0526   22.0985 N   0  0  0  0  0  0
  -23.4202  -28.8137   23.3006 O   0  0  0  0  0  0
  -28.3272  -26.3801   20.1729 O   0  0  0  0  0  0
  -26.5627  -34.8916   22.4664 O   0  0  0  0  0  0
  -23.5462  -32.1388   23.7298 O   0  0  0  0  0  0
  -30.5153  -17.9749   19.8202 C   0  0  0  0  0  0
  -30.4685  -19.4092   19.7364 C   0  0  0  0  0  0
  -29.0000  -19.4741   21.6466 C   0  0  0  0  0  0
  -29.7275  -20.2225   20.6616 C   0  0  0  0  0  0
  -29.0530  -18.0298   21.7214 C   0  0  0  0  0  0
  -29.8262  -17.2347   20.8160 C   0  0  0  0  0  0
  -28.5649  -23.9833   21.3150 C   0  0  0  0  0  0
  -29.1142  -23.9409   19.3870 C   0  0  0  0  0  0
  -28.1138  -24.8851   20.1290 C   0  0  2  0  0  0
  -31.2814  -20.0596   18.6277 C   0  0  0  0  0  0
  -28.1624  -20.2225   22.6814 C   0  0  0  0  0  0
  -28.2645  -17.3092   22.8168 C   0  0  0  0  0  0
  -29.9071  -21.8256   20.7314 C   0  0  0  0  0  0
  -29.7806  -15.7540   20.8972 N   0  0  0  0  0  0
  -28.8196  -22.8505   20.3684 N   0  3  1  0  0  0
  -31.4863  -12.5749   19.1667 H   0  0  0  0  0  0
  -30.3980  -11.4475   19.9267 H   0  0  0  0  0  0
  -29.7940  -11.7540   17.5062 H   0  0  0  0  0  0
  -29.6478  -13.4780   17.7384 H   0  0  0  0  0  0
  -27.8920  -11.2885   18.8940 H   0  0  0  0  0  0
  -27.3855  -12.5499   17.8012 H   0  0  0  0  0  0
  -27.6621  -14.2527   19.5081 H   0  0  0  0  0  0
  -28.7242  -12.0880   21.3901 H   0  0  0  0  0  0
  -28.4265  -13.7406   21.8419 H   0  0  0  0  0  0
  -25.2755   -9.5691   22.4757 H   0  0  0  0  0  0
  -23.9998   -7.4639   22.7472 H   0  0  0  0  0  0
  -21.0834   -8.8783   19.8961 H   0  0  0  0  0  0
  -22.3684  -10.9682   19.6167 H   0  0  0  0  0  0
  -21.2006   -7.6141   23.9710 H   0  0  0  0  0  0
  -21.1483   -6.0518   25.9076 H   0  0  0  0  0  0
  -22.0595   -2.7605   23.2843 H   0  0  0  0  0  0
  -22.4079  -11.9919   22.4821 H   0  0  0  0  0  0
  -21.1094  -13.1298   22.2600 H   0  0  0  0  0  0
  -24.6611  -15.8449   20.5213 H   0  0  0  0  0  0
  -26.2752  -15.6275   20.0729 H   0  0  0  0  0  0
  -26.7206  -32.5409   23.1081 H   0  0  0  0  0  0
  -25.0101  -33.9699   25.0419 H   0  0  0  0  0  0
  -22.7237  -31.3027   21.3990 H   0  0  0  0  0  0
  -23.3756  -35.9609   23.3289 H   0  0  0  0  0  0
  -24.3583  -36.8915   22.2054 H   0  0  0  0  0  0
  -23.7236  -37.6477   23.6665 H   0  0  0  0  0  0
  -26.1171  -31.5294   20.6151 H   0  0  0  0  0  0
  -26.8510  -30.8142   22.0182 H   0  0  0  0  0  0
  -28.1154  -28.9188   21.2190 H   0  0  0  0  0  0
  -25.9601  -25.9666   18.9035 H   0  0  0  0  0  0
  -23.9834  -27.3371   18.9612 H   0  0  0  0  0  0
  -23.7718  -30.5948   19.4052 H   0  0  0  0  0  0
  -22.7643  -29.2518   19.8526 H   0  0  0  0  0  0
  -25.1291  -36.1916   25.0817 H   0  0  0  0  0  0
  -20.9990  -28.3280   24.1388 H   0  0  0  0  0  0
  -20.5672  -26.2307   23.3617 H   0  0  0  0  0  0
  -21.6649  -26.7430   22.1211 H   0  0  0  0  0  0
  -19.6917  -25.6288   21.1242 H   0  0  0  0  0  0
  -19.6694  -27.3185   20.6733 H   0  0  0  0  0  0
  -17.4206  -26.6679   21.4016 H   0  0  0  0  0  0
  -18.0327  -26.0071   22.9014 H   0  0  0  0  0  0
  -19.7943  -30.7270   24.2258 H   0  0  0  0  0  0
  -17.5022  -31.6264   24.5161 H   0  0  0  0  0  0
  -15.5357  -30.2976   23.7661 H   0  0  0  0  0  0
  -15.8682  -28.0816   22.7063 H   0  0  0  0  0  0
  -24.5899  -30.7098   25.7798 H   0  0  0  0  0  0
  -24.8916  -32.2933   26.4849 H   0  0  0  0  0  0
  -25.8041  -30.8963   27.0252 H   0  0  0  0  0  0
  -26.2931  -29.6741   24.1246 H   0  0  0  0  0  0
  -27.3996  -29.7260   25.4766 H   0  0  0  0  0  0
  -27.8826  -30.4249   23.9500 H   0  0  0  0  0  0
  -27.2672  -33.3628   26.2068 H   0  0  0  0  0  0
  -28.3871  -32.6887   25.0322 H   0  0  0  0  0  0
  -28.0735  -31.8458   26.5416 H   0  0  0  0  0  0
  -28.2591  -38.0100   24.7525 H   0  0  0  0  0  0
  -28.1089  -36.2631   24.6251 H   0  0  0  0  0  0
  -27.2310  -37.1408   25.8866 H   0  0  0  0  0  0
  -20.9390  -29.8776   21.6870 H   0  0  0  0  0  0
  -26.0164  -38.2844   24.1428 H   0  0  0  0  0  0
  -31.0967  -17.4286   19.0899 H   0  0  0  0  0  0
  -27.7825  -23.7764   22.0451 H   0  0  0  0  0  0
  -29.4705  -24.3458   21.8079 H   0  0  0  0  0  0
  -30.1483  -24.2922   19.4259 H   0  0  0  0  0  0
  -28.8260  -23.6926   18.3652 H   0  0  0  0  0  0
  -27.0947  -24.6001   19.8787 H   0  0  0  0  0  0
  -31.5763  -19.3327   17.8699 H   0  0  0  0  0  0
  -32.1927  -20.5040   19.0290 H   0  0  0  0  0  0
  -30.7077  -20.8355   18.1201 H   0  0  0  0  0  0
  -27.9849  -21.2643   22.4323 H   0  0  0  0  0  0
  -28.6508  -20.1968   23.6562 H   0  0  0  0  0  0
  -27.1755  -19.7691   22.7800 H   0  0  0  0  0  0
  -28.2370  -17.8748   23.7469 H   0  0  0  0  0  0
  -28.6979  -16.3471   23.0856 H   0  0  0  0  0  0
  -27.2387  -17.1374   22.4903 H   0  0  0  0  0  0
  -30.8016  -22.1030   20.1767 H   0  0  0  0  0  0
  -30.1943  -22.0321   21.7627 H   0  0  0  0  0  0
  -28.9338  -15.4058   21.3180 H   0  0  0  0  0  0
  -27.9568  -22.3880   20.1287 H   0  0  0  0  0  0
  1 25  1  0  0  0
  1 30  2  0  0  0
  1 84  1  0  0  0
  2  3  1  0  0  0
  2 25  1  0  0  0
  2 86  1  0  0  0
  2 87  1  0  0  0
  3  4  1  0  0  0
  3 88  1  0  0  0
  3 89  1  0  0  0
  4  5  1  0  0  0
  4 90  1  0  0  0
  4 91  1  0  0  0
  5  6  1  0  0  0
  5 26  1  0  0  0
  5 92  1  0  0  0
  6 25  1  0  0  0
  6 93  1  0  0  0
  6 94  1  0  0  0
  7  8  2  0  0  0
  7 26  1  0  0  0
  7 29  1  0  0  0
  8  9  1  0  0  0
  8 22  1  0  0  0
  9 10  1  0  0  0
  9 27  2  0  0  0
 10 11  2  0  0  0
 10 15  1  0  0  0
 11 12  1  0  0  0
 11 95  1  0  0  0
 12 13  2  0  0  0
 12 96  1  0  0  0
 13 14  1  0  0  0
 13 31  1  0  0  0
 14 15  2  0  0  0
 14 97  1  0  0  0
 15 98  1  0  0  0
 16 17  2  0  0  0
 16 21  1  0  0  0
 16 31  1  0  0  0
 17 18  1  0  0  0
 17 99  1  0  0  0
 18 19  2  0  0  0
 18100  1  0  0  0
 19 20  1  0  0  0
 19 24  1  0  0  0
 20 21  2  0  0  0
 20101  1  0  0  0
 21 23  1  0  0  0
 22 28  1  0  0  0
 22 32  2  0  0  0
 26 27  1  0  0  0
 28102  1  0  0  0
 28103  1  0  0  0
 29104  1  0  0  0
 29105  1  0  0  0
 33 34  1  0  0  0
 33 66  1  0  0  0
 33 70  2  0  0  0
 34 36  1  0  0  0
 34 59  1  0  0  0
 34106  1  0  0  0
 35 44  2  0  0  0
 35 45  1  0  0  0
 35 68  1  0  0  0
 36 56  1  0  0  0
 36107  1  0  0  0
 37 39  1  0  0  0
 37 47  1  0  0  0
 37 66  1  0  0  0
 37108  1  0  0  0
 38 43  2  0  0  0
 38 46  1  0  0  0
 38 47  1  0  0  0
 39 64  1  0  0  0
 39 67  2  0  0  0
 40 52  1  0  0  0
 40 53  2  0  0  0
 40 58  1  0  0  0
 41109  1  0  0  0
 41110  1  0  0  0
 41111  1  0  0  0
 41 48  1  0  0  0
 42 43  1  0  0  0
 42 66  1  0  0  0
 42112  1  0  0  0
 42113  1  0  0  0
 43 44  1  0  0  0
 44114  1  0  0  0
 45 46  2  0  0  0
 45115  1  0  0  0
 46116  1  0  0  0
 47117  1  0  0  0
 47118  1  0  0  0
 48 56  1  0  0  0
 48 65  1  0  0  0
 48119  1  0  0  0
 49 50  1  0  0  0
 49 53  1  0  0  0
 49 64  1  0  0  0
 49120  1  0  0  0
 50 51  1  0  0  0
 50121  1  0  0  0
 50122  1  0  0  0
 51 52  1  0  0  0
 51123  1  0  0  0
 51124  1  0  0  0
 52125  1  0  0  0
 52126  1  0  0  0
 53 54  1  0  0  0
 54 55  2  0  0  0
 54127  1  0  0  0
 55 57  1  0  0  0
 55128  1  0  0  0
 56 69  2  0  0  0
 57 58  2  0  0  0
 57129  1  0  0  0
 58130  1  0  0  0
 59 60  1  0  0  0
 59 61  1  0  0  0
 59 62  1  0  0  0
 60131  1  0  0  0
 60132  1  0  0  0
 60133  1  0  0  0
 61134  1  0  0  0
 61135  1  0  0  0
 61136  1  0  0  0
 62137  1  0  0  0
 62138  1  0  0  0
 62139  1  0  0  0
 63 65  1  0  0  0
 63140  1  0  0  0
 63141  1  0  0  0
 63142  1  0  0  0
 64143  1  0  0  0
 65144  1  0  0  0
 68 79  1  0  0  0
 71 72  2  0  0  0
 71 76  1  0  0  0
 71145  1  0  0  0
 72 74  1  0  0  0
 72 80  1  0  0  0
 73 74  2  0  0  0
 73 75  1  0  0  0
 73 81  1  0  0  0
 74 83  1  0  0  0
 75 76  2  0  0  0
 75 82  1  0  0  0
 76 84  1  0  0  0
 77 79  1  0  0  0
 77 85  1  0  0  0
 77146  1  0  0  0
 77147  1  0  0  0
 78 79  1  0  0  0
 78 85  1  0  0  0
 78148  1  0  0  0
 78149  1  0  0  0
 79150  1  0  0  0
 80151  1  0  0  0
 80152  1  0  0  0
 80153  1  0  0  0
 81154  1  0  0  0
 81155  1  0  0  0
 81156  1  0  0  0
 82157  1  0  0  0
 82158  1  0  0  0
 82159  1  0  0  0
 83160  1  0  0  0
 83161  1  0  0  0
 83 85  1  0  0  0
 84162  1  0  0  0
 85163  1  0  0  0
M  CHG  1  85   1
M  ISO  4   1 100  68 101  79 101  84 100
M  END
> <chiral flag>
0

> <version>
0

> <s_m_source_file>
/data/baiqing/PycharmProjects/Reinvent-master-3.2/result/LINK_invent/BTK/process_docking_weight1_custom_product_contain_oxygen_bond_distance_aromatic_linkinvent_7_9_3/rearranged_h_0031.sdf

> <i_m_source_file_index>
7

> <r_mmod_Potential_Energy-OPLS-2005>
-21.8575706481934

> <r_mmod_Stretch_Energy-OPLS-2005>
116.745513916016

> <r_mmod_Bend_Energy-OPLS-2005>
196.576263427734

> <r_mmod_Torsional_Energy-OPLS-2005>
235.639114379883

> <r_mmod_Improper_Torsional_Energy-OPLS-2005>
4.4757137298584

> <r_mmod_Van_der_Waal_Energy-OPLS-2005>
153.56575012207

> <r_mmod_Electrostatic_Energy-OPLS-2005>
-338.798126220703

> <r_mmod_Solvation_Energy-OPLS-2005>
-465.405334472656

> <b_mmod_Minimization_Converged-OPLS-2005>
0

> <r_mmod_RMS_Derivative-OPLS-2005>
0.84306937456131

$$$$
7
                    3D
 Structure written by MMmdl.
173182  0  0  1  0            999 V2000
  -30.6111  -14.8084   20.5120 C   0  0  0  0  0  0
  -30.4263  -12.5127   19.4838 C   0  0  0  0  0  0
  -29.5086  -12.5310   18.2416 C   0  0  0  0  0  0
  -28.0392  -12.3165   18.6503 C   0  0  0  0  0  0
  -27.6279  -13.2105   19.8459 C   0  0  2  0  0  0
  -28.6671  -13.1832   20.9815 C   0  0  0  0  0  0
  -25.2494  -13.8132   20.5750 C   0  0  0  0  0  0
  -24.1760  -13.0401   20.9226 C   0  0  0  0  0  0
  -24.6332  -11.6875   20.8763 C   0  0  0  0  0  0
  -23.9018  -10.4274   21.0426 C   0  0  0  0  0  0
  -24.3588   -9.4192   21.9193 C   0  0  0  0  0  0
  -23.6274   -8.2231   22.0763 C   0  0  0  0  0  0
  -22.4253   -8.0274   21.3558 C   0  0  0  0  0  0
  -21.9882   -9.0239   20.4654 C   0  0  0  0  0  0
  -22.7199  -10.2123   20.3065 C   0  0  0  0  0  0
  -21.6844   -6.0738   22.5288 C   0  0  0  0  0  0
  -21.4006   -6.5640   23.8219 C   0  0  0  0  0  0
  -21.3653   -5.6794   24.9184 C   0  0  0  0  0  0
  -21.6038   -4.3057   24.7227 C   0  0  0  0  0  0
  -21.8809   -3.8151   23.4348 C   0  0  0  0  0  0
  -21.9194   -4.6969   22.3407 C   0  0  0  0  0  0
  -22.7789  -13.5215   21.1864 C   0  0  0  0  0  0
  -22.1659   -4.2153   21.0984 F   0  0  0  0  0  0
  -21.5629   -3.4544   25.7745 F   0  0  0  0  0  0
  -29.9667  -13.5805   20.4150 N   0  0  0  0  0  0
  -26.2852  -12.9259   20.3271 N   0  0  0  0  0  0
  -25.9245  -11.6430   20.5754 N   0  0  0  0  0  0
  -22.0413  -12.8231   22.0425 N   0  0  0  0  0  0
  -25.4233  -15.1866   20.4281 N   0  0  0  0  0  0
  -31.7568  -14.9004   20.0588 O   0  0  0  0  0  0
  -21.6622   -6.8874   21.4246 O   0  0  0  0  0  0
  -22.3476  -14.5508   20.6682 O   0  0  0  0  0  0
  -24.6303  -31.8498   23.1911 C   0  0  0  0  0  0
  -25.9118  -32.4723   23.8280 C   0  0  1  0  0  0
  -27.2354  -27.2408   20.1404 C   0  0  0  0  0  0
  -25.5906  -33.8527   24.2208 N   0  0  0  0  0  0
  -23.4293  -30.4639   21.5334 C   0  0  2  0  0  0
  -24.8810  -28.8965   20.1025 C   0  0  0  0  0  0
  -22.7499  -29.4553   22.4901 C   0  0  0  0  0  0
  -18.0287  -28.1387   22.8486 C   0  0  0  0  0  0
  -24.1487  -36.7274   23.2643 C   0  0  0  0  0  0
  -25.9708  -30.7559   21.3706 C   0  0  0  0  0  0
  -26.0440  -29.3744   20.7153 C   0  0  0  0  0  0
  -27.2153  -28.5554   20.7230 C   0  0  0  0  0  0
  -26.0562  -26.8239   19.4905 C   0  0  0  0  0  0
  -24.8939  -27.6334   19.4775 C   0  0  0  0  0  0
  -23.6480  -29.7831   20.1520 C   0  0  0  0  0  0
  -25.4117  -36.3054   24.0322 C   0  0  1  0  0  0
  -20.5890  -28.3692   23.1278 C   0  0  2  0  0  0
  -20.6770  -26.9406   22.5422 C   0  0  0  0  0  0
  -19.5752  -26.6378   21.5219 C   0  0  0  0  0  0
  -18.1928  -26.7930   22.1620 C   0  0  0  0  0  0
  -19.1542  -28.8856   23.2874 C   0  0  0  0  0  0
  -18.9463  -30.1460   23.8889 C   0  0  0  0  0  0
  -17.6464  -30.6588   24.0560 C   0  0  0  0  0  0
  -25.9056  -34.9423   23.5079 C   0  0  0  0  0  0
  -16.5353  -29.9085   23.6334 C   0  0  0  0  0  0
  -16.7275  -28.6502   23.0353 C   0  0  0  0  0  0
  -26.4494  -31.6569   25.0684 C   0  0  0  0  0  0
  -25.3721  -31.3726   26.1411 C   0  0  0  0  0  0
  -27.0347  -30.2984   24.6184 C   0  0  0  0  0  0
  -27.6037  -32.4327   25.7458 C   0  0  0  0  0  0
  -27.5580  -37.1788   24.8464 C   0  0  0  0  0  0
  -21.4201  -29.3026   22.3657 N   0  0  0  0  0  0
  -26.4290  -37.3759   23.9410 N   0  0  0  0  0  0
  -24.6955  -31.0436   22.0886 N   0  0  0  0  0  0
  -23.4185  -28.8123   23.3029 O   0  0  0  0  0  0
  -28.3650  -26.4070   20.3033 O   0  0  0  0  0  0
  -26.5649  -34.8912   22.4659 O   0  0  0  0  0  0
  -23.5451  -32.1331   23.7199 O   0  0  0  0  0  0
  -28.0522  -19.3335   19.0261 C   0  0  0  0  0  0
  -28.6043  -16.9679   19.3056 C   0  0  0  0  0  0
  -27.8596  -17.9847   18.6837 C   0  0  0  0  0  0
  -29.0397  -19.7435   19.9453 C   0  0  0  0  0  0
  -29.7642  -18.6545   20.6475 C   0  0  0  0  0  0
  -29.5156  -17.2117   20.3528 C   0  0  0  0  0  0
  -29.8788  -23.3171   21.2941 C   0  0  0  0  0  0
  -30.5381  -22.9428   22.4031 C   0  0  0  0  0  0
  -29.9953  -24.6514   20.5527 C   0  0  0  0  0  0
  -27.9004  -23.5992   20.0667 C   0  0  0  0  0  0
  -28.6694  -24.9944   19.8376 C   0  0  1  0  0  0
  -26.8446  -17.6242   17.6145 C   0  0  0  0  0  0
  -32.2075  -18.3770   21.4573 C   0  0  0  0  0  0
  -30.3833  -19.2342   23.0903 C   0  0  0  0  0  0
  -29.8863  -15.9367   22.5161 C   0  0  0  0  0  0
  -29.3794  -21.3310   19.8227 C   0  0  0  0  0  0
  -30.8612  -19.1014   21.6316 C   0  0  0  0  0  0
  -29.9761  -15.9469   21.0519 N   0  0  0  0  0  0
  -28.8042  -22.5034   20.6658 N   0  3  1  0  0  0
  -31.4668  -12.6404   19.1785 H   0  0  0  0  0  0
  -30.3876  -11.5399   19.9754 H   0  0  0  0  0  0
  -29.8167  -11.7615   17.5324 H   0  0  0  0  0  0
  -29.6119  -13.4856   17.7228 H   0  0  0  0  0  0
  -27.9156  -11.2667   18.9162 H   0  0  0  0  0  0
  -27.3813  -12.4936   17.7985 H   0  0  0  0  0  0
  -27.5891  -14.2140   19.4489 H   0  0  0  0  0  0
  -28.7270  -12.1898   21.4256 H   0  0  0  0  0  0
  -28.3372  -13.8487   21.7753 H   0  0  0  0  0  0
  -25.2733   -9.5680   22.4757 H   0  0  0  0  0  0
  -24.0002   -7.4617   22.7466 H   0  0  0  0  0  0
  -21.0830   -8.8740   19.8948 H   0  0  0  0  0  0
  -22.3660  -10.9663   19.6175 H   0  0  0  0  0  0
  -21.2001   -7.6146   23.9726 H   0  0  0  0  0  0
  -21.1474   -6.0528   25.9087 H   0  0  0  0  0  0
  -22.0601   -2.7615   23.2851 H   0  0  0  0  0  0
  -22.4032  -11.9918   22.4851 H   0  0  0  0  0  0
  -21.1028  -13.1269   22.2599 H   0  0  0  0  0  0
  -24.6639  -15.8422   20.5736 H   0  0  0  0  0  0
  -26.2943  -15.6394   20.1838 H   0  0  0  0  0  0
  -26.7176  -32.5365   23.1011 H   0  0  0  0  0  0
  -25.0032  -33.9657   25.0340 H   0  0  0  0  0  0
  -22.7268  -31.2856   21.3802 H   0  0  0  0  0  0
  -23.3757  -35.9598   23.3289 H   0  0  0  0  0  0
  -24.3577  -36.8919   22.2062 H   0  0  0  0  0  0
  -23.7233  -37.6462   23.6688 H   0  0  0  0  0  0
  -26.1083  -31.5135   20.5981 H   0  0  0  0  0  0
  -26.8478  -30.8095   22.0040 H   0  0  0  0  0  0
  -28.1030  -28.9108   21.2271 H   0  0  0  0  0  0
  -26.0136  -25.8485   19.0271 H   0  0  0  0  0  0
  -24.0003  -27.2631   18.9942 H   0  0  0  0  0  0
  -23.7653  -30.5530   19.3887 H   0  0  0  0  0  0
  -22.7675  -29.2100   19.8557 H   0  0  0  0  0  0
  -25.1303  -36.1894   25.0816 H   0  0  0  0  0  0
  -20.9978  -28.3274   24.1401 H   0  0  0  0  0  0
  -20.5666  -26.2298   23.3627 H   0  0  0  0  0  0
  -21.6638  -26.7424   22.1221 H   0  0  0  0  0  0
  -19.6912  -25.6286   21.1252 H   0  0  0  0  0  0
  -19.6697  -27.3186   20.6748 H   0  0  0  0  0  0
  -17.4203  -26.6690   21.4014 H   0  0  0  0  0  0
  -18.0315  -26.0069   22.9011 H   0  0  0  0  0  0
  -19.7937  -30.7278   24.2252 H   0  0  0  0  0  0
  -17.5015  -31.6269   24.5159 H   0  0  0  0  0  0
  -15.5354  -30.2982   23.7660 H   0  0  0  0  0  0
  -15.8674  -28.0817   22.7073 H   0  0  0  0  0  0
  -24.5884  -30.7088   25.7743 H   0  0  0  0  0  0
  -24.8928  -32.2899   26.4841 H   0  0  0  0  0  0
  -25.8039  -30.8898   27.0186 H   0  0  0  0  0  0
  -26.2927  -29.6719   24.1218 H   0  0  0  0  0  0
  -27.4036  -29.7264   25.4711 H   0  0  0  0  0  0
  -27.8802  -30.4260   23.9417 H   0  0  0  0  0  0
  -27.2626  -33.3621   26.2035 H   0  0  0  0  0  0
  -28.3840  -32.6906   25.0282 H   0  0  0  0  0  0
  -28.0720  -31.8462   26.5376 H   0  0  0  0  0  0
  -28.2590  -38.0093   24.7515 H   0  0  0  0  0  0
  -28.1082  -36.2622   24.6279 H   0  0  0  0  0  0
  -27.2300  -37.1425   25.8868 H   0  0  0  0  0  0
  -20.9395  -29.8727   21.6840 H   0  0  0  0  0  0
  -26.0163  -38.2829   24.1418 H   0  0  0  0  0  0
  -27.4894  -20.0809   18.4821 H   0  0  0  0  0  0
  -28.4331  -15.9605   18.9783 H   0  0  0  0  0  0
  -31.2799  -23.5877   22.8522 H   0  0  0  0  0  0
  -30.3471  -21.9998   22.8897 H   0  0  0  0  0  0
  -30.8089  -24.5837   19.8304 H   0  0  0  0  0  0
  -30.2738  -25.4290   21.2649 H   0  0  0  0  0  0
  -27.4270  -23.2519   19.1482 H   0  0  0  0  0  0
  -27.0907  -23.7756   20.7742 H   0  0  0  0  0  0
  -28.8752  -25.0780   18.7696 H   0  0  0  0  0  0
  -26.9197  -18.2999   16.7618 H   0  0  0  0  0  0
  -25.8319  -17.6928   18.0139 H   0  0  0  0  0  0
  -26.9945  -16.6085   17.2457 H   0  0  0  0  0  0
  -32.5697  -18.4849   20.4344 H   0  0  0  0  0  0
  -32.1692  -17.3133   21.6678 H   0  0  0  0  0  0
  -32.9648  -18.8041   22.1147 H   0  0  0  0  0  0
  -29.4782  -19.8399   23.1511 H   0  0  0  0  0  0
  -31.1427  -19.7300   23.6971 H   0  0  0  0  0  0
  -30.1657  -18.2939   23.5824 H   0  0  0  0  0  0
  -30.7907  -16.3245   22.9779 H   0  0  0  0  0  0
  -29.7607  -14.9400   22.9388 H   0  0  0  0  0  0
  -29.0311  -16.5263   22.8466 H   0  0  0  0  0  0
  -29.1650  -21.6068   18.7895 H   0  0  0  0  0  0
  -30.4652  -21.4169   19.8319 H   0  0  0  0  0  0
  -31.1226  -20.1214   21.3692 H   0  0  0  0  0  0
  -28.2607  -22.0596   21.3913 H   0  0  0  0  0  0
  1 25  1  0  0  0
  1 30  2  0  0  0
  1 88  1  0  0  0
  2  3  1  0  0  0
  2 25  1  0  0  0
  2 90  1  0  0  0
  2 91  1  0  0  0
  3  4  1  0  0  0
  3 92  1  0  0  0
  3 93  1  0  0  0
  4  5  1  0  0  0
  4 94  1  0  0  0
  4 95  1  0  0  0
  5  6  1  0  0  0
  5 26  1  0  0  0
  5 96  1  0  0  0
  6 25  1  0  0  0
  6 97  1  0  0  0
  6 98  1  0  0  0
  7  8  2  0  0  0
  7 26  1  0  0  0
  7 29  1  0  0  0
  8  9  1  0  0  0
  8 22  1  0  0  0
  9 10  1  0  0  0
  9 27  2  0  0  0
 10 11  2  0  0  0
 10 15  1  0  0  0
 11 12  1  0  0  0
 11 99  1  0  0  0
 12 13  2  0  0  0
 12100  1  0  0  0
 13 14  1  0  0  0
 13 31  1  0  0  0
 14 15  2  0  0  0
 14101  1  0  0  0
 15102  1  0  0  0
 16 17  2  0  0  0
 16 21  1  0  0  0
 16 31  1  0  0  0
 17 18  1  0  0  0
 17103  1  0  0  0
 18 19  2  0  0  0
 18104  1  0  0  0
 19 20  1  0  0  0
 19 24  1  0  0  0
 20 21  2  0  0  0
 20105  1  0  0  0
 21 23  1  0  0  0
 22 28  1  0  0  0
 22 32  2  0  0  0
 26 27  1  0  0  0
 28106  1  0  0  0
 28107  1  0  0  0
 29108  1  0  0  0
 29109  1  0  0  0
 33 34  1  0  0  0
 33 66  1  0  0  0
 33 70  2  0  0  0
 34 36  1  0  0  0
 34 59  1  0  0  0
 34110  1  0  0  0
 35 44  2  0  0  0
 35 45  1  0  0  0
 35 68  1  0  0  0
 36 56  1  0  0  0
 36111  1  0  0  0
 37 39  1  0  0  0
 37 47  1  0  0  0
 37 66  1  0  0  0
 37112  1  0  0  0
 38 43  2  0  0  0
 38 46  1  0  0  0
 38 47  1  0  0  0
 39 64  1  0  0  0
 39 67  2  0  0  0
 40 52  1  0  0  0
 40 53  2  0  0  0
 40 58  1  0  0  0
 41113  1  0  0  0
 41114  1  0  0  0
 41115  1  0  0  0
 41 48  1  0  0  0
 42 43  1  0  0  0
 42 66  1  0  0  0
 42116  1  0  0  0
 42117  1  0  0  0
 43 44  1  0  0  0
 44118  1  0  0  0
 45 46  2  0  0  0
 45119  1  0  0  0
 46120  1  0  0  0
 47121  1  0  0  0
 47122  1  0  0  0
 48 56  1  0  0  0
 48 65  1  0  0  0
 48123  1  0  0  0
 49 50  1  0  0  0
 49 53  1  0  0  0
 49 64  1  0  0  0
 49124  1  0  0  0
 50 51  1  0  0  0
 50125  1  0  0  0
 50126  1  0  0  0
 51 52  1  0  0  0
 51127  1  0  0  0
 51128  1  0  0  0
 52129  1  0  0  0
 52130  1  0  0  0
 53 54  1  0  0  0
 54 55  2  0  0  0
 54131  1  0  0  0
 55 57  1  0  0  0
 55132  1  0  0  0
 56 69  2  0  0  0
 57 58  2  0  0  0
 57133  1  0  0  0
 58134  1  0  0  0
 59 60  1  0  0  0
 59 61  1  0  0  0
 59 62  1  0  0  0
 60135  1  0  0  0
 60136  1  0  0  0
 60137  1  0  0  0
 61138  1  0  0  0
 61139  1  0  0  0
 61140  1  0  0  0
 62141  1  0  0  0
 62142  1  0  0  0
 62143  1  0  0  0
 63 65  1  0  0  0
 63144  1  0  0  0
 63145  1  0  0  0
 63146  1  0  0  0
 64147  1  0  0  0
 65148  1  0  0  0
 68 81  1  0  0  0
 71 73  2  0  0  0
 71 74  1  0  0  0
 71149  1  0  0  0
 72 73  1  0  0  0
 72 76  2  0  0  0
 72150  1  0  0  0
 73 82  1  0  0  0
 74 75  2  0  0  0
 74 86  1  0  0  0
 75 76  1  0  0  0
 75 87  1  0  0  0
 76 88  1  0  0  0
 77 78  2  0  0  0
 77 79  1  0  0  0
 77 89  1  0  0  0
 78151  1  0  0  0
 78152  1  0  0  0
 79 81  1  0  0  0
 79153  1  0  0  0
 79154  1  0  0  0
 80 81  1  0  0  0
 80 89  1  0  0  0
 80155  1  0  0  0
 80156  1  0  0  0
 81157  1  0  0  0
 82158  1  0  0  0
 82159  1  0  0  0
 82160  1  0  0  0
 83161  1  0  0  0
 83162  1  0  0  0
 83163  1  0  0  0
 83 87  1  0  0  0
 84 87  1  0  0  0
 84164  1  0  0  0
 84165  1  0  0  0
 84166  1  0  0  0
 85 88  1  0  0  0
 85167  1  0  0  0
 85168  1  0  0  0
 85169  1  0  0  0
 86170  1  0  0  0
 86171  1  0  0  0
 86 89  1  0  0  0
 87172  1  0  0  0
 89173  1  0  0  0
M  CHG  1  89   1
M  ISO  4   1 100  68 101  81 101  88 100
M  END
> <chiral flag>
0

> <version>
0

> <s_m_source_file>
/data/baiqing/PycharmProjects/Reinvent-master-3.2/result/LINK_invent/BTK/process_docking_weight1_custom_product_contain_oxygen_bond_distance_aromatic_linkinvent_7_9_3/rearranged_h_0031.sdf

> <i_m_source_file_index>
8

> <r_mmod_Potential_Energy-OPLS-2005>
464.766448974609

> <r_mmod_Stretch_Energy-OPLS-2005>
172.218933105469

> <r_mmod_Bend_Energy-OPLS-2005>
320.026000976562

> <r_mmod_Torsional_Energy-OPLS-2005>
352.573425292969

> <r_mmod_Improper_Torsional_Energy-OPLS-2005>
4.50245475769043

> <r_mmod_Van_der_Waal_Energy-OPLS-2005>
124.652679443359

> <r_mmod_Electrostatic_Energy-OPLS-2005>
-203.556182861328

> <r_mmod_Solvation_Energy-OPLS-2005>
-410.943725585938

> <b_mmod_Minimization_Converged-OPLS-2005>
0

> <r_mmod_RMS_Derivative-OPLS-2005>
1.56997001171112

$$$$
8
                    3D
 Structure written by MMmdl.
164173  0  0  1  0            999 V2000
  -30.6684  -14.6102   20.4917 C   0  0  0  0  0  0
  -30.4195  -12.3674   19.4617 C   0  0  0  0  0  0
  -29.5030  -12.4881   18.2264 C   0  0  0  0  0  0
  -28.0289  -12.3255   18.6440 C   0  0  0  0  0  0
  -27.6480  -13.2188   19.8557 C   0  0  2  0  0  0
  -28.6877  -13.1077   20.9921 C   0  0  0  0  0  0
  -25.2536  -13.8188   20.5644 C   0  0  0  0  0  0
  -24.1813  -13.0439   20.9185 C   0  0  0  0  0  0
  -24.6390  -11.6919   20.8739 C   0  0  0  0  0  0
  -23.9079  -10.4293   21.0417 C   0  0  0  0  0  0
  -24.3635   -9.4215   21.9192 C   0  0  0  0  0  0
  -23.6309   -8.2252   22.0765 C   0  0  0  0  0  0
  -22.4301   -8.0284   21.3541 C   0  0  0  0  0  0
  -21.9925   -9.0263   20.4657 C   0  0  0  0  0  0
  -22.7258  -10.2140   20.3065 C   0  0  0  0  0  0
  -21.6865   -6.0748   22.5277 C   0  0  0  0  0  0
  -21.4020   -6.5649   23.8209 C   0  0  0  0  0  0
  -21.3661   -5.6801   24.9166 C   0  0  0  0  0  0
  -21.6044   -4.3060   24.7217 C   0  0  0  0  0  0
  -21.8824   -3.8158   23.4332 C   0  0  0  0  0  0
  -21.9193   -4.6975   22.3395 C   0  0  0  0  0  0
  -22.7841  -13.5235   21.1842 C   0  0  0  0  0  0
  -22.1668   -4.2156   21.0969 F   0  0  0  0  0  0
  -21.5622   -3.4543   25.7728 F   0  0  0  0  0  0
  -30.0073  -13.4125   20.4201 N   0  0  0  0  0  0
  -26.2962  -12.9366   20.3298 N   0  0  0  0  0  0
  -25.9321  -11.6517   20.5767 N   0  0  0  0  0  0
  -22.0520  -12.8198   22.0406 N   0  0  0  0  0  0
  -25.4197  -15.1885   20.4044 N   0  0  0  0  0  0
  -31.8384  -14.7246   20.1229 O   0  0  0  0  0  0
  -21.6658   -6.8882   21.4242 O   0  0  0  0  0  0
  -22.3523  -14.5539   20.6707 O   0  0  0  0  0  0
  -24.6273  -31.8624   23.1996 C   0  0  0  0  0  0
  -25.9122  -32.4791   23.8339 C   0  0  1  0  0  0
  -27.2307  -27.3478   20.0857 C   0  0  0  0  0  0
  -25.5930  -33.8590   24.2269 N   0  0  0  0  0  0
  -23.4203  -30.4913   21.5363 C   0  0  2  0  0  0
  -24.8592  -28.9469   20.1130 C   0  0  0  0  0  0
  -22.7502  -29.4649   22.4886 C   0  0  0  0  0  0
  -18.0319  -28.1378   22.8514 C   0  0  0  0  0  0
  -24.1490  -36.7258   23.2644 C   0  0  0  0  0  0
  -25.9598  -30.8000   21.3636 C   0  0  0  0  0  0
  -26.0306  -29.4265   20.7109 C   0  0  0  0  0  0
  -27.2170  -28.6395   20.6887 C   0  0  0  0  0  0
  -26.0134  -26.8975   19.5134 C   0  0  0  0  0  0
  -24.8479  -27.6797   19.5196 C   0  0  0  0  0  0
  -23.6362  -29.8277   20.1518 C   0  0  0  0  0  0
  -25.4115  -36.3073   24.0349 C   0  0  1  0  0  0
  -20.5921  -28.3695   23.1280 C   0  0  2  0  0  0
  -20.6802  -26.9411   22.5415 C   0  0  0  0  0  0
  -19.5759  -26.6388   21.5234 C   0  0  0  0  0  0
  -18.1943  -26.7932   22.1641 C   0  0  0  0  0  0
  -19.1569  -28.8860   23.2895 C   0  0  0  0  0  0
  -18.9491  -30.1455   23.8912 C   0  0  0  0  0  0
  -17.6474  -30.6584   24.0590 C   0  0  0  0  0  0
  -25.9054  -34.9444   23.5098 C   0  0  0  0  0  0
  -16.5371  -29.9099   23.6325 C   0  0  0  0  0  0
  -16.7309  -28.6498   23.0353 C   0  0  0  0  0  0
  -26.4496  -31.6584   25.0697 C   0  0  0  0  0  0
  -25.3718  -31.3736   26.1417 C   0  0  0  0  0  0
  -27.0333  -30.3026   24.6076 C   0  0  0  0  0  0
  -27.6050  -32.4314   25.7450 C   0  0  0  0  0  0
  -27.5588  -37.1775   24.8485 C   0  0  0  0  0  0
  -21.4218  -29.3052   22.3663 N   0  0  0  0  0  0
  -26.4298  -37.3763   23.9426 N   0  0  0  0  0  0
  -24.6885  -31.0682   22.0909 N   0  0  0  0  0  0
  -23.4270  -28.8209   23.2935 O   0  0  0  0  0  0
  -28.4049  -26.5724   20.0558 O   0  0  0  0  0  0
  -26.5600  -34.8938   22.4652 O   0  0  0  0  0  0
  -23.5421  -32.1405   23.7329 O   0  0  0  0  0  0
  -27.1922  -19.2496   21.3675 C   0  0  0  0  0  0
  -29.6601  -19.6058   20.1499 C   0  0  0  0  0  0
  -28.1617  -18.2401   21.4995 C   0  0  0  0  0  0
  -27.4209  -20.4273   20.6290 C   0  0  0  0  0  0
  -29.3875  -18.3396   20.7946 C   0  0  0  0  0  0
  -28.7126  -20.6949   20.0931 C   0  0  0  0  0  0
  -29.6395  -24.4975   19.2119 C   0  0  0  0  0  0
  -30.6113  -24.9123   18.3694 C   0  0  0  0  0  0
  -28.6119  -24.1245   20.8430 C   0  0  0  0  0  0
  -28.3499  -25.1450   19.6872 C   0  0  2  0  0  0
  -27.8210  -17.0807   22.4180 C   0  0  0  0  0  0
  -26.1972  -21.2959   20.3639 C   0  0  0  0  0  0
  -30.4199  -17.1478   20.7832 C   0  0  0  0  0  0
  -28.9920  -22.0352   19.3016 C   0  0  0  0  0  0
  -29.9380  -15.7237   20.7988 N   0  0  0  0  0  0
  -29.5117  -23.2801   20.0024 N   0  3  1  0  0  0
  -31.4674  -12.4537   19.1672 H   0  0  0  0  0  0
  -30.3185  -11.3782   19.9133 H   0  0  0  0  0  0
  -29.7663  -11.7322   17.4852 H   0  0  0  0  0  0
  -29.6501  -13.4564   17.7453 H   0  0  0  0  0  0
  -27.8817  -11.2760   18.9039 H   0  0  0  0  0  0
  -27.3676  -12.5212   17.7989 H   0  0  0  0  0  0
  -27.6602  -14.2475   19.4944 H   0  0  0  0  0  0
  -28.6863  -12.1068   21.4253 H   0  0  0  0  0  0
  -28.4411  -13.7865   21.8086 H   0  0  0  0  0  0
  -25.2786   -9.5694   22.4753 H   0  0  0  0  0  0
  -24.0036   -7.4646   22.7468 H   0  0  0  0  0  0
  -21.0871   -8.8780   19.8951 H   0  0  0  0  0  0
  -22.3730  -10.9675   19.6166 H   0  0  0  0  0  0
  -21.2026   -7.6155   23.9707 H   0  0  0  0  0  0
  -21.1483   -6.0529   25.9061 H   0  0  0  0  0  0
  -22.0605   -2.7618   23.2827 H   0  0  0  0  0  0
  -22.4189  -11.9856   22.4723 H   0  0  0  0  0  0
  -21.1136  -13.1180   22.2648 H   0  0  0  0  0  0
  -24.6508  -15.8375   20.5266 H   0  0  0  0  0  0
  -26.2625  -15.6360   20.0692 H   0  0  0  0  0  0
  -26.7198  -32.5502   23.1092 H   0  0  0  0  0  0
  -25.0194  -33.9709   25.0497 H   0  0  0  0  0  0
  -22.7150  -31.3118   21.3920 H   0  0  0  0  0  0
  -23.3774  -35.9566   23.3303 H   0  0  0  0  0  0
  -24.3619  -36.8855   22.2065 H   0  0  0  0  0  0
  -23.7198  -37.6451   23.6647 H   0  0  0  0  0  0
  -26.0845  -31.5555   20.5877 H   0  0  0  0  0  0
  -26.8484  -30.8543   21.9826 H   0  0  0  0  0  0
  -28.1225  -29.0082   21.1483 H   0  0  0  0  0  0
  -25.8884  -25.9371   19.0498 H   0  0  0  0  0  0
  -23.9436  -27.2936   19.0718 H   0  0  0  0  0  0
  -23.7634  -30.6018   19.3920 H   0  0  0  0  0  0
  -22.7565  -29.2571   19.8506 H   0  0  0  0  0  0
  -25.1271  -36.1916   25.0840 H   0  0  0  0  0  0
  -21.0040  -28.3255   24.1387 H   0  0  0  0  0  0
  -20.5729  -26.2288   23.3613 H   0  0  0  0  0  0
  -21.6661  -26.7433   22.1170 H   0  0  0  0  0  0
  -19.6907  -25.6311   21.1237 H   0  0  0  0  0  0
  -19.6688  -27.3237   20.6798 H   0  0  0  0  0  0
  -17.4214  -26.6733   21.4038 H   0  0  0  0  0  0
  -18.0295  -26.0073   22.9024 H   0  0  0  0  0  0
  -19.7963  -30.7285   24.2265 H   0  0  0  0  0  0
  -17.5033  -31.6269   24.5186 H   0  0  0  0  0  0
  -15.5373  -30.2997   23.7622 H   0  0  0  0  0  0
  -15.8708  -28.0840   22.7018 H   0  0  0  0  0  0
  -24.5943  -30.6999   25.7780 H   0  0  0  0  0  0
  -24.8863  -32.2918   26.4741 H   0  0  0  0  0  0
  -25.8075  -30.9037   27.0238 H   0  0  0  0  0  0
  -26.2887  -29.6770   24.1137 H   0  0  0  0  0  0
  -27.4134  -29.7270   25.4519 H   0  0  0  0  0  0
  -27.8702  -30.4364   23.9217 H   0  0  0  0  0  0
  -27.2668  -33.3648   26.1946 H   0  0  0  0  0  0
  -28.3892  -32.6783   25.0286 H   0  0  0  0  0  0
  -28.0645  -31.8472   26.5419 H   0  0  0  0  0  0
  -28.2560  -38.0108   24.7548 H   0  0  0  0  0  0
  -28.1109  -36.2630   24.6260 H   0  0  0  0  0  0
  -27.2330  -37.1366   25.8896 H   0  0  0  0  0  0
  -20.9361  -29.8837   21.6930 H   0  0  0  0  0  0
  -26.0175  -38.2831   24.1457 H   0  0  0  0  0  0
  -26.2209  -19.0946   21.8185 H   0  0  0  0  0  0
  -30.6103  -19.7338   19.6472 H   0  0  0  0  0  0
  -30.5370  -25.8671   17.8686 H   0  0  0  0  0  0
  -31.4853  -24.3157   18.1541 H   0  0  0  0  0  0
  -27.7404  -23.6413   21.2626 H   0  0  0  0  0  0
  -29.1729  -24.5947   21.6540 H   0  0  0  0  0  0
  -27.5331  -24.8528   19.0402 H   0  0  0  0  0  0
  -27.0076  -17.3523   23.0927 H   0  0  0  0  0  0
  -28.6704  -16.8141   23.0451 H   0  0  0  0  0  0
  -27.4994  -16.2111   21.8503 H   0  0  0  0  0  0
  -26.0095  -21.3637   19.2941 H   0  0  0  0  0  0
  -26.2545  -22.2976   20.7699 H   0  0  0  0  0  0
  -25.3016  -20.8496   20.7943 H   0  0  0  0  0  0
  -31.0649  -17.2644   21.6562 H   0  0  0  0  0  0
  -31.0674  -17.2821   19.9162 H   0  0  0  0  0  0
  -28.0939  -22.3124   18.7487 H   0  0  0  0  0  0
  -29.7195  -21.7954   18.5226 H   0  0  0  0  0  0
  -28.9784  -15.5741   21.0660 H   0  0  0  0  0  0
  -30.3509  -23.0642   20.5202 H   0  0  0  0  0  0
  1 25  1  0  0  0
  1 30  2  0  0  0
  1 85  1  0  0  0
  2  3  1  0  0  0
  2 25  1  0  0  0
  2 87  1  0  0  0
  2 88  1  0  0  0
  3  4  1  0  0  0
  3 89  1  0  0  0
  3 90  1  0  0  0
  4  5  1  0  0  0
  4 91  1  0  0  0
  4 92  1  0  0  0
  5  6  1  0  0  0
  5 26  1  0  0  0
  5 93  1  0  0  0
  6 25  1  0  0  0
  6 94  1  0  0  0
  6 95  1  0  0  0
  7  8  2  0  0  0
  7 26  1  0  0  0
  7 29  1  0  0  0
  8  9  1  0  0  0
  8 22  1  0  0  0
  9 10  1  0  0  0
  9 27  2  0  0  0
 10 11  2  0  0  0
 10 15  1  0  0  0
 11 12  1  0  0  0
 11 96  1  0  0  0
 12 13  2  0  0  0
 12 97  1  0  0  0
 13 14  1  0  0  0
 13 31  1  0  0  0
 14 15  2  0  0  0
 14 98  1  0  0  0
 15 99  1  0  0  0
 16 17  2  0  0  0
 16 21  1  0  0  0
 16 31  1  0  0  0
 17 18  1  0  0  0
 17100  1  0  0  0
 18 19  2  0  0  0
 18101  1  0  0  0
 19 20  1  0  0  0
 19 24  1  0  0  0
 20 21  2  0  0  0
 20102  1  0  0  0
 21 23  1  0  0  0
 22 28  1  0  0  0
 22 32  2  0  0  0
 26 27  1  0  0  0
 28103  1  0  0  0
 28104  1  0  0  0
 29105  1  0  0  0
 29106  1  0  0  0
 33 34  1  0  0  0
 33 66  1  0  0  0
 33 70  2  0  0  0
 34 36  1  0  0  0
 34 59  1  0  0  0
 34107  1  0  0  0
 35 44  2  0  0  0
 35 45  1  0  0  0
 35 68  1  0  0  0
 36 56  1  0  0  0
 36108  1  0  0  0
 37 39  1  0  0  0
 37 47  1  0  0  0
 37 66  1  0  0  0
 37109  1  0  0  0
 38 43  2  0  0  0
 38 46  1  0  0  0
 38 47  1  0  0  0
 39 64  1  0  0  0
 39 67  2  0  0  0
 40 52  1  0  0  0
 40 53  2  0  0  0
 40 58  1  0  0  0
 41110  1  0  0  0
 41111  1  0  0  0
 41112  1  0  0  0
 41 48  1  0  0  0
 42 43  1  0  0  0
 42 66  1  0  0  0
 42113  1  0  0  0
 42114  1  0  0  0
 43 44  1  0  0  0
 44115  1  0  0  0
 45 46  2  0  0  0
 45116  1  0  0  0
 46117  1  0  0  0
 47118  1  0  0  0
 47119  1  0  0  0
 48 56  1  0  0  0
 48 65  1  0  0  0
 48120  1  0  0  0
 49 50  1  0  0  0
 49 53  1  0  0  0
 49 64  1  0  0  0
 49121  1  0  0  0
 50 51  1  0  0  0
 50122  1  0  0  0
 50123  1  0  0  0
 51 52  1  0  0  0
 51124  1  0  0  0
 51125  1  0  0  0
 52126  1  0  0  0
 52127  1  0  0  0
 53 54  1  0  0  0
 54 55  2  0  0  0
 54128  1  0  0  0
 55 57  1  0  0  0
 55129  1  0  0  0
 56 69  2  0  0  0
 57 58  2  0  0  0
 57130  1  0  0  0
 58131  1  0  0  0
 59 60  1  0  0  0
 59 61  1  0  0  0
 59 62  1  0  0  0
 60132  1  0  0  0
 60133  1  0  0  0
 60134  1  0  0  0
 61135  1  0  0  0
 61136  1  0  0  0
 61137  1  0  0  0
 62138  1  0  0  0
 62139  1  0  0  0
 62140  1  0  0  0
 63 65  1  0  0  0
 63141  1  0  0  0
 63142  1  0  0  0
 63143  1  0  0  0
 64144  1  0  0  0
 65145  1  0  0  0
 68 80  1  0  0  0
 71 73  2  0  0  0
 71 74  1  0  0  0
 71146  1  0  0  0
 72 75  2  0  0  0
 72 76  1  0  0  0
 72147  1  0  0  0
 73 75  1  0  0  0
 73 81  1  0  0  0
 74 76  2  0  0  0
 74 82  1  0  0  0
 75 83  1  0  0  0
 76 84  1  0  0  0
 77 78  2  0  0  0
 77 80  1  0  0  0
 77 86  1  0  0  0
 78148  1  0  0  0
 78149  1  0  0  0
 79 80  1  0  0  0
 79 86  1  0  0  0
 79150  1  0  0  0
 79151  1  0  0  0
 80152  1  0  0  0
 81153  1  0  0  0
 81154  1  0  0  0
 81155  1  0  0  0
 82156  1  0  0  0
 82157  1  0  0  0
 82158  1  0  0  0
 83 85  1  0  0  0
 83159  1  0  0  0
 83160  1  0  0  0
 84161  1  0  0  0
 84162  1  0  0  0
 84 86  1  0  0  0
 85163  1  0  0  0
 86164  1  0  0  0
M  CHG  1  86   1
M  ISO  4   1 100  68 101  80 101  85 100
M  END
> <chiral flag>
0

> <version>
0

> <s_m_source_file>
/data/baiqing/PycharmProjects/Reinvent-master-3.2/result/LINK_invent/BTK/process_docking_weight1_custom_product_contain_oxygen_bond_distance_aromatic_linkinvent_7_9_3/rearranged_h_0031.sdf

> <i_m_source_file_index>
9

> <r_mmod_Potential_Energy-OPLS-2005>
-150.738372802734

> <r_mmod_Stretch_Energy-OPLS-2005>
81.904296875

> <r_mmod_Bend_Energy-OPLS-2005>
179.064529418945

> <r_mmod_Torsional_Energy-OPLS-2005>
204.642868041992

> <r_mmod_Improper_Torsional_Energy-OPLS-2005>
5.29648542404175

> <r_mmod_Van_der_Waal_Energy-OPLS-2005>
147.194046020508

> <r_mmod_Electrostatic_Energy-OPLS-2005>
-359.117736816406

> <r_mmod_Solvation_Energy-OPLS-2005>
-447.530181884766

> <b_mmod_Minimization_Converged-OPLS-2005>
0

> <r_mmod_RMS_Derivative-OPLS-2005>
7.05479717254639

$$$$
9
                    3D
 Structure written by MMmdl.
156164  0  0  1  0            999 V2000
  -27.3939  -17.3584   20.9048 C   0  0  0  0  0  0
  -29.3193  -14.8772   19.7700 C   0  0  0  0  0  0
  -29.2902  -13.5414   18.7514 C   0  0  0  0  0  0
  -28.2255  -12.5142   19.1167 C   0  0  0  0  0  0
  -27.3004  -13.3976   19.9292 C   0  0  2  0  0  0
  -27.8313  -14.2754   21.1144 C   0  0  0  0  0  0
  -25.0263  -13.7937   20.5316 C   0  0  0  0  0  0
  -24.0285  -12.9966   20.9331 C   0  0  0  0  0  0
  -24.5472  -11.6647   20.8981 C   0  0  0  0  0  0
  -23.8573  -10.4027   21.0581 C   0  0  0  0  0  0
  -24.3359   -9.4058   21.9296 C   0  0  0  0  0  0
  -23.6153   -8.2059   22.0809 C   0  0  0  0  0  0
  -22.4148   -8.0072   21.3573 C   0  0  0  0  0  0
  -21.9679   -8.9961   20.4663 C   0  0  0  0  0  0
  -22.6878  -10.1866   20.3107 C   0  0  0  0  0  0
  -21.6786   -6.0628   22.5295 C   0  0  0  0  0  0
  -21.3969   -6.5595   23.8204 C   0  0  0  0  0  0
  -21.3626   -5.6777   24.9185 C   0  0  0  0  0  0
  -21.6043   -4.3036   24.7258 C   0  0  0  0  0  0
  -21.8836   -3.8097   23.4391 C   0  0  0  0  0  0
  -21.9188   -4.6884   22.3434 C   0  0  0  0  0  0
  -22.6503  -13.4790   21.2064 C   0  0  0  0  0  0
  -22.1675   -4.2095   21.1005 F   0  0  0  0  0  0
  -21.5620   -3.4526   25.7773 F   0  0  0  0  0  0
  -27.9668  -15.7047   20.5409 N   0  0  0  0  0  0
  -26.0659  -12.9327   20.3089 N   0  0  0  0  0  0
  -25.8331  -11.6447   20.5845 N   0  0  0  0  0  0
  -21.9435  -12.7872   22.0821 N   0  0  0  0  0  0
  -25.1140  -15.1693   20.3199 N   0  0  0  0  0  0
  -28.7483  -17.3892   20.7726 O   0  0  0  0  0  0
  -21.6556   -6.8687   21.4237 O   0  0  0  0  0  0
  -22.2305  -14.5159   20.6920 O   0  0  0  0  0  0
  -24.6474  -32.0859   22.9893 C   0  0  0  0  0  0
  -25.9255  -32.5632   23.7708 C   0  0  1  0  0  0
  -26.3805  -27.5195   21.1804 C   0  0  0  0  0  0
  -25.5987  -33.9112   24.2128 N   0  0  0  0  0  0
  -23.5171  -30.7729   21.0700 C   0  0  2  0  0  0
  -25.0456  -29.2578   19.7368 C   0  0  0  0  0  0
  -23.3505  -29.4954   21.8242 C   0  0  0  0  0  0
  -19.3609  -25.8182   23.4888 C   0  0  0  0  0  0
  -24.1457  -36.7641   23.2658 C   0  0  0  0  0  0
  -26.0366  -31.1397   21.1158 C   0  0  0  0  0  0
  -26.0930  -29.7189   20.5629 C   0  0  0  0  0  0
  -26.9588  -28.7870   21.1379 C   0  0  0  0  0  0
  -25.8576  -27.0033   19.9677 C   0  0  0  0  0  0
  -25.0299  -27.9139   19.2912 C   0  0  0  0  0  0
  -23.8340  -30.1834   19.6703 C   0  0  0  0  0  0
  -25.4067  -36.3449   24.0361 C   0  0  1  0  0  0
  -21.9805  -27.1641   22.6267 C   0  0  2  0  0  0
  -22.3700  -26.4773   21.1315 C   0  0  0  0  0  0
  -21.4424  -25.7417   19.9888 C   0  0  0  0  0  0
  -20.2860  -24.7596   20.5355 C   0  0  0  0  0  0
  -20.3082  -27.0205   23.9134 C   0  0  0  0  0  0
  -19.5810  -28.2113   24.7159 C   0  0  0  0  0  0
  -18.3762  -28.9842   24.4138 C   0  0  0  0  0  0
  -25.9073  -34.9981   23.5035 C   0  0  0  0  0  0
  -17.4721  -28.1285   23.8017 C   0  0  0  0  0  0
  -17.9330  -26.6978   23.6168 C   0  0  0  0  0  0
  -26.4392  -31.7062   25.0079 C   0  0  0  0  0  0
  -25.3814  -31.4081   26.0910 C   0  0  0  0  0  0
  -27.0477  -30.3713   24.5384 C   0  0  0  0  0  0
  -27.5987  -32.4655   25.7003 C   0  0  0  0  0  0
  -27.5608  -37.1939   24.8436 C   0  0  0  0  0  0
  -22.5370  -28.4076   21.6581 N   0  0  0  0  0  0
  -26.4261  -37.4090   23.9493 N   0  0  0  0  0  0
  -24.7234  -31.5186   21.7134 N   0  0  0  0  0  0
  -24.1488  -29.5161   22.6704 O   0  0  0  0  0  0
  -25.7746  -27.0626   22.4221 O   0  0  0  0  0  0
  -26.5619  -34.9523   22.4582 O   0  0  0  0  0  0
  -23.5594  -32.1982   23.5859 O   0  0  0  0  0  0
  -18.4193  -25.5518   21.4236 C   0  0  0  0  0  0
  -18.7574  -23.8784   22.0105 C   0  0  0  0  0  0
  -19.9360  -26.5957   21.5860 C   0  0  0  0  0  0
  -21.9201  -22.8582   22.0168 C   0  0  0  0  0  0
  -20.1967  -22.8536   22.1733 C   0  0  0  0  0  0
  -21.3163  -24.7358   22.4784 C   0  0  0  0  0  0
  -23.8209  -20.6991   21.7625 C   0  0  0  0  0  0
  -20.1000  -28.5459   22.0505 C   0  0  0  0  0  0
  -22.7813  -28.6014   24.3432 C   0  0  0  0  0  0
  -24.5710  -27.5394   23.7481 C   0  0  0  0  0  0
  -25.8358  -18.9055   21.2551 N   0  0  0  0  0  0
  -21.2663  -29.3354   23.4161 N   0  3  0  0  0  0
  -19.6772  -21.2432   22.5007 Cl  0  0  0  0  0  0
  -22.0192  -24.6599   24.1067 Cl  0  0  0  0  0  0
  -29.7564  -15.6561   19.1478 H   0  0  0  0  0  0
  -30.1252  -14.7420   20.4936 H   0  0  0  0  0  0
  -30.2734  -13.0631   18.7075 H   0  0  0  0  0  0
  -29.0871  -13.8870   17.7351 H   0  0  0  0  0  0
  -28.6318  -11.7075   19.7297 H   0  0  0  0  0  0
  -27.7387  -12.0851   18.2384 H   0  0  0  0  0  0
  -27.0024  -14.0789   19.1259 H   0  0  0  0  0  0
  -28.6616  -13.8246   21.6672 H   0  0  0  0  0  0
  -27.1066  -14.3739   21.9253 H   0  0  0  0  0  0
  -25.2477   -9.5704   22.4868 H   0  0  0  0  0  0
  -23.9915   -7.4486   22.7540 H   0  0  0  0  0  0
  -21.0614   -8.8387   19.8976 H   0  0  0  0  0  0
  -22.3271  -10.9398   19.6230 H   0  0  0  0  0  0
  -21.1950   -7.6106   23.9677 H   0  0  0  0  0  0
  -21.1416   -6.0520   25.9072 H   0  0  0  0  0  0
  -22.0643   -2.7565   23.2892 H   0  0  0  0  0  0
  -22.3194  -11.9510   22.5049 H   0  0  0  0  0  0
  -21.0133  -13.0915   22.3291 H   0  0  0  0  0  0
  -24.2607  -15.7161   20.3101 H   0  0  0  0  0  0
  -25.8439  -15.5335   19.7233 H   0  0  0  0  0  0
  -26.7816  -32.6672   23.1119 H   0  0  0  0  0  0
  -24.9852  -34.0036   25.0085 H   0  0  0  0  0  0
  -22.6170  -31.3883   21.0763 H   0  0  0  0  0  0
  -23.3704  -35.9976   23.3237 H   0  0  0  0  0  0
  -24.3588  -36.9369   22.2097 H   0  0  0  0  0  0
  -23.7236  -37.6825   23.6747 H   0  0  0  0  0  0
  -26.2510  -31.8286   20.2989 H   0  0  0  0  0  0
  -26.8980  -31.2189   21.7686 H   0  0  0  0  0  0
  -27.5232  -29.1159   21.9991 H   0  0  0  0  0  0
  -25.5804  -25.9617   19.8844 H   0  0  0  0  0  0
  -24.2787  -27.5534   18.6029 H   0  0  0  0  0  0
  -24.0655  -30.9902   18.9712 H   0  0  0  0  0  0
  -22.9792  -29.6522   19.2471 H   0  0  0  0  0  0
  -25.1245  -36.2190   25.0842 H   0  0  0  0  0  0
  -22.7218  -26.6266   23.1160 H   0  0  0  0  0  0
  -23.1055  -25.7076   21.3917 H   0  0  0  0  0  0
  -23.1556  -26.8493   20.4692 H   0  0  0  0  0  0
  -22.1027  -25.1584   19.3419 H   0  0  0  0  0  0
  -21.0236  -26.4914   19.3110 H   0  0  0  0  0  0
  -19.5767  -24.7609   19.6864 H   0  0  0  0  0  0
  -20.7092  -23.8064   20.2236 H   0  0  0  0  0  0
  -20.2016  -28.7172   25.4443 H   0  0  0  0  0  0
  -18.1199  -29.9400   24.8528 H   0  0  0  0  0  0
  -16.4339  -28.4092   23.6893 H   0  0  0  0  0  0
  -17.0703  -26.0870   23.3931 H   0  0  0  0  0  0
  -24.5557  -30.8268   25.6982 H   0  0  0  0  0  0
  -24.9701  -32.3266   26.5121 H   0  0  0  0  0  0
  -25.8109  -30.8358   26.9156 H   0  0  0  0  0  0
  -27.4127  -29.7816   25.3821 H   0  0  0  0  0  0
  -27.8911  -30.5444   23.8685 H   0  0  0  0  0  0
  -26.3267  -29.7669   23.9985 H   0  0  0  0  0  0
  -27.2742  -33.4125   26.1344 H   0  0  0  0  0  0
  -28.3872  -32.7005   24.9826 H   0  0  0  0  0  0
  -28.0485  -31.8824   26.5054 H   0  0  0  0  0  0
  -28.2520  -38.0337   24.7643 H   0  0  0  0  0  0
  -28.1194  -36.2899   24.5956 H   0  0  0  0  0  0
  -27.2402  -37.1252   25.8846 H   0  0  0  0  0  0
  -22.0934  -28.4096   20.7495 H   0  0  0  0  0  0
  -26.0167  -38.3156   24.1566 H   0  0  0  0  0  0
  -17.4295  -25.9563   21.2543 H   0  0  0  0  0  0
  -17.8411  -23.3314   22.1688 H   0  0  0  0  0  0
  -23.0487  -19.9778   21.5041 H   0  0  0  0  0  0
  -23.9500  -20.6249   22.8424 H   0  0  0  0  0  0
  -19.1053  -28.9712   22.0960 H   0  0  0  0  0  0
  -20.3379  -29.0348   21.0999 H   0  0  0  0  0  0
  -23.1140  -29.4363   24.9532 H   0  0  0  0  0  0
  -22.3764  -27.9712   25.1347 H   0  0  0  0  0  0
  -24.4417  -26.5597   24.2129 H   0  0  0  0  0  0
  -25.2711  -27.9747   24.4572 H   0  0  0  0  0  0
  -26.5487  -19.6194   21.2772 H   0  0  0  0  0  0
  -21.5400  -30.2453   23.0911 H   0  0  0  0  0  0
  -20.6082  -29.5200   24.1581 H   0  0  0  0  0  0
  1 25  1  0  0  0
  1 30  2  0  0  0
  1 81  1  0  0  0
  2  3  1  0  0  0
  2 25  1  0  0  0
  2 85  1  0  0  0
  2 86  1  0  0  0
  3  4  1  0  0  0
  3 87  1  0  0  0
  3 88  1  0  0  0
  4  5  1  0  0  0
  4 89  1  0  0  0
  4 90  1  0  0  0
  5  6  1  0  0  0
  5 26  1  0  0  0
  5 91  1  0  0  0
  6 25  1  0  0  0
  6 92  1  0  0  0
  6 93  1  0  0  0
  7  8  2  0  0  0
  7 26  1  0  0  0
  7 29  1  0  0  0
  8  9  1  0  0  0
  8 22  1  0  0  0
  9 10  1  0  0  0
  9 27  2  0  0  0
 10 11  2  0  0  0
 10 15  1  0  0  0
 11 12  1  0  0  0
 11 94  1  0  0  0
 12 13  2  0  0  0
 12 95  1  0  0  0
 13 14  1  0  0  0
 13 31  1  0  0  0
 14 15  2  0  0  0
 14 96  1  0  0  0
 15 97  1  0  0  0
 16 17  2  0  0  0
 16 21  1  0  0  0
 16 31  1  0  0  0
 17 18  1  0  0  0
 17 98  1  0  0  0
 18 19  2  0  0  0
 18 99  1  0  0  0
 19 20  1  0  0  0
 19 24  1  0  0  0
 20 21  2  0  0  0
 20100  1  0  0  0
 21 23  1  0  0  0
 22 28  1  0  0  0
 22 32  2  0  0  0
 26 27  1  0  0  0
 28101  1  0  0  0
 28102  1  0  0  0
 29103  1  0  0  0
 29104  1  0  0  0
 33 34  1  0  0  0
 33 66  1  0  0  0
 33 70  2  0  0  0
 34 36  1  0  0  0
 34 59  1  0  0  0
 34105  1  0  0  0
 35 44  2  0  0  0
 35 45  1  0  0  0
 35 68  1  0  0  0
 36 56  1  0  0  0
 36106  1  0  0  0
 37 39  1  0  0  0
 37 47  1  0  0  0
 37 66  1  0  0  0
 37107  1  0  0  0
 38 43  2  0  0  0
 38 46  1  0  0  0
 38 47  1  0  0  0
 39 64  1  0  0  0
 39 67  2  0  0  0
 40 52  1  0  0  0
 40 53  2  0  0  0
 40 58  1  0  0  0
 41108  1  0  0  0
 41109  1  0  0  0
 41110  1  0  0  0
 41 48  1  0  0  0
 42 43  1  0  0  0
 42 66  1  0  0  0
 42111  1  0  0  0
 42112  1  0  0  0
 43 44  1  0  0  0
 44113  1  0  0  0
 45 46  2  0  0  0
 45114  1  0  0  0
 46115  1  0  0  0
 47116  1  0  0  0
 47117  1  0  0  0
 48 56  1  0  0  0
 48 65  1  0  0  0
 48118  1  0  0  0
 49 50  1  0  0  0
 49 53  1  0  0  0
 49 64  1  0  0  0
 49119  1  0  0  0
 50 51  1  0  0  0
 50120  1  0  0  0
 50121  1  0  0  0
 51 52  1  0  0  0
 51122  1  0  0  0
 51123  1  0  0  0
 52124  1  0  0  0
 52125  1  0  0  0
 53 54  1  0  0  0
 54 55  2  0  0  0
 54126  1  0  0  0
 55 57  1  0  0  0
 55127  1  0  0  0
 56 69  2  0  0  0
 57 58  2  0  0  0
 57128  1  0  0  0
 58129  1  0  0  0
 59 60  1  0  0  0
 59 61  1  0  0  0
 59 62  1  0  0  0
 60130  1  0  0  0
 60131  1  0  0  0
 60132  1  0  0  0
 61133  1  0  0  0
 61134  1  0  0  0
 61135  1  0  0  0
 62136  1  0  0  0
 62137  1  0  0  0
 62138  1  0  0  0
 63 65  1  0  0  0
 63139  1  0  0  0
 63140  1  0  0  0
 63141  1  0  0  0
 64142  1  0  0  0
 65143  1  0  0  0
 68 80  1  0  0  0
 71 72  2  0  0  0
 71 73  1  0  0  0
 71144  1  0  0  0
 72 75  1  0  0  0
 72145  1  0  0  0
 73 76  2  0  0  0
 73 78  1  0  0  0
 74 75  2  0  0  0
 74 76  1  0  0  0
 74 77  1  0  0  0
 75 83  1  0  0  0
 76 84  1  0  0  0
 77 81  1  0  0  0
 77146  1  0  0  0
 77147  1  0  0  0
 78 82  1  0  0  0
 78148  1  0  0  0
 78149  1  0  0  0
 79 80  1  0  0  0
 79 82  1  0  0  0
 79150  1  0  0  0
 79151  1  0  0  0
 80152  1  0  0  0
 80153  1  0  0  0
 81154  1  0  0  0
 82155  1  0  0  0
 82156  1  0  0  0
M  CHG  1  82   1
M  ISO  4   1 100  68 101  80 101  81 100
M  END
> <chiral flag>
0

> <version>
0

> <s_m_source_file>
/data/baiqing/PycharmProjects/Reinvent-master-3.2/result/LINK_invent/BTK/process_docking_weight1_custom_product_contain_oxygen_bond_distance_aromatic_linkinvent_7_9_3/rearranged_h_0031.sdf

> <i_m_source_file_index>
10

> <r_mmod_Potential_Energy-OPLS-2005>
39899.1953125

> <r_mmod_Stretch_Energy-OPLS-2005>
18303.626953125

> <r_mmod_Bend_Energy-OPLS-2005>
2980.22607421875

> <r_mmod_Torsional_Energy-OPLS-2005>
872.737426757812

> <r_mmod_Improper_Torsional_Energy-OPLS-2005>
92.0731887817383

> <r_mmod_Van_der_Waal_Energy-OPLS-2005>
4374.64892578125

> <r_mmod_Electrostatic_Energy-OPLS-2005>
-356.410797119141

> <r_mmod_Solvation_Energy-OPLS-2005>
-408.954315185547

> <b_mmod_Minimization_Converged-OPLS-2005>
0

> <r_mmod_RMS_Derivative-OPLS-2005>
7.74933671951294

$$$$
10
                    3D
 Structure written by MMmdl.
159167  0  0  1  0            999 V2000
  -30.6516  -13.7549   20.5607 C   0  0  0  0  0  0
  -30.5557  -11.4476   19.3130 C   0  0  0  0  0  0
  -29.4516  -12.0466   17.8619 C   0  0  0  0  0  0
  -27.9730  -13.1916   18.2407 C   0  0  0  0  0  0
  -27.5816  -13.9717   20.1273 C   0  0  2  0  0  0
  -28.6993  -13.3438   21.6189 C   0  0  0  0  0  0
  -25.4499  -14.8598   21.2555 C   0  0  0  0  0  0
  -24.4380  -14.1248   21.7862 C   0  0  0  0  0  0
  -25.0148  -12.9948   21.1632 C   0  0  0  0  0  0
  -24.1323  -10.6763   19.7647 C   0  0  0  0  0  0
  -24.4759   -9.2108   20.2125 C   0  0  0  0  0  0
  -23.8207   -8.3117   21.1791 C   0  0  0  0  0  0
  -22.4344   -8.1906   21.0816 C   0  0  0  0  0  0
  -21.9275   -9.1626   20.1824 C   0  0  0  0  0  0
  -22.7344  -10.1950   19.5266 C   0  0  0  0  0  0
  -21.7632   -6.1993   22.4976 C   0  0  0  0  0  0
  -21.4697   -6.6444   23.8072 C   0  0  0  0  0  0
  -21.3995   -5.7355   24.8897 C   0  0  0  0  0  0
  -21.6168   -4.3602   24.6844 C   0  0  0  0  0  0
  -21.8934   -3.8953   23.3879 C   0  0  0  0  0  0
  -21.9536   -4.8001   22.3044 C   0  0  0  0  0  0
  -22.9774  -14.5150   22.0134 C   0  0  0  0  0  0
  -22.1679   -4.3001   21.0639 F   0  0  0  0  0  0
  -21.5558   -3.4919   25.7256 F   0  0  0  0  0  0
  -30.1819  -12.5836   20.7921 N   0  0  0  0  0  0
  -26.3725  -14.0058   20.8083 N   0  0  0  0  0  0
  -26.1594  -13.1957   21.7480 N   0  0  0  0  0  0
  -22.2369  -13.6912   22.7763 N   0  0  0  0  0  0
  -25.7604  -16.1500   21.1481 N   0  0  0  0  0  0
  -31.6416  -14.3095   20.0537 O   0  0  0  0  0  0
  -21.6567   -7.0596   21.4021 O   0  0  0  0  0  0
  -22.4173  -15.2600   21.2069 O   0  0  0  0  0  0
  -24.7425  -31.7190   23.1105 C   0  0  0  0  0  0
  -25.9764  -32.4011   23.7762 C   0  0  1  0  0  0
  -26.4040  -25.8506   20.1033 C   0  0  0  0  0  0
  -25.6104  -33.7913   24.1553 N   0  0  0  0  0  0
  -23.5417  -30.3598   21.4972 C   0  0  2  0  0  0
  -24.8309  -28.5961   20.0402 C   0  0  0  0  0  0
  -22.7810  -29.3990   22.4533 C   0  0  0  0  0  0
  -18.0323  -28.1429   22.8439 C   0  0  0  0  0  0
  -24.1513  -36.6959   23.2667 C   0  0  0  0  0  0
  -26.1171  -30.1047   21.4936 C   0  0  0  0  0  0
  -26.0023  -28.6228   20.7873 C   0  0  0  0  0  0
  -26.7962  -27.2733   20.7844 C   0  0  0  0  0  0
  -25.4068  -26.2840   19.2241 C   0  0  0  0  0  0
  -24.6424  -27.4838   19.2194 C   0  0  0  0  0  0
  -23.7713  -29.7106   20.1057 C   0  0  0  0  0  0
  -25.4193  -36.2640   24.0216 C   0  0  1  0  0  0
  -20.5959  -28.3770   23.1085 C   0  0  2  0  0  0
  -20.6763  -26.9396   22.5418 C   0  0  0  0  0  0
  -19.5750  -26.6332   21.5226 C   0  0  0  0  0  0
  -18.1932  -26.7950   22.1613 C   0  0  0  0  0  0
  -19.1597  -28.8931   23.2746 C   0  0  0  0  0  0
  -18.9512  -30.1515   23.8791 C   0  0  0  0  0  0
  -17.6505  -30.6608   24.0542 C   0  0  0  0  0  0
  -25.9223  -34.9052   23.4766 C   0  0  0  0  0  0
  -16.5388  -29.9085   23.6366 C   0  0  0  0  0  0
  -16.7305  -28.6513   23.0368 C   0  0  0  0  0  0
  -26.4719  -31.6413   25.0705 C   0  0  0  0  0  0
  -25.3620  -31.3955   26.1211 C   0  0  0  0  0  0
  -27.0761  -30.2689   24.7176 C   0  0  0  0  0  0
  -27.6043  -32.4464   25.7511 C   0  0  0  0  0  0
  -27.5548  -37.1639   24.8460 C   0  0  0  0  0  0
  -21.4432  -29.2950   22.3334 N   0  0  0  0  0  0
  -26.4247  -37.3490   23.9401 N   0  0  0  0  0  0
  -24.8485  -30.7888   22.0773 N   0  0  0  0  0  0
  -23.4092  -28.7575   23.2994 O   0  0  0  0  0  0
  -26.6800  -24.1393   20.0118 O   0  0  0  0  0  0
  -26.5953  -34.8766   22.4448 O   0  0  0  0  0  0
  -23.6384  -32.0748   23.5703 O   0  0  0  0  0  0
  -25.3828  -10.8613   21.6785 C   0  0  0  0  0  0
  -23.5091  -11.4679   21.7645 C   0  0  0  0  0  0
  -25.3862  -12.5817   18.8987 C   0  0  0  0  0  0
  -26.3499  -11.4468   20.0638 C   0  0  0  0  0  0
  -22.9256  -12.6522   20.2642 C   0  0  0  0  0  0
  -24.0287  -13.6735   19.1612 C   0  0  0  0  0  0
  -21.4040  -12.8398   20.0075 C   0  0  0  0  0  0
  -28.1977  -11.6191   20.0384 C   0  0  0  0  0  0
  -24.3433  -15.9212   18.8653 C   0  0  0  0  0  0
  -25.5338  -19.8506   19.2821 C   0  0  0  0  0  0
  -25.7745  -22.1793   19.8746 C   0  0  0  0  0  0
  -29.7262  -13.3420   19.7627 N   0  0  0  0  0  0
  -24.7211  -17.9124   19.4975 N   0  3  0  0  0  0
  -31.6064  -11.5432   19.0341 H   0  0  0  0  0  0
  -30.4187  -10.3937   19.5621 H   0  0  0  0  0  0
  -29.1325  -11.1910   17.2641 H   0  0  0  0  0  0
  -30.1020  -12.5980   17.1796 H   0  0  0  0  0  0
  -27.3966  -12.3962   17.7931 H   0  0  0  0  0  0
  -27.9251  -13.9994   17.5096 H   0  0  0  0  0  0
  -27.8371  -15.0247   19.9939 H   0  0  0  0  0  0
  -28.3260  -12.6071   22.3338 H   0  0  0  0  0  0
  -28.9452  -14.1958   22.2610 H   0  0  0  0  0  0
  -25.5326   -8.9787   20.1745 H   0  0  0  0  0  0
  -24.3837   -7.5081   21.6335 H   0  0  0  0  0  0
  -20.8938   -9.0702   19.8826 H   0  0  0  0  0  0
  -22.1766  -10.7695   18.8039 H   0  0  0  0  0  0
  -21.2716   -7.6923   23.9804 H   0  0  0  0  0  0
  -21.1716   -6.0978   25.8819 H   0  0  0  0  0  0
  -22.0462   -2.8412   23.2158 H   0  0  0  0  0  0
  -22.6861  -12.9581   23.3022 H   0  0  0  0  0  0
  -21.2406  -13.8223   22.8511 H   0  0  0  0  0  0
  -25.4264  -16.6294   21.9791 H   0  0  0  0  0  0
  -26.7671  -16.2566   21.0842 H   0  0  0  0  0  0
  -26.7871  -32.4215   23.0456 H   0  0  0  0  0  0
  -25.0050  -33.8848   24.9571 H   0  0  0  0  0  0
  -22.9081  -31.2343   21.3324 H   0  0  0  0  0  0
  -23.3815  -35.9244   23.3204 H   0  0  0  0  0  0
  -24.3552  -36.8798   22.2107 H   0  0  0  0  0  0
  -23.7235  -37.6052   23.6896 H   0  0  0  0  0  0
  -26.4956  -30.7810   20.7262 H   0  0  0  0  0  0
  -26.9226  -30.0519   22.2097 H   0  0  0  0  0  0
  -27.6524  -27.2461   21.4432 H   0  0  0  0  0  0
  -25.0322  -25.5206   18.5567 H   0  0  0  0  0  0
  -23.7934  -27.5004   18.5489 H   0  0  0  0  0  0
  -24.0689  -30.4868   19.4000 H   0  0  0  0  0  0
  -22.8235  -29.3240   19.7285 H   0  0  0  0  0  0
  -25.1443  -36.1295   25.0701 H   0  0  0  0  0  0
  -21.0048  -28.3427   24.1213 H   0  0  0  0  0  0
  -20.5591  -26.2408   23.3714 H   0  0  0  0  0  0
  -21.6623  -26.7284   22.1262 H   0  0  0  0  0  0
  -19.6894  -25.6216   21.1319 H   0  0  0  0  0  0
  -19.6713  -27.3095   20.6723 H   0  0  0  0  0  0
  -17.4213  -26.6713   21.4003 H   0  0  0  0  0  0
  -18.0277  -26.0116   22.9023 H   0  0  0  0  0  0
  -19.7989  -30.7353   24.2108 H   0  0  0  0  0  0
  -17.5053  -31.6270   24.5170 H   0  0  0  0  0  0
  -15.5384  -30.2959   23.7742 H   0  0  0  0  0  0
  -15.8703  -28.0803   22.7138 H   0  0  0  0  0  0
  -24.5861  -30.7242   25.7516 H   0  0  0  0  0  0
  -24.8757  -32.3247   26.4189 H   0  0  0  0  0  0
  -25.7643  -30.9404   27.0272 H   0  0  0  0  0  0
  -26.3436  -29.5915   24.2785 H   0  0  0  0  0  0
  -27.4442  -29.7658   25.6128 H   0  0  0  0  0  0
  -27.9356  -30.3644   24.0545 H   0  0  0  0  0  0
  -27.2510  -33.3941   26.1591 H   0  0  0  0  0  0
  -28.4063  -32.6737   25.0477 H   0  0  0  0  0  0
  -28.0484  -31.8959   26.5815 H   0  0  0  0  0  0
  -28.2474  -38.0016   24.7523 H   0  0  0  0  0  0
  -28.1134  -36.2522   24.6278 H   0  0  0  0  0  0
  -27.2256  -37.1243   25.8858 H   0  0  0  0  0  0
  -20.9782  -29.8649   21.6405 H   0  0  0  0  0  0
  -26.0000  -38.2498   24.1434 H   0  0  0  0  0  0
  -25.8471  -10.2805   22.4641 H   0  0  0  0  0  0
  -22.8183  -11.0607   22.4903 H   0  0  0  0  0  0
  -25.7198  -13.0689   18.0091 H   0  0  0  0  0  0
  -20.8558  -11.9007   19.9790 H   0  0  0  0  0  0
  -21.2572  -13.3333   19.0469 H   0  0  0  0  0  0
  -20.8589  -13.4280   20.7395 H   0  0  0  0  0  0
  -28.2904  -10.7713   19.3588 H   0  0  0  0  0  0
  -28.4260  -11.0219   20.9292 H   0  0  0  0  0  0
  -23.5339  -16.1149   18.1622 H   0  0  0  0  0  0
  -25.2253  -15.8341   18.2309 H   0  0  0  0  0  0
  -26.5827  -19.5579   19.3238 H   0  0  0  0  0  0
  -25.3428  -19.9693   18.2163 H   0  0  0  0  0  0
  -25.6914  -22.0455   20.9539 H   0  0  0  0  0  0
  -24.7833  -22.5206   19.5756 H   0  0  0  0  0  0
  -29.7153  -13.7696   18.8505 H   0  0  0  0  0  0
  -25.2239  -17.5961   20.3216 H   0  0  0  0  0  0
  -23.7993  -18.1392   19.8326 H   0  0  0  0  0  0
  1 25  1  0  0  0
  1 30  2  0  0  0
  1 82  1  0  0  0
  2  3  1  0  0  0
  2 25  1  0  0  0
  2 84  1  0  0  0
  2 85  1  0  0  0
  3  4  1  0  0  0
  3 86  1  0  0  0
  3 87  1  0  0  0
  4  5  1  0  0  0
  4 88  1  0  0  0
  4 89  1  0  0  0
  5  6  1  0  0  0
  5 26  1  0  0  0
  5 90  1  0  0  0
  6 25  1  0  0  0
  6 91  1  0  0  0
  6 92  1  0  0  0
  7  8  2  0  0  0
  7 26  1  0  0  0
  7 29  1  0  0  0
  8  9  1  0  0  0
  8 22  1  0  0  0
  9 10  1  0  0  0
  9 27  2  0  0  0
 10 11  2  0  0  0
 10 15  1  0  0  0
 11 12  1  0  0  0
 11 93  1  0  0  0
 12 13  2  0  0  0
 12 94  1  0  0  0
 13 14  1  0  0  0
 13 31  1  0  0  0
 14 15  2  0  0  0
 14 95  1  0  0  0
 15 96  1  0  0  0
 16 17  2  0  0  0
 16 21  1  0  0  0
 16 31  1  0  0  0
 17 18  1  0  0  0
 17 97  1  0  0  0
 18 19  2  0  0  0
 18 98  1  0  0  0
 19 20  1  0  0  0
 19 24  1  0  0  0
 20 21  2  0  0  0
 20 99  1  0  0  0
 21 23  1  0  0  0
 22 28  1  0  0  0
 22 32  2  0  0  0
 26 27  1  0  0  0
 28100  1  0  0  0
 28101  1  0  0  0
 29102  1  0  0  0
 29103  1  0  0  0
 33 34  1  0  0  0
 33 66  1  0  0  0
 33 70  2  0  0  0
 34 36  1  0  0  0
 34 59  1  0  0  0
 34104  1  0  0  0
 35 44  2  0  0  0
 35 45  1  0  0  0
 35 68  1  0  0  0
 36 56  1  0  0  0
 36105  1  0  0  0
 37 39  1  0  0  0
 37 47  1  0  0  0
 37 66  1  0  0  0
 37106  1  0  0  0
 38 43  2  0  0  0
 38 46  1  0  0  0
 38 47  1  0  0  0
 39 64  1  0  0  0
 39 67  2  0  0  0
 40 52  1  0  0  0
 40 53  2  0  0  0
 40 58  1  0  0  0
 41107  1  0  0  0
 41108  1  0  0  0
 41109  1  0  0  0
 41 48  1  0  0  0
 42 43  1  0  0  0
 42 66  1  0  0  0
 42110  1  0  0  0
 42111  1  0  0  0
 43 44  1  0  0  0
 44112  1  0  0  0
 45 46  2  0  0  0
 45113  1  0  0  0
 46114  1  0  0  0
 47115  1  0  0  0
 47116  1  0  0  0
 48 56  1  0  0  0
 48 65  1  0  0  0
 48117  1  0  0  0
 49 50  1  0  0  0
 49 53  1  0  0  0
 49 64  1  0  0  0
 49118  1  0  0  0
 50 51  1  0  0  0
 50119  1  0  0  0
 50120  1  0  0  0
 51 52  1  0  0  0
 51121  1  0  0  0
 51122  1  0  0  0
 52123  1  0  0  0
 52124  1  0  0  0
 53 54  1  0  0  0
 54 55  2  0  0  0
 54125  1  0  0  0
 55 57  1  0  0  0
 55126  1  0  0  0
 56 69  2  0  0  0
 57 58  2  0  0  0
 57127  1  0  0  0
 58128  1  0  0  0
 59 60  1  0  0  0
 59 61  1  0  0  0
 59 62  1  0  0  0
 60129  1  0  0  0
 60130  1  0  0  0
 60131  1  0  0  0
 61132  1  0  0  0
 61133  1  0  0  0
 61134  1  0  0  0
 62135  1  0  0  0
 62136  1  0  0  0
 62137  1  0  0  0
 63 65  1  0  0  0
 63138  1  0  0  0
 63139  1  0  0  0
 63140  1  0  0  0
 64141  1  0  0  0
 65142  1  0  0  0
 68 81  1  0  0  0
 71 72  2  0  0  0
 71 74  1  0  0  0
 71143  1  0  0  0
 72 75  1  0  0  0
 72144  1  0  0  0
 73 74  2  0  0  0
 73 76  1  0  0  0
 73145  1  0  0  0
 74 78  1  0  0  0
 75 76  2  0  0  0
 75 77  1  0  0  0
 76 79  1  0  0  0
 77146  1  0  0  0
 77147  1  0  0  0
 77148  1  0  0  0
 78 82  1  0  0  0
 78149  1  0  0  0
 78150  1  0  0  0
 79 83  1  0  0  0
 79151  1  0  0  0
 79152  1  0  0  0
 80 81  1  0  0  0
 80 83  1  0  0  0
 80153  1  0  0  0
 80154  1  0  0  0
 81155  1  0  0  0
 81156  1  0  0  0
 82157  1  0  0  0
 83158  1  0  0  0
 83159  1  0  0  0
M  CHG  1  83   1
M  ISO  4   1 100  68 101  81 101  82 100
M  END
> <chiral flag>
0

> <version>
0

> <s_m_source_file>
/data/baiqing/PycharmProjects/Reinvent-master-3.2/result/LINK_invent/BTK/process_docking_weight1_custom_product_contain_oxygen_bond_distance_aromatic_linkinvent_7_9_3/rearranged_h_0031.sdf

> <i_m_source_file_index>
11

> <r_mmod_Potential_Energy-OPLS-2005>
24305.703125

> <r_mmod_Stretch_Energy-OPLS-2005>
12819.6357421875

> <r_mmod_Bend_Energy-OPLS-2005>
2222.68041992188

> <r_mmod_Torsional_Energy-OPLS-2005>
902.010437011719

> <r_mmod_Improper_Torsional_Energy-OPLS-2005>
139.261154174805

> <r_mmod_Van_der_Waal_Energy-OPLS-2005>
4555.07568359375

> <r_mmod_Electrostatic_Energy-OPLS-2005>
-442.365142822266

> <r_mmod_Solvation_Energy-OPLS-2005>
-424.389617919922

> <b_mmod_Minimization_Converged-OPLS-2005>
0

> <r_mmod_RMS_Derivative-OPLS-2005>
2.66466450691223

$$$$
11
                    3D
 Structure written by MMmdl.
158167  0  0  1  0            999 V2000
  -30.6079  -14.6322   20.5126 C   0  0  0  0  0  0
  -30.4518  -12.3940   19.4435 C   0  0  0  0  0  0
  -29.5159  -12.5139   18.2190 C   0  0  0  0  0  0
  -28.0339  -12.3575   18.6235 C   0  0  0  0  0  0
  -27.6585  -13.2103   19.8638 C   0  0  2  0  0  0
  -28.7028  -13.0385   20.9895 C   0  0  0  0  0  0
  -25.2609  -13.8148   20.5698 C   0  0  0  0  0  0
  -24.1855  -13.0433   20.9187 C   0  0  0  0  0  0
  -24.6398  -11.6893   20.8724 C   0  0  0  0  0  0
  -23.9051  -10.4284   21.0393 C   0  0  0  0  0  0
  -24.3593   -9.4208   21.9178 C   0  0  0  0  0  0
  -23.6268   -8.2244   22.0755 C   0  0  0  0  0  0
  -22.4258   -8.0283   21.3551 C   0  0  0  0  0  0
  -21.9885   -9.0261   20.4661 C   0  0  0  0  0  0
  -22.7214  -10.2133   20.3061 C   0  0  0  0  0  0
  -21.6854   -6.0729   22.5278 C   0  0  0  0  0  0
  -21.4012   -6.5616   23.8216 C   0  0  0  0  0  0
  -21.3662   -5.6776   24.9173 C   0  0  0  0  0  0
  -21.6048   -4.3041   24.7224 C   0  0  0  0  0  0
  -21.8824   -3.8135   23.4341 C   0  0  0  0  0  0
  -21.9199   -4.6955   22.3408 C   0  0  0  0  0  0
  -22.7887  -13.5269   21.1836 C   0  0  0  0  0  0
  -22.1673   -4.2141   21.0980 F   0  0  0  0  0  0
  -21.5629   -3.4523   25.7735 F   0  0  0  0  0  0
  -30.0194  -13.3972   20.4350 N   0  0  0  0  0  0
  -26.3023  -12.9317   20.3299 N   0  0  0  0  0  0
  -25.9323  -11.6471   20.5709 N   0  0  0  0  0  0
  -22.0483  -12.8298   22.0381 N   0  0  0  0  0  0
  -25.4347  -15.1863   20.4133 N   0  0  0  0  0  0
  -31.7665  -14.8191   20.1244 O   0  0  0  0  0  0
  -21.6634   -6.8867   21.4240 O   0  0  0  0  0  0
  -22.3597  -14.5591   20.6677 O   0  0  0  0  0  0
  -24.6285  -31.8614   23.2028 C   0  0  0  0  0  0
  -25.9133  -32.4787   23.8370 C   0  0  1  0  0  0
  -27.2178  -27.3144   20.1266 C   0  0  0  0  0  0
  -25.5947  -33.8580   24.2307 N   0  0  0  0  0  0
  -23.4215  -30.4890   21.5445 C   0  0  2  0  0  0
  -24.8663  -28.9503   20.1109 C   0  0  0  0  0  0
  -22.7496  -29.4644   22.4916 C   0  0  0  0  0  0
  -18.0295  -28.1392   22.8467 C   0  0  0  0  0  0
  -24.1486  -36.7274   23.2631 C   0  0  0  0  0  0
  -25.9636  -30.7961   21.3711 C   0  0  0  0  0  0
  -26.0375  -29.4237   20.7146 C   0  0  0  0  0  0
  -27.2164  -28.6196   20.7108 C   0  0  0  0  0  0
  -26.0150  -26.8999   19.5017 C   0  0  0  0  0  0
  -24.8569  -27.6931   19.4955 C   0  0  0  0  0  0
  -23.6376  -29.8313   20.1581 C   0  0  0  0  0  0
  -25.4102  -36.3086   24.0339 C   0  0  1  0  0  0
  -20.5899  -28.3698   23.1256 C   0  0  2  0  0  0
  -20.6768  -26.9413   22.5395 C   0  0  0  0  0  0
  -19.5746  -26.6390   21.5190 C   0  0  0  0  0  0
  -18.1933  -26.7932   22.1613 C   0  0  0  0  0  0
  -19.1552  -28.8864   23.2856 C   0  0  0  0  0  0
  -18.9473  -30.1457   23.8883 C   0  0  0  0  0  0
  -17.6468  -30.6589   24.0554 C   0  0  0  0  0  0
  -25.9036  -34.9460   23.5123 C   0  0  0  0  0  0
  -16.5360  -29.9079   23.6327 C   0  0  0  0  0  0
  -16.7275  -28.6504   23.0337 C   0  0  0  0  0  0
  -26.4499  -31.6572   25.0724 C   0  0  0  0  0  0
  -25.3746  -31.3720   26.1472 C   0  0  0  0  0  0
  -27.0283  -30.2984   24.6147 C   0  0  0  0  0  0
  -27.6131  -32.4239   25.7462 C   0  0  0  0  0  0
  -27.5582  -37.1779   24.8456 C   0  0  0  0  0  0
  -21.4207  -29.3055   22.3652 N   0  0  0  0  0  0
  -26.4277  -37.3787   23.9431 N   0  0  0  0  0  0
  -24.6908  -31.0639   22.0974 N   0  0  0  0  0  0
  -23.4218  -28.8169   23.2985 O   0  0  0  0  0  0
  -28.3327  -26.4564   20.2085 O   0  0  0  0  0  0
  -26.5597  -34.8922   22.4673 O   0  0  0  0  0  0
  -23.5446  -32.1414   23.7350 O   0  0  0  0  0  0
  -30.9192  -19.3110   20.4654 C   0  0  0  0  0  0
  -30.9545  -17.8828   20.4439 C   0  0  0  0  0  0
  -28.6387  -17.8480   21.0806 C   0  0  0  0  0  0
  -29.7548  -20.0497   20.8210 C   0  0  0  0  0  0
  -29.8183  -17.1080   20.7887 C   0  0  0  0  0  0
  -28.5959  -19.2750   21.0947 C   0  0  0  0  0  0
  -29.0197  -23.9768   20.7421 C   0  0  0  0  0  0
  -27.8914  -23.2622   18.1595 C   0  0  0  0  0  0
  -28.2746  -24.7201   18.4324 C   0  0  0  0  0  0
  -28.7811  -22.2651   18.9304 C   0  0  0  0  0  0
  -28.1354  -25.0078   19.9338 C   0  0  2  0  0  0
  -29.8424  -21.6018   21.1079 C   0  0  0  0  0  0
  -29.1290  -22.6631   20.3053 N   0  0  0  0  0  0
  -29.7700  -15.6471   20.8907 N   0  0  0  0  0  0
  -29.5445  -24.3515   21.7972 O   0  0  0  0  0  0
  -27.1126  -20.0573   21.5122 Cl  0  0  0  0  0  0
  -31.4893  -12.5374   19.1353 H   0  0  0  0  0  0
  -30.4049  -11.3924   19.8734 H   0  0  0  0  0  0
  -29.7824  -11.7670   17.4693 H   0  0  0  0  0  0
  -29.6660  -13.4846   17.7428 H   0  0  0  0  0  0
  -27.8515  -11.3024   18.8314 H   0  0  0  0  0  0
  -27.3921  -12.6190   17.7812 H   0  0  0  0  0  0
  -27.6857  -14.2508   19.5377 H   0  0  0  0  0  0
  -28.7169  -12.0065   21.3453 H   0  0  0  0  0  0
  -28.4440  -13.6444   21.8584 H   0  0  0  0  0  0
  -25.2727   -9.5699   22.4758 H   0  0  0  0  0  0
  -23.9983   -7.4647   22.7472 H   0  0  0  0  0  0
  -21.0821   -8.8797   19.8972 H   0  0  0  0  0  0
  -22.3669  -10.9682   19.6183 H   0  0  0  0  0  0
  -21.1992   -7.6128   23.9710 H   0  0  0  0  0  0
  -21.1484   -6.0503   25.9081 H   0  0  0  0  0  0
  -22.0601   -2.7596   23.2851 H   0  0  0  0  0  0
  -22.4015  -11.9946   22.4810 H   0  0  0  0  0  0
  -21.1127  -13.1418   22.2559 H   0  0  0  0  0  0
  -24.6679  -15.8406   20.5271 H   0  0  0  0  0  0
  -26.2732  -15.6191   20.0502 H   0  0  0  0  0  0
  -26.7204  -32.5477   23.1119 H   0  0  0  0  0  0
  -25.0162  -33.9714   25.0502 H   0  0  0  0  0  0
  -22.7160  -31.3107   21.4028 H   0  0  0  0  0  0
  -23.3782  -35.9569   23.3244 H   0  0  0  0  0  0
  -24.3609  -36.8932   22.2058 H   0  0  0  0  0  0
  -23.7183  -37.6438   23.6664 H   0  0  0  0  0  0
  -26.0907  -31.5566   20.5998 H   0  0  0  0  0  0
  -26.8464  -30.8506   21.9961 H   0  0  0  0  0  0
  -28.1134  -28.9782   21.1953 H   0  0  0  0  0  0
  -25.9148  -25.9385   19.0257 H   0  0  0  0  0  0
  -23.9565  -27.3223   19.0260 H   0  0  0  0  0  0
  -23.7648  -30.6080   19.4023 H   0  0  0  0  0  0
  -22.7581  -29.2620   19.8525 H   0  0  0  0  0  0
  -25.1271  -36.1938   25.0829 H   0  0  0  0  0  0
  -21.0006  -28.3267   24.1369 H   0  0  0  0  0  0
  -20.5632  -26.2312   23.3599 H   0  0  0  0  0  0
  -21.6639  -26.7407   22.1219 H   0  0  0  0  0  0
  -19.6893  -25.6293   21.1237 H   0  0  0  0  0  0
  -19.6683  -27.3180   20.6699 H   0  0  0  0  0  0
  -17.4196  -26.6673   21.4020 H   0  0  0  0  0  0
  -18.0336  -26.0085   22.9025 H   0  0  0  0  0  0
  -19.7950  -30.7276   24.2258 H   0  0  0  0  0  0
  -17.5022  -31.6266   24.5151 H   0  0  0  0  0  0
  -15.5353  -30.2970   23.7650 H   0  0  0  0  0  0
  -15.8682  -28.0809   22.7052 H   0  0  0  0  0  0
  -24.5929  -30.7042   25.7805 H   0  0  0  0  0  0
  -24.8917  -32.2887   26.4873 H   0  0  0  0  0  0
  -25.8093  -30.8921   27.0254 H   0  0  0  0  0  0
  -26.2809  -29.6764   24.1206 H   0  0  0  0  0  0
  -27.4004  -29.7209   25.4613 H   0  0  0  0  0  0
  -27.8688  -30.4225   23.9320 H   0  0  0  0  0  0
  -27.2871  -33.3624   26.1945 H   0  0  0  0  0  0
  -28.3991  -32.6623   25.0283 H   0  0  0  0  0  0
  -28.0722  -31.8381   26.5432 H   0  0  0  0  0  0
  -28.2572  -38.0107   24.7576 H   0  0  0  0  0  0
  -28.1117  -36.2652   24.6187 H   0  0  0  0  0  0
  -27.2332  -37.1313   25.8866 H   0  0  0  0  0  0
  -20.9388  -29.8799   21.6884 H   0  0  0  0  0  0
  -26.0167  -38.2855   24.1480 H   0  0  0  0  0  0
  -31.8348  -19.8449   20.2530 H   0  0  0  0  0  0
  -31.8874  -17.3958   20.1959 H   0  0  0  0  0  0
  -27.7359  -17.3131   21.3363 H   0  0  0  0  0  0
  -27.9442  -23.0528   17.0906 H   0  0  0  0  0  0
  -26.8483  -23.1111   18.4448 H   0  0  0  0  0  0
  -27.6452  -25.3841   17.8434 H   0  0  0  0  0  0
  -29.2966  -24.9183   18.1084 H   0  0  0  0  0  0
  -29.7152  -22.1234   18.3862 H   0  0  0  0  0  0
  -28.2873  -21.2940   18.9377 H   0  0  0  0  0  0
  -27.1374  -24.7329   20.2758 H   0  0  0  0  0  0
  -30.9005  -21.8668   21.1191 H   0  0  0  0  0  0
  -29.5232  -21.7193   22.1436 H   0  0  0  0  0  0
  -28.8868  -15.2870   21.2164 H   0  0  0  0  0  0
  1 25  1  0  0  0
  1 30  2  0  0  0
  1 84  1  0  0  0
  2  3  1  0  0  0
  2 25  1  0  0  0
  2 87  1  0  0  0
  2 88  1  0  0  0
  3  4  1  0  0  0
  3 89  1  0  0  0
  3 90  1  0  0  0
  4  5  1  0  0  0
  4 91  1  0  0  0
  4 92  1  0  0  0
  5  6  1  0  0  0
  5 26  1  0  0  0
  5 93  1  0  0  0
  6 25  1  0  0  0
  6 94  1  0  0  0
  6 95  1  0  0  0
  7  8  2  0  0  0
  7 26  1  0  0  0
  7 29  1  0  0  0
  8  9  1  0  0  0
  8 22  1  0  0  0
  9 10  1  0  0  0
  9 27  2  0  0  0
 10 11  2  0  0  0
 10 15  1  0  0  0
 11 12  1  0  0  0
 11 96  1  0  0  0
 12 13  2  0  0  0
 12 97  1  0  0  0
 13 14  1  0  0  0
 13 31  1  0  0  0
 14 15  2  0  0  0
 14 98  1  0  0  0
 15 99  1  0  0  0
 16 17  2  0  0  0
 16 21  1  0  0  0
 16 31  1  0  0  0
 17 18  1  0  0  0
 17100  1  0  0  0
 18 19  2  0  0  0
 18101  1  0  0  0
 19 20  1  0  0  0
 19 24  1  0  0  0
 20 21  2  0  0  0
 20102  1  0  0  0
 21 23  1  0  0  0
 22 28  1  0  0  0
 22 32  2  0  0  0
 26 27  1  0  0  0
 28103  1  0  0  0
 28104  1  0  0  0
 29105  1  0  0  0
 29106  1  0  0  0
 33 34  1  0  0  0
 33 66  1  0  0  0
 33 70  2  0  0  0
 34 36  1  0  0  0
 34 59  1  0  0  0
 34107  1  0  0  0
 35 44  2  0  0  0
 35 45  1  0  0  0
 35 68  1  0  0  0
 36 56  1  0  0  0
 36108  1  0  0  0
 37 39  1  0  0  0
 37 47  1  0  0  0
 37 66  1  0  0  0
 37109  1  0  0  0
 38 43  2  0  0  0
 38 46  1  0  0  0
 38 47  1  0  0  0
 39 64  1  0  0  0
 39 67  2  0  0  0
 40 52  1  0  0  0
 40 53  2  0  0  0
 40 58  1  0  0  0
 41110  1  0  0  0
 41111  1  0  0  0
 41112  1  0  0  0
 41 48  1  0  0  0
 42 43  1  0  0  0
 42 66  1  0  0  0
 42113  1  0  0  0
 42114  1  0  0  0
 43 44  1  0  0  0
 44115  1  0  0  0
 45 46  2  0  0  0
 45116  1  0  0  0
 46117  1  0  0  0
 47118  1  0  0  0
 47119  1  0  0  0
 48 56  1  0  0  0
 48 65  1  0  0  0
 48120  1  0  0  0
 49 50  1  0  0  0
 49 53  1  0  0  0
 49 64  1  0  0  0
 49121  1  0  0  0
 50 51  1  0  0  0
 50122  1  0  0  0
 50123  1  0  0  0
 51 52  1  0  0  0
 51124  1  0  0  0
 51125  1  0  0  0
 52126  1  0  0  0
 52127  1  0  0  0
 53 54  1  0  0  0
 54 55  2  0  0  0
 54128  1  0  0  0
 55 57  1  0  0  0
 55129  1  0  0  0
 56 69  2  0  0  0
 57 58  2  0  0  0
 57130  1  0  0  0
 58131  1  0  0  0
 59 60  1  0  0  0
 59 61  1  0  0  0
 59 62  1  0  0  0
 60132  1  0  0  0
 60133  1  0  0  0
 60134  1  0  0  0
 61135  1  0  0  0
 61136  1  0  0  0
 61137  1  0  0  0
 62138  1  0  0  0
 62139  1  0  0  0
 62140  1  0  0  0
 63 65  1  0  0  0
 63141  1  0  0  0
 63142  1  0  0  0
 63143  1  0  0  0
 64144  1  0  0  0
 65145  1  0  0  0
 68 81  1  0  0  0
 71 72  2  0  0  0
 71 74  1  0  0  0
 71146  1  0  0  0
 72 75  1  0  0  0
 72147  1  0  0  0
 73 75  2  0  0  0
 73 76  1  0  0  0
 73148  1  0  0  0
 74 76  2  0  0  0
 74 82  1  0  0  0
 75 84  1  0  0  0
 76 86  1  0  0  0
 77 81  1  0  0  0
 77 83  1  0  0  0
 77 85  2  0  0  0
 78 79  1  0  0  0
 78 80  1  0  0  0
 78149  1  0  0  0
 78150  1  0  0  0
 79 81  1  0  0  0
 79151  1  0  0  0
 79152  1  0  0  0
 80 83  1  0  0  0
 80153  1  0  0  0
 80154  1  0  0  0
 81155  1  0  0  0
 82 83  1  0  0  0
 82156  1  0  0  0
 82157  1  0  0  0
 84158  1  0  0  0
M  ISO  4   1 100  68 101  81 101  84 100
M  END
> <chiral flag>
0

> <version>
0

> <s_m_source_file>
/data/baiqing/PycharmProjects/Reinvent-master-3.2/result/LINK_invent/BTK/process_docking_weight1_custom_product_contain_oxygen_bond_distance_aromatic_linkinvent_7_9_3/rearranged_h_0031.sdf

> <i_m_source_file_index>
12

> <r_mmod_Potential_Energy-OPLS-2005>
135.719436645508

> <r_mmod_Stretch_Energy-OPLS-2005>
84.8940811157227

> <r_mmod_Bend_Energy-OPLS-2005>
150.596160888672

> <r_mmod_Torsional_Energy-OPLS-2005>
238.433258056641

> <r_mmod_Improper_Torsional_Energy-OPLS-2005>
5.9082202911377

> <r_mmod_Van_der_Waal_Energy-OPLS-2005>
153.857070922852

> <r_mmod_Electrostatic_Energy-OPLS-2005>
-318.593017578125

> <r_mmod_Solvation_Energy-OPLS-2005>
-229.445495605469

> <b_mmod_Minimization_Converged-OPLS-2005>
0

> <r_mmod_RMS_Derivative-OPLS-2005>
2.84272789955139

$$$$
12
                    3D
 Structure written by MMmdl.
166175  0  0  1  0            999 V2000
  -30.6478  -14.6196   20.5336 C   0  0  0  0  0  0
  -30.4333  -12.3841   19.4589 C   0  0  0  0  0  0
  -29.5087  -12.5118   18.2283 C   0  0  0  0  0  0
  -28.0309  -12.3544   18.6359 C   0  0  0  0  0  0
  -27.6552  -13.2199   19.8680 C   0  0  2  0  0  0
  -28.6967  -13.0666   21.0000 C   0  0  0  0  0  0
  -25.2554  -13.8183   20.5686 C   0  0  0  0  0  0
  -24.1827  -13.0442   20.9192 C   0  0  0  0  0  0
  -24.6400  -11.6914   20.8737 C   0  0  0  0  0  0
  -23.9072  -10.4291   21.0395 C   0  0  0  0  0  0
  -24.3618   -9.4208   21.9179 C   0  0  0  0  0  0
  -23.6285   -8.2250   22.0755 C   0  0  0  0  0  0
  -22.4266   -8.0289   21.3548 C   0  0  0  0  0  0
  -21.9899   -9.0265   20.4655 C   0  0  0  0  0  0
  -22.7236  -10.2140   20.3054 C   0  0  0  0  0  0
  -21.6855   -6.0729   22.5275 C   0  0  0  0  0  0
  -21.4022   -6.5636   23.8208 C   0  0  0  0  0  0
  -21.3655   -5.6790   24.9169 C   0  0  0  0  0  0
  -21.6035   -4.3050   24.7223 C   0  0  0  0  0  0
  -21.8820   -3.8141   23.4346 C   0  0  0  0  0  0
  -21.9195   -4.6956   22.3401 C   0  0  0  0  0  0
  -22.7845  -13.5232   21.1842 C   0  0  0  0  0  0
  -22.1660   -4.2143   21.0978 F   0  0  0  0  0  0
  -21.5624   -3.4534   25.7735 F   0  0  0  0  0  0
  -30.0167  -13.4045   20.4439 N   0  0  0  0  0  0
  -26.2993  -12.9372   20.3332 N   0  0  0  0  0  0
  -25.9332  -11.6522   20.5757 N   0  0  0  0  0  0
  -22.0477  -12.8245   22.0405 N   0  0  0  0  0  0
  -25.4257  -15.1904   20.4078 N   0  0  0  0  0  0
  -31.7901  -14.7517   20.0933 O   0  0  0  0  0  0
  -21.6638   -6.8879   21.4241 O   0  0  0  0  0  0
  -22.3528  -14.5523   20.6667 O   0  0  0  0  0  0
  -24.6240  -31.8613   23.2051 C   0  0  0  0  0  0
  -25.9098  -32.4785   23.8369 C   0  0  1  0  0  0
  -27.2220  -27.3311   20.1206 C   0  0  0  0  0  0
  -25.5918  -33.8584   24.2297 N   0  0  0  0  0  0
  -23.4161  -30.4867   21.5470 C   0  0  2  0  0  0
  -24.8628  -28.9483   20.1088 C   0  0  0  0  0  0
  -22.7457  -29.4628   22.4939 C   0  0  0  0  0  0
  -18.0285  -28.1383   22.8483 C   0  0  0  0  0  0
  -24.1485  -36.7296   23.2635 C   0  0  0  0  0  0
  -25.9561  -30.7970   21.3758 C   0  0  0  0  0  0
  -26.0294  -29.4262   20.7175 C   0  0  0  0  0  0
  -27.2089  -28.6274   20.7180 C   0  0  0  0  0  0
  -26.0348  -26.9134   19.4709 C   0  0  0  0  0  0
  -24.8670  -27.6969   19.4769 C   0  0  0  0  0  0
  -23.6299  -29.8259   20.1602 C   0  0  0  0  0  0
  -25.4105  -36.3085   24.0334 C   0  0  1  0  0  0
  -20.5883  -28.3679   23.1288 C   0  0  2  0  0  0
  -20.6771  -26.9402   22.5414 C   0  0  0  0  0  0
  -19.5750  -26.6379   21.5210 C   0  0  0  0  0  0
  -18.1930  -26.7927   22.1621 C   0  0  0  0  0  0
  -19.1539  -28.8847   23.2883 C   0  0  0  0  0  0
  -18.9462  -30.1450   23.8904 C   0  0  0  0  0  0
  -17.6464  -30.6579   24.0567 C   0  0  0  0  0  0
  -25.9044  -34.9453   23.5116 C   0  0  0  0  0  0
  -16.5355  -29.9082   23.6331 C   0  0  0  0  0  0
  -16.7274  -28.6500   23.0346 C   0  0  0  0  0  0
  -26.4491  -31.6588   25.0727 C   0  0  0  0  0  0
  -25.3738  -31.3734   26.1470 C   0  0  0  0  0  0
  -27.0324  -30.3010   24.6170 C   0  0  0  0  0  0
  -27.6058  -32.4318   25.7491 C   0  0  0  0  0  0
  -27.5580  -37.1797   24.8455 C   0  0  0  0  0  0
  -21.4175  -29.3033   22.3676 N   0  0  0  0  0  0
  -26.4281  -37.3780   23.9415 N   0  0  0  0  0  0
  -24.6840  -31.0641   22.0997 N   0  0  0  0  0  0
  -23.4191  -28.8167   23.3003 O   0  0  0  0  0  0
  -28.3496  -26.4989   20.2057 O   0  0  0  0  0  0
  -26.5609  -34.8912   22.4679 O   0  0  0  0  0  0
  -23.5412  -32.1406   23.7390 O   0  0  0  0  0  0
  -30.9027  -19.4191   20.8051 C   0  0  0  0  0  0
  -28.7092  -17.7929   21.2593 C   0  0  0  0  0  0
  -29.6809  -20.0703   21.1158 C   0  0  0  0  0  0
  -31.0559  -17.9977   20.7602 C   0  0  0  0  0  0
  -28.5707  -19.2117   21.3433 C   0  0  0  0  0  0
  -29.9365  -17.1288   20.9781 C   0  0  0  0  0  0
  -28.5013  -23.3034   18.1029 C   0  0  0  0  0  0
  -28.6045  -24.7972   18.4698 C   0  0  0  0  0  0
  -29.3496  -22.4042   19.0281 C   0  0  0  0  0  0
  -29.0741  -24.0616   20.8463 C   0  0  0  0  0  0
  -28.2277  -25.0476   19.9415 C   0  0  1  0  0  0
  -32.4673  -17.4890   20.5432 C   0  0  0  0  0  0
  -27.2223  -19.7851   21.7470 C   0  0  0  0  0  0
  -29.6651  -21.6254   21.3902 C   0  0  0  0  0  0
  -29.8899  -15.6565   21.0177 N   0  0  0  0  0  0
  -28.9703  -22.5906   20.4507 N   0  3  2  0  0  0
  -31.4762  -12.4936   19.1578 H   0  0  0  0  0  0
  -30.3565  -11.3871   19.8956 H   0  0  0  0  0  0
  -29.7701  -11.7622   17.4801 H   0  0  0  0  0  0
  -29.6615  -13.4832   17.7548 H   0  0  0  0  0  0
  -27.8626  -11.3008   18.8614 H   0  0  0  0  0  0
  -27.3802  -12.5932   17.7936 H   0  0  0  0  0  0
  -27.6787  -14.2579   19.5365 H   0  0  0  0  0  0
  -28.7023  -12.0422   21.3749 H   0  0  0  0  0  0
  -28.4375  -13.6896   21.8566 H   0  0  0  0  0  0
  -25.2759   -9.5675   22.4761 H   0  0  0  0  0  0
  -23.9983   -7.4636   22.7471 H   0  0  0  0  0  0
  -21.0823   -8.8781   19.8969 H   0  0  0  0  0  0
  -22.3681  -10.9677   19.6165 H   0  0  0  0  0  0
  -21.2024   -7.6145   23.9706 H   0  0  0  0  0  0
  -21.1468   -6.0522   25.9069 H   0  0  0  0  0  0
  -22.0604   -2.7603   23.2851 H   0  0  0  0  0  0
  -22.4073  -11.9921   22.4837 H   0  0  0  0  0  0
  -21.1095  -13.1293   22.2579 H   0  0  0  0  0  0
  -24.6518  -15.8396   20.4980 H   0  0  0  0  0  0
  -26.2615  -15.6229   20.0363 H   0  0  0  0  0  0
  -26.7161  -32.5465   23.1116 H   0  0  0  0  0  0
  -25.0063  -33.9736   25.0439 H   0  0  0  0  0  0
  -22.7086  -31.3066   21.4074 H   0  0  0  0  0  0
  -23.3738  -35.9639   23.3305 H   0  0  0  0  0  0
  -24.3582  -36.8901   22.2047 H   0  0  0  0  0  0
  -23.7239  -37.6503   23.6649 H   0  0  0  0  0  0
  -26.0856  -31.5626   20.6097 H   0  0  0  0  0  0
  -26.8369  -30.8453   22.0043 H   0  0  0  0  0  0
  -28.1006  -28.9862   21.2131 H   0  0  0  0  0  0
  -25.9684  -25.9697   18.9527 H   0  0  0  0  0  0
  -23.9748  -27.3292   18.9884 H   0  0  0  0  0  0
  -23.7472  -30.6054   19.4065 H   0  0  0  0  0  0
  -22.7503  -29.2555   19.8564 H   0  0  0  0  0  0
  -25.1278  -36.1941   25.0827 H   0  0  0  0  0  0
  -20.9982  -28.3262   24.1406 H   0  0  0  0  0  0
  -20.5664  -26.2286   23.3611 H   0  0  0  0  0  0
  -21.6644  -26.7428   22.1214 H   0  0  0  0  0  0
  -19.6907  -25.6293   21.1229 H   0  0  0  0  0  0
  -19.6686  -27.3198   20.6747 H   0  0  0  0  0  0
  -17.4198  -26.6672   21.4027 H   0  0  0  0  0  0
  -18.0331  -26.0071   22.9018 H   0  0  0  0  0  0
  -19.7944  -30.7261   24.2275 H   0  0  0  0  0  0
  -17.5021  -31.6261   24.5164 H   0  0  0  0  0  0
  -15.5356  -30.2982   23.7649 H   0  0  0  0  0  0
  -15.8676  -28.0817   22.7058 H   0  0  0  0  0  0
  -24.5906  -30.7081   25.7818 H   0  0  0  0  0  0
  -24.8941  -32.2907   26.4893 H   0  0  0  0  0  0
  -25.8079  -30.8921   27.0242 H   0  0  0  0  0  0
  -26.2890  -29.6767   24.1201 H   0  0  0  0  0  0
  -27.4027  -29.7259   25.4665 H   0  0  0  0  0  0
  -27.8759  -30.4290   23.9383 H   0  0  0  0  0  0
  -27.2670  -33.3614   26.2077 H   0  0  0  0  0  0
  -28.3860  -32.6884   25.0312 H   0  0  0  0  0  0
  -28.0734  -31.8437   26.5397 H   0  0  0  0  0  0
  -28.2586  -38.0108   24.7530 H   0  0  0  0  0  0
  -28.1087  -36.2643   24.6239 H   0  0  0  0  0  0
  -27.2313  -37.1392   25.8861 H   0  0  0  0  0  0
  -20.9338  -29.8761   21.6904 H   0  0  0  0  0  0
  -26.0164  -38.2851   24.1440 H   0  0  0  0  0  0
  -31.7801  -20.0350   20.6636 H   0  0  0  0  0  0
  -27.8348  -17.1885   21.4608 H   0  0  0  0  0  0
  -28.8202  -23.1626   17.0699 H   0  0  0  0  0  0
  -27.4579  -22.9887   18.1418 H   0  0  0  0  0  0
  -27.9641  -25.3831   17.8104 H   0  0  0  0  0  0
  -29.6225  -25.1464   18.2943 H   0  0  0  0  0  0
  -30.4110  -22.6258   18.9014 H   0  0  0  0  0  0
  -29.2133  -21.3607   18.7401 H   0  0  0  0  0  0
  -28.7545  -24.1747   21.8831 H   0  0  0  0  0  0
  -30.1228  -24.3606   20.8170 H   0  0  0  0  0  0
  -27.2004  -24.7289   20.1108 H   0  0  0  0  0  0
  -33.2027  -18.2898   20.6269 H   0  0  0  0  0  0
  -32.5742  -17.0595   19.5473 H   0  0  0  0  0  0
  -32.7282  -16.7478   21.2986 H   0  0  0  0  0  0
  -26.4344  -19.0331   21.6884 H   0  0  0  0  0  0
  -26.9314  -20.6105   21.0987 H   0  0  0  0  0  0
  -27.2566  -20.1490   22.7746 H   0  0  0  0  0  0
  -30.7011  -21.9533   21.4835 H   0  0  0  0  0  0
  -29.2418  -21.7715   22.3845 H   0  0  0  0  0  0
  -29.0055  -15.3046   21.3491 H   0  0  0  0  0  0
  -27.9932  -22.3465   20.5102 H   0  0  0  0  0  0
  1 25  1  0  0  0
  1 30  2  0  0  0
  1 85  1  0  0  0
  2  3  1  0  0  0
  2 25  1  0  0  0
  2 87  1  0  0  0
  2 88  1  0  0  0
  3  4  1  0  0  0
  3 89  1  0  0  0
  3 90  1  0  0  0
  4  5  1  0  0  0
  4 91  1  0  0  0
  4 92  1  0  0  0
  5  6  1  0  0  0
  5 26  1  0  0  0
  5 93  1  0  0  0
  6 25  1  0  0  0
  6 94  1  0  0  0
  6 95  1  0  0  0
  7  8  2  0  0  0
  7 26  1  0  0  0
  7 29  1  0  0  0
  8  9  1  0  0  0
  8 22  1  0  0  0
  9 10  1  0  0  0
  9 27  2  0  0  0
 10 11  2  0  0  0
 10 15  1  0  0  0
 11 12  1  0  0  0
 11 96  1  0  0  0
 12 13  2  0  0  0
 12 97  1  0  0  0
 13 14  1  0  0  0
 13 31  1  0  0  0
 14 15  2  0  0  0
 14 98  1  0  0  0
 15 99  1  0  0  0
 16 17  2  0  0  0
 16 21  1  0  0  0
 16 31  1  0  0  0
 17 18  1  0  0  0
 17100  1  0  0  0
 18 19  2  0  0  0
 18101  1  0  0  0
 19 20  1  0  0  0
 19 24  1  0  0  0
 20 21  2  0  0  0
 20102  1  0  0  0
 21 23  1  0  0  0
 22 28  1  0  0  0
 22 32  2  0  0  0
 26 27  1  0  0  0
 28103  1  0  0  0
 28104  1  0  0  0
 29105  1  0  0  0
 29106  1  0  0  0
 33 34  1  0  0  0
 33 66  1  0  0  0
 33 70  2  0  0  0
 34 36  1  0  0  0
 34 59  1  0  0  0
 34107  1  0  0  0
 35 44  2  0  0  0
 35 45  1  0  0  0
 35 68  1  0  0  0
 36 56  1  0  0  0
 36108  1  0  0  0
 37 39  1  0  0  0
 37 47  1  0  0  0
 37 66  1  0  0  0
 37109  1  0  0  0
 38 43  2  0  0  0
 38 46  1  0  0  0
 38 47  1  0  0  0
 39 64  1  0  0  0
 39 67  2  0  0  0
 40 52  1  0  0  0
 40 53  2  0  0  0
 40 58  1  0  0  0
 41110  1  0  0  0
 41111  1  0  0  0
 41112  1  0  0  0
 41 48  1  0  0  0
 42 43  1  0  0  0
 42 66  1  0  0  0
 42113  1  0  0  0
 42114  1  0  0  0
 43 44  1  0  0  0
 44115  1  0  0  0
 45 46  2  0  0  0
 45116  1  0  0  0
 46117  1  0  0  0
 47118  1  0  0  0
 47119  1  0  0  0
 48 56  1  0  0  0
 48 65  1  0  0  0
 48120  1  0  0  0
 49 50  1  0  0  0
 49 53  1  0  0  0
 49 64  1  0  0  0
 49121  1  0  0  0
 50 51  1  0  0  0
 50122  1  0  0  0
 50123  1  0  0  0
 51 52  1  0  0  0
 51124  1  0  0  0
 51125  1  0  0  0
 52126  1  0  0  0
 52127  1  0  0  0
 53 54  1  0  0  0
 54 55  2  0  0  0
 54128  1  0  0  0
 55 57  1  0  0  0
 55129  1  0  0  0
 56 69  2  0  0  0
 57 58  2  0  0  0
 57130  1  0  0  0
 58131  1  0  0  0
 59 60  1  0  0  0
 59 61  1  0  0  0
 59 62  1  0  0  0
 60132  1  0  0  0
 60133  1  0  0  0
 60134  1  0  0  0
 61135  1  0  0  0
 61136  1  0  0  0
 61137  1  0  0  0
 62138  1  0  0  0
 62139  1  0  0  0
 62140  1  0  0  0
 63 65  1  0  0  0
 63141  1  0  0  0
 63142  1  0  0  0
 63143  1  0  0  0
 64144  1  0  0  0
 65145  1  0  0  0
 68 81  1  0  0  0
 71 73  2  0  0  0
 71 74  1  0  0  0
 71146  1  0  0  0
 72 75  2  0  0  0
 72 76  1  0  0  0
 72147  1  0  0  0
 73 75  1  0  0  0
 73 84  1  0  0  0
 74 76  2  0  0  0
 74 82  1  0  0  0
 75 83  1  0  0  0
 76 85  1  0  0  0
 77 78  1  0  0  0
 77 79  1  0  0  0
 77148  1  0  0  0
 77149  1  0  0  0
 78 81  1  0  0  0
 78150  1  0  0  0
 78151  1  0  0  0
 79 86  1  0  0  0
 79152  1  0  0  0
 79153  1  0  0  0
 80 81  1  0  0  0
 80 86  1  0  0  0
 80154  1  0  0  0
 80155  1  0  0  0
 81156  1  0  0  0
 82157  1  0  0  0
 82158  1  0  0  0
 82159  1  0  0  0
 83160  1  0  0  0
 83161  1  0  0  0
 83162  1  0  0  0
 84163  1  0  0  0
 84164  1  0  0  0
 84 86  1  0  0  0
 85165  1  0  0  0
 86166  1  0  0  0
M  CHG  1  86   1
M  ISO  4   1 100  68 101  81 101  85 100
M  END
> <chiral flag>
0

> <version>
0

> <s_m_source_file>
/data/baiqing/PycharmProjects/Reinvent-master-3.2/result/LINK_invent/BTK/process_docking_weight1_custom_product_contain_oxygen_bond_distance_aromatic_linkinvent_7_9_3/rearranged_h_0031.sdf

> <i_m_source_file_index>
13

> <r_mmod_Potential_Energy-OPLS-2005>
-15.5739030838013

> <r_mmod_Stretch_Energy-OPLS-2005>
80.5451278686523

> <r_mmod_Bend_Energy-OPLS-2005>
161.626876831055

> <r_mmod_Torsional_Energy-OPLS-2005>
229.670989990234

> <r_mmod_Improper_Torsional_Energy-OPLS-2005>
4.7335786819458

> <r_mmod_Van_der_Waal_Energy-OPLS-2005>
151.807739257812

> <r_mmod_Electrostatic_Energy-OPLS-2005>
-266.767669677734

> <r_mmod_Solvation_Energy-OPLS-2005>
-419.566162109375

> <b_mmod_Minimization_Converged-OPLS-2005>
0

> <r_mmod_RMS_Derivative-OPLS-2005>
1.29384958744049

$$$$
13
                    3D
 Structure written by MMmdl.
163172  0  0  1  0            999 V2000
  -30.5874  -14.7213   20.4777 C   0  0  0  0  0  0
  -30.4434  -12.4407   19.4669 C   0  0  0  0  0  0
  -29.5140  -12.5175   18.2340 C   0  0  0  0  0  0
  -28.0386  -12.3405   18.6455 C   0  0  0  0  0  0
  -27.6500  -13.2232   19.8610 C   0  0  2  0  0  0
  -28.6945  -13.1123   20.9943 C   0  0  0  0  0  0
  -25.2546  -13.8179   20.5692 C   0  0  0  0  0  0
  -24.1821  -13.0436   20.9193 C   0  0  0  0  0  0
  -24.6399  -11.6910   20.8739 C   0  0  0  0  0  0
  -23.9069  -10.4292   21.0404 C   0  0  0  0  0  0
  -24.3619   -9.4207   21.9182 C   0  0  0  0  0  0
  -23.6293   -8.2243   22.0753 C   0  0  0  0  0  0
  -22.4275   -8.0282   21.3545 C   0  0  0  0  0  0
  -21.9911   -9.0256   20.4647 C   0  0  0  0  0  0
  -22.7241  -10.2134   20.3054 C   0  0  0  0  0  0
  -21.6853   -6.0736   22.5280 C   0  0  0  0  0  0
  -21.4014   -6.5640   23.8213 C   0  0  0  0  0  0
  -21.3659   -5.6791   24.9175 C   0  0  0  0  0  0
  -21.6044   -4.3055   24.7225 C   0  0  0  0  0  0
  -21.8819   -3.8147   23.4346 C   0  0  0  0  0  0
  -21.9193   -4.6964   22.3403 C   0  0  0  0  0  0
  -22.7843  -13.5226   21.1855 C   0  0  0  0  0  0
  -22.1661   -4.2150   21.0980 F   0  0  0  0  0  0
  -21.5629   -3.4538   25.7738 F   0  0  0  0  0  0
  -30.0019  -13.4765   20.4273 N   0  0  0  0  0  0
  -26.2977  -12.9369   20.3312 N   0  0  0  0  0  0
  -25.9330  -11.6519   20.5754 N   0  0  0  0  0  0
  -22.0485  -12.8220   22.0413 N   0  0  0  0  0  0
  -25.4248  -15.1903   20.4120 N   0  0  0  0  0  0
  -31.7527  -14.8790   20.0994 O   0  0  0  0  0  0
  -21.6639   -6.8879   21.4241 O   0  0  0  0  0  0
  -22.3529  -14.5533   20.6704 O   0  0  0  0  0  0
  -24.6303  -31.8555   23.1982 C   0  0  0  0  0  0
  -25.9131  -32.4757   23.8327 C   0  0  1  0  0  0
  -27.2241  -27.2755   20.1292 C   0  0  0  0  0  0
  -25.5932  -33.8559   24.2256 N   0  0  0  0  0  0
  -23.4268  -30.4773   21.5413 C   0  0  2  0  0  0
  -24.8751  -28.9241   20.1101 C   0  0  0  0  0  0
  -22.7498  -29.4603   22.4916 C   0  0  0  0  0  0
  -18.0291  -28.1389   22.8485 C   0  0  0  0  0  0
  -24.1490  -36.7283   23.2640 C   0  0  0  0  0  0
  -25.9711  -30.7737   21.3748 C   0  0  0  0  0  0
  -26.0459  -29.3969   20.7169 C   0  0  0  0  0  0
  -27.2249  -28.5863   20.7117 C   0  0  0  0  0  0
  -26.0329  -26.8668   19.4907 C   0  0  0  0  0  0
  -24.8732  -27.6670   19.4851 C   0  0  0  0  0  0
  -23.6444  -29.8090   20.1579 C   0  0  0  0  0  0
  -25.4117  -36.3070   24.0327 C   0  0  1  0  0  0
  -20.5894  -28.3699   23.1273 C   0  0  2  0  0  0
  -20.6779  -26.9417   22.5410 C   0  0  0  0  0  0
  -19.5754  -26.6385   21.5214 C   0  0  0  0  0  0
  -18.1934  -26.7931   22.1626 C   0  0  0  0  0  0
  -19.1544  -28.8861   23.2873 C   0  0  0  0  0  0
  -18.9465  -30.1462   23.8891 C   0  0  0  0  0  0
  -17.6464  -30.6589   24.0563 C   0  0  0  0  0  0
  -25.9056  -34.9441   23.5094 C   0  0  0  0  0  0
  -16.5355  -29.9086   23.6332 C   0  0  0  0  0  0
  -16.7278  -28.6504   23.0352 C   0  0  0  0  0  0
  -26.4503  -31.6581   25.0714 C   0  0  0  0  0  0
  -25.3729  -31.3731   26.1436 C   0  0  0  0  0  0
  -27.0350  -30.2999   24.6194 C   0  0  0  0  0  0
  -27.6057  -32.4323   25.7486 C   0  0  0  0  0  0
  -27.5579  -37.1796   24.8466 C   0  0  0  0  0  0
  -21.4206  -29.3044   22.3661 N   0  0  0  0  0  0
  -26.4292  -37.3769   23.9409 N   0  0  0  0  0  0
  -24.6951  -31.0532   22.0948 N   0  0  0  0  0  0
  -23.4202  -28.8145   23.3014 O   0  0  0  0  0  0
  -28.3213  -26.3885   20.1828 O   0  0  0  0  0  0
  -26.5627  -34.8917   22.4663 O   0  0  0  0  0  0
  -23.5456  -32.1370   23.7286 O   0  0  0  0  0  0
  -29.4884  -19.2971   19.2431 C   0  0  0  0  0  0
  -29.6551  -20.2158   20.3201 C   0  0  0  0  0  0
  -29.5729  -17.8715   19.3839 C   0  0  0  0  0  0
  -29.9016  -19.5928   21.5876 C   0  0  0  0  0  0
  -29.9964  -18.1542   21.7381 C   0  0  0  0  0  0
  -29.8519  -17.2490   20.6361 C   0  0  0  0  0  0
  -29.0686  -24.0361   21.1563 C   0  0  0  0  0  0
  -28.3961  -23.8684   19.2699 C   0  0  0  0  0  0
  -28.0521  -24.9198   20.3700 C   0  0  2  0  0  0
  -29.3426  -17.0073   18.1558 C   0  0  0  0  0  0
  -30.1008  -20.4776   22.8149 C   0  0  0  0  0  0
  -30.2608  -17.5690   23.1230 C   0  0  0  0  0  0
  -29.7966  -21.7923   20.0313 C   0  0  0  0  0  0
  -29.7686  -15.7794   20.8260 N   0  0  0  0  0  0
  -28.7144  -22.8473   20.3195 N   0  3  1  0  0  0
  -31.4827  -12.5787   19.1640 H   0  0  0  0  0  0
  -30.3954  -11.4522   19.9265 H   0  0  0  0  0  0
  -29.7923  -11.7571   17.5032 H   0  0  0  0  0  0
  -29.6421  -13.4805   17.7370 H   0  0  0  0  0  0
  -27.8901  -11.2887   18.8927 H   0  0  0  0  0  0
  -27.3817  -12.5493   17.8003 H   0  0  0  0  0  0
  -27.6565  -14.2527   19.5033 H   0  0  0  0  0  0
  -28.7242  -12.0972   21.3930 H   0  0  0  0  0  0
  -28.4279  -13.7550   21.8346 H   0  0  0  0  0  0
  -25.2766   -9.5681   22.4756 H   0  0  0  0  0  0
  -24.0002   -7.4633   22.7472 H   0  0  0  0  0  0
  -21.0842   -8.8775   19.8953 H   0  0  0  0  0  0
  -22.3700  -10.9672   19.6163 H   0  0  0  0  0  0
  -21.2006   -7.6147   23.9717 H   0  0  0  0  0  0
  -21.1481   -6.0521   25.9078 H   0  0  0  0  0  0
  -22.0598   -2.7609   23.2846 H   0  0  0  0  0  0
  -22.4098  -11.9880   22.4801 H   0  0  0  0  0  0
  -21.1104  -13.1246   22.2618 H   0  0  0  0  0  0
  -24.6562  -15.8425   20.5239 H   0  0  0  0  0  0
  -26.2738  -15.6340   20.0860 H   0  0  0  0  0  0
  -26.7198  -32.5413   23.1070 H   0  0  0  0  0  0
  -25.0080  -33.9695   25.0403 H   0  0  0  0  0  0
  -22.7228  -31.2991   21.3946 H   0  0  0  0  0  0
  -23.3754  -35.9613   23.3299 H   0  0  0  0  0  0
  -24.3581  -36.8908   22.2055 H   0  0  0  0  0  0
  -23.7242  -37.6483   23.6665 H   0  0  0  0  0  0
  -26.1077  -31.5353   20.6058 H   0  0  0  0  0  0
  -26.8493  -30.8232   22.0070 H   0  0  0  0  0  0
  -28.1220  -28.9435   21.1979 H   0  0  0  0  0  0
  -25.9817  -25.9054   19.0005 H   0  0  0  0  0  0
  -23.9778  -27.3014   19.0015 H   0  0  0  0  0  0
  -23.7670  -30.5842   19.4006 H   0  0  0  0  0  0
  -22.7635  -29.2404   19.8546 H   0  0  0  0  0  0
  -25.1299  -36.1916   25.0820 H   0  0  0  0  0  0
  -20.9988  -28.3277   24.1394 H   0  0  0  0  0  0
  -20.5682  -26.2308   23.3614 H   0  0  0  0  0  0
  -21.6646  -26.7444   22.1201 H   0  0  0  0  0  0
  -19.6914  -25.6295   21.1246 H   0  0  0  0  0  0
  -19.6691  -27.3195   20.6743 H   0  0  0  0  0  0
  -17.4204  -26.6679   21.4028 H   0  0  0  0  0  0
  -18.0334  -26.0076   22.9024 H   0  0  0  0  0  0
  -19.7941  -30.7281   24.2256 H   0  0  0  0  0  0
  -17.5017  -31.6268   24.5166 H   0  0  0  0  0  0
  -15.5355  -30.2984   23.7661 H   0  0  0  0  0  0
  -15.8678  -28.0823   22.7067 H   0  0  0  0  0  0
  -24.5902  -30.7083   25.7764 H   0  0  0  0  0  0
  -24.8923  -32.2902   26.4853 H   0  0  0  0  0  0
  -25.8046  -30.8912   27.0217 H   0  0  0  0  0  0
  -26.2930  -29.6740   24.1221 H   0  0  0  0  0  0
  -27.4040  -29.7267   25.4710 H   0  0  0  0  0  0
  -27.8804  -30.4275   23.9429 H   0  0  0  0  0  0
  -27.2666  -33.3631   26.2044 H   0  0  0  0  0  0
  -28.3876  -32.6870   25.0319 H   0  0  0  0  0  0
  -28.0715  -31.8459   26.5417 H   0  0  0  0  0  0
  -28.2595  -38.0095   24.7515 H   0  0  0  0  0  0
  -28.1078  -36.2627   24.6290 H   0  0  0  0  0  0
  -27.2298  -37.1441   25.8869 H   0  0  0  0  0  0
  -20.9392  -29.8763   21.6862 H   0  0  0  0  0  0
  -26.0170  -38.2842   24.1409 H   0  0  0  0  0  0
  -29.3182  -19.7016   18.2545 H   0  0  0  0  0  0
  -28.8321  -23.9112   22.2131 H   0  0  0  0  0  0
  -30.1029  -24.3614   21.0252 H   0  0  0  0  0  0
  -29.2631  -24.1511   18.6687 H   0  0  0  0  0  0
  -27.5558  -23.5903   18.6338 H   0  0  0  0  0  0
  -27.0521  -24.7513   20.7773 H   0  0  0  0  0  0
  -29.1157  -17.6077   17.2746 H   0  0  0  0  0  0
  -28.5072  -16.3261   18.3180 H   0  0  0  0  0  0
  -30.2308  -16.4147   17.9354 H   0  0  0  0  0  0
  -29.7350  -21.4918   22.6718 H   0  0  0  0  0  0
  -31.1590  -20.5377   23.0713 H   0  0  0  0  0  0
  -29.5620  -20.0837   23.6770 H   0  0  0  0  0  0
  -31.0236  -18.1367   23.6552 H   0  0  0  0  0  0
  -30.6248  -16.5432   23.0870 H   0  0  0  0  0  0
  -29.3469  -17.5786   23.7169 H   0  0  0  0  0  0
  -30.0315  -21.8796   18.9705 H   0  0  0  0  0  0
  -30.7143  -22.1175   20.5211 H   0  0  0  0  0  0
  -28.8852  -15.4692   21.2004 H   0  0  0  0  0  0
  -27.8669  -22.4128   20.6499 H   0  0  0  0  0  0
  1 25  1  0  0  0
  1 30  2  0  0  0
  1 84  1  0  0  0
  2  3  1  0  0  0
  2 25  1  0  0  0
  2 86  1  0  0  0
  2 87  1  0  0  0
  3  4  1  0  0  0
  3 88  1  0  0  0
  3 89  1  0  0  0
  4  5  1  0  0  0
  4 90  1  0  0  0
  4 91  1  0  0  0
  5  6  1  0  0  0
  5 26  1  0  0  0
  5 92  1  0  0  0
  6 25  1  0  0  0
  6 93  1  0  0  0
  6 94  1  0  0  0
  7  8  2  0  0  0
  7 26  1  0  0  0
  7 29  1  0  0  0
  8  9  1  0  0  0
  8 22  1  0  0  0
  9 10  1  0  0  0
  9 27  2  0  0  0
 10 11  2  0  0  0
 10 15  1  0  0  0
 11 12  1  0  0  0
 11 95  1  0  0  0
 12 13  2  0  0  0
 12 96  1  0  0  0
 13 14  1  0  0  0
 13 31  1  0  0  0
 14 15  2  0  0  0
 14 97  1  0  0  0
 15 98  1  0  0  0
 16 17  2  0  0  0
 16 21  1  0  0  0
 16 31  1  0  0  0
 17 18  1  0  0  0
 17 99  1  0  0  0
 18 19  2  0  0  0
 18100  1  0  0  0
 19 20  1  0  0  0
 19 24  1  0  0  0
 20 21  2  0  0  0
 20101  1  0  0  0
 21 23  1  0  0  0
 22 28  1  0  0  0
 22 32  2  0  0  0
 26 27  1  0  0  0
 28102  1  0  0  0
 28103  1  0  0  0
 29104  1  0  0  0
 29105  1  0  0  0
 33 34  1  0  0  0
 33 66  1  0  0  0
 33 70  2  0  0  0
 34 36  1  0  0  0
 34 59  1  0  0  0
 34106  1  0  0  0
 35 44  2  0  0  0
 35 45  1  0  0  0
 35 68  1  0  0  0
 36 56  1  0  0  0
 36107  1  0  0  0
 37 39  1  0  0  0
 37 47  1  0  0  0
 37 66  1  0  0  0
 37108  1  0  0  0
 38 43  2  0  0  0
 38 46  1  0  0  0
 38 47  1  0  0  0
 39 64  1  0  0  0
 39 67  2  0  0  0
 40 52  1  0  0  0
 40 53  2  0  0  0
 40 58  1  0  0  0
 41109  1  0  0  0
 41110  1  0  0  0
 41111  1  0  0  0
 41 48  1  0  0  0
 42 43  1  0  0  0
 42 66  1  0  0  0
 42112  1  0  0  0
 42113  1  0  0  0
 43 44  1  0  0  0
 44114  1  0  0  0
 45 46  2  0  0  0
 45115  1  0  0  0
 46116  1  0  0  0
 47117  1  0  0  0
 47118  1  0  0  0
 48 56  1  0  0  0
 48 65  1  0  0  0
 48119  1  0  0  0
 49 50  1  0  0  0
 49 53  1  0  0  0
 49 64  1  0  0  0
 49120  1  0  0  0
 50 51  1  0  0  0
 50121  1  0  0  0
 50122  1  0  0  0
 51 52  1  0  0  0
 51123  1  0  0  0
 51124  1  0  0  0
 52125  1  0  0  0
 52126  1  0  0  0
 53 54  1  0  0  0
 54 55  2  0  0  0
 54127  1  0  0  0
 55 57  1  0  0  0
 55128  1  0  0  0
 56 69  2  0  0  0
 57 58  2  0  0  0
 57129  1  0  0  0
 58130  1  0  0  0
 59 60  1  0  0  0
 59 61  1  0  0  0
 59 62  1  0  0  0
 60131  1  0  0  0
 60132  1  0  0  0
 60133  1  0  0  0
 61134  1  0  0  0
 61135  1  0  0  0
 61136  1  0  0  0
 62137  1  0  0  0
 62138  1  0  0  0
 62139  1  0  0  0
 63 65  1  0  0  0
 63140  1  0  0  0
 63141  1  0  0  0
 63142  1  0  0  0
 64143  1  0  0  0
 65144  1  0  0  0
 68 79  1  0  0  0
 71 72  2  0  0  0
 71 73  1  0  0  0
 71145  1  0  0  0
 72 74  1  0  0  0
 72 83  1  0  0  0
 73 76  2  0  0  0
 73 80  1  0  0  0
 74 75  2  0  0  0
 74 81  1  0  0  0
 75 76  1  0  0  0
 75 82  1  0  0  0
 76 84  1  0  0  0
 77 79  1  0  0  0
 77 85  1  0  0  0
 77146  1  0  0  0
 77147  1  0  0  0
 78 79  1  0  0  0
 78 85  1  0  0  0
 78148  1  0  0  0
 78149  1  0  0  0
 79150  1  0  0  0
 80151  1  0  0  0
 80152  1  0  0  0
 80153  1  0  0  0
 81154  1  0  0  0
 81155  1  0  0  0
 81156  1  0  0  0
 82157  1  0  0  0
 82158  1  0  0  0
 82159  1  0  0  0
 83160  1  0  0  0
 83161  1  0  0  0
 83 85  1  0  0  0
 84162  1  0  0  0
 85163  1  0  0  0
M  CHG  1  85   1
M  ISO  4   1 100  68 101  79 101  84 100
M  END
> <chiral flag>
0

> <version>
0

> <s_m_source_file>
/data/baiqing/PycharmProjects/Reinvent-master-3.2/result/LINK_invent/BTK/process_docking_weight1_custom_product_contain_oxygen_bond_distance_aromatic_linkinvent_7_9_3/rearranged_h_0031.sdf

> <i_m_source_file_index>
14

> <r_mmod_Potential_Energy-OPLS-2005>
-50.969108581543

> <r_mmod_Stretch_Energy-OPLS-2005>
111.655044555664

> <r_mmod_Bend_Energy-OPLS-2005>
183.181198120117

> <r_mmod_Torsional_Energy-OPLS-2005>
264.689483642578

> <r_mmod_Improper_Torsional_Energy-OPLS-2005>
5.82994890213013

> <r_mmod_Van_der_Waal_Energy-OPLS-2005>
141.653533935547

> <r_mmod_Electrostatic_Energy-OPLS-2005>
-362.727264404297

> <r_mmod_Solvation_Energy-OPLS-2005>
-470.683258056641

> <b_mmod_Minimization_Converged-OPLS-2005>
0

> <r_mmod_RMS_Derivative-OPLS-2005>
0.181513875722885

$$$$
14
                    3D
 Structure written by MMmdl.
147155  0  0  1  0            999 V2000
  -30.4751  -15.1823   20.3805 C   0  0  0  0  0  0
  -30.4354  -12.7503   19.5208 C   0  0  0  0  0  0
  -29.5293  -12.5597   18.2802 C   0  0  0  0  0  0
  -28.0737  -12.3019   18.7063 C   0  0  0  0  0  0
  -27.6140  -13.2691   19.8262 C   0  0  2  0  0  0
  -28.6501  -13.4142   20.9608 C   0  0  0  0  0  0
  -25.2396  -13.8243   20.5741 C   0  0  0  0  0  0
  -24.1743  -13.0438   20.9256 C   0  0  0  0  0  0
  -24.6391  -11.6934   20.8765 C   0  0  0  0  0  0
  -23.9084  -10.4293   21.0410 C   0  0  0  0  0  0
  -24.3633   -9.4206   21.9185 C   0  0  0  0  0  0
  -23.6307   -8.2242   22.0750 C   0  0  0  0  0  0
  -22.4286   -8.0281   21.3544 C   0  0  0  0  0  0
  -21.9928   -9.0255   20.4643 C   0  0  0  0  0  0
  -22.7259  -10.2134   20.3055 C   0  0  0  0  0  0
  -21.6855   -6.0739   22.5281 C   0  0  0  0  0  0
  -21.4015   -6.5642   23.8214 C   0  0  0  0  0  0
  -21.3659   -5.6794   24.9175 C   0  0  0  0  0  0
  -21.6045   -4.3055   24.7226 C   0  0  0  0  0  0
  -21.8819   -3.8149   23.4346 C   0  0  0  0  0  0
  -21.9196   -4.6968   22.3404 C   0  0  0  0  0  0
  -22.7761  -13.5192   21.1912 C   0  0  0  0  0  0
  -22.1663   -4.2153   21.0981 F   0  0  0  0  0  0
  -21.5631   -3.4538   25.7738 F   0  0  0  0  0  0
  -29.8927  -13.8922   20.3375 N   0  0  0  0  0  0
  -26.2822  -12.9509   20.3229 N   0  0  0  0  0  0
  -25.9325  -11.6618   20.5732 N   0  0  0  0  0  0
  -22.0426  -12.8163   22.0464 N   0  0  0  0  0  0
  -25.4030  -15.1977   20.4173 N   0  0  0  0  0  0
  -31.6935  -15.1828   20.1597 O   0  0  0  0  0  0
  -21.6644   -6.8882   21.4241 O   0  0  0  0  0  0
  -22.3438  -14.5497   20.6759 O   0  0  0  0  0  0
  -24.6588  -31.8286   23.1761 C   0  0  0  0  0  0
  -25.9293  -32.4618   23.8201 C   0  0  1  0  0  0
  -27.2114  -26.9740   20.1745 C   0  0  0  0  0  0
  -25.5981  -33.8429   24.2108 N   0  0  0  0  0  0
  -23.4707  -30.4443   21.5237 C   0  0  2  0  0  0
  -24.9232  -28.8455   20.1093 C   0  0  0  0  0  0
  -22.7642  -29.4472   22.4790 C   0  0  0  0  0  0
  -18.0320  -28.1410   22.8475 C   0  0  0  0  0  0
  -24.1486  -36.7203   23.2645 C   0  0  0  0  0  0
  -26.0381  -30.6502   21.4006 C   0  0  0  0  0  0
  -26.1063  -29.2463   20.7427 C   0  0  0  0  0  0
  -27.2474  -28.3300   20.7549 C   0  0  0  0  0  0
  -26.0015  -26.7223   19.4877 C   0  0  0  0  0  0
  -24.8939  -27.6023   19.4623 C   0  0  0  0  0  0
  -23.7077  -29.7672   20.1472 C   0  0  0  0  0  0
  -25.4125  -36.2979   24.0306 C   0  0  1  0  0  0
  -20.5944  -28.3749   23.1193 C   0  0  2  0  0  0
  -20.6796  -26.9435   22.5401 C   0  0  0  0  0  0
  -19.5767  -26.6385   21.5213 C   0  0  0  0  0  0
  -18.1950  -26.7945   22.1627 C   0  0  0  0  0  0
  -19.1582  -28.8900   23.2826 C   0  0  0  0  0  0
  -18.9495  -30.1489   23.8861 C   0  0  0  0  0  0
  -17.6490  -30.6605   24.0555 C   0  0  0  0  0  0
  -25.9093  -34.9366   23.5024 C   0  0  0  0  0  0
  -16.5377  -29.9094   23.6348 C   0  0  0  0  0  0
  -16.7304  -28.6512   23.0375 C   0  0  0  0  0  0
  -26.4558  -31.6552   25.0712 C   0  0  0  0  0  0
  -25.3702  -31.3799   26.1381 C   0  0  0  0  0  0
  -27.0443  -30.2921   24.6420 C   0  0  0  0  0  0
  -27.6054  -32.4355   25.7514 C   0  0  0  0  0  0
  -27.5563  -37.1755   24.8468 C   0  0  0  0  0  0
  -21.4319  -29.3048   22.3543 N   0  0  0  0  0  0
  -26.4267  -37.3717   23.9420 N   0  0  0  0  0  0
  -24.7433  -30.9997   22.0872 N   0  0  0  0  0  0
  -23.4214  -28.8031   23.3007 O   0  0  0  0  0  0
  -28.1962  -25.8671   20.2637 O   0  0  0  0  0  0
  -26.5687  -34.8895   22.4609 O   0  0  0  0  0  0
  -23.5671  -32.1232   23.6885 O   0  0  0  0  0  0
  -28.2774  -20.1783   20.9076 C   0  0  0  0  0  0
  -30.1456  -20.7584   19.6963 C   0  0  0  0  0  0
  -27.8545  -21.6057   20.8710 C   0  0  0  0  0  0
  -29.7223  -22.1796   19.6571 C   0  0  0  0  0  0
  -29.4725  -19.6132   20.3050 C   0  0  0  0  0  0
  -28.5298  -22.7500   20.2537 C   0  0  0  0  0  0
  -30.1825  -18.0265   20.3361 C   0  0  0  0  0  0
  -27.8040  -24.3101   20.0193 C   0  0  0  0  0  0
  -29.7353  -16.4509   20.4631 N   0  0  0  0  0  0
  -31.4594  -12.9371   19.1947 H   0  0  0  0  0  0
  -30.4796  -11.8355   20.1142 H   0  0  0  0  0  0
  -29.8932  -11.7354   17.6652 H   0  0  0  0  0  0
  -29.5747  -13.4531   17.6556 H   0  0  0  0  0  0
  -28.0144  -11.2735   19.0644 H   0  0  0  0  0  0
  -27.4061  -12.3652   17.8463 H   0  0  0  0  0  0
  -27.5393  -14.2436   19.3423 H   0  0  0  0  0  0
  -28.7973  -12.4727   21.4919 H   0  0  0  0  0  0
  -28.3051  -14.1392   21.6999 H   0  0  0  0  0  0
  -25.2775   -9.5686   22.4766 H   0  0  0  0  0  0
  -24.0018   -7.4629   22.7465 H   0  0  0  0  0  0
  -21.0861   -8.8777   19.8943 H   0  0  0  0  0  0
  -22.3716  -10.9677   19.6168 H   0  0  0  0  0  0
  -21.2001   -7.6149   23.9719 H   0  0  0  0  0  0
  -21.1482   -6.0522   25.9080 H   0  0  0  0  0  0
  -22.0598   -2.7611   23.2844 H   0  0  0  0  0  0
  -22.4066  -11.9826   22.4836 H   0  0  0  0  0  0
  -21.1039  -13.1162   22.2684 H   0  0  0  0  0  0
  -24.6307  -15.8462   20.5268 H   0  0  0  0  0  0
  -26.2426  -15.6401   20.0678 H   0  0  0  0  0  0
  -26.7360  -32.5170   23.0915 H   0  0  0  0  0  0
  -25.0108  -33.9519   25.0247 H   0  0  0  0  0  0
  -22.7817  -31.2753   21.3586 H   0  0  0  0  0  0
  -23.3765  -35.9516   23.3288 H   0  0  0  0  0  0
  -24.3561  -36.8862   22.2063 H   0  0  0  0  0  0
  -23.7225  -37.6381   23.6704 H   0  0  0  0  0  0
  -26.2147  -31.3959   20.6243 H   0  0  0  0  0  0
  -26.8998  -30.7033   22.0539 H   0  0  0  0  0  0
  -28.1398  -28.6311   21.2848 H   0  0  0  0  0  0
  -25.8646  -25.7763   18.9864 H   0  0  0  0  0  0
  -23.9957  -27.2900   18.9472 H   0  0  0  0  0  0
  -23.8604  -30.5388   19.3918 H   0  0  0  0  0  0
  -22.8182  -29.2207   19.8291 H   0  0  0  0  0  0
  -25.1322  -36.1770   25.0795 H   0  0  0  0  0  0
  -21.0038  -28.3354   24.1314 H   0  0  0  0  0  0
  -20.5671  -26.2370   23.3639 H   0  0  0  0  0  0
  -21.6659  -26.7417   22.1202 H   0  0  0  0  0  0
  -19.6920  -25.6286   21.1269 H   0  0  0  0  0  0
  -19.6698  -27.3172   20.6723 H   0  0  0  0  0  0
  -17.4213  -26.6691   21.4036 H   0  0  0  0  0  0
  -18.0346  -26.0100   22.9037 H   0  0  0  0  0  0
  -19.7970  -30.7314   24.2214 H   0  0  0  0  0  0
  -17.5045  -31.6283   24.5161 H   0  0  0  0  0  0
  -15.5376  -30.2985   23.7697 H   0  0  0  0  0  0
  -15.8703  -28.0812   22.7124 H   0  0  0  0  0  0
  -24.5887  -30.7140   25.7706 H   0  0  0  0  0  0
  -24.8887  -32.3001   26.4697 H   0  0  0  0  0  0
  -25.7949  -30.9045   27.0232 H   0  0  0  0  0  0
  -26.3101  -29.6613   24.1393 H   0  0  0  0  0  0
  -27.3950  -29.7270   25.5066 H   0  0  0  0  0  0
  -27.9059  -30.4114   23.9849 H   0  0  0  0  0  0
  -27.2623  -33.3701   26.1969 H   0  0  0  0  0  0
  -28.3933  -32.6842   25.0392 H   0  0  0  0  0  0
  -28.0644  -31.8559   26.5535 H   0  0  0  0  0  0
  -28.2564  -38.0066   24.7527 H   0  0  0  0  0  0
  -28.1075  -36.2596   24.6281 H   0  0  0  0  0  0
  -27.2284  -37.1386   25.8872 H   0  0  0  0  0  0
  -20.9555  -29.8749   21.6692 H   0  0  0  0  0  0
  -26.0113  -38.2769   24.1454 H   0  0  0  0  0  0
  -27.6291  -19.4927   21.4361 H   0  0  0  0  0  0
  -31.0814  -20.5404   19.1999 H   0  0  0  0  0  0
  -26.9033  -21.8209   21.3381 H   0  0  0  0  0  0
  -30.3513  -22.8578   19.0974 H   0  0  0  0  0  0
  -30.9305  -18.1209   21.1241 H   0  0  0  0  0  0
  -30.7794  -18.0194   19.4234 H   0  0  0  0  0  0
  -26.8452  -24.2068   20.5276 H   0  0  0  0  0  0
  -27.5507  -24.2802   18.9596 H   0  0  0  0  0  0
  -28.7435  -16.3219   20.5965 H   0  0  0  0  0  0
  1 25  1  0  0  0
  1 30  2  0  0  0
  1 79  1  0  0  0
  2  3  1  0  0  0
  2 25  1  0  0  0
  2 80  1  0  0  0
  2 81  1  0  0  0
  3  4  1  0  0  0
  3 82  1  0  0  0
  3 83  1  0  0  0
  4  5  1  0  0  0
  4 84  1  0  0  0
  4 85  1  0  0  0
  5  6  1  0  0  0
  5 26  1  0  0  0
  5 86  1  0  0  0
  6 25  1  0  0  0
  6 87  1  0  0  0
  6 88  1  0  0  0
  7  8  2  0  0  0
  7 26  1  0  0  0
  7 29  1  0  0  0
  8  9  1  0  0  0
  8 22  1  0  0  0
  9 10  1  0  0  0
  9 27  2  0  0  0
 10 11  2  0  0  0
 10 15  1  0  0  0
 11 12  1  0  0  0
 11 89  1  0  0  0
 12 13  2  0  0  0
 12 90  1  0  0  0
 13 14  1  0  0  0
 13 31  1  0  0  0
 14 15  2  0  0  0
 14 91  1  0  0  0
 15 92  1  0  0  0
 16 17  2  0  0  0
 16 21  1  0  0  0
 16 31  1  0  0  0
 17 18  1  0  0  0
 17 93  1  0  0  0
 18 19  2  0  0  0
 18 94  1  0  0  0
 19 20  1  0  0  0
 19 24  1  0  0  0
 20 21  2  0  0  0
 20 95  1  0  0  0
 21 23  1  0  0  0
 22 28  1  0  0  0
 22 32  2  0  0  0
 26 27  1  0  0  0
 28 96  1  0  0  0
 28 97  1  0  0  0
 29 98  1  0  0  0
 29 99  1  0  0  0
 33 34  1  0  0  0
 33 66  1  0  0  0
 33 70  2  0  0  0
 34 36  1  0  0  0
 34 59  1  0  0  0
 34100  1  0  0  0
 35 44  2  0  0  0
 35 45  1  0  0  0
 35 68  1  0  0  0
 36 56  1  0  0  0
 36101  1  0  0  0
 37 39  1  0  0  0
 37 47  1  0  0  0
 37 66  1  0  0  0
 37102  1  0  0  0
 38 43  2  0  0  0
 38 46  1  0  0  0
 38 47  1  0  0  0
 39 64  1  0  0  0
 39 67  2  0  0  0
 40 52  1  0  0  0
 40 53  2  0  0  0
 40 58  1  0  0  0
 41103  1  0  0  0
 41104  1  0  0  0
 41105  1  0  0  0
 41 48  1  0  0  0
 42 43  1  0  0  0
 42 66  1  0  0  0
 42106  1  0  0  0
 42107  1  0  0  0
 43 44  1  0  0  0
 44108  1  0  0  0
 45 46  2  0  0  0
 45109  1  0  0  0
 46110  1  0  0  0
 47111  1  0  0  0
 47112  1  0  0  0
 48 56  1  0  0  0
 48 65  1  0  0  0
 48113  1  0  0  0
 49 50  1  0  0  0
 49 53  1  0  0  0
 49 64  1  0  0  0
 49114  1  0  0  0
 50 51  1  0  0  0
 50115  1  0  0  0
 50116  1  0  0  0
 51 52  1  0  0  0
 51117  1  0  0  0
 51118  1  0  0  0
 52119  1  0  0  0
 52120  1  0  0  0
 53 54  1  0  0  0
 54 55  2  0  0  0
 54121  1  0  0  0
 55 57  1  0  0  0
 55122  1  0  0  0
 56 69  2  0  0  0
 57 58  2  0  0  0
 57123  1  0  0  0
 58124  1  0  0  0
 59 60  1  0  0  0
 59 61  1  0  0  0
 59 62  1  0  0  0
 60125  1  0  0  0
 60126  1  0  0  0
 60127  1  0  0  0
 61128  1  0  0  0
 61129  1  0  0  0
 61130  1  0  0  0
 62131  1  0  0  0
 62132  1  0  0  0
 62133  1  0  0  0
 63 65  1  0  0  0
 63134  1  0  0  0
 63135  1  0  0  0
 63136  1  0  0  0
 64137  1  0  0  0
 65138  1  0  0  0
 68 78  1  0  0  0
 71 73  2  0  0  0
 71 75  1  0  0  0
 71139  1  0  0  0
 72 74  1  0  0  0
 72 75  2  0  0  0
 72140  1  0  0  0
 73 76  1  0  0  0
 73141  1  0  0  0
 74 76  2  0  0  0
 74142  1  0  0  0
 75 77  1  0  0  0
 76 78  1  0  0  0
 77 79  1  0  0  0
 77143  1  0  0  0
 77144  1  0  0  0
 78145  1  0  0  0
 78146  1  0  0  0
 79147  1  0  0  0
M  ISO  4   1 100  68 101  78 101  79 100
M  END
> <chiral flag>
0

> <version>
0

> <s_m_source_file>
/data/baiqing/PycharmProjects/Reinvent-master-3.2/result/LINK_invent/BTK/process_docking_weight1_custom_product_contain_oxygen_bond_distance_aromatic_linkinvent_7_9_3/rearranged_h_0031.sdf

> <i_m_source_file_index>
15

> <r_mmod_Potential_Energy-OPLS-2005>
1015.4599609375

> <r_mmod_Stretch_Energy-OPLS-2005>
443.456787109375

> <r_mmod_Bend_Energy-OPLS-2005>
422.297058105469

> <r_mmod_Torsional_Energy-OPLS-2005>
215.021911621094

> <r_mmod_Improper_Torsional_Energy-OPLS-2005>
7.18429374694824

> <r_mmod_Van_der_Waal_Energy-OPLS-2005>
133.087112426758

> <r_mmod_Electrostatic_Energy-OPLS-2005>
-379.332244873047

> <r_mmod_Solvation_Energy-OPLS-2005>
-213.699493408203

> <b_mmod_Minimization_Converged-OPLS-2005>
0

> <r_mmod_RMS_Derivative-OPLS-2005>
0.623550474643707

$$$$
15
                    3D
 Structure written by MMmdl.
161170  0  0  1  0            999 V2000
  -30.5907  -14.7347   20.4611 C   0  0  0  0  0  0
  -30.4468  -12.4459   19.4504 C   0  0  0  0  0  0
  -29.5172  -12.5036   18.2197 C   0  0  0  0  0  0
  -28.0399  -12.3279   18.6310 C   0  0  0  0  0  0
  -27.6421  -13.2220   19.8390 C   0  0  2  0  0  0
  -28.6926  -13.1451   20.9665 C   0  0  0  0  0  0
  -25.2546  -13.8170   20.5672 C   0  0  0  0  0  0
  -24.1817  -13.0421   20.9194 C   0  0  0  0  0  0
  -24.6396  -11.6906   20.8733 C   0  0  0  0  0  0
  -23.9044  -10.4285   21.0399 C   0  0  0  0  0  0
  -24.3596   -9.4223   21.9194 C   0  0  0  0  0  0
  -23.6281   -8.2254   22.0769 C   0  0  0  0  0  0
  -22.4275   -8.0276   21.3542 C   0  0  0  0  0  0
  -21.9885   -9.0241   20.4653 C   0  0  0  0  0  0
  -22.7203  -10.2132   20.3064 C   0  0  0  0  0  0
  -21.6847   -6.0734   22.5289 C   0  0  0  0  0  0
  -21.4004   -6.5641   23.8222 C   0  0  0  0  0  0
  -21.3669   -5.6789   24.9180 C   0  0  0  0  0  0
  -21.6043   -4.3051   24.7225 C   0  0  0  0  0  0
  -21.8821   -3.8147   23.4342 C   0  0  0  0  0  0
  -21.9188   -4.6968   22.3402 C   0  0  0  0  0  0
  -22.7849  -13.5253   21.1822 C   0  0  0  0  0  0
  -22.1661   -4.2168   21.0975 F   0  0  0  0  0  0
  -21.5634   -3.4527   25.7724 F   0  0  0  0  0  0
  -29.9865  -13.5029   20.3734 N   0  0  0  0  0  0
  -26.2949  -12.9344   20.3210 N   0  0  0  0  0  0
  -25.9320  -11.6507   20.5705 N   0  0  0  0  0  0
  -22.0418  -12.8315   22.0385 N   0  0  0  0  0  0
  -25.4216  -15.1904   20.4132 N   0  0  0  0  0  0
  -31.8057  -14.8502   20.2720 O   0  0  0  0  0  0
  -21.6633   -6.8876   21.4245 O   0  0  0  0  0  0
  -22.3570  -14.5538   20.6622 O   0  0  0  0  0  0
  -24.6301  -31.8517   23.1953 C   0  0  0  0  0  0
  -25.9105  -32.4756   23.8321 C   0  0  1  0  0  0
  -27.2395  -27.2551   20.1560 C   0  0  0  0  0  0
  -25.5876  -33.8559   24.2242 N   0  0  0  0  0  0
  -23.4317  -30.4671   21.5382 C   0  0  2  0  0  0
  -24.8870  -28.9058   20.1182 C   0  0  0  0  0  0
  -22.7514  -29.4537   22.4900 C   0  0  0  0  0  0
  -18.0279  -28.1366   22.8495 C   0  0  0  0  0  0
  -24.1474  -36.7302   23.2644 C   0  0  0  0  0  0
  -25.9752  -30.7703   21.3699 C   0  0  0  0  0  0
  -26.0561  -29.3872   20.7207 C   0  0  0  0  0  0
  -27.2384  -28.5788   20.7154 C   0  0  0  0  0  0
  -26.0452  -26.8294   19.5399 C   0  0  0  0  0  0
  -24.8873  -27.6375   19.5126 C   0  0  0  0  0  0
  -23.6552  -29.7922   20.1577 C   0  0  0  0  0  0
  -25.4107  -36.3088   24.0328 C   0  0  1  0  0  0
  -20.5886  -28.3661   23.1281 C   0  0  2  0  0  0
  -20.6750  -26.9372   22.5420 C   0  0  0  0  0  0
  -19.5728  -26.6355   21.5219 C   0  0  0  0  0  0
  -18.1908  -26.7906   22.1632 C   0  0  0  0  0  0
  -19.1532  -28.8836   23.2880 C   0  0  0  0  0  0
  -18.9449  -30.1440   23.8895 C   0  0  0  0  0  0
  -17.6445  -30.6574   24.0550 C   0  0  0  0  0  0
  -25.9042  -34.9451   23.5101 C   0  0  0  0  0  0
  -16.5340  -29.9065   23.6328 C   0  0  0  0  0  0
  -16.7264  -28.6478   23.0364 C   0  0  0  0  0  0
  -26.4474  -31.6590   25.0718 C   0  0  0  0  0  0
  -25.3683  -31.3766   26.1430 C   0  0  0  0  0  0
  -27.0310  -30.3002   24.6203 C   0  0  0  0  0  0
  -27.6014  -32.4339   25.7501 C   0  0  0  0  0  0
  -27.5577  -37.1805   24.8459 C   0  0  0  0  0  0
  -21.4206  -29.3016   22.3682 N   0  0  0  0  0  0
  -26.4290  -37.3780   23.9399 N   0  0  0  0  0  0
  -24.6988  -31.0461   22.0934 N   0  0  0  0  0  0
  -23.4204  -28.8067   23.2993 O   0  0  0  0  0  0
  -28.3615  -26.3958   20.1454 O   0  0  0  0  0  0
  -26.5645  -34.8924   22.4694 O   0  0  0  0  0  0
  -23.5443  -32.1311   23.7244 O   0  0  0  0  0  0
  -29.6319  -17.2197   22.3639 C   0  0  0  0  0  0
  -29.5123  -18.4376   20.2712 C   0  0  0  0  0  0
  -29.2177  -18.3911   23.0362 C   0  0  0  0  0  0
  -29.1520  -19.6936   20.9276 C   0  0  0  0  0  0
  -28.9028  -19.5884   22.3280 C   0  0  0  0  0  0
  -29.7211  -17.1732   20.9627 C   0  0  0  0  0  0
  -29.7811  -23.1191   21.4019 C   0  0  0  0  0  0
  -29.6151  -24.6533   21.4542 C   0  0  0  0  0  0
  -28.1686  -23.6458   19.8784 C   0  0  0  0  0  0
  -28.3064  -24.9976   20.7183 C   0  0  2  0  0  0
  -29.0555  -18.2935   24.5464 C   0  0  0  0  0  0
  -28.1868  -20.7115   23.0687 C   0  0  0  0  0  0
  -28.9033  -21.0517   20.0834 C   0  0  0  0  0  0
  -28.9017  -22.5188   20.5766 N   0  0  0  0  0  0
  -29.7543  -15.8330   20.3363 N   0  0  0  0  0  0
  -30.6702  -22.5489   22.0381 O   0  0  0  0  0  0
  -31.4873  -12.5884   19.1486 H   0  0  0  0  0  0
  -30.4008  -11.4644   19.9272 H   0  0  0  0  0  0
  -29.8001  -11.7376   17.4958 H   0  0  0  0  0  0
  -29.6473  -13.4641   17.7187 H   0  0  0  0  0  0
  -27.8941  -11.2759   18.8796 H   0  0  0  0  0  0
  -27.3925  -12.5308   17.7789 H   0  0  0  0  0  0
  -27.6353  -14.2465   19.4653 H   0  0  0  0  0  0
  -28.7295  -12.1405   21.3896 H   0  0  0  0  0  0
  -28.4319  -13.8216   21.7843 H   0  0  0  0  0  0
  -25.2742   -9.5729   22.4767 H   0  0  0  0  0  0
  -23.9998   -7.4661   22.7510 H   0  0  0  0  0  0
  -21.0810   -8.8737   19.8978 H   0  0  0  0  0  0
  -22.3637  -10.9653   19.6180 H   0  0  0  0  0  0
  -21.1990   -7.6144   23.9734 H   0  0  0  0  0  0
  -21.1496   -6.0511   25.9086 H   0  0  0  0  0  0
  -22.0591   -2.7611   23.2822 H   0  0  0  0  0  0
  -22.3934  -12.0002   22.4877 H   0  0  0  0  0  0
  -21.1039  -13.1439   22.2458 H   0  0  0  0  0  0
  -24.6492  -15.8340   20.5453 H   0  0  0  0  0  0
  -26.2718  -15.6520   20.1186 H   0  0  0  0  0  0
  -26.7179  -32.5415   23.1071 H   0  0  0  0  0  0
  -24.9952  -33.9695   25.0337 H   0  0  0  0  0  0
  -22.7282  -31.2890   21.3856 H   0  0  0  0  0  0
  -23.3740  -35.9628   23.3317 H   0  0  0  0  0  0
  -24.3549  -36.8923   22.2054 H   0  0  0  0  0  0
  -23.7232  -37.6504   23.6673 H   0  0  0  0  0  0
  -26.1004  -31.5296   20.5963 H   0  0  0  0  0  0
  -26.8562  -30.8330   21.9981 H   0  0  0  0  0  0
  -28.1443  -28.9548   21.1684 H   0  0  0  0  0  0
  -26.0083  -25.8543   19.0758 H   0  0  0  0  0  0
  -23.9927  -27.2664   19.0315 H   0  0  0  0  0  0
  -23.7801  -30.5640   19.3979 H   0  0  0  0  0  0
  -22.7772  -29.2199   19.8529 H   0  0  0  0  0  0
  -25.1295  -36.1942   25.0826 H   0  0  0  0  0  0
  -20.9977  -28.3219   24.1403 H   0  0  0  0  0  0
  -20.5610  -26.2266   23.3620 H   0  0  0  0  0  0
  -21.6612  -26.7354   22.1232 H   0  0  0  0  0  0
  -19.6870  -25.6258   21.1255 H   0  0  0  0  0  0
  -19.6673  -27.3165   20.6751 H   0  0  0  0  0  0
  -17.4177  -26.6666   21.4036 H   0  0  0  0  0  0
  -18.0297  -26.0034   22.9017 H   0  0  0  0  0  0
  -19.7919  -30.7257   24.2266 H   0  0  0  0  0  0
  -17.4991  -31.6262   24.5122 H   0  0  0  0  0  0
  -15.5335  -30.2967   23.7629 H   0  0  0  0  0  0
  -15.8664  -28.0787   22.7092 H   0  0  0  0  0  0
  -24.5806  -30.7188   25.7741 H   0  0  0  0  0  0
  -24.8938  -32.2959   26.4882 H   0  0  0  0  0  0
  -25.7952  -30.8889   27.0202 H   0  0  0  0  0  0
  -26.2901  -29.6773   24.1176 H   0  0  0  0  0  0
  -27.3931  -29.7243   25.4732 H   0  0  0  0  0  0
  -27.8806  -30.4277   23.9487 H   0  0  0  0  0  0
  -27.2597  -33.3619   26.2103 H   0  0  0  0  0  0
  -28.3814  -32.6940   25.0332 H   0  0  0  0  0  0
  -28.0702  -31.8461   26.5402 H   0  0  0  0  0  0
  -28.2599  -38.0097   24.7503 H   0  0  0  0  0  0
  -28.1069  -36.2632   24.6291 H   0  0  0  0  0  0
  -27.2294  -37.1468   25.8861 H   0  0  0  0  0  0
  -20.9381  -29.8781   21.6934 H   0  0  0  0  0  0
  -26.0178  -38.2855   24.1402 H   0  0  0  0  0  0
  -29.7779  -16.3151   22.9392 H   0  0  0  0  0  0
  -29.5792  -18.4368   19.1924 H   0  0  0  0  0  0
  -30.4649  -25.0804   20.9235 H   0  0  0  0  0  0
  -29.6304  -25.0334   22.4767 H   0  0  0  0  0  0
  -28.6263  -23.7715   18.8964 H   0  0  0  0  0  0
  -27.1221  -23.3915   19.7192 H   0  0  0  0  0  0
  -27.5122  -24.9868   21.4664 H   0  0  0  0  0  0
  -29.6040  -17.4349   24.9390 H   0  0  0  0  0  0
  -28.0061  -18.1625   24.8155 H   0  0  0  0  0  0
  -29.4416  -19.1837   25.0464 H   0  0  0  0  0  0
  -28.8870  -21.4403   23.4707 H   0  0  0  0  0  0
  -27.5950  -20.3408   23.9053 H   0  0  0  0  0  0
  -27.4789  -21.2100   22.4067 H   0  0  0  0  0  0
  -27.9348  -20.9137   19.6033 H   0  0  0  0  0  0
  -29.6289  -21.0286   19.2704 H   0  0  0  0  0  0
  -28.8519  -15.5533   19.9881 H   0  0  0  0  0  0
  1 25  1  0  0  0
  1 30  2  0  0  0
  1 85  1  0  0  0
  2  3  1  0  0  0
  2 25  1  0  0  0
  2 87  1  0  0  0
  2 88  1  0  0  0
  3  4  1  0  0  0
  3 89  1  0  0  0
  3 90  1  0  0  0
  4  5  1  0  0  0
  4 91  1  0  0  0
  4 92  1  0  0  0
  5  6  1  0  0  0
  5 26  1  0  0  0
  5 93  1  0  0  0
  6 25  1  0  0  0
  6 94  1  0  0  0
  6 95  1  0  0  0
  7  8  2  0  0  0
  7 26  1  0  0  0
  7 29  1  0  0  0
  8  9  1  0  0  0
  8 22  1  0  0  0
  9 10  1  0  0  0
  9 27  2  0  0  0
 10 11  2  0  0  0
 10 15  1  0  0  0
 11 12  1  0  0  0
 11 96  1  0  0  0
 12 13  2  0  0  0
 12 97  1  0  0  0
 13 14  1  0  0  0
 13 31  1  0  0  0
 14 15  2  0  0  0
 14 98  1  0  0  0
 15 99  1  0  0  0
 16 17  2  0  0  0
 16 21  1  0  0  0
 16 31  1  0  0  0
 17 18  1  0  0  0
 17100  1  0  0  0
 18 19  2  0  0  0
 18101  1  0  0  0
 19 20  1  0  0  0
 19 24  1  0  0  0
 20 21  2  0  0  0
 20102  1  0  0  0
 21 23  1  0  0  0
 22 28  1  0  0  0
 22 32  2  0  0  0
 26 27  1  0  0  0
 28103  1  0  0  0
 28104  1  0  0  0
 29105  1  0  0  0
 29106  1  0  0  0
 33 34  1  0  0  0
 33 66  1  0  0  0
 33 70  2  0  0  0
 34 36  1  0  0  0
 34 59  1  0  0  0
 34107  1  0  0  0
 35 44  2  0  0  0
 35 45  1  0  0  0
 35 68  1  0  0  0
 36 56  1  0  0  0
 36108  1  0  0  0
 37 39  1  0  0  0
 37 47  1  0  0  0
 37 66  1  0  0  0
 37109  1  0  0  0
 38 43  2  0  0  0
 38 46  1  0  0  0
 38 47  1  0  0  0
 39 64  1  0  0  0
 39 67  2  0  0  0
 40 52  1  0  0  0
 40 53  2  0  0  0
 40 58  1  0  0  0
 41110  1  0  0  0
 41111  1  0  0  0
 41112  1  0  0  0
 41 48  1  0  0  0
 42 43  1  0  0  0
 42 66  1  0  0  0
 42113  1  0  0  0
 42114  1  0  0  0
 43 44  1  0  0  0
 44115  1  0  0  0
 45 46  2  0  0  0
 45116  1  0  0  0
 46117  1  0  0  0
 47118  1  0  0  0
 47119  1  0  0  0
 48 56  1  0  0  0
 48 65  1  0  0  0
 48120  1  0  0  0
 49 50  1  0  0  0
 49 53  1  0  0  0
 49 64  1  0  0  0
 49121  1  0  0  0
 50 51  1  0  0  0
 50122  1  0  0  0
 50123  1  0  0  0
 51 52  1  0  0  0
 51124  1  0  0  0
 51125  1  0  0  0
 52126  1  0  0  0
 52127  1  0  0  0
 53 54  1  0  0  0
 54 55  2  0  0  0
 54128  1  0  0  0
 55 57  1  0  0  0
 55129  1  0  0  0
 56 69  2  0  0  0
 57 58  2  0  0  0
 57130  1  0  0  0
 58131  1  0  0  0
 59 60  1  0  0  0
 59 61  1  0  0  0
 59 62  1  0  0  0
 60132  1  0  0  0
 60133  1  0  0  0
 60134  1  0  0  0
 61135  1  0  0  0
 61136  1  0  0  0
 61137  1  0  0  0
 62138  1  0  0  0
 62139  1  0  0  0
 62140  1  0  0  0
 63 65  1  0  0  0
 63141  1  0  0  0
 63142  1  0  0  0
 63143  1  0  0  0
 64144  1  0  0  0
 65145  1  0  0  0
 68 80  1  0  0  0
 71 73  2  0  0  0
 71 76  1  0  0  0
 71146  1  0  0  0
 72 74  1  0  0  0
 72 76  2  0  0  0
 72147  1  0  0  0
 73 75  1  0  0  0
 73 81  1  0  0  0
 74 75  2  0  0  0
 74 83  1  0  0  0
 75 82  1  0  0  0
 76 85  1  0  0  0
 77 78  1  0  0  0
 77 84  1  0  0  0
 77 86  2  0  0  0
 78 80  1  0  0  0
 78148  1  0  0  0
 78149  1  0  0  0
 79 80  1  0  0  0
 79 84  1  0  0  0
 79150  1  0  0  0
 79151  1  0  0  0
 80152  1  0  0  0
 81153  1  0  0  0
 81154  1  0  0  0
 81155  1  0  0  0
 82156  1  0  0  0
 82157  1  0  0  0
 82158  1  0  0  0
 83 84  1  0  0  0
 83159  1  0  0  0
 83160  1  0  0  0
 85161  1  0  0  0
M  ISO  4   1 100  68 101  80 101  85 100
M  END
> <chiral flag>
0

> <version>
0

> <s_m_source_file>
/data/baiqing/PycharmProjects/Reinvent-master-3.2/result/LINK_invent/BTK/process_docking_weight1_custom_product_contain_oxygen_bond_distance_aromatic_linkinvent_7_9_3/rearranged_h_0031.sdf

> <i_m_source_file_index>
16

> <r_mmod_Potential_Energy-OPLS-2005>
243.16764831543

> <r_mmod_Stretch_Energy-OPLS-2005>
129.728317260742

> <r_mmod_Bend_Energy-OPLS-2005>
220.519241333008

> <r_mmod_Torsional_Energy-OPLS-2005>
302.832336425781

> <r_mmod_Improper_Torsional_Energy-OPLS-2005>
16.5628147125244

> <r_mmod_Van_der_Waal_Energy-OPLS-2005>
126.211875915527

> <r_mmod_Electrostatic_Energy-OPLS-2005>
-399.550140380859

> <r_mmod_Solvation_Energy-OPLS-2005>
-238.421768188477

> <b_mmod_Minimization_Converged-OPLS-2005>
0

> <r_mmod_RMS_Derivative-OPLS-2005>
3.61678099632263

$$$$
16
                    3D
 Structure written by MMmdl.
174184  0  0  1  0            999 V2000
  -30.6053  -14.8030   20.4976 C   0  0  0  0  0  0
  -30.4689  -12.4948   19.4959 C   0  0  0  0  0  0
  -29.5469  -12.5217   18.2521 C   0  0  0  0  0  0
  -28.0695  -12.3241   18.6516 C   0  0  0  0  0  0
  -27.6587  -13.2045   19.8606 C   0  0  2  0  0  0
  -28.7057  -13.1477   21.0004 C   0  0  0  0  0  0
  -25.2575  -13.7601   20.5776 C   0  0  0  0  0  0
  -24.1807  -13.0062   20.9270 C   0  0  0  0  0  0
  -24.6393  -11.6576   20.8697 C   0  0  0  0  0  0
  -23.9003  -10.4096   21.0387 C   0  0  0  0  0  0
  -24.3573   -9.4049   21.9206 C   0  0  0  0  0  0
  -23.6235   -8.2110   22.0774 C   0  0  0  0  0  0
  -22.4214   -8.0165   21.3574 C   0  0  0  0  0  0
  -21.9849   -9.0106   20.4642 C   0  0  0  0  0  0
  -22.7165  -10.1980   20.3060 C   0  0  0  0  0  0
  -21.6809   -6.0676   22.5277 C   0  0  0  0  0  0
  -21.3996   -6.5603   23.8184 C   0  0  0  0  0  0
  -21.3665   -5.6773   24.9170 C   0  0  0  0  0  0
  -21.6065   -4.3038   24.7223 C   0  0  0  0  0  0
  -21.8824   -3.8103   23.4343 C   0  0  0  0  0  0
  -21.9177   -4.6914   22.3385 C   0  0  0  0  0  0
  -22.7879  -13.5047   21.1886 C   0  0  0  0  0  0
  -22.1620   -4.2089   21.0968 F   0  0  0  0  0  0
  -21.5673   -3.4546   25.7763 F   0  0  0  0  0  0
  -30.0131  -13.5474   20.4446 N   0  0  0  0  0  0
  -26.3057  -12.8968   20.3290 N   0  0  0  0  0  0
  -25.9358  -11.6138   20.5659 N   0  0  0  0  0  0
  -22.0389  -12.8216   22.0443 N   0  0  0  0  0  0
  -25.4233  -15.1116   20.4221 N   0  0  0  0  0  0
  -31.7329  -14.9537   20.0151 O   0  0  0  0  0  0
  -21.6578   -6.8789   21.4222 O   0  0  0  0  0  0
  -22.3703  -14.5381   20.6645 O   0  0  0  0  0  0
  -24.6286  -31.8540   23.1960 C   0  0  0  0  0  0
  -25.9116  -32.4759   23.8317 C   0  0  1  0  0  0
  -27.2624  -27.2690   20.1867 C   0  0  0  0  0  0
  -25.5906  -33.8555   24.2257 N   0  0  0  0  0  0
  -23.4300  -30.4704   21.5339 C   0  0  2  0  0  0
  -24.8899  -28.9074   20.1177 C   0  0  0  0  0  0
  -22.7497  -29.4605   22.4889 C   0  0  0  0  0  0
  -18.0294  -28.1385   22.8479 C   0  0  0  0  0  0
  -24.1481  -36.7298   23.2644 C   0  0  0  0  0  0
  -25.9726  -30.7715   21.3758 C   0  0  0  0  0  0
  -26.0536  -29.3905   20.7305 C   0  0  0  0  0  0
  -27.2385  -28.5882   20.7447 C   0  0  0  0  0  0
  -26.0767  -26.8444   19.5408 C   0  0  0  0  0  0
  -24.9083  -27.6415   19.5070 C   0  0  0  0  0  0
  -23.6539  -29.7905   20.1540 C   0  0  0  0  0  0
  -25.4106  -36.3079   24.0333 C   0  0  1  0  0  0
  -20.5900  -28.3704   23.1252 C   0  0  2  0  0  0
  -20.6783  -26.9419   22.5403 C   0  0  0  0  0  0
  -19.5754  -26.6376   21.5210 C   0  0  0  0  0  0
  -18.1937  -26.7927   22.1620 C   0  0  0  0  0  0
  -19.1551  -28.8862   23.2861 C   0  0  0  0  0  0
  -18.9469  -30.1459   23.8880 C   0  0  0  0  0  0
  -17.6467  -30.6589   24.0560 C   0  0  0  0  0  0
  -25.9048  -34.9442   23.5109 C   0  0  0  0  0  0
  -16.5363  -29.9080   23.6333 C   0  0  0  0  0  0
  -16.7280  -28.6501   23.0360 C   0  0  0  0  0  0
  -26.4478  -31.6588   25.0714 C   0  0  0  0  0  0
  -25.3704  -31.3758   26.1447 C   0  0  0  0  0  0
  -27.0340  -30.3000   24.6230 C   0  0  0  0  0  0
  -27.6030  -32.4338   25.7481 C   0  0  0  0  0  0
  -27.5592  -37.1795   24.8463 C   0  0  0  0  0  0
  -21.4205  -29.3051   22.3628 N   0  0  0  0  0  0
  -26.4298  -37.3773   23.9413 N   0  0  0  0  0  0
  -24.6948  -31.0510   22.0922 N   0  0  0  0  0  0
  -23.4202  -28.8155   23.3000 O   0  0  0  0  0  0
  -28.4032  -26.4268   20.2339 O   0  0  0  0  0  0
  -26.5620  -34.8919   22.4681 O   0  0  0  0  0  0
  -23.5433  -32.1366   23.7247 O   0  0  0  0  0  0
  -28.1835  -17.2848   20.2615 C   0  0  0  0  0  0
  -27.3684  -18.4366   20.2446 C   0  0  0  0  0  0
  -27.8817  -19.6809   20.7292 C   0  0  0  0  0  0
  -29.2966  -19.8328   20.8995 C   0  0  0  0  0  0
  -29.4996  -17.2478   20.7192 C   0  0  0  0  0  0
  -30.0750  -18.5730   20.9669 C   0  0  0  0  0  0
  -29.0287  -23.3297   22.3524 C   0  0  0  0  0  0
  -28.5760  -24.8009   22.1978 C   0  0  0  0  0  0
  -24.4271  -17.4253   17.9829 C   0  0  0  0  0  0
  -23.7722  -18.5670   18.7564 C   0  0  0  0  0  0
  -25.9017  -17.4603   18.3874 C   0  0  0  0  0  0
  -24.8953  -19.2102   19.5727 C   0  0  0  0  0  0
  -29.2307  -23.8081   20.1465 C   0  0  0  0  0  0
  -25.9333  -18.1235   19.7856 C   0  0  0  0  0  0
  -28.3015  -24.9927   20.6969 C   0  0  2  0  0  0
  -26.4225  -21.8736   20.4998 C   0  0  0  0  0  0
  -26.9547  -20.7243   21.3739 C   0  0  0  0  0  0
  -29.9725  -21.3025   21.0732 C   0  0  0  0  0  0
  -29.2857  -22.6995   21.1811 N   0  0  0  0  0  0
  -29.9287  -15.8546   21.1123 N   0  0  0  0  0  0
  -29.1593  -22.8242   23.4732 O   0  0  0  0  0  0
  -31.7305  -18.6508   21.4519 Cl  0  0  0  0  0  0
  -31.5087  -12.6465   19.1988 H   0  0  0  0  0  0
  -30.4527  -11.5122   19.9693 H   0  0  0  0  0  0
  -29.8558  -11.7620   17.5337 H   0  0  0  0  0  0
  -29.6594  -13.4774   17.7435 H   0  0  0  0  0  0
  -27.9332  -11.2698   18.8930 H   0  0  0  0  0  0
  -27.4250  -12.5279   17.7947 H   0  0  0  0  0  0
  -27.6530  -14.2249   19.4811 H   0  0  0  0  0  0
  -28.7689  -12.1350   21.4043 H   0  0  0  0  0  0
  -28.4099  -13.7830   21.8359 H   0  0  0  0  0  0
  -25.2729   -9.5517   22.4763 H   0  0  0  0  0  0
  -23.9924   -7.4516   22.7536 H   0  0  0  0  0  0
  -21.0766   -8.8577   19.8987 H   0  0  0  0  0  0
  -22.3593  -10.9514   19.6164 H   0  0  0  0  0  0
  -21.1986   -7.6120   23.9675 H   0  0  0  0  0  0
  -21.1508   -6.0511   25.9084 H   0  0  0  0  0  0
  -22.0643   -2.7571   23.2812 H   0  0  0  0  0  0
  -22.3835  -11.9850   22.4935 H   0  0  0  0  0  0
  -21.1066  -13.1452   22.2551 H   0  0  0  0  0  0
  -24.5960  -15.6928   20.3545 H   0  0  0  0  0  0
  -26.1740  -15.4400   19.8350 H   0  0  0  0  0  0
  -26.7195  -32.5420   23.1066 H   0  0  0  0  0  0
  -25.0035  -33.9681   25.0389 H   0  0  0  0  0  0
  -22.7280  -31.2924   21.3787 H   0  0  0  0  0  0
  -23.3752  -35.9632   23.3289 H   0  0  0  0  0  0
  -24.3580  -36.8934   22.2072 H   0  0  0  0  0  0
  -23.7230  -37.6490   23.6671 H   0  0  0  0  0  0
  -26.1107  -31.5245   20.5993 H   0  0  0  0  0  0
  -26.8497  -30.8277   22.0084 H   0  0  0  0  0  0
  -28.1284  -28.9590   21.2342 H   0  0  0  0  0  0
  -26.0406  -25.8738   19.0697 H   0  0  0  0  0  0
  -24.0215  -27.2653   19.0151 H   0  0  0  0  0  0
  -23.7752  -30.5599   19.3902 H   0  0  0  0  0  0
  -22.7759  -29.2143   19.8567 H   0  0  0  0  0  0
  -25.1284  -36.1935   25.0830 H   0  0  0  0  0  0
  -21.0011  -28.3299   24.1361 H   0  0  0  0  0  0
  -20.5676  -26.2327   23.3614 H   0  0  0  0  0  0
  -21.6651  -26.7426   22.1202 H   0  0  0  0  0  0
  -19.6918  -25.6277   21.1257 H   0  0  0  0  0  0
  -19.6695  -27.3169   20.6724 H   0  0  0  0  0  0
  -17.4211  -26.6679   21.4024 H   0  0  0  0  0  0
  -18.0336  -26.0070   22.9012 H   0  0  0  0  0  0
  -19.7952  -30.7281   24.2250 H   0  0  0  0  0  0
  -17.5026  -31.6266   24.5155 H   0  0  0  0  0  0
  -15.5367  -30.2976   23.7659 H   0  0  0  0  0  0
  -15.8686  -28.0803   22.7085 H   0  0  0  0  0  0
  -24.5798  -30.7215   25.7751 H   0  0  0  0  0  0
  -24.8999  -32.2957   26.4938 H   0  0  0  0  0  0
  -25.7996  -30.8840   27.0190 H   0  0  0  0  0  0
  -26.2948  -29.6733   24.1236 H   0  0  0  0  0  0
  -27.3988  -29.7276   25.4769 H   0  0  0  0  0  0
  -27.8828  -30.4259   23.9510 H   0  0  0  0  0  0
  -27.2615  -33.3606   26.2106 H   0  0  0  0  0  0
  -28.3803  -32.6971   25.0295 H   0  0  0  0  0  0
  -28.0759  -31.8461   26.5360 H   0  0  0  0  0  0
  -28.2589  -38.0107   24.7517 H   0  0  0  0  0  0
  -28.1096  -36.2638   24.6257 H   0  0  0  0  0  0
  -27.2316  -37.1417   25.8864 H   0  0  0  0  0  0
  -20.9401  -29.8760   21.6809 H   0  0  0  0  0  0
  -26.0179  -38.2857   24.1387 H   0  0  0  0  0  0
  -27.7224  -16.3434   20.0310 H   0  0  0  0  0  0
  -29.3881  -25.4497   22.5314 H   0  0  0  0  0  0
  -27.7059  -25.0229   22.8143 H   0  0  0  0  0  0
  -24.2936  -17.5355   16.9047 H   0  0  0  0  0  0
  -23.9793  -16.4769   18.2812 H   0  0  0  0  0  0
  -22.9874  -18.1697   19.3985 H   0  0  0  0  0  0
  -23.3172  -19.3010   18.0923 H   0  0  0  0  0  0
  -26.4442  -18.0912   17.6796 H   0  0  0  0  0  0
  -26.3570  -16.4733   18.3281 H   0  0  0  0  0  0
  -24.5143  -19.6431   20.4961 H   0  0  0  0  0  0
  -25.3361  -19.9653   18.9287 H   0  0  0  0  0  0
  -30.2466  -24.1906   20.0119 H   0  0  0  0  0  0
  -28.8879  -23.4468   19.1770 H   0  0  0  0  0  0
  -25.5104  -17.4883   20.5587 H   0  0  0  0  0  0
  -27.2765  -24.6770   20.5277 H   0  0  0  0  0  0
  -25.4744  -21.6640   20.0249 H   0  0  0  0  0  0
  -27.1198  -22.1582   19.7158 H   0  0  0  0  0  0
  -26.2134  -22.7453   21.1199 H   0  0  0  0  0  0
  -27.4906  -21.1410   22.2240 H   0  0  0  0  0  0
  -26.1286  -20.2207   21.8738 H   0  0  0  0  0  0
  -30.7040  -21.3962   20.2724 H   0  0  0  0  0  0
  -30.5749  -21.2053   21.9797 H   0  0  0  0  0  0
  -29.1865  -15.4230   21.6429 H   0  0  0  0  0  0
  1 25  1  0  0  0
  1 30  2  0  0  0
  1 90  1  0  0  0
  2  3  1  0  0  0
  2 25  1  0  0  0
  2 93  1  0  0  0
  2 94  1  0  0  0
  3  4  1  0  0  0
  3 95  1  0  0  0
  3 96  1  0  0  0
  4  5  1  0  0  0
  4 97  1  0  0  0
  4 98  1  0  0  0
  5  6  1  0  0  0
  5 26  1  0  0  0
  5 99  1  0  0  0
  6 25  1  0  0  0
  6100  1  0  0  0
  6101  1  0  0  0
  7  8  2  0  0  0
  7 26  1  0  0  0
  7 29  1  0  0  0
  8  9  1  0  0  0
  8 22  1  0  0  0
  9 10  1  0  0  0
  9 27  2  0  0  0
 10 11  2  0  0  0
 10 15  1  0  0  0
 11 12  1  0  0  0
 11102  1  0  0  0
 12 13  2  0  0  0
 12103  1  0  0  0
 13 14  1  0  0  0
 13 31  1  0  0  0
 14 15  2  0  0  0
 14104  1  0  0  0
 15105  1  0  0  0
 16 17  2  0  0  0
 16 21  1  0  0  0
 16 31  1  0  0  0
 17 18  1  0  0  0
 17106  1  0  0  0
 18 19  2  0  0  0
 18107  1  0  0  0
 19 20  1  0  0  0
 19 24  1  0  0  0
 20 21  2  0  0  0
 20108  1  0  0  0
 21 23  1  0  0  0
 22 28  1  0  0  0
 22 32  2  0  0  0
 26 27  1  0  0  0
 28109  1  0  0  0
 28110  1  0  0  0
 29111  1  0  0  0
 29112  1  0  0  0
 33 34  1  0  0  0
 33 66  1  0  0  0
 33 70  2  0  0  0
 34 36  1  0  0  0
 34 59  1  0  0  0
 34113  1  0  0  0
 35 44  2  0  0  0
 35 45  1  0  0  0
 35 68  1  0  0  0
 36 56  1  0  0  0
 36114  1  0  0  0
 37 39  1  0  0  0
 37 47  1  0  0  0
 37 66  1  0  0  0
 37115  1  0  0  0
 38 43  2  0  0  0
 38 46  1  0  0  0
 38 47  1  0  0  0
 39 64  1  0  0  0
 39 67  2  0  0  0
 40 52  1  0  0  0
 40 53  2  0  0  0
 40 58  1  0  0  0
 41116  1  0  0  0
 41117  1  0  0  0
 41118  1  0  0  0
 41 48  1  0  0  0
 42 43  1  0  0  0
 42 66  1  0  0  0
 42119  1  0  0  0
 42120  1  0  0  0
 43 44  1  0  0  0
 44121  1  0  0  0
 45 46  2  0  0  0
 45122  1  0  0  0
 46123  1  0  0  0
 47124  1  0  0  0
 47125  1  0  0  0
 48 56  1  0  0  0
 48 65  1  0  0  0
 48126  1  0  0  0
 49 50  1  0  0  0
 49 53  1  0  0  0
 49 64  1  0  0  0
 49127  1  0  0  0
 50 51  1  0  0  0
 50128  1  0  0  0
 50129  1  0  0  0
 51 52  1  0  0  0
 51130  1  0  0  0
 51131  1  0  0  0
 52132  1  0  0  0
 52133  1  0  0  0
 53 54  1  0  0  0
 54 55  2  0  0  0
 54134  1  0  0  0
 55 57  1  0  0  0
 55135  1  0  0  0
 56 69  2  0  0  0
 57 58  2  0  0  0
 57136  1  0  0  0
 58137  1  0  0  0
 59 60  1  0  0  0
 59 61  1  0  0  0
 59 62  1  0  0  0
 60138  1  0  0  0
 60139  1  0  0  0
 60140  1  0  0  0
 61141  1  0  0  0
 61142  1  0  0  0
 61143  1  0  0  0
 62144  1  0  0  0
 62145  1  0  0  0
 62146  1  0  0  0
 63 65  1  0  0  0
 63147  1  0  0  0
 63148  1  0  0  0
 63149  1  0  0  0
 64150  1  0  0  0
 65151  1  0  0  0
 68 85  1  0  0  0
 71 72  2  0  0  0
 71 75  1  0  0  0
 71152  1  0  0  0
 72 73  1  0  0  0
 72 84  1  0  0  0
 73 74  2  0  0  0
 73 87  1  0  0  0
 74 76  1  0  0  0
 74 88  1  0  0  0
 75 76  2  0  0  0
 75 90  1  0  0  0
 76 92  1  0  0  0
 77 78  1  0  0  0
 77 89  1  0  0  0
 77 91  2  0  0  0
 78 85  1  0  0  0
 78153  1  0  0  0
 78154  1  0  0  0
 79 80  1  0  0  0
 79 81  1  0  0  0
 79155  1  0  0  0
 79156  1  0  0  0
 80 82  1  0  0  0
 80157  1  0  0  0
 80158  1  0  0  0
 81 84  1  0  0  0
 81159  1  0  0  0
 81160  1  0  0  0
 82 84  1  0  0  0
 82161  1  0  0  0
 82162  1  0  0  0
 83 85  1  0  0  0
 83 89  1  0  0  0
 83163  1  0  0  0
 83164  1  0  0  0
 84165  1  0  0  0
 85166  1  0  0  0
 86 87  1  0  0  0
 86167  1  0  0  0
 86168  1  0  0  0
 86169  1  0  0  0
 87170  1  0  0  0
 87171  1  0  0  0
 88 89  1  0  0  0
 88172  1  0  0  0
 88173  1  0  0  0
 90174  1  0  0  0
M  ISO  4   1 100  68 101  85 101  90 100
M  END
> <chiral flag>
0

> <version>
0

> <s_m_source_file>
/data/baiqing/PycharmProjects/Reinvent-master-3.2/result/LINK_invent/BTK/process_docking_weight1_custom_product_contain_oxygen_bond_distance_aromatic_linkinvent_7_9_3/rearranged_h_0031.sdf

> <i_m_source_file_index>
17

> <r_mmod_Potential_Energy-OPLS-2005>
481.043640136719

> <r_mmod_Stretch_Energy-OPLS-2005>
164.893493652344

> <r_mmod_Bend_Energy-OPLS-2005>
317.940734863281

> <r_mmod_Torsional_Energy-OPLS-2005>
388.10595703125

> <r_mmod_Improper_Torsional_Energy-OPLS-2005>
14.3060445785522

> <r_mmod_Van_der_Waal_Energy-OPLS-2005>
143.206771850586

> <r_mmod_Electrostatic_Energy-OPLS-2005>
-422.097747802734

> <r_mmod_Solvation_Energy-OPLS-2005>
-221.913269042969

> <b_mmod_Minimization_Converged-OPLS-2005>
0

> <r_mmod_RMS_Derivative-OPLS-2005>
6.11149263381958

$$$$
17
                    3D
 Structure written by MMmdl.
156164  0  0  1  0            999 V2000
  -27.3939  -17.3584   20.9048 C   0  0  0  0  0  0
  -29.3193  -14.8772   19.7700 C   0  0  0  0  0  0
  -29.2902  -13.5414   18.7514 C   0  0  0  0  0  0
  -28.2255  -12.5142   19.1167 C   0  0  0  0  0  0
  -27.3004  -13.3976   19.9292 C   0  0  2  0  0  0
  -27.8313  -14.2754   21.1144 C   0  0  0  0  0  0
  -25.0263  -13.7937   20.5316 C   0  0  0  0  0  0
  -24.0285  -12.9966   20.9331 C   0  0  0  0  0  0
  -24.5472  -11.6647   20.8981 C   0  0  0  0  0  0
  -23.8573  -10.4027   21.0581 C   0  0  0  0  0  0
  -24.3359   -9.4058   21.9296 C   0  0  0  0  0  0
  -23.6153   -8.2059   22.0809 C   0  0  0  0  0  0
  -22.4148   -8.0072   21.3573 C   0  0  0  0  0  0
  -21.9679   -8.9961   20.4663 C   0  0  0  0  0  0
  -22.6878  -10.1866   20.3107 C   0  0  0  0  0  0
  -21.6786   -6.0628   22.5295 C   0  0  0  0  0  0
  -21.3969   -6.5595   23.8204 C   0  0  0  0  0  0
  -21.3626   -5.6777   24.9185 C   0  0  0  0  0  0
  -21.6043   -4.3036   24.7258 C   0  0  0  0  0  0
  -21.8836   -3.8097   23.4391 C   0  0  0  0  0  0
  -21.9188   -4.6884   22.3434 C   0  0  0  0  0  0
  -22.6503  -13.4790   21.2064 C   0  0  0  0  0  0
  -22.1675   -4.2095   21.1005 F   0  0  0  0  0  0
  -21.5620   -3.4526   25.7773 F   0  0  0  0  0  0
  -27.9668  -15.7047   20.5409 N   0  0  0  0  0  0
  -26.0659  -12.9327   20.3089 N   0  0  0  0  0  0
  -25.8331  -11.6447   20.5845 N   0  0  0  0  0  0
  -21.9435  -12.7872   22.0821 N   0  0  0  0  0  0
  -25.1140  -15.1693   20.3199 N   0  0  0  0  0  0
  -28.7483  -17.3892   20.7726 O   0  0  0  0  0  0
  -21.6556   -6.8687   21.4237 O   0  0  0  0  0  0
  -22.2305  -14.5159   20.6920 O   0  0  0  0  0  0
  -24.6474  -32.0859   22.9893 C   0  0  0  0  0  0
  -25.9255  -32.5632   23.7708 C   0  0  1  0  0  0
  -26.3805  -27.5195   21.1804 C   0  0  0  0  0  0
  -25.5987  -33.9112   24.2128 N   0  0  0  0  0  0
  -23.5171  -30.7729   21.0700 C   0  0  2  0  0  0
  -25.0456  -29.2578   19.7368 C   0  0  0  0  0  0
  -23.3505  -29.4954   21.8242 C   0  0  0  0  0  0
  -19.3609  -25.8182   23.4888 C   0  0  0  0  0  0
  -24.1457  -36.7641   23.2658 C   0  0  0  0  0  0
  -26.0366  -31.1397   21.1158 C   0  0  0  0  0  0
  -26.0930  -29.7189   20.5629 C   0  0  0  0  0  0
  -26.9588  -28.7870   21.1379 C   0  0  0  0  0  0
  -25.8576  -27.0033   19.9677 C   0  0  0  0  0  0
  -25.0299  -27.9139   19.2912 C   0  0  0  0  0  0
  -23.8340  -30.1834   19.6703 C   0  0  0  0  0  0
  -25.4067  -36.3449   24.0361 C   0  0  1  0  0  0
  -21.9805  -27.1641   22.6267 C   0  0  2  0  0  0
  -22.3700  -26.4773   21.1315 C   0  0  0  0  0  0
  -21.4424  -25.7417   19.9888 C   0  0  0  0  0  0
  -20.2860  -24.7596   20.5355 C   0  0  0  0  0  0
  -20.3082  -27.0205   23.9134 C   0  0  0  0  0  0
  -19.5810  -28.2113   24.7159 C   0  0  0  0  0  0
  -18.3762  -28.9842   24.4138 C   0  0  0  0  0  0
  -25.9073  -34.9981   23.5035 C   0  0  0  0  0  0
  -17.4721  -28.1285   23.8017 C   0  0  0  0  0  0
  -17.9330  -26.6978   23.6168 C   0  0  0  0  0  0
  -26.4392  -31.7062   25.0079 C   0  0  0  0  0  0
  -25.3814  -31.4081   26.0910 C   0  0  0  0  0  0
  -27.0477  -30.3713   24.5384 C   0  0  0  0  0  0
  -27.5987  -32.4655   25.7003 C   0  0  0  0  0  0
  -27.5608  -37.1939   24.8436 C   0  0  0  0  0  0
  -22.5370  -28.4076   21.6581 N   0  0  0  0  0  0
  -26.4261  -37.4090   23.9493 N   0  0  0  0  0  0
  -24.7234  -31.5186   21.7134 N   0  0  0  0  0  0
  -24.1488  -29.5161   22.6704 O   0  0  0  0  0  0
  -25.7746  -27.0626   22.4221 O   0  0  0  0  0  0
  -26.5619  -34.9523   22.4582 O   0  0  0  0  0  0
  -23.5594  -32.1982   23.5859 O   0  0  0  0  0  0
  -18.4193  -25.5518   21.4236 C   0  0  0  0  0  0
  -18.7574  -23.8784   22.0105 C   0  0  0  0  0  0
  -19.9360  -26.5957   21.5860 C   0  0  0  0  0  0
  -21.9201  -22.8582   22.0168 C   0  0  0  0  0  0
  -20.1967  -22.8536   22.1733 C   0  0  0  0  0  0
  -21.3163  -24.7358   22.4784 C   0  0  0  0  0  0
  -23.8209  -20.6991   21.7625 C   0  0  0  0  0  0
  -20.1000  -28.5459   22.0505 C   0  0  0  0  0  0
  -22.7813  -28.6014   24.3432 C   0  0  0  0  0  0
  -24.5710  -27.5394   23.7481 C   0  0  0  0  0  0
  -25.8358  -18.9055   21.2551 N   0  0  0  0  0  0
  -21.2663  -29.3354   23.4161 N   0  3  0  0  0  0
  -19.6772  -21.2432   22.5007 Cl  0  0  0  0  0  0
  -22.0192  -24.6599   24.1067 Cl  0  0  0  0  0  0
  -29.7564  -15.6561   19.1478 H   0  0  0  0  0  0
  -30.1252  -14.7420   20.4936 H   0  0  0  0  0  0
  -30.2734  -13.0631   18.7075 H   0  0  0  0  0  0
  -29.0871  -13.8870   17.7351 H   0  0  0  0  0  0
  -28.6318  -11.7075   19.7297 H   0  0  0  0  0  0
  -27.7387  -12.0851   18.2384 H   0  0  0  0  0  0
  -27.0024  -14.0789   19.1259 H   0  0  0  0  0  0
  -28.6616  -13.8246   21.6672 H   0  0  0  0  0  0
  -27.1066  -14.3739   21.9253 H   0  0  0  0  0  0
  -25.2477   -9.5704   22.4868 H   0  0  0  0  0  0
  -23.9915   -7.4486   22.7540 H   0  0  0  0  0  0
  -21.0614   -8.8387   19.8976 H   0  0  0  0  0  0
  -22.3271  -10.9398   19.6230 H   0  0  0  0  0  0
  -21.1950   -7.6106   23.9677 H   0  0  0  0  0  0
  -21.1416   -6.0520   25.9072 H   0  0  0  0  0  0
  -22.0643   -2.7565   23.2892 H   0  0  0  0  0  0
  -22.3194  -11.9510   22.5049 H   0  0  0  0  0  0
  -21.0133  -13.0915   22.3291 H   0  0  0  0  0  0
  -24.2607  -15.7161   20.3101 H   0  0  0  0  0  0
  -25.8439  -15.5335   19.7233 H   0  0  0  0  0  0
  -26.7816  -32.6672   23.1119 H   0  0  0  0  0  0
  -24.9852  -34.0036   25.0085 H   0  0  0  0  0  0
  -22.6170  -31.3883   21.0763 H   0  0  0  0  0  0
  -23.3704  -35.9976   23.3237 H   0  0  0  0  0  0
  -24.3588  -36.9369   22.2097 H   0  0  0  0  0  0
  -23.7236  -37.6825   23.6747 H   0  0  0  0  0  0
  -26.2510  -31.8286   20.2989 H   0  0  0  0  0  0
  -26.8980  -31.2189   21.7686 H   0  0  0  0  0  0
  -27.5232  -29.1159   21.9991 H   0  0  0  0  0  0
  -25.5804  -25.9617   19.8844 H   0  0  0  0  0  0
  -24.2787  -27.5534   18.6029 H   0  0  0  0  0  0
  -24.0655  -30.9902   18.9712 H   0  0  0  0  0  0
  -22.9792  -29.6522   19.2471 H   0  0  0  0  0  0
  -25.1245  -36.2190   25.0842 H   0  0  0  0  0  0
  -22.7218  -26.6266   23.1160 H   0  0  0  0  0  0
  -23.1055  -25.7076   21.3917 H   0  0  0  0  0  0
  -23.1556  -26.8493   20.4692 H   0  0  0  0  0  0
  -22.1027  -25.1584   19.3419 H   0  0  0  0  0  0
  -21.0236  -26.4914   19.3110 H   0  0  0  0  0  0
  -19.5767  -24.7609   19.6864 H   0  0  0  0  0  0
  -20.7092  -23.8064   20.2236 H   0  0  0  0  0  0
  -20.2016  -28.7172   25.4443 H   0  0  0  0  0  0
  -18.1199  -29.9400   24.8528 H   0  0  0  0  0  0
  -16.4339  -28.4092   23.6893 H   0  0  0  0  0  0
  -17.0703  -26.0870   23.3931 H   0  0  0  0  0  0
  -24.5557  -30.8268   25.6982 H   0  0  0  0  0  0
  -24.9701  -32.3266   26.5121 H   0  0  0  0  0  0
  -25.8109  -30.8358   26.9156 H   0  0  0  0  0  0
  -27.4127  -29.7816   25.3821 H   0  0  0  0  0  0
  -27.8911  -30.5444   23.8685 H   0  0  0  0  0  0
  -26.3267  -29.7669   23.9985 H   0  0  0  0  0  0
  -27.2742  -33.4125   26.1344 H   0  0  0  0  0  0
  -28.3872  -32.7005   24.9826 H   0  0  0  0  0  0
  -28.0485  -31.8824   26.5054 H   0  0  0  0  0  0
  -28.2520  -38.0337   24.7643 H   0  0  0  0  0  0
  -28.1194  -36.2899   24.5956 H   0  0  0  0  0  0
  -27.2402  -37.1252   25.8846 H   0  0  0  0  0  0
  -22.0934  -28.4096   20.7495 H   0  0  0  0  0  0
  -26.0167  -38.3156   24.1566 H   0  0  0  0  0  0
  -17.4295  -25.9563   21.2543 H   0  0  0  0  0  0
  -17.8411  -23.3314   22.1688 H   0  0  0  0  0  0
  -23.0487  -19.9778   21.5041 H   0  0  0  0  0  0
  -23.9500  -20.6249   22.8424 H   0  0  0  0  0  0
  -19.1053  -28.9712   22.0960 H   0  0  0  0  0  0
  -20.3379  -29.0348   21.0999 H   0  0  0  0  0  0
  -23.1140  -29.4363   24.9532 H   0  0  0  0  0  0
  -22.3764  -27.9712   25.1347 H   0  0  0  0  0  0
  -24.4417  -26.5597   24.2129 H   0  0  0  0  0  0
  -25.2711  -27.9747   24.4572 H   0  0  0  0  0  0
  -26.5487  -19.6194   21.2772 H   0  0  0  0  0  0
  -21.5400  -30.2453   23.0911 H   0  0  0  0  0  0
  -20.6082  -29.5200   24.1581 H   0  0  0  0  0  0
  1 25  1  0  0  0
  1 30  2  0  0  0
  1 81  1  0  0  0
  2  3  1  0  0  0
  2 25  1  0  0  0
  2 85  1  0  0  0
  2 86  1  0  0  0
  3  4  1  0  0  0
  3 87  1  0  0  0
  3 88  1  0  0  0
  4  5  1  0  0  0
  4 89  1  0  0  0
  4 90  1  0  0  0
  5  6  1  0  0  0
  5 26  1  0  0  0
  5 91  1  0  0  0
  6 25  1  0  0  0
  6 92  1  0  0  0
  6 93  1  0  0  0
  7  8  2  0  0  0
  7 26  1  0  0  0
  7 29  1  0  0  0
  8  9  1  0  0  0
  8 22  1  0  0  0
  9 10  1  0  0  0
  9 27  2  0  0  0
 10 11  2  0  0  0
 10 15  1  0  0  0
 11 12  1  0  0  0
 11 94  1  0  0  0
 12 13  2  0  0  0
 12 95  1  0  0  0
 13 14  1  0  0  0
 13 31  1  0  0  0
 14 15  2  0  0  0
 14 96  1  0  0  0
 15 97  1  0  0  0
 16 17  2  0  0  0
 16 21  1  0  0  0
 16 31  1  0  0  0
 17 18  1  0  0  0
 17 98  1  0  0  0
 18 19  2  0  0  0
 18 99  1  0  0  0
 19 20  1  0  0  0
 19 24  1  0  0  0
 20 21  2  0  0  0
 20100  1  0  0  0
 21 23  1  0  0  0
 22 28  1  0  0  0
 22 32  2  0  0  0
 26 27  1  0  0  0
 28101  1  0  0  0
 28102  1  0  0  0
 29103  1  0  0  0
 29104  1  0  0  0
 33 34  1  0  0  0
 33 66  1  0  0  0
 33 70  2  0  0  0
 34 36  1  0  0  0
 34 59  1  0  0  0
 34105  1  0  0  0
 35 44  2  0  0  0
 35 45  1  0  0  0
 35 68  1  0  0  0
 36 56  1  0  0  0
 36106  1  0  0  0
 37 39  1  0  0  0
 37 47  1  0  0  0
 37 66  1  0  0  0
 37107  1  0  0  0
 38 43  2  0  0  0
 38 46  1  0  0  0
 38 47  1  0  0  0
 39 64  1  0  0  0
 39 67  2  0  0  0
 40 52  1  0  0  0
 40 53  2  0  0  0
 40 58  1  0  0  0
 41108  1  0  0  0
 41109  1  0  0  0
 41110  1  0  0  0
 41 48  1  0  0  0
 42 43  1  0  0  0
 42 66  1  0  0  0
 42111  1  0  0  0
 42112  1  0  0  0
 43 44  1  0  0  0
 44113  1  0  0  0
 45 46  2  0  0  0
 45114  1  0  0  0
 46115  1  0  0  0
 47116  1  0  0  0
 47117  1  0  0  0
 48 56  1  0  0  0
 48 65  1  0  0  0
 48118  1  0  0  0
 49 50  1  0  0  0
 49 53  1  0  0  0
 49 64  1  0  0  0
 49119  1  0  0  0
 50 51  1  0  0  0
 50120  1  0  0  0
 50121  1  0  0  0
 51 52  1  0  0  0
 51122  1  0  0  0
 51123  1  0  0  0
 52124  1  0  0  0
 52125  1  0  0  0
 53 54  1  0  0  0
 54 55  2  0  0  0
 54126  1  0  0  0
 55 57  1  0  0  0
 55127  1  0  0  0
 56 69  2  0  0  0
 57 58  2  0  0  0
 57128  1  0  0  0
 58129  1  0  0  0
 59 60  1  0  0  0
 59 61  1  0  0  0
 59 62  1  0  0  0
 60130  1  0  0  0
 60131  1  0  0  0
 60132  1  0  0  0
 61133  1  0  0  0
 61134  1  0  0  0
 61135  1  0  0  0
 62136  1  0  0  0
 62137  1  0  0  0
 62138  1  0  0  0
 63 65  1  0  0  0
 63139  1  0  0  0
 63140  1  0  0  0
 63141  1  0  0  0
 64142  1  0  0  0
 65143  1  0  0  0
 68 80  1  0  0  0
 71 72  2  0  0  0
 71 73  1  0  0  0
 71144  1  0  0  0
 72 75  1  0  0  0
 72145  1  0  0  0
 73 76  2  0  0  0
 73 78  1  0  0  0
 74 75  2  0  0  0
 74 76  1  0  0  0
 74 77  1  0  0  0
 75 83  1  0  0  0
 76 84  1  0  0  0
 77 81  1  0  0  0
 77146  1  0  0  0
 77147  1  0  0  0
 78 82  1  0  0  0
 78148  1  0  0  0
 78149  1  0  0  0
 79 80  1  0  0  0
 79 82  1  0  0  0
 79150  1  0  0  0
 79151  1  0  0  0
 80152  1  0  0  0
 80153  1  0  0  0
 81154  1  0  0  0
 82155  1  0  0  0
 82156  1  0  0  0
M  CHG  1  82   1
M  ISO  4   1 100  68 101  80 101  81 100
M  END
> <chiral flag>
0

> <version>
0

> <s_m_source_file>
/data/baiqing/PycharmProjects/Reinvent-master-3.2/result/LINK_invent/BTK/process_docking_weight1_custom_product_contain_oxygen_bond_distance_aromatic_linkinvent_7_9_3/rearranged_h_0031.sdf

> <i_m_source_file_index>
18

> <r_mmod_Potential_Energy-OPLS-2005>
39899.1953125

> <r_mmod_Stretch_Energy-OPLS-2005>
18303.626953125

> <r_mmod_Bend_Energy-OPLS-2005>
2980.22607421875

> <r_mmod_Torsional_Energy-OPLS-2005>
872.737426757812

> <r_mmod_Improper_Torsional_Energy-OPLS-2005>
92.0731887817383

> <r_mmod_Van_der_Waal_Energy-OPLS-2005>
4374.64892578125

> <r_mmod_Electrostatic_Energy-OPLS-2005>
-356.410797119141

> <r_mmod_Solvation_Energy-OPLS-2005>
-408.954315185547

> <b_mmod_Minimization_Converged-OPLS-2005>
0

> <r_mmod_RMS_Derivative-OPLS-2005>
7.74933671951294

$$$$
18
                    3D
 Structure written by MMmdl.
167176  0  0  1  0            999 V2000
  -30.6067  -14.6665   20.4957 C   0  0  0  0  0  0
  -30.4458  -12.4076   19.4577 C   0  0  0  0  0  0
  -29.5136  -12.5143   18.2282 C   0  0  0  0  0  0
  -28.0369  -12.3423   18.6390 C   0  0  0  0  0  0
  -27.6551  -13.2164   19.8636 C   0  0  2  0  0  0
  -28.7014  -13.0729   20.9932 C   0  0  0  0  0  0
  -25.2563  -13.8170   20.5657 C   0  0  0  0  0  0
  -24.1830  -13.0436   20.9161 C   0  0  0  0  0  0
  -24.6394  -11.6908   20.8722 C   0  0  0  0  0  0
  -23.9065  -10.4288   21.0387 C   0  0  0  0  0  0
  -24.3614   -9.4204   21.9165 C   0  0  0  0  0  0
  -23.6291   -8.2238   22.0740 C   0  0  0  0  0  0
  -22.4277   -8.0269   21.3530 C   0  0  0  0  0  0
  -21.9907   -9.0244   20.4638 C   0  0  0  0  0  0
  -22.7231  -10.2125   20.3041 C   0  0  0  0  0  0
  -21.6852   -6.0726   22.5270 C   0  0  0  0  0  0
  -21.4012   -6.5630   23.8204 C   0  0  0  0  0  0
  -21.3662   -5.6780   24.9169 C   0  0  0  0  0  0
  -21.6054   -4.3045   24.7216 C   0  0  0  0  0  0
  -21.8821   -3.8135   23.4335 C   0  0  0  0  0  0
  -21.9188   -4.6953   22.3393 C   0  0  0  0  0  0
  -22.7845  -13.5230   21.1826 C   0  0  0  0  0  0
  -22.1657   -4.2135   21.0971 F   0  0  0  0  0  0
  -21.5639   -3.4529   25.7732 F   0  0  0  0  0  0
  -30.0153  -13.4292   20.4339 N   0  0  0  0  0  0
  -26.2997  -12.9350   20.3308 N   0  0  0  0  0  0
  -25.9327  -11.6508   20.5741 N   0  0  0  0  0  0
  -22.0489  -12.8231   22.0399 N   0  0  0  0  0  0
  -25.4275  -15.1891   20.4067 N   0  0  0  0  0  0
  -31.7609  -14.8434   20.0924 O   0  0  0  0  0  0
  -21.6639   -6.8868   21.4232 O   0  0  0  0  0  0
  -22.3519  -14.5521   20.6659 O   0  0  0  0  0  0
  -24.6262  -31.8582   23.2010 C   0  0  0  0  0  0
  -25.9109  -32.4766   23.8342 C   0  0  1  0  0  0
  -27.2218  -27.3057   20.1258 C   0  0  0  0  0  0
  -25.5911  -33.8567   24.2268 N   0  0  0  0  0  0
  -23.4189  -30.4832   21.5423 C   0  0  2  0  0  0
  -24.8661  -28.9355   20.1080 C   0  0  0  0  0  0
  -22.7468  -29.4626   22.4916 C   0  0  0  0  0  0
  -18.0283  -28.1369   22.8483 C   0  0  0  0  0  0
  -24.1488  -36.7304   23.2644 C   0  0  0  0  0  0
  -25.9615  -30.7855   21.3748 C   0  0  0  0  0  0
  -26.0338  -29.4118   20.7174 C   0  0  0  0  0  0
  -27.2111  -28.6075   20.7190 C   0  0  0  0  0  0
  -26.0345  -26.8910   19.4770 C   0  0  0  0  0  0
  -24.8697  -27.6816   19.4795 C   0  0  0  0  0  0
  -23.6339  -29.8162   20.1582 C   0  0  0  0  0  0
  -25.4110  -36.3079   24.0334 C   0  0  1  0  0  0
  -20.5880  -28.3680   23.1273 C   0  0  2  0  0  0
  -20.6761  -26.9403   22.5402 C   0  0  0  0  0  0
  -19.5745  -26.6370   21.5200 C   0  0  0  0  0  0
  -18.1925  -26.7911   22.1618 C   0  0  0  0  0  0
  -19.1534  -28.8841   23.2873 C   0  0  0  0  0  0
  -18.9465  -30.1440   23.8896 C   0  0  0  0  0  0
  -17.6467  -30.6574   24.0555 C   0  0  0  0  0  0
  -25.9049  -34.9446   23.5103 C   0  0  0  0  0  0
  -16.5356  -29.9074   23.6323 C   0  0  0  0  0  0
  -16.7271  -28.6482   23.0360 C   0  0  0  0  0  0
  -26.4485  -31.6585   25.0724 C   0  0  0  0  0  0
  -25.3732  -31.3735   26.1466 C   0  0  0  0  0  0
  -27.0336  -30.3007   24.6202 C   0  0  0  0  0  0
  -27.6034  -32.4336   25.7496 C   0  0  0  0  0  0
  -27.5581  -37.1800   24.8460 C   0  0  0  0  0  0
  -21.4183  -29.3042   22.3667 N   0  0  0  0  0  0
  -26.4284  -37.3777   23.9408 N   0  0  0  0  0  0
  -24.6875  -31.0592   22.0959 N   0  0  0  0  0  0
  -23.4198  -28.8168   23.2992 O   0  0  0  0  0  0
  -28.3416  -26.4583   20.2051 O   0  0  0  0  0  0
  -26.5620  -34.8917   22.4679 O   0  0  0  0  0  0
  -23.5427  -32.1379   23.7341 O   0  0  0  0  0  0
  -29.7021  -19.4310   21.6567 C   0  0  0  0  0  0
  -29.9925  -18.0386   21.7474 C   0  0  0  0  0  0
  -29.1763  -20.0366   20.4827 C   0  0  0  0  0  0
  -29.0416  -19.1577   19.3544 C   0  0  0  0  0  0
  -29.3616  -17.7493   19.4404 C   0  0  0  0  0  0
  -29.8072  -17.1498   20.6603 C   0  0  0  0  0  0
  -29.4961  -23.2140   18.8544 C   0  0  0  0  0  0
  -30.3843  -22.7308   17.9635 C   0  0  0  0  0  0
  -28.6631  -24.4887   18.6756 C   0  0  0  0  0  0
  -28.9846  -24.0301   21.0120 C   0  0  0  0  0  0
  -28.1943  -24.9823   20.0508 C   0  0  1  0  0  0
  -28.4753  -19.6941   18.0408 C   0  0  0  0  0  0
  -29.1374  -16.8403   18.2353 C   0  0  0  0  0  0
  -31.3932  -21.6195   18.1829 C   0  0  0  0  0  0
  -28.5731  -21.5122   20.5639 C   0  0  0  0  0  0
  -29.7973  -15.6993   20.9008 N   0  0  0  0  0  0
  -29.3917  -22.7697   20.2774 N   0  3  1  0  0  0
  -31.4873  -12.5383   19.1570 H   0  0  0  0  0  0
  -30.3851  -11.4125   19.9020 H   0  0  0  0  0  0
  -29.7857  -11.7641   17.4845 H   0  0  0  0  0  0
  -29.6465  -13.4857   17.7481 H   0  0  0  0  0  0
  -27.8813  -11.2892   18.8763 H   0  0  0  0  0  0
  -27.3789  -12.5622   17.7964 H   0  0  0  0  0  0
  -27.6718  -14.2501   19.5200 H   0  0  0  0  0  0
  -28.7203  -12.0479   21.3672 H   0  0  0  0  0  0
  -28.4424  -13.6946   21.8513 H   0  0  0  0  0  0
  -25.2759   -9.5689   22.4738 H   0  0  0  0  0  0
  -24.0001   -7.4636   22.7466 H   0  0  0  0  0  0
  -21.0826   -8.8758   19.8954 H   0  0  0  0  0  0
  -22.3671  -10.9659   19.6153 H   0  0  0  0  0  0
  -21.2003   -7.6138   23.9707 H   0  0  0  0  0  0
  -21.1490   -6.0507   25.9072 H   0  0  0  0  0  0
  -22.0603   -2.7595   23.2836 H   0  0  0  0  0  0
  -22.4104  -11.9918   22.4830 H   0  0  0  0  0  0
  -21.1100  -13.1258   22.2582 H   0  0  0  0  0  0
  -24.6602  -15.8441   20.5118 H   0  0  0  0  0  0
  -26.2817  -15.6302   20.0905 H   0  0  0  0  0  0
  -26.7174  -32.5423   23.1083 H   0  0  0  0  0  0
  -25.0022  -33.9701   25.0389 H   0  0  0  0  0  0
  -22.7127  -31.3039   21.3981 H   0  0  0  0  0  0
  -23.3743  -35.9645   23.3289 H   0  0  0  0  0  0
  -24.3584  -36.8946   22.2062 H   0  0  0  0  0  0
  -23.7247  -37.6504   23.6681 H   0  0  0  0  0  0
  -26.0958  -31.5482   20.6061 H   0  0  0  0  0  0
  -26.8417  -30.8337   22.0049 H   0  0  0  0  0  0
  -28.1022  -28.9654   21.2173 H   0  0  0  0  0  0
  -25.9707  -25.9429   18.9656 H   0  0  0  0  0  0
  -23.9777  -27.3132   18.9918 H   0  0  0  0  0  0
  -23.7474  -30.5895   19.3978 H   0  0  0  0  0  0
  -22.7549  -29.2423   19.8584 H   0  0  0  0  0  0
  -25.1287  -36.1925   25.0825 H   0  0  0  0  0  0
  -20.9984  -28.3255   24.1393 H   0  0  0  0  0  0
  -20.5639  -26.2302   23.3605 H   0  0  0  0  0  0
  -21.6636  -26.7404   22.1217 H   0  0  0  0  0  0
  -19.6902  -25.6279   21.1231 H   0  0  0  0  0  0
  -19.6681  -27.3173   20.6723 H   0  0  0  0  0  0
  -17.4195  -26.6659   21.4018 H   0  0  0  0  0  0
  -18.0332  -26.0045   22.9009 H   0  0  0  0  0  0
  -19.7949  -30.7237   24.2279 H   0  0  0  0  0  0
  -17.5032  -31.6263   24.5146 H   0  0  0  0  0  0
  -15.5360  -30.2984   23.7639 H   0  0  0  0  0  0
  -15.8669  -28.0792   22.7099 H   0  0  0  0  0  0
  -24.5881  -30.7103   25.7807 H   0  0  0  0  0  0
  -24.8959  -32.2916   26.4904 H   0  0  0  0  0  0
  -25.8072  -30.8901   27.0229 H   0  0  0  0  0  0
  -26.2913  -29.6748   24.1233 H   0  0  0  0  0  0
  -27.4021  -29.7271   25.4714 H   0  0  0  0  0  0
  -27.8787  -30.4271   23.9434 H   0  0  0  0  0  0
  -27.2611  -33.3620   26.2074 H   0  0  0  0  0  0
  -28.3840  -32.6926   25.0333 H   0  0  0  0  0  0
  -28.0710  -31.8476   26.5415 H   0  0  0  0  0  0
  -28.2586  -38.0106   24.7506 H   0  0  0  0  0  0
  -28.1084  -36.2637   24.6270 H   0  0  0  0  0  0
  -27.2307  -37.1429   25.8866 H   0  0  0  0  0  0
  -20.9353  -29.8784   21.6899 H   0  0  0  0  0  0
  -26.0167  -38.2856   24.1401 H   0  0  0  0  0  0
  -29.8076  -20.0266   22.5528 H   0  0  0  0  0  0
  -30.2996  -17.6409   22.7050 H   0  0  0  0  0  0
  -30.4401  -23.2082   16.9942 H   0  0  0  0  0  0
  -27.8167  -24.3119   18.0115 H   0  0  0  0  0  0
  -29.2940  -25.2459   18.2102 H   0  0  0  0  0  0
  -28.4390  -23.8322   21.9352 H   0  0  0  0  0  0
  -29.9042  -24.5377   21.3040 H   0  0  0  0  0  0
  -27.1553  -24.6850   20.1891 H   0  0  0  0  0  0
  -28.1935  -20.7427   18.0679 H   0  0  0  0  0  0
  -27.5891  -19.1306   17.7481 H   0  0  0  0  0  0
  -29.2111  -19.5988   17.2437 H   0  0  0  0  0  0
  -29.2202  -17.3585   17.2821 H   0  0  0  0  0  0
  -28.1495  -16.3840   18.2881 H   0  0  0  0  0  0
  -29.8816  -16.0480   18.1947 H   0  0  0  0  0  0
  -31.3290  -21.1678   19.1706 H   0  0  0  0  0  0
  -32.4023  -22.0150   18.0654 H   0  0  0  0  0  0
  -31.2573  -20.8361   17.4373 H   0  0  0  0  0  0
  -28.2282  -21.6033   21.5942 H   0  0  0  0  0  0
  -27.6443  -21.5651   19.9966 H   0  0  0  0  0  0
  -28.9375  -15.3665   21.3080 H   0  0  0  0  0  0
  -30.3153  -22.5494   20.6183 H   0  0  0  0  0  0
  1 25  1  0  0  0
  1 30  2  0  0  0
  1 86  1  0  0  0
  2  3  1  0  0  0
  2 25  1  0  0  0
  2 88  1  0  0  0
  2 89  1  0  0  0
  3  4  1  0  0  0
  3 90  1  0  0  0
  3 91  1  0  0  0
  4  5  1  0  0  0
  4 92  1  0  0  0
  4 93  1  0  0  0
  5  6  1  0  0  0
  5 26  1  0  0  0
  5 94  1  0  0  0
  6 25  1  0  0  0
  6 95  1  0  0  0
  6 96  1  0  0  0
  7  8  2  0  0  0
  7 26  1  0  0  0
  7 29  1  0  0  0
  8  9  1  0  0  0
  8 22  1  0  0  0
  9 10  1  0  0  0
  9 27  2  0  0  0
 10 11  2  0  0  0
 10 15  1  0  0  0
 11 12  1  0  0  0
 11 97  1  0  0  0
 12 13  2  0  0  0
 12 98  1  0  0  0
 13 14  1  0  0  0
 13 31  1  0  0  0
 14 15  2  0  0  0
 14 99  1  0  0  0
 15100  1  0  0  0
 16 17  2  0  0  0
 16 21  1  0  0  0
 16 31  1  0  0  0
 17 18  1  0  0  0
 17101  1  0  0  0
 18 19  2  0  0  0
 18102  1  0  0  0
 19 20  1  0  0  0
 19 24  1  0  0  0
 20 21  2  0  0  0
 20103  1  0  0  0
 21 23  1  0  0  0
 22 28  1  0  0  0
 22 32  2  0  0  0
 26 27  1  0  0  0
 28104  1  0  0  0
 28105  1  0  0  0
 29106  1  0  0  0
 29107  1  0  0  0
 33 34  1  0  0  0
 33 66  1  0  0  0
 33 70  2  0  0  0
 34 36  1  0  0  0
 34 59  1  0  0  0
 34108  1  0  0  0
 35 44  2  0  0  0
 35 45  1  0  0  0
 35 68  1  0  0  0
 36 56  1  0  0  0
 36109  1  0  0  0
 37 39  1  0  0  0
 37 47  1  0  0  0
 37 66  1  0  0  0
 37110  1  0  0  0
 38 43  2  0  0  0
 38 46  1  0  0  0
 38 47  1  0  0  0
 39 64  1  0  0  0
 39 67  2  0  0  0
 40 52  1  0  0  0
 40 53  2  0  0  0
 40 58  1  0  0  0
 41111  1  0  0  0
 41112  1  0  0  0
 41113  1  0  0  0
 41 48  1  0  0  0
 42 43  1  0  0  0
 42 66  1  0  0  0
 42114  1  0  0  0
 42115  1  0  0  0
 43 44  1  0  0  0
 44116  1  0  0  0
 45 46  2  0  0  0
 45117  1  0  0  0
 46118  1  0  0  0
 47119  1  0  0  0
 47120  1  0  0  0
 48 56  1  0  0  0
 48 65  1  0  0  0
 48121  1  0  0  0
 49 50  1  0  0  0
 49 53  1  0  0  0
 49 64  1  0  0  0
 49122  1  0  0  0
 50 51  1  0  0  0
 50123  1  0  0  0
 50124  1  0  0  0
 51 52  1  0  0  0
 51125  1  0  0  0
 51126  1  0  0  0
 52127  1  0  0  0
 52128  1  0  0  0
 53 54  1  0  0  0
 54 55  2  0  0  0
 54129  1  0  0  0
 55 57  1  0  0  0
 55130  1  0  0  0
 56 69  2  0  0  0
 57 58  2  0  0  0
 57131  1  0  0  0
 58132  1  0  0  0
 59 60  1  0  0  0
 59 61  1  0  0  0
 59 62  1  0  0  0
 60133  1  0  0  0
 60134  1  0  0  0
 60135  1  0  0  0
 61136  1  0  0  0
 61137  1  0  0  0
 61138  1  0  0  0
 62139  1  0  0  0
 62140  1  0  0  0
 62141  1  0  0  0
 63 65  1  0  0  0
 63142  1  0  0  0
 63143  1  0  0  0
 63144  1  0  0  0
 64145  1  0  0  0
 65146  1  0  0  0
 68 81  1  0  0  0
 71 72  2  0  0  0
 71 73  1  0  0  0
 71147  1  0  0  0
 72 76  1  0  0  0
 72148  1  0  0  0
 73 74  2  0  0  0
 73 85  1  0  0  0
 74 75  1  0  0  0
 74 82  1  0  0  0
 75 76  2  0  0  0
 75 83  1  0  0  0
 76 86  1  0  0  0
 77 78  2  0  0  0
 77 79  1  0  0  0
 77 87  1  0  0  0
 78 84  1  0  0  0
 78149  1  0  0  0
 79 81  1  0  0  0
 79150  1  0  0  0
 79151  1  0  0  0
 80 81  1  0  0  0
 80 87  1  0  0  0
 80152  1  0  0  0
 80153  1  0  0  0
 81154  1  0  0  0
 82155  1  0  0  0
 82156  1  0  0  0
 82157  1  0  0  0
 83158  1  0  0  0
 83159  1  0  0  0
 83160  1  0  0  0
 84161  1  0  0  0
 84162  1  0  0  0
 84163  1  0  0  0
 85164  1  0  0  0
 85165  1  0  0  0
 85 87  1  0  0  0
 86166  1  0  0  0
 87167  1  0  0  0
M  CHG  1  87   1
M  ISO  4   1 100  68 101  81 101  86 100
M  END
> <chiral flag>
0

> <version>
0

> <s_m_source_file>
/data/baiqing/PycharmProjects/Reinvent-master-3.2/result/LINK_invent/BTK/process_docking_weight1_custom_product_contain_oxygen_bond_distance_aromatic_linkinvent_7_9_3/rearranged_h_0031.sdf

> <i_m_source_file_index>
19

> <r_mmod_Potential_Energy-OPLS-2005>
18.0801429748535

> <r_mmod_Stretch_Energy-OPLS-2005>
90.2209167480469

> <r_mmod_Bend_Energy-OPLS-2005>
177.728622436523

> <r_mmod_Torsional_Energy-OPLS-2005>
284.129272460938

> <r_mmod_Improper_Torsional_Energy-OPLS-2005>
7.45228099822998

> <r_mmod_Van_der_Waal_Energy-OPLS-2005>
134.725845336914

> <r_mmod_Electrostatic_Energy-OPLS-2005>
-305.450744628906

> <r_mmod_Solvation_Energy-OPLS-2005>
-427.284088134766

> <b_mmod_Minimization_Converged-OPLS-2005>
0

> <r_mmod_RMS_Derivative-OPLS-2005>
1.85943281650543

$$$$
19
                    3D
 Structure written by MMmdl.
157166  0  0  1  0            999 V2000
  -30.6035  -14.8370   20.4447 C   0  0  0  0  0  0
  -30.4282  -12.5103   19.4967 C   0  0  0  0  0  0
  -29.5161  -12.5184   18.2505 C   0  0  0  0  0  0
  -28.0450  -12.3289   18.6618 C   0  0  0  0  0  0
  -27.6354  -13.2441   19.8457 C   0  0  2  0  0  0
  -28.6776  -13.2333   20.9862 C   0  0  0  0  0  0
  -25.2462  -13.8203   20.5668 C   0  0  0  0  0  0
  -24.1785  -13.0434   20.9225 C   0  0  0  0  0  0
  -24.6398  -11.6919   20.8760 C   0  0  0  0  0  0
  -23.9082  -10.4291   21.0409 C   0  0  0  0  0  0
  -24.3627   -9.4206   21.9184 C   0  0  0  0  0  0
  -23.6294   -8.2245   22.0753 C   0  0  0  0  0  0
  -22.4278   -8.0288   21.3545 C   0  0  0  0  0  0
  -21.9916   -9.0267   20.4650 C   0  0  0  0  0  0
  -22.7250  -10.2139   20.3061 C   0  0  0  0  0  0
  -21.6858   -6.0738   22.5277 C   0  0  0  0  0  0
  -21.4024   -6.5638   23.8212 C   0  0  0  0  0  0
  -21.3653   -5.6788   24.9169 C   0  0  0  0  0  0
  -21.6043   -4.3053   24.7221 C   0  0  0  0  0  0
  -21.8818   -3.8147   23.4343 C   0  0  0  0  0  0
  -21.9193   -4.6965   22.3400 C   0  0  0  0  0  0
  -22.7802  -13.5209   21.1870 C   0  0  0  0  0  0
  -22.1658   -4.2146   21.0975 F   0  0  0  0  0  0
  -21.5622   -3.4537   25.7736 F   0  0  0  0  0  0
  -29.9709  -13.6033   20.3985 N   0  0  0  0  0  0
  -26.2905  -12.9441   20.3253 N   0  0  0  0  0  0
  -25.9337  -11.6575   20.5755 N   0  0  0  0  0  0
  -22.0439  -12.8218   22.0431 N   0  0  0  0  0  0
  -25.4088  -15.1920   20.3996 N   0  0  0  0  0  0
  -31.7869  -14.8622   20.1030 O   0  0  0  0  0  0
  -21.6641   -6.8888   21.4242 O   0  0  0  0  0  0
  -22.3488  -14.5504   20.6693 O   0  0  0  0  0  0
  -24.6360  -31.8490   23.1919 C   0  0  0  0  0  0
  -25.9163  -32.4718   23.8287 C   0  0  1  0  0  0
  -27.2230  -27.2075   20.1415 C   0  0  0  0  0  0
  -25.5940  -33.8522   24.2213 N   0  0  0  0  0  0
  -23.4356  -30.4681   21.5349 C   0  0  2  0  0  0
  -24.8854  -28.9024   20.1049 C   0  0  0  0  0  0
  -22.7525  -29.4567   22.4871 C   0  0  0  0  0  0
  -18.0298  -28.1398   22.8470 C   0  0  0  0  0  0
  -24.1485  -36.7262   23.2632 C   0  0  0  0  0  0
  -25.9838  -30.7448   21.3782 C   0  0  0  0  0  0
  -26.0552  -29.3614   20.7222 C   0  0  0  0  0  0
  -27.2224  -28.5249   20.7301 C   0  0  0  0  0  0
  -26.0335  -26.8272   19.4849 C   0  0  0  0  0  0
  -24.8830  -27.6467   19.4735 C   0  0  0  0  0  0
  -23.6577  -29.7961   20.1521 C   0  0  0  0  0  0
  -25.4112  -36.3043   24.0317 C   0  0  1  0  0  0
  -20.5903  -28.3710   23.1254 C   0  0  2  0  0  0
  -20.6783  -26.9418   22.5411 C   0  0  0  0  0  0
  -19.5761  -26.6382   21.5211 C   0  0  0  0  0  0
  -18.1940  -26.7937   22.1617 C   0  0  0  0  0  0
  -19.1552  -28.8871   23.2857 C   0  0  0  0  0  0
  -18.9473  -30.1467   23.8888 C   0  0  0  0  0  0
  -17.6470  -30.6591   24.0565 C   0  0  0  0  0  0
  -25.9068  -34.9418   23.5073 C   0  0  0  0  0  0
  -16.5362  -29.9089   23.6331 C   0  0  0  0  0  0
  -16.7282  -28.6509   23.0345 C   0  0  0  0  0  0
  -26.4515  -31.6562   25.0695 C   0  0  0  0  0  0
  -25.3727  -31.3735   26.1409 C   0  0  0  0  0  0
  -27.0369  -30.2973   24.6211 C   0  0  0  0  0  0
  -27.6068  -32.4309   25.7473 C   0  0  0  0  0  0
  -27.5587  -37.1762   24.8446 C   0  0  0  0  0  0
  -21.4223  -29.3042   22.3625 N   0  0  0  0  0  0
  -26.4273  -37.3761   23.9430 N   0  0  0  0  0  0
  -24.7044  -31.0407   22.0913 N   0  0  0  0  0  0
  -23.4200  -28.8113   23.2997 O   0  0  0  0  0  0
  -28.3099  -26.2959   20.2565 O   0  0  0  0  0  0
  -26.5652  -34.8910   22.4651 O   0  0  0  0  0  0
  -23.5497  -32.1340   23.7184 O   0  0  0  0  0  0
  -30.8819  -20.3464   20.6014 C   0  0  0  0  0  0
  -31.8504  -19.3284   20.6684 C   0  0  0  0  0  0
  -29.5079  -20.0494   20.5806 C   0  0  0  0  0  0
  -29.1748  -18.6032   20.5740 C   0  0  0  0  0  0
  -30.1717  -17.5053   20.6204 C   0  0  0  0  0  0
  -31.5191  -17.9591   20.7080 C   0  0  0  0  0  0
  -27.4197  -23.6712   20.2737 C   0  0  0  0  0  0
  -29.4095  -23.8276   20.2745 C   0  0  0  0  0  0
  -28.3150  -24.8516   19.7557 C   0  0  2  0  0  0
  -27.7035  -18.2218   20.5665 C   0  0  0  0  0  0
  -28.5030  -21.3177   20.7817 C   0  0  0  0  0  0
  -29.8528  -16.0139   20.6557 N   0  0  0  0  0  0
  -28.5077  -22.6643   19.9845 N   0  3  1  0  0  0
  -32.5494  -17.1065   20.8956 F   0  0  0  0  0  0
  -31.4704  -12.6235   19.1937 H   0  0  0  0  0  0
  -30.3754  -11.5474   20.0070 H   0  0  0  0  0  0
  -29.8153  -11.7343   17.5536 H   0  0  0  0  0  0
  -29.6329  -13.4640   17.7173 H   0  0  0  0  0  0
  -27.9158  -11.2826   18.9420 H   0  0  0  0  0  0
  -27.3902  -12.4980   17.8067 H   0  0  0  0  0  0
  -27.6129  -14.2554   19.4386 H   0  0  0  0  0  0
  -28.7312  -12.2504   21.4569 H   0  0  0  0  0  0
  -28.3943  -13.9361   21.7720 H   0  0  0  0  0  0
  -25.2772   -9.5670   22.4762 H   0  0  0  0  0  0
  -23.9991   -7.4638   22.7480 H   0  0  0  0  0  0
  -21.0839   -8.8806   19.8961 H   0  0  0  0  0  0
  -22.3718  -10.9687   19.6176 H   0  0  0  0  0  0
  -21.2027   -7.6149   23.9718 H   0  0  0  0  0  0
  -21.1467   -6.0516   25.9070 H   0  0  0  0  0  0
  -22.0601   -2.7609   23.2851 H   0  0  0  0  0  0
  -22.4053  -11.9896   22.4855 H   0  0  0  0  0  0
  -21.1058  -13.1260   22.2604 H   0  0  0  0  0  0
  -24.6200  -15.8265   20.4690 H   0  0  0  0  0  0
  -26.2166  -15.6129   19.9626 H   0  0  0  0  0  0
  -26.7217  -32.5354   23.1013 H   0  0  0  0  0  0
  -25.0075  -33.9640   25.0351 H   0  0  0  0  0  0
  -22.7348  -31.2919   21.3839 H   0  0  0  0  0  0
  -23.3764  -35.9575   23.3242 H   0  0  0  0  0  0
  -24.3590  -36.8946   22.2059 H   0  0  0  0  0  0
  -23.7207  -37.6428   23.6702 H   0  0  0  0  0  0
  -26.1268  -31.5002   20.6041 H   0  0  0  0  0  0
  -26.8598  -30.7985   22.0129 H   0  0  0  0  0  0
  -28.1133  -28.8665   21.2384 H   0  0  0  0  0  0
  -25.9644  -25.8633   19.0037 H   0  0  0  0  0  0
  -23.9871  -27.2908   18.9833 H   0  0  0  0  0  0
  -23.7884  -30.5719   19.3972 H   0  0  0  0  0  0
  -22.7737  -29.2349   19.8432 H   0  0  0  0  0  0
  -25.1283  -36.1870   25.0804 H   0  0  0  0  0  0
  -21.0001  -28.3307   24.1373 H   0  0  0  0  0  0
  -20.5677  -26.2318   23.3621 H   0  0  0  0  0  0
  -21.6651  -26.7428   22.1215 H   0  0  0  0  0  0
  -19.6925  -25.6290   21.1245 H   0  0  0  0  0  0
  -19.6709  -27.3186   20.6737 H   0  0  0  0  0  0
  -17.4207  -26.6673   21.4024 H   0  0  0  0  0  0
  -18.0345  -26.0090   22.9025 H   0  0  0  0  0  0
  -19.7947  -30.7282   24.2261 H   0  0  0  0  0  0
  -17.5022  -31.6269   24.5166 H   0  0  0  0  0  0
  -15.5363  -30.2988   23.7660 H   0  0  0  0  0  0
  -15.8682  -28.0830   22.7063 H   0  0  0  0  0  0
  -24.5914  -30.7063   25.7739 H   0  0  0  0  0  0
  -24.8904  -32.2911   26.4788 H   0  0  0  0  0  0
  -25.8036  -30.8948   27.0209 H   0  0  0  0  0  0
  -26.2957  -29.6700   24.1240 H   0  0  0  0  0  0
  -27.4039  -29.7259   25.4744 H   0  0  0  0  0  0
  -27.8838  -30.4230   23.9465 H   0  0  0  0  0  0
  -27.2677  -33.3618   26.2029 H   0  0  0  0  0  0
  -28.3893  -32.6848   25.0310 H   0  0  0  0  0  0
  -28.0714  -31.8443   26.5405 H   0  0  0  0  0  0
  -28.2531  -38.0132   24.7598 H   0  0  0  0  0  0
  -28.1155  -36.2670   24.6131 H   0  0  0  0  0  0
  -27.2328  -37.1234   25.8849 H   0  0  0  0  0  0
  -20.9420  -29.8753   21.6813 H   0  0  0  0  0  0
  -26.0136  -38.2809   24.1516 H   0  0  0  0  0  0
  -31.2142  -21.3745   20.6356 H   0  0  0  0  0  0
  -32.8916  -19.6074   20.7418 H   0  0  0  0  0  0
  -26.5132  -23.5050   19.6908 H   0  0  0  0  0  0
  -27.1822  -23.7472   21.3375 H   0  0  0  0  0  0
  -29.6330  -23.9331   21.3386 H   0  0  0  0  0  0
  -30.3280  -23.8178   19.6874 H   0  0  0  0  0  0
  -28.3126  -24.8709   18.6640 H   0  0  0  0  0  0
  -27.1624  -18.7825   19.8045 H   0  0  0  0  0  0
  -27.2518  -18.4311   21.5367 H   0  0  0  0  0  0
  -27.5508  -17.1677   20.3457 H   0  0  0  0  0  0
  -28.5600  -21.5831   21.8371 H   0  0  0  0  0  0
  -27.4938  -20.9292   20.6564 H   0  0  0  0  0  0
  -28.8818  -15.8118   20.8274 H   0  0  0  0  0  0
  -28.5159  -22.4640   18.9965 H   0  0  0  0  0  0
  1 25  1  0  0  0
  1 30  2  0  0  0
  1 82  1  0  0  0
  2  3  1  0  0  0
  2 25  1  0  0  0
  2 85  1  0  0  0
  2 86  1  0  0  0
  3  4  1  0  0  0
  3 87  1  0  0  0
  3 88  1  0  0  0
  4  5  1  0  0  0
  4 89  1  0  0  0
  4 90  1  0  0  0
  5  6  1  0  0  0
  5 26  1  0  0  0
  5 91  1  0  0  0
  6 25  1  0  0  0
  6 92  1  0  0  0
  6 93  1  0  0  0
  7  8  2  0  0  0
  7 26  1  0  0  0
  7 29  1  0  0  0
  8  9  1  0  0  0
  8 22  1  0  0  0
  9 10  1  0  0  0
  9 27  2  0  0  0
 10 11  2  0  0  0
 10 15  1  0  0  0
 11 12  1  0  0  0
 11 94  1  0  0  0
 12 13  2  0  0  0
 12 95  1  0  0  0
 13 14  1  0  0  0
 13 31  1  0  0  0
 14 15  2  0  0  0
 14 96  1  0  0  0
 15 97  1  0  0  0
 16 17  2  0  0  0
 16 21  1  0  0  0
 16 31  1  0  0  0
 17 18  1  0  0  0
 17 98  1  0  0  0
 18 19  2  0  0  0
 18 99  1  0  0  0
 19 20  1  0  0  0
 19 24  1  0  0  0
 20 21  2  0  0  0
 20100  1  0  0  0
 21 23  1  0  0  0
 22 28  1  0  0  0
 22 32  2  0  0  0
 26 27  1  0  0  0
 28101  1  0  0  0
 28102  1  0  0  0
 29103  1  0  0  0
 29104  1  0  0  0
 33 34  1  0  0  0
 33 66  1  0  0  0
 33 70  2  0  0  0
 34 36  1  0  0  0
 34 59  1  0  0  0
 34105  1  0  0  0
 35 44  2  0  0  0
 35 45  1  0  0  0
 35 68  1  0  0  0
 36 56  1  0  0  0
 36106  1  0  0  0
 37 39  1  0  0  0
 37 47  1  0  0  0
 37 66  1  0  0  0
 37107  1  0  0  0
 38 43  2  0  0  0
 38 46  1  0  0  0
 38 47  1  0  0  0
 39 64  1  0  0  0
 39 67  2  0  0  0
 40 52  1  0  0  0
 40 53  2  0  0  0
 40 58  1  0  0  0
 41108  1  0  0  0
 41109  1  0  0  0
 41110  1  0  0  0
 41 48  1  0  0  0
 42 43  1  0  0  0
 42 66  1  0  0  0
 42111  1  0  0  0
 42112  1  0  0  0
 43 44  1  0  0  0
 44113  1  0  0  0
 45 46  2  0  0  0
 45114  1  0  0  0
 46115  1  0  0  0
 47116  1  0  0  0
 47117  1  0  0  0
 48 56  1  0  0  0
 48 65  1  0  0  0
 48118  1  0  0  0
 49 50  1  0  0  0
 49 53  1  0  0  0
 49 64  1  0  0  0
 49119  1  0  0  0
 50 51  1  0  0  0
 50120  1  0  0  0
 50121  1  0  0  0
 51 52  1  0  0  0
 51122  1  0  0  0
 51123  1  0  0  0
 52124  1  0  0  0
 52125  1  0  0  0
 53 54  1  0  0  0
 54 55  2  0  0  0
 54126  1  0  0  0
 55 57  1  0  0  0
 55127  1  0  0  0
 56 69  2  0  0  0
 57 58  2  0  0  0
 57128  1  0  0  0
 58129  1  0  0  0
 59 60  1  0  0  0
 59 61  1  0  0  0
 59 62  1  0  0  0
 60130  1  0  0  0
 60131  1  0  0  0
 60132  1  0  0  0
 61133  1  0  0  0
 61134  1  0  0  0
 61135  1  0  0  0
 62136  1  0  0  0
 62137  1  0  0  0
 62138  1  0  0  0
 63 65  1  0  0  0
 63139  1  0  0  0
 63140  1  0  0  0
 63141  1  0  0  0
 64142  1  0  0  0
 65143  1  0  0  0
 68 79  1  0  0  0
 71 72  2  0  0  0
 71 73  1  0  0  0
 71144  1  0  0  0
 72 76  1  0  0  0
 72145  1  0  0  0
 73 74  2  0  0  0
 73 81  1  0  0  0
 74 75  1  0  0  0
 74 80  1  0  0  0
 75 76  2  0  0  0
 75 82  1  0  0  0
 76 84  1  0  0  0
 77 79  1  0  0  0
 77 83  1  0  0  0
 77146  1  0  0  0
 77147  1  0  0  0
 78 79  1  0  0  0
 78 83  1  0  0  0
 78148  1  0  0  0
 78149  1  0  0  0
 79150  1  0  0  0
 80151  1  0  0  0
 80152  1  0  0  0
 80153  1  0  0  0
 81154  1  0  0  0
 81155  1  0  0  0
 81 83  1  0  0  0
 82156  1  0  0  0
 83157  1  0  0  0
M  CHG  1  83   1
M  ISO  4   1 100  68 101  79 101  82 100
M  END
> <chiral flag>
0

> <version>
0

> <s_m_source_file>
/data/baiqing/PycharmProjects/Reinvent-master-3.2/result/LINK_invent/BTK/process_docking_weight1_custom_product_contain_oxygen_bond_distance_aromatic_linkinvent_7_9_3/rearranged_h_0031.sdf

> <i_m_source_file_index>
20

> <r_mmod_Potential_Energy-OPLS-2005>
95.3417739868164

> <r_mmod_Stretch_Energy-OPLS-2005>
179.195907592773

> <r_mmod_Bend_Energy-OPLS-2005>
250.273010253906

> <r_mmod_Torsional_Energy-OPLS-2005>
214.388626098633

> <r_mmod_Improper_Torsional_Energy-OPLS-2005>
6.83693218231201

> <r_mmod_Van_der_Waal_Energy-OPLS-2005>
138.569320678711

> <r_mmod_Electrostatic_Energy-OPLS-2005>
-313.888946533203

> <r_mmod_Solvation_Energy-OPLS-2005>
-505.3173828125

> <b_mmod_Minimization_Converged-OPLS-2005>
0

> <r_mmod_RMS_Derivative-OPLS-2005>
1.25914406776428

$$$$
20
                    3D
 Structure written by MMmdl.
162171  0  0  1  0            999 V2000
  -30.5631  -14.7958   20.4751 C   0  0  0  0  0  0
  -30.4443  -12.4861   19.4986 C   0  0  0  0  0  0
  -29.5247  -12.5357   18.2549 C   0  0  0  0  0  0
  -28.0484  -12.3482   18.6554 C   0  0  0  0  0  0
  -27.6488  -13.2361   19.8644 C   0  0  2  0  0  0
  -28.6865  -13.1534   21.0078 C   0  0  0  0  0  0
  -25.2518  -13.8196   20.5698 C   0  0  0  0  0  0
  -24.1799  -13.0443   20.9192 C   0  0  0  0  0  0
  -24.6385  -11.6920   20.8713 C   0  0  0  0  0  0
  -23.9055  -10.4294   21.0372 C   0  0  0  0  0  0
  -24.3607   -9.4221   21.9160 C   0  0  0  0  0  0
  -23.6289   -8.2255   22.0744 C   0  0  0  0  0  0
  -22.4267   -8.0278   21.3542 C   0  0  0  0  0  0
  -21.9892   -9.0244   20.4644 C   0  0  0  0  0  0
  -22.7216  -10.2121   20.3038 C   0  0  0  0  0  0
  -21.6851   -6.0729   22.5275 C   0  0  0  0  0  0
  -21.4020   -6.5632   23.8208 C   0  0  0  0  0  0
  -21.3662   -5.6790   24.9170 C   0  0  0  0  0  0
  -21.6040   -4.3049   24.7224 C   0  0  0  0  0  0
  -21.8817   -3.8142   23.4344 C   0  0  0  0  0  0
  -21.9189   -4.6959   22.3400 C   0  0  0  0  0  0
  -22.7816  -13.5221   21.1861 C   0  0  0  0  0  0
  -22.1662   -4.2148   21.0980 F   0  0  0  0  0  0
  -21.5630   -3.4531   25.7734 F   0  0  0  0  0  0
  -29.9954  -13.5335   20.4545 N   0  0  0  0  0  0
  -26.2964  -12.9415   20.3311 N   0  0  0  0  0  0
  -25.9327  -11.6554   20.5730 N   0  0  0  0  0  0
  -22.0456  -12.8213   22.0419 N   0  0  0  0  0  0
  -25.4220  -15.1913   20.4114 N   0  0  0  0  0  0
  -31.6825  -14.9626   19.9831 O   0  0  0  0  0  0
  -21.6650   -6.8864   21.4228 O   0  0  0  0  0  0
  -22.3490  -14.5523   20.6713 O   0  0  0  0  0  0
  -24.6328  -31.8489   23.1900 C   0  0  0  0  0  0
  -25.9139  -32.4712   23.8264 C   0  0  1  0  0  0
  -27.2384  -27.2335   20.1346 C   0  0  0  0  0  0
  -25.5916  -33.8513   24.2190 N   0  0  0  0  0  0
  -23.4316  -30.4654   21.5328 C   0  0  2  0  0  0
  -24.8833  -28.8994   20.1033 C   0  0  0  0  0  0
  -22.7501  -29.4564   22.4886 C   0  0  0  0  0  0
  -18.0290  -28.1390   22.8484 C   0  0  0  0  0  0
  -24.1489  -36.7269   23.2640 C   0  0  0  0  0  0
  -25.9758  -30.7534   21.3714 C   0  0  0  0  0  0
  -26.0494  -29.3710   20.7160 C   0  0  0  0  0  0
  -27.2213  -28.5484   20.7216 C   0  0  0  0  0  0
  -26.0511  -26.8273   19.4901 C   0  0  0  0  0  0
  -24.8910  -27.6375   19.4785 C   0  0  0  0  0  0
  -23.6501  -29.7852   20.1519 C   0  0  0  0  0  0
  -25.4117  -36.3037   24.0312 C   0  0  1  0  0  0
  -20.5892  -28.3700   23.1266 C   0  0  2  0  0  0
  -20.6768  -26.9410   22.5418 C   0  0  0  0  0  0
  -19.5748  -26.6383   21.5211 C   0  0  0  0  0  0
  -18.1928  -26.7931   22.1622 C   0  0  0  0  0  0
  -19.1542  -28.8860   23.2867 C   0  0  0  0  0  0
  -18.9466  -30.1460   23.8893 C   0  0  0  0  0  0
  -17.6467  -30.6591   24.0561 C   0  0  0  0  0  0
  -25.9059  -34.9415   23.5058 C   0  0  0  0  0  0
  -16.5359  -29.9089   23.6332 C   0  0  0  0  0  0
  -16.7276  -28.6503   23.0359 C   0  0  0  0  0  0
  -26.4497  -31.6561   25.0680 C   0  0  0  0  0  0
  -25.3715  -31.3738   26.1405 C   0  0  0  0  0  0
  -27.0351  -30.2969   24.6205 C   0  0  0  0  0  0
  -27.6033  -32.4322   25.7472 C   0  0  0  0  0  0
  -27.5566  -37.1788   24.8461 C   0  0  0  0  0  0
  -21.4206  -29.3031   22.3637 N   0  0  0  0  0  0
  -26.4283  -37.3745   23.9400 N   0  0  0  0  0  0
  -24.6991  -31.0425   22.0878 N   0  0  0  0  0  0
  -23.4185  -28.8134   23.3020 O   0  0  0  0  0  0
  -28.3524  -26.3648   20.2689 O   0  0  0  0  0  0
  -26.5657  -34.8907   22.4645 O   0  0  0  0  0  0
  -23.5473  -32.1325   23.7182 O   0  0  0  0  0  0
  -31.2921  -20.0506   18.9544 C   0  0  0  0  0  0
  -30.8688  -18.7813   19.3951 C   0  0  0  0  0  0
  -30.6194  -21.2310   19.3314 C   0  0  0  0  0  0
  -29.7417  -18.6337   20.2235 C   0  0  0  0  0  0
  -29.0786  -19.8869   20.6429 C   0  0  0  0  0  0
  -29.5066  -21.2263   20.2013 C   0  0  0  0  0  0
  -30.8113  -24.3088   20.7069 C   0  0  0  0  0  0
  -30.1020  -24.9053   19.4610 C   0  0  0  0  0  0
  -29.9948  -23.2587   21.5056 C   0  0  0  0  0  0
  -28.0538  -23.5339   20.0619 C   0  0  0  0  0  0
  -28.5738  -25.0236   19.6031 C   0  0  1  0  0  0
  -27.8978  -19.7876   21.5937 C   0  0  0  0  0  0
  -29.1798  -17.1295   20.3745 C   0  0  0  0  0  0
  -29.0370  -22.5369   20.6723 N   0  0  0  0  0  0
  -29.8227  -15.8616   20.9821 N   0  0  0  0  0  0
  -31.4855  -12.6201   19.1994 H   0  0  0  0  0  0
  -30.4017  -11.5030   19.9683 H   0  0  0  0  0  0
  -29.8217  -11.7729   17.5340 H   0  0  0  0  0  0
  -29.6459  -13.4946   17.7484 H   0  0  0  0  0  0
  -27.9011  -11.2957   18.9017 H   0  0  0  0  0  0
  -27.3963  -12.5541   17.8058 H   0  0  0  0  0  0
  -27.6499  -14.2630   19.4970 H   0  0  0  0  0  0
  -28.7228  -12.1450   21.4247 H   0  0  0  0  0  0
  -28.4004  -13.8075   21.8322 H   0  0  0  0  0  0
  -25.2750   -9.5721   22.4733 H   0  0  0  0  0  0
  -24.0011   -7.4645   22.7455 H   0  0  0  0  0  0
  -21.0831   -8.8736   19.8938 H   0  0  0  0  0  0
  -22.3656  -10.9648   19.6145 H   0  0  0  0  0  0
  -21.2026   -7.6143   23.9711 H   0  0  0  0  0  0
  -21.1488   -6.0521   25.9072 H   0  0  0  0  0  0
  -22.0597   -2.7606   23.2842 H   0  0  0  0  0  0
  -22.4092  -11.9893   22.4825 H   0  0  0  0  0  0
  -21.1063  -13.1214   22.2605 H   0  0  0  0  0  0
  -24.6531  -15.8444   20.5128 H   0  0  0  0  0  0
  -26.2696  -15.6244   20.0703 H   0  0  0  0  0  0
  -26.7204  -32.5349   23.0998 H   0  0  0  0  0  0
  -25.0013  -33.9632   25.0301 H   0  0  0  0  0  0
  -22.7294  -31.2875   21.3789 H   0  0  0  0  0  0
  -23.3738  -35.9614   23.3306 H   0  0  0  0  0  0
  -24.3572  -36.8902   22.2054 H   0  0  0  0  0  0
  -23.7267  -37.6474   23.6682 H   0  0  0  0  0  0
  -26.1146  -31.5106   20.5990 H   0  0  0  0  0  0
  -26.8528  -30.8072   22.0047 H   0  0  0  0  0  0
  -28.1123  -28.9011   21.2218 H   0  0  0  0  0  0
  -25.9943  -25.8502   19.0323 H   0  0  0  0  0  0
  -23.9956  -27.2687   18.9978 H   0  0  0  0  0  0
  -23.7640  -30.5540   19.3867 H   0  0  0  0  0  0
  -22.7710  -29.2098   19.8566 H   0  0  0  0  0  0
  -25.1305  -36.1860   25.0803 H   0  0  0  0  0  0
  -20.9989  -28.3294   24.1384 H   0  0  0  0  0  0
  -20.5653  -26.2309   23.3626 H   0  0  0  0  0  0
  -21.6638  -26.7420   22.1223 H   0  0  0  0  0  0
  -19.6907  -25.6290   21.1246 H   0  0  0  0  0  0
  -19.6689  -27.3187   20.6733 H   0  0  0  0  0  0
  -17.4193  -26.6673   21.4029 H   0  0  0  0  0  0
  -18.0335  -26.0078   22.9027 H   0  0  0  0  0  0
  -19.7943  -30.7269   24.2266 H   0  0  0  0  0  0
  -17.5026  -31.6273   24.5159 H   0  0  0  0  0  0
  -15.5359  -30.2992   23.7658 H   0  0  0  0  0  0
  -15.8674  -28.0818   22.7091 H   0  0  0  0  0  0
  -24.5884  -30.7089   25.7740 H   0  0  0  0  0  0
  -24.8918  -32.2924   26.4798 H   0  0  0  0  0  0
  -25.8033  -30.8937   27.0197 H   0  0  0  0  0  0
  -26.2941  -29.6707   24.1228 H   0  0  0  0  0  0
  -27.4005  -29.7247   25.4741 H   0  0  0  0  0  0
  -27.8826  -30.4212   23.9463 H   0  0  0  0  0  0
  -27.2614  -33.3632   26.2006 H   0  0  0  0  0  0
  -28.3876  -32.6870   25.0333 H   0  0  0  0  0  0
  -28.0664  -31.8479   26.5434 H   0  0  0  0  0  0
  -28.2584  -38.0081   24.7487 H   0  0  0  0  0  0
  -28.1063  -36.2610   24.6312 H   0  0  0  0  0  0
  -27.2285  -37.1465   25.8866 H   0  0  0  0  0  0
  -20.9396  -29.8725   21.6813 H   0  0  0  0  0  0
  -26.0148  -38.2812   24.1404 H   0  0  0  0  0  0
  -32.1453  -20.1257   18.2954 H   0  0  0  0  0  0
  -31.3816  -17.9002   19.0328 H   0  0  0  0  0  0
  -31.0093  -22.1647   18.9601 H   0  0  0  0  0  0
  -31.0943  -25.1113   21.3885 H   0  0  0  0  0  0
  -31.7539  -23.8637   20.3846 H   0  0  0  0  0  0
  -30.2998  -24.2570   18.6070 H   0  0  0  0  0  0
  -30.5449  -25.8653   19.1971 H   0  0  0  0  0  0
  -29.4277  -23.7724   22.2849 H   0  0  0  0  0  0
  -30.6592  -22.5730   22.0344 H   0  0  0  0  0  0
  -27.6420  -23.0473   19.1773 H   0  0  0  0  0  0
  -27.2080  -23.6499   20.7406 H   0  0  0  0  0  0
  -28.1873  -25.1714   18.5943 H   0  0  0  0  0  0
  -28.1856  -19.2423   22.4933 H   0  0  0  0  0  0
  -27.0667  -19.2632   21.1244 H   0  0  0  0  0  0
  -27.5359  -20.7672   21.9070 H   0  0  0  0  0  0
  -28.9025  -16.8404   19.3601 H   0  0  0  0  0  0
  -28.2210  -17.2097   20.8853 H   0  0  0  0  0  0
  -29.1978  -15.4990   21.6869 H   0  0  0  0  0  0
  1 25  1  0  0  0
  1 30  2  0  0  0
  1 85  1  0  0  0
  2  3  1  0  0  0
  2 25  1  0  0  0
  2 86  1  0  0  0
  2 87  1  0  0  0
  3  4  1  0  0  0
  3 88  1  0  0  0
  3 89  1  0  0  0
  4  5  1  0  0  0
  4 90  1  0  0  0
  4 91  1  0  0  0
  5  6  1  0  0  0
  5 26  1  0  0  0
  5 92  1  0  0  0
  6 25  1  0  0  0
  6 93  1  0  0  0
  6 94  1  0  0  0
  7  8  2  0  0  0
  7 26  1  0  0  0
  7 29  1  0  0  0
  8  9  1  0  0  0
  8 22  1  0  0  0
  9 10  1  0  0  0
  9 27  2  0  0  0
 10 11  2  0  0  0
 10 15  1  0  0  0
 11 12  1  0  0  0
 11 95  1  0  0  0
 12 13  2  0  0  0
 12 96  1  0  0  0
 13 14  1  0  0  0
 13 31  1  0  0  0
 14 15  2  0  0  0
 14 97  1  0  0  0
 15 98  1  0  0  0
 16 17  2  0  0  0
 16 21  1  0  0  0
 16 31  1  0  0  0
 17 18  1  0  0  0
 17 99  1  0  0  0
 18 19  2  0  0  0
 18100  1  0  0  0
 19 20  1  0  0  0
 19 24  1  0  0  0
 20 21  2  0  0  0
 20101  1  0  0  0
 21 23  1  0  0  0
 22 28  1  0  0  0
 22 32  2  0  0  0
 26 27  1  0  0  0
 28102  1  0  0  0
 28103  1  0  0  0
 29104  1  0  0  0
 29105  1  0  0  0
 33 34  1  0  0  0
 33 66  1  0  0  0
 33 70  2  0  0  0
 34 36  1  0  0  0
 34 59  1  0  0  0
 34106  1  0  0  0
 35 44  2  0  0  0
 35 45  1  0  0  0
 35 68  1  0  0  0
 36 56  1  0  0  0
 36107  1  0  0  0
 37 39  1  0  0  0
 37 47  1  0  0  0
 37 66  1  0  0  0
 37108  1  0  0  0
 38 43  2  0  0  0
 38 46  1  0  0  0
 38 47  1  0  0  0
 39 64  1  0  0  0
 39 67  2  0  0  0
 40 52  1  0  0  0
 40 53  2  0  0  0
 40 58  1  0  0  0
 41109  1  0  0  0
 41110  1  0  0  0
 41111  1  0  0  0
 41 48  1  0  0  0
 42 43  1  0  0  0
 42 66  1  0  0  0
 42112  1  0  0  0
 42113  1  0  0  0
 43 44  1  0  0  0
 44114  1  0  0  0
 45 46  2  0  0  0
 45115  1  0  0  0
 46116  1  0  0  0
 47117  1  0  0  0
 47118  1  0  0  0
 48 56  1  0  0  0
 48 65  1  0  0  0
 48119  1  0  0  0
 49 50  1  0  0  0
 49 53  1  0  0  0
 49 64  1  0  0  0
 49120  1  0  0  0
 50 51  1  0  0  0
 50121  1  0  0  0
 50122  1  0  0  0
 51 52  1  0  0  0
 51123  1  0  0  0
 51124  1  0  0  0
 52125  1  0  0  0
 52126  1  0  0  0
 53 54  1  0  0  0
 54 55  2  0  0  0
 54127  1  0  0  0
 55 57  1  0  0  0
 55128  1  0  0  0
 56 69  2  0  0  0
 57 58  2  0  0  0
 57129  1  0  0  0
 58130  1  0  0  0
 59 60  1  0  0  0
 59 61  1  0  0  0
 59 62  1  0  0  0
 60131  1  0  0  0
 60132  1  0  0  0
 60133  1  0  0  0
 61134  1  0  0  0
 61135  1  0  0  0
 61136  1  0  0  0
 62137  1  0  0  0
 62138  1  0  0  0
 62139  1  0  0  0
 63 65  1  0  0  0
 63140  1  0  0  0
 63141  1  0  0  0
 63142  1  0  0  0
 64143  1  0  0  0
 65144  1  0  0  0
 68 81  1  0  0  0
 71 72  2  0  0  0
 71 73  1  0  0  0
 71145  1  0  0  0
 72 74  1  0  0  0
 72146  1  0  0  0
 73 76  2  0  0  0
 73147  1  0  0  0
 74 75  2  0  0  0
 74 83  1  0  0  0
 75 76  1  0  0  0
 75 82  1  0  0  0
 76 84  1  0  0  0
 77 78  1  0  0  0
 77 79  1  0  0  0
 77148  1  0  0  0
 77149  1  0  0  0
 78 81  1  0  0  0
 78150  1  0  0  0
 78151  1  0  0  0
 79 84  1  0  0  0
 79152  1  0  0  0
 79153  1  0  0  0
 80 81  1  0  0  0
 80 84  1  0  0  0
 80154  1  0  0  0
 80155  1  0  0  0
 81156  1  0  0  0
 82157  1  0  0  0
 82158  1  0  0  0
 82159  1  0  0  0
 83 85  1  0  0  0
 83160  1  0  0  0
 83161  1  0  0  0
 85162  1  0  0  0
M  ISO  4   1 100  68 101  81 101  85 100
M  END
> <chiral flag>
0

> <version>
0

> <s_m_source_file>
/data/baiqing/PycharmProjects/Reinvent-master-3.2/result/LINK_invent/BTK/process_docking_weight1_custom_product_contain_oxygen_bond_distance_aromatic_linkinvent_7_9_3/rearranged_h_0031.sdf

> <i_m_source_file_index>
21

> <r_mmod_Potential_Energy-OPLS-2005>
360.449737548828

> <r_mmod_Stretch_Energy-OPLS-2005>
157.895401000977

> <r_mmod_Bend_Energy-OPLS-2005>
276.463165283203

> <r_mmod_Torsional_Energy-OPLS-2005>
328.259918212891

> <r_mmod_Improper_Torsional_Energy-OPLS-2005>
10.1988801956177

> <r_mmod_Van_der_Waal_Energy-OPLS-2005>
131.947418212891

> <r_mmod_Electrostatic_Energy-OPLS-2005>
-424.099945068359

> <r_mmod_Solvation_Energy-OPLS-2005>
-227.663146972656

> <b_mmod_Minimization_Converged-OPLS-2005>
0

> <r_mmod_RMS_Derivative-OPLS-2005>
1.84690415859222

$$$$
21
                    3D
 Structure written by MMmdl.
163172  0  0  1  0            999 V2000
  -30.6119  -14.6631   20.4611 C   0  0  0  0  0  0
  -30.4450  -12.4002   19.4458 C   0  0  0  0  0  0
  -29.5082  -12.4965   18.2206 C   0  0  0  0  0  0
  -28.0312  -12.3330   18.6369 C   0  0  0  0  0  0
  -27.6504  -13.2064   19.8611 C   0  0  2  0  0  0
  -28.7038  -13.0859   20.9857 C   0  0  0  0  0  0
  -25.2539  -13.8071   20.5735 C   0  0  0  0  0  0
  -24.1801  -13.0366   20.9210 C   0  0  0  0  0  0
  -24.6373  -11.6849   20.8750 C   0  0  0  0  0  0
  -23.9039  -10.4252   21.0402 C   0  0  0  0  0  0
  -24.3590   -9.4177   21.9186 C   0  0  0  0  0  0
  -23.6268   -8.2215   22.0746 C   0  0  0  0  0  0
  -22.4253   -8.0261   21.3533 C   0  0  0  0  0  0
  -21.9886   -9.0234   20.4636 C   0  0  0  0  0  0
  -22.7212  -10.2111   20.3048 C   0  0  0  0  0  0
  -21.6837   -6.0728   22.5276 C   0  0  0  0  0  0
  -21.4002   -6.5628   23.8211 C   0  0  0  0  0  0
  -21.3656   -5.6780   24.9173 C   0  0  0  0  0  0
  -21.6046   -4.3046   24.7221 C   0  0  0  0  0  0
  -21.8826   -3.8140   23.4340 C   0  0  0  0  0  0
  -21.9186   -4.6958   22.3398 C   0  0  0  0  0  0
  -22.7830  -13.5191   21.1861 C   0  0  0  0  0  0
  -22.1657   -4.2143   21.0976 F   0  0  0  0  0  0
  -21.5637   -3.4532   25.7735 F   0  0  0  0  0  0
  -30.0140  -13.4302   20.4088 N   0  0  0  0  0  0
  -26.2977  -12.9265   20.3349 N   0  0  0  0  0  0
  -25.9303  -11.6432   20.5773 N   0  0  0  0  0  0
  -22.0455  -12.8211   22.0417 N   0  0  0  0  0  0
  -25.4176  -15.1778   20.4241 N   0  0  0  0  0  0
  -31.7977  -14.8219   20.1591 O   0  0  0  0  0  0
  -21.6613   -6.8868   21.4236 O   0  0  0  0  0  0
  -22.3541  -14.5512   20.6712 O   0  0  0  0  0  0
  -24.6259  -31.8597   23.2049 C   0  0  0  0  0  0
  -25.9117  -32.4772   23.8370 C   0  0  1  0  0  0
  -27.2266  -27.3224   20.1079 C   0  0  0  0  0  0
  -25.5943  -33.8576   24.2300 N   0  0  0  0  0  0
  -23.4179  -30.4852   21.5464 C   0  0  2  0  0  0
  -24.8641  -28.9423   20.1105 C   0  0  0  0  0  0
  -22.7470  -29.4626   22.4941 C   0  0  0  0  0  0
  -18.0287  -28.1383   22.8481 C   0  0  0  0  0  0
  -24.1488  -36.7286   23.2635 C   0  0  0  0  0  0
  -25.9596  -30.7889   21.3785 C   0  0  0  0  0  0
  -26.0306  -29.4166   20.7209 C   0  0  0  0  0  0
  -27.2096  -28.6153   20.7169 C   0  0  0  0  0  0
  -26.0384  -26.9121   19.4545 C   0  0  0  0  0  0
  -24.8699  -27.6953   19.4700 C   0  0  0  0  0  0
  -23.6328  -29.8231   20.1600 C   0  0  0  0  0  0
  -25.4111  -36.3081   24.0335 C   0  0  1  0  0  0
  -20.5886  -28.3686   23.1282 C   0  0  2  0  0  0
  -20.6772  -26.9408   22.5411 C   0  0  0  0  0  0
  -19.5754  -26.6382   21.5207 C   0  0  0  0  0  0
  -18.1933  -26.7927   22.1616 C   0  0  0  0  0  0
  -19.1539  -28.8854   23.2875 C   0  0  0  0  0  0
  -18.9461  -30.1454   23.8893 C   0  0  0  0  0  0
  -17.6461  -30.6582   24.0566 C   0  0  0  0  0  0
  -25.9053  -34.9448   23.5116 C   0  0  0  0  0  0
  -16.5352  -29.9082   23.6329 C   0  0  0  0  0  0
  -16.7275  -28.6501   23.0347 C   0  0  0  0  0  0
  -26.4509  -31.6575   25.0728 C   0  0  0  0  0  0
  -25.3758  -31.3697   26.1463 C   0  0  0  0  0  0
  -27.0343  -30.2998   24.6180 C   0  0  0  0  0  0
  -27.6086  -32.4292   25.7487 C   0  0  0  0  0  0
  -27.5577  -37.1798   24.8468 C   0  0  0  0  0  0
  -21.4189  -29.3035   22.3676 N   0  0  0  0  0  0
  -26.4288  -37.3773   23.9414 N   0  0  0  0  0  0
  -24.6861  -31.0619   22.0997 N   0  0  0  0  0  0
  -23.4202  -28.8160   23.3010 O   0  0  0  0  0  0
  -28.3688  -26.5041   20.1668 O   0  0  0  0  0  0
  -26.5612  -34.8910   22.4677 O   0  0  0  0  0  0
  -23.5426  -32.1393   23.7381 O   0  0  0  0  0  0
  -30.8705  -19.3236   21.2122 C   0  0  0  0  0  0
  -30.9020  -17.9012   21.1457 C   0  0  0  0  0  0
  -29.7975  -20.1133   20.7086 C   0  0  0  0  0  0
  -28.7571  -19.3847   20.0520 C   0  0  0  0  0  0
  -28.8389  -17.9533   19.9003 C   0  0  0  0  0  0
  -29.8691  -17.1712   20.5148 C   0  0  0  0  0  0
  -29.1640  -24.5965   18.7228 C   0  0  0  0  0  0
  -29.4665  -23.0823   18.9301 C   0  0  0  0  0  0
  -28.8157  -24.0415   20.9898 C   0  0  0  0  0  0
  -28.2989  -25.0424   19.9097 C   0  0  1  0  0  0
  -27.5167  -20.1121   19.5359 C   0  0  0  0  0  0
  -27.8033  -17.2506   19.0324 C   0  0  0  0  0  0
  -29.8269  -21.6657   21.0403 C   0  0  0  0  0  0
  -29.7427  -15.7131   20.6105 N   0  0  0  0  0  0
  -29.0178  -22.7157   20.2966 N   0  3  2  0  0  0
  -31.4838  -12.5356   19.1394 H   0  0  0  0  0  0
  -30.3915  -11.4099   19.9005 H   0  0  0  0  0  0
  -29.7737  -11.7363   17.4847 H   0  0  0  0  0  0
  -29.6452  -13.4600   17.7270 H   0  0  0  0  0  0
  -27.8717  -11.2808   18.8732 H   0  0  0  0  0  0
  -27.3735  -12.5578   17.7965 H   0  0  0  0  0  0
  -27.6531  -14.2342   19.5077 H   0  0  0  0  0  0
  -28.7248  -12.0715   21.3872 H   0  0  0  0  0  0
  -28.4545  -13.7358   21.8262 H   0  0  0  0  0  0
  -25.2738   -9.5651   22.4760 H   0  0  0  0  0  0
  -23.9974   -7.4603   22.7464 H   0  0  0  0  0  0
  -21.0814   -8.8752   19.8948 H   0  0  0  0  0  0
  -22.3676  -10.9648   19.6154 H   0  0  0  0  0  0
  -21.1990   -7.6137   23.9714 H   0  0  0  0  0  0
  -21.1472   -6.0507   25.9073 H   0  0  0  0  0  0
  -22.0609   -2.7601   23.2838 H   0  0  0  0  0  0
  -22.4042  -11.9860   22.4811 H   0  0  0  0  0  0
  -21.1083  -13.1265   22.2631 H   0  0  0  0  0  0
  -24.6484  -15.8261   20.5535 H   0  0  0  0  0  0
  -26.2678  -15.6270   20.1175 H   0  0  0  0  0  0
  -26.7184  -32.5442   23.1115 H   0  0  0  0  0  0
  -25.0122  -33.9728   25.0470 H   0  0  0  0  0  0
  -22.7109  -31.3059   21.4056 H   0  0  0  0  0  0
  -23.3753  -35.9615   23.3289 H   0  0  0  0  0  0
  -24.3583  -36.8907   22.2051 H   0  0  0  0  0  0
  -23.7238  -37.6486   23.6655 H   0  0  0  0  0  0
  -26.0943  -31.5510   20.6092 H   0  0  0  0  0  0
  -26.8401  -30.8347   22.0079 H   0  0  0  0  0  0
  -28.1019  -28.9745   21.2101 H   0  0  0  0  0  0
  -25.9677  -25.9872   18.9059 H   0  0  0  0  0  0
  -23.9807  -27.3344   18.9713 H   0  0  0  0  0  0
  -23.7535  -30.6013   19.4051 H   0  0  0  0  0  0
  -22.7520  -29.2542   19.8562 H   0  0  0  0  0  0
  -25.1289  -36.1927   25.0827 H   0  0  0  0  0  0
  -20.9982  -28.3253   24.1400 H   0  0  0  0  0  0
  -20.5665  -26.2295   23.3609 H   0  0  0  0  0  0
  -21.6643  -26.7433   22.1207 H   0  0  0  0  0  0
  -19.6912  -25.6294   21.1229 H   0  0  0  0  0  0
  -19.6692  -27.3199   20.6741 H   0  0  0  0  0  0
  -17.4204  -26.6678   21.4013 H   0  0  0  0  0  0
  -18.0330  -26.0072   22.9014 H   0  0  0  0  0  0
  -19.7939  -30.7272   24.2255 H   0  0  0  0  0  0
  -17.5014  -31.6263   24.5170 H   0  0  0  0  0  0
  -15.5350  -30.2985   23.7653 H   0  0  0  0  0  0
  -15.8672  -28.0821   22.7064 H   0  0  0  0  0  0
  -24.5973  -30.6990   25.7807 H   0  0  0  0  0  0
  -24.8903  -32.2847   26.4865 H   0  0  0  0  0  0
  -25.8111  -30.8916   27.0248 H   0  0  0  0  0  0
  -26.2911  -29.6748   24.1214 H   0  0  0  0  0  0
  -27.4047  -29.7249   25.4677 H   0  0  0  0  0  0
  -27.8781  -30.4276   23.9395 H   0  0  0  0  0  0
  -27.2729  -33.3601   26.2065 H   0  0  0  0  0  0
  -28.3895  -32.6829   25.0306 H   0  0  0  0  0  0
  -28.0757  -31.8410   26.5394 H   0  0  0  0  0  0
  -28.2594  -38.0094   24.7521 H   0  0  0  0  0  0
  -28.1074  -36.2631   24.6284 H   0  0  0  0  0  0
  -27.2300  -37.1433   25.8870 H   0  0  0  0  0  0
  -20.9364  -29.8762   21.6893 H   0  0  0  0  0  0
  -26.0165  -38.2843   24.1422 H   0  0  0  0  0  0
  -31.6775  -19.8175   21.7352 H   0  0  0  0  0  0
  -31.7119  -17.3731   21.6287 H   0  0  0  0  0  0
  -28.6798  -24.7962   17.7670 H   0  0  0  0  0  0
  -30.1000  -25.1550   18.7309 H   0  0  0  0  0  0
  -30.5330  -22.8925   18.8041 H   0  0  0  0  0  0
  -28.9434  -22.4724   18.1942 H   0  0  0  0  0  0
  -28.1217  -23.9551   21.8268 H   0  0  0  0  0  0
  -29.7688  -24.3937   21.3870 H   0  0  0  0  0  0
  -27.2832  -24.7091   19.7220 H   0  0  0  0  0  0
  -27.2195  -20.9250   20.1930 H   0  0  0  0  0  0
  -26.6386  -19.4687   19.5039 H   0  0  0  0  0  0
  -27.6809  -20.4966   18.5292 H   0  0  0  0  0  0
  -27.6385  -17.8127   18.1128 H   0  0  0  0  0  0
  -26.8537  -17.1758   19.5549 H   0  0  0  0  0  0
  -28.1216  -16.2608   18.7118 H   0  0  0  0  0  0
  -30.8680  -21.9915   21.0258 H   0  0  0  0  0  0
  -29.5282  -21.7336   22.0867 H   0  0  0  0  0  0
  -28.7928  -15.3917   20.7030 H   0  0  0  0  0  0
  -28.0971  -22.3161   20.1924 H   0  0  0  0  0  0
  1 25  1  0  0  0
  1 30  2  0  0  0
  1 84  1  0  0  0
  2  3  1  0  0  0
  2 25  1  0  0  0
  2 86  1  0  0  0
  2 87  1  0  0  0
  3  4  1  0  0  0
  3 88  1  0  0  0
  3 89  1  0  0  0
  4  5  1  0  0  0
  4 90  1  0  0  0
  4 91  1  0  0  0
  5  6  1  0  0  0
  5 26  1  0  0  0
  5 92  1  0  0  0
  6 25  1  0  0  0
  6 93  1  0  0  0
  6 94  1  0  0  0
  7  8  2  0  0  0
  7 26  1  0  0  0
  7 29  1  0  0  0
  8  9  1  0  0  0
  8 22  1  0  0  0
  9 10  1  0  0  0
  9 27  2  0  0  0
 10 11  2  0  0  0
 10 15  1  0  0  0
 11 12  1  0  0  0
 11 95  1  0  0  0
 12 13  2  0  0  0
 12 96  1  0  0  0
 13 14  1  0  0  0
 13 31  1  0  0  0
 14 15  2  0  0  0
 14 97  1  0  0  0
 15 98  1  0  0  0
 16 17  2  0  0  0
 16 21  1  0  0  0
 16 31  1  0  0  0
 17 18  1  0  0  0
 17 99  1  0  0  0
 18 19  2  0  0  0
 18100  1  0  0  0
 19 20  1  0  0  0
 19 24  1  0  0  0
 20 21  2  0  0  0
 20101  1  0  0  0
 21 23  1  0  0  0
 22 28  1  0  0  0
 22 32  2  0  0  0
 26 27  1  0  0  0
 28102  1  0  0  0
 28103  1  0  0  0
 29104  1  0  0  0
 29105  1  0  0  0
 33 34  1  0  0  0
 33 66  1  0  0  0
 33 70  2  0  0  0
 34 36  1  0  0  0
 34 59  1  0  0  0
 34106  1  0  0  0
 35 44  2  0  0  0
 35 45  1  0  0  0
 35 68  1  0  0  0
 36 56  1  0  0  0
 36107  1  0  0  0
 37 39  1  0  0  0
 37 47  1  0  0  0
 37 66  1  0  0  0
 37108  1  0  0  0
 38 43  2  0  0  0
 38 46  1  0  0  0
 38 47  1  0  0  0
 39 64  1  0  0  0
 39 67  2  0  0  0
 40 52  1  0  0  0
 40 53  2  0  0  0
 40 58  1  0  0  0
 41109  1  0  0  0
 41110  1  0  0  0
 41111  1  0  0  0
 41 48  1  0  0  0
 42 43  1  0  0  0
 42 66  1  0  0  0
 42112  1  0  0  0
 42113  1  0  0  0
 43 44  1  0  0  0
 44114  1  0  0  0
 45 46  2  0  0  0
 45115  1  0  0  0
 46116  1  0  0  0
 47117  1  0  0  0
 47118  1  0  0  0
 48 56  1  0  0  0
 48 65  1  0  0  0
 48119  1  0  0  0
 49 50  1  0  0  0
 49 53  1  0  0  0
 49 64  1  0  0  0
 49120  1  0  0  0
 50 51  1  0  0  0
 50121  1  0  0  0
 50122  1  0  0  0
 51 52  1  0  0  0
 51123  1  0  0  0
 51124  1  0  0  0
 52125  1  0  0  0
 52126  1  0  0  0
 53 54  1  0  0  0
 54 55  2  0  0  0
 54127  1  0  0  0
 55 57  1  0  0  0
 55128  1  0  0  0
 56 69  2  0  0  0
 57 58  2  0  0  0
 57129  1  0  0  0
 58130  1  0  0  0
 59 60  1  0  0  0
 59 61  1  0  0  0
 59 62  1  0  0  0
 60131  1  0  0  0
 60132  1  0  0  0
 60133  1  0  0  0
 61134  1  0  0  0
 61135  1  0  0  0
 61136  1  0  0  0
 62137  1  0  0  0
 62138  1  0  0  0
 62139  1  0  0  0
 63 65  1  0  0  0
 63140  1  0  0  0
 63141  1  0  0  0
 63142  1  0  0  0
 64143  1  0  0  0
 65144  1  0  0  0
 68 80  1  0  0  0
 71 72  2  0  0  0
 71 73  1  0  0  0
 71145  1  0  0  0
 72 76  1  0  0  0
 72146  1  0  0  0
 73 74  2  0  0  0
 73 83  1  0  0  0
 74 75  1  0  0  0
 74 81  1  0  0  0
 75 76  2  0  0  0
 75 82  1  0  0  0
 76 84  1  0  0  0
 77 78  1  0  0  0
 77 80  1  0  0  0
 77147  1  0  0  0
 77148  1  0  0  0
 78 85  1  0  0  0
 78149  1  0  0  0
 78150  1  0  0  0
 79 80  1  0  0  0
 79 85  1  0  0  0
 79151  1  0  0  0
 79152  1  0  0  0
 80153  1  0  0  0
 81154  1  0  0  0
 81155  1  0  0  0
 81156  1  0  0  0
 82157  1  0  0  0
 82158  1  0  0  0
 82159  1  0  0  0
 83160  1  0  0  0
 83161  1  0  0  0
 83 85  1  0  0  0
 84162  1  0  0  0
 85163  1  0  0  0
M  CHG  1  85   1
M  ISO  4   1 100  68 101  80 101  84 100
M  END
> <chiral flag>
0

> <version>
0

> <s_m_source_file>
/data/baiqing/PycharmProjects/Reinvent-master-3.2/result/LINK_invent/BTK/process_docking_weight1_custom_product_contain_oxygen_bond_distance_aromatic_linkinvent_7_9_3/rearranged_h_0031.sdf

> <i_m_source_file_index>
22

> <r_mmod_Potential_Energy-OPLS-2005>
37.0092926025391

> <r_mmod_Stretch_Energy-OPLS-2005>
80.5584716796875

> <r_mmod_Bend_Energy-OPLS-2005>
185.754409790039

> <r_mmod_Torsional_Energy-OPLS-2005>
289.885986328125

> <r_mmod_Improper_Torsional_Energy-OPLS-2005>
7.15242624282837

> <r_mmod_Van_der_Waal_Energy-OPLS-2005>
147.742156982422

> <r_mmod_Electrostatic_Energy-OPLS-2005>
-289.251190185547

> <r_mmod_Solvation_Energy-OPLS-2005>
-437.6845703125

> <b_mmod_Minimization_Converged-OPLS-2005>
0

> <r_mmod_RMS_Derivative-OPLS-2005>
1.17485523223877

$$$$
22
                    3D
 Structure written by MMmdl.
159168  0  0  1  0            999 V2000
  -30.7058  -14.5178   20.5773 C   0  0  0  0  0  0
  -30.4200  -12.3420   19.4291 C   0  0  0  0  0  0
  -29.4921  -12.5060   18.2088 C   0  0  0  0  0  0
  -28.0160  -12.3578   18.6251 C   0  0  0  0  0  0
  -27.6551  -13.2148   19.8682 C   0  0  2  0  0  0
  -28.6983  -13.0354   20.9928 C   0  0  0  0  0  0
  -25.2559  -13.8174   20.5682 C   0  0  0  0  0  0
  -24.1821  -13.0440   20.9177 C   0  0  0  0  0  0
  -24.6389  -11.6911   20.8737 C   0  0  0  0  0  0
  -23.9060  -10.4294   21.0404 C   0  0  0  0  0  0
  -24.3613   -9.4211   21.9182 C   0  0  0  0  0  0
  -23.6291   -8.2245   22.0754 C   0  0  0  0  0  0
  -22.4274   -8.0281   21.3544 C   0  0  0  0  0  0
  -21.9907   -9.0253   20.4646 C   0  0  0  0  0  0
  -22.7233  -10.2134   20.3055 C   0  0  0  0  0  0
  -21.6854   -6.0735   22.5279 C   0  0  0  0  0  0
  -21.4014   -6.5639   23.8212 C   0  0  0  0  0  0
  -21.3659   -5.6792   24.9174 C   0  0  0  0  0  0
  -21.6044   -4.3055   24.7226 C   0  0  0  0  0  0
  -21.8819   -3.8146   23.4347 C   0  0  0  0  0  0
  -21.9193   -4.6963   22.3403 C   0  0  0  0  0  0
  -22.7845  -13.5234   21.1845 C   0  0  0  0  0  0
  -22.1661   -4.2148   21.0981 F   0  0  0  0  0  0
  -21.5629   -3.4539   25.7738 F   0  0  0  0  0  0
  -30.0210  -13.3474   20.4299 N   0  0  0  0  0  0
  -26.2995  -12.9359   20.3352 N   0  0  0  0  0  0
  -25.9318  -11.6511   20.5770 N   0  0  0  0  0  0
  -22.0493  -12.8225   22.0406 N   0  0  0  0  0  0
  -25.4271  -15.1889   20.4097 N   0  0  0  0  0  0
  -31.8404  -14.6724   20.1187 O   0  0  0  0  0  0
  -21.6639   -6.8878   21.4241 O   0  0  0  0  0  0
  -22.3525  -14.5541   20.6700 O   0  0  0  0  0  0
  -24.6187  -31.8658   23.2091 C   0  0  0  0  0  0
  -25.9067  -32.4811   23.8392 C   0  0  1  0  0  0
  -27.2208  -27.3791   20.1146 C   0  0  0  0  0  0
  -25.5912  -33.8611   24.2319 N   0  0  0  0  0  0
  -23.4085  -30.4905   21.5508 C   0  0  2  0  0  0
  -24.8531  -28.9507   20.1190 C   0  0  0  0  0  0
  -22.7430  -29.4652   22.4978 C   0  0  0  0  0  0
  -18.0276  -28.1379   22.8490 C   0  0  0  0  0  0
  -24.1487  -36.7306   23.2638 C   0  0  0  0  0  0
  -25.9434  -30.8124   21.3740 C   0  0  0  0  0  0
  -26.0163  -29.4413   20.7260 C   0  0  0  0  0  0
  -27.2035  -28.6630   20.7217 C   0  0  0  0  0  0
  -26.0487  -26.9386   19.4648 C   0  0  0  0  0  0
  -24.8665  -27.6994   19.4839 C   0  0  0  0  0  0
  -23.6200  -29.8256   20.1655 C   0  0  0  0  0  0
  -25.4110  -36.3103   24.0336 C   0  0  1  0  0  0
  -20.5870  -28.3671   23.1306 C   0  0  2  0  0  0
  -20.6767  -26.9403   22.5413 C   0  0  0  0  0  0
  -19.5745  -26.6384   21.5212 C   0  0  0  0  0  0
  -18.1924  -26.7923   22.1623 C   0  0  0  0  0  0
  -19.1527  -28.8841   23.2895 C   0  0  0  0  0  0
  -18.9455  -30.1446   23.8907 C   0  0  0  0  0  0
  -17.6457  -30.6585   24.0566 C   0  0  0  0  0  0
  -25.9041  -34.9470   23.5123 C   0  0  0  0  0  0
  -16.5348  -29.9087   23.6328 C   0  0  0  0  0  0
  -16.7265  -28.6504   23.0348 C   0  0  0  0  0  0
  -26.4479  -31.6599   25.0733 C   0  0  0  0  0  0
  -25.3735  -31.3717   26.1476 C   0  0  0  0  0  0
  -27.0314  -30.3035   24.6137 C   0  0  0  0  0  0
  -27.6052  -32.4323   25.7493 C   0  0  0  0  0  0
  -27.5580  -37.1808   24.8466 C   0  0  0  0  0  0
  -21.4154  -29.3037   22.3712 N   0  0  0  0  0  0
  -26.4293  -37.3790   23.9409 N   0  0  0  0  0  0
  -24.6752  -31.0720   22.1020 N   0  0  0  0  0  0
  -23.4185  -28.8190   23.3032 O   0  0  0  0  0  0
  -28.3765  -26.6119   20.0717 O   0  0  0  0  0  0
  -26.5602  -34.8925   22.4685 O   0  0  0  0  0  0
  -23.5368  -32.1436   23.7454 O   0  0  0  0  0  0
  -31.0368  -19.0936   20.6217 C   0  0  0  0  0  0
  -30.6731  -20.4426   20.3923 C   0  0  0  0  0  0
  -28.4883  -20.0058   21.3135 C   0  0  0  0  0  0
  -30.1474  -18.1766   21.2294 C   0  0  0  0  0  0
  -29.4001  -20.9447   20.7566 C   0  0  0  0  0  0
  -28.8510  -18.6520   21.5544 C   0  0  0  0  0  0
  -27.4662  -24.1872   20.0765 C   0  0  0  0  0  0
  -29.8394  -24.7316   20.5518 C   0  0  0  0  0  0
  -27.6935  -22.7669   20.6671 C   0  0  0  0  0  0
  -30.0296  -23.3033   21.1348 C   0  0  0  0  0  0
  -28.3970  -25.2793   20.6758 C   0  0  0  0  0  0
  -30.6828  -16.7893   21.6704 C   0  0  0  0  0  0
  -29.0892  -22.3279   20.5619 N   0  0  0  0  0  0
  -30.0530  -15.5421   21.1747 N   0  0  0  0  0  0
  -27.7034  -17.6049   22.3118 Cl  0  0  0  0  0  0
  -31.4633  -12.4427   19.1248 H   0  0  0  0  0  0
  -30.3297  -11.3390   19.8489 H   0  0  0  0  0  0
  -29.7402  -11.7684   17.4444 H   0  0  0  0  0  0
  -29.6495  -13.4849   17.7531 H   0  0  0  0  0  0
  -27.8387  -11.3031   18.8393 H   0  0  0  0  0  0
  -27.3613  -12.6107   17.7903 H   0  0  0  0  0  0
  -27.6873  -14.2574   19.5503 H   0  0  0  0  0  0
  -28.6882  -12.0090   21.3625 H   0  0  0  0  0  0
  -28.4528  -13.6596   21.8530 H   0  0  0  0  0  0
  -25.2759   -9.5688   22.4755 H   0  0  0  0  0  0
  -24.0001   -7.4637   22.7472 H   0  0  0  0  0  0
  -21.0839   -8.8770   19.8952 H   0  0  0  0  0  0
  -22.3691  -10.9671   19.6163 H   0  0  0  0  0  0
  -21.2005   -7.6147   23.9716 H   0  0  0  0  0  0
  -21.1481   -6.0523   25.9077 H   0  0  0  0  0  0
  -22.0599   -2.7609   23.2848 H   0  0  0  0  0  0
  -22.4110  -11.9884   22.4788 H   0  0  0  0  0  0
  -21.1114  -13.1252   22.2622 H   0  0  0  0  0  0
  -24.6681  -15.8478   20.5422 H   0  0  0  0  0  0
  -26.2927  -15.6345   20.1335 H   0  0  0  0  0  0
  -26.7135  -32.5504   23.1147 H   0  0  0  0  0  0
  -25.0073  -33.9773   25.0471 H   0  0  0  0  0  0
  -22.6994  -31.3091   21.4110 H   0  0  0  0  0  0
  -23.3748  -35.9641   23.3310 H   0  0  0  0  0  0
  -24.3581  -36.8910   22.2051 H   0  0  0  0  0  0
  -23.7243  -37.6514   23.6647 H   0  0  0  0  0  0
  -26.0648  -31.5736   20.6019 H   0  0  0  0  0  0
  -26.8286  -30.8651   21.9958 H   0  0  0  0  0  0
  -28.1019  -29.0392   21.1909 H   0  0  0  0  0  0
  -26.0397  -26.0172   18.9050 H   0  0  0  0  0  0
  -23.9814  -27.3273   18.9866 H   0  0  0  0  0  0
  -23.7361  -30.6018   19.4083 H   0  0  0  0  0  0
  -22.7414  -29.2515   19.8649 H   0  0  0  0  0  0
  -25.1287  -36.1966   25.0829 H   0  0  0  0  0  0
  -20.9962  -28.3236   24.1427 H   0  0  0  0  0  0
  -20.5670  -26.2279   23.3604 H   0  0  0  0  0  0
  -21.6638  -26.7443   22.1205 H   0  0  0  0  0  0
  -19.6909  -25.6298   21.1233 H   0  0  0  0  0  0
  -19.6686  -27.3203   20.6749 H   0  0  0  0  0  0
  -17.4195  -26.6674   21.4024 H   0  0  0  0  0  0
  -18.0323  -26.0061   22.9015 H   0  0  0  0  0  0
  -19.7933  -30.7258   24.2280 H   0  0  0  0  0  0
  -17.5015  -31.6266   24.5165 H   0  0  0  0  0  0
  -15.5350  -30.2994   23.7647 H   0  0  0  0  0  0
  -15.8664  -28.0829   22.7056 H   0  0  0  0  0  0
  -24.5910  -30.7061   25.7813 H   0  0  0  0  0  0
  -24.8925  -32.2877   26.4916 H   0  0  0  0  0  0
  -25.8080  -30.8892   27.0240 H   0  0  0  0  0  0
  -26.2870  -29.6795   24.1177 H   0  0  0  0  0  0
  -27.4057  -29.7274   25.4609 H   0  0  0  0  0  0
  -27.8718  -30.4344   23.9317 H   0  0  0  0  0  0
  -27.2673  -33.3618   26.2087 H   0  0  0  0  0  0
  -28.3850  -32.6891   25.0311 H   0  0  0  0  0  0
  -28.0734  -31.8439   26.5394 H   0  0  0  0  0  0
  -28.2605  -38.0098   24.7507 H   0  0  0  0  0  0
  -28.1068  -36.2630   24.6298 H   0  0  0  0  0  0
  -27.2298  -37.1465   25.8870 H   0  0  0  0  0  0
  -20.9319  -29.8768   21.6939 H   0  0  0  0  0  0
  -26.0180  -38.2868   24.1409 H   0  0  0  0  0  0
  -32.0382  -18.7785   20.3642 H   0  0  0  0  0  0
  -31.4032  -21.0963   19.9367 H   0  0  0  0  0  0
  -27.4981  -20.3161   21.6100 H   0  0  0  0  0  0
  -26.4243  -24.4345   20.2714 H   0  0  0  0  0  0
  -27.5916  -24.1522   18.9936 H   0  0  0  0  0  0
  -30.1302  -24.7255   19.5004 H   0  0  0  0  0  0
  -30.5298  -25.4149   21.0478 H   0  0  0  0  0  0
  -27.0424  -22.0626   20.1467 H   0  0  0  0  0  0
  -27.3940  -22.7566   21.7168 H   0  0  0  0  0  0
  -29.8862  -23.3314   22.2164 H   0  0  0  0  0  0
  -31.0636  -22.9973   20.9761 H   0  0  0  0  0  0
  -28.1597  -25.3930   21.7348 H   0  0  0  0  0  0
  -30.6007  -16.7601   22.7576 H   0  0  0  0  0  0
  -31.7579  -16.7652   21.4848 H   0  0  0  0  0  0
  -29.1029  -15.3684   21.4661 H   0  0  0  0  0  0
  1 25  1  0  0  0
  1 30  2  0  0  0
  1 84  1  0  0  0
  2  3  1  0  0  0
  2 25  1  0  0  0
  2 86  1  0  0  0
  2 87  1  0  0  0
  3  4  1  0  0  0
  3 88  1  0  0  0
  3 89  1  0  0  0
  4  5  1  0  0  0
  4 90  1  0  0  0
  4 91  1  0  0  0
  5  6  1  0  0  0
  5 26  1  0  0  0
  5 92  1  0  0  0
  6 25  1  0  0  0
  6 93  1  0  0  0
  6 94  1  0  0  0
  7  8  2  0  0  0
  7 26  1  0  0  0
  7 29  1  0  0  0
  8  9  1  0  0  0
  8 22  1  0  0  0
  9 10  1  0  0  0
  9 27  2  0  0  0
 10 11  2  0  0  0
 10 15  1  0  0  0
 11 12  1  0  0  0
 11 95  1  0  0  0
 12 13  2  0  0  0
 12 96  1  0  0  0
 13 14  1  0  0  0
 13 31  1  0  0  0
 14 15  2  0  0  0
 14 97  1  0  0  0
 15 98  1  0  0  0
 16 17  2  0  0  0
 16 21  1  0  0  0
 16 31  1  0  0  0
 17 18  1  0  0  0
 17 99  1  0  0  0
 18 19  2  0  0  0
 18100  1  0  0  0
 19 20  1  0  0  0
 19 24  1  0  0  0
 20 21  2  0  0  0
 20101  1  0  0  0
 21 23  1  0  0  0
 22 28  1  0  0  0
 22 32  2  0  0  0
 26 27  1  0  0  0
 28102  1  0  0  0
 28103  1  0  0  0
 29104  1  0  0  0
 29105  1  0  0  0
 33 34  1  0  0  0
 33 66  1  0  0  0
 33 70  2  0  0  0
 34 36  1  0  0  0
 34 59  1  0  0  0
 34106  1  0  0  0
 35 44  2  0  0  0
 35 45  1  0  0  0
 35 68  1  0  0  0
 36 56  1  0  0  0
 36107  1  0  0  0
 37 39  1  0  0  0
 37 47  1  0  0  0
 37 66  1  0  0  0
 37108  1  0  0  0
 38 43  2  0  0  0
 38 46  1  0  0  0
 38 47  1  0  0  0
 39 64  1  0  0  0
 39 67  2  0  0  0
 40 52  1  0  0  0
 40 53  2  0  0  0
 40 58  1  0  0  0
 41109  1  0  0  0
 41110  1  0  0  0
 41111  1  0  0  0
 41 48  1  0  0  0
 42 43  1  0  0  0
 42 66  1  0  0  0
 42112  1  0  0  0
 42113  1  0  0  0
 43 44  1  0  0  0
 44114  1  0  0  0
 45 46  2  0  0  0
 45115  1  0  0  0
 46116  1  0  0  0
 47117  1  0  0  0
 47118  1  0  0  0
 48 56  1  0  0  0
 48 65  1  0  0  0
 48119  1  0  0  0
 49 50  1  0  0  0
 49 53  1  0  0  0
 49 64  1  0  0  0
 49120  1  0  0  0
 50 51  1  0  0  0
 50121  1  0  0  0
 50122  1  0  0  0
 51 52  1  0  0  0
 51123  1  0  0  0
 51124  1  0  0  0
 52125  1  0  0  0
 52126  1  0  0  0
 53 54  1  0  0  0
 54 55  2  0  0  0
 54127  1  0  0  0
 55 57  1  0  0  0
 55128  1  0  0  0
 56 69  2  0  0  0
 57 58  2  0  0  0
 57129  1  0  0  0
 58130  1  0  0  0
 59 60  1  0  0  0
 59 61  1  0  0  0
 59 62  1  0  0  0
 60131  1  0  0  0
 60132  1  0  0  0
 60133  1  0  0  0
 61134  1  0  0  0
 61135  1  0  0  0
 61136  1  0  0  0
 62137  1  0  0  0
 62138  1  0  0  0
 62139  1  0  0  0
 63 65  1  0  0  0
 63140  1  0  0  0
 63141  1  0  0  0
 63142  1  0  0  0
 64143  1  0  0  0
 65144  1  0  0  0
 68 81  1  0  0  0
 71 72  2  0  0  0
 71 74  1  0  0  0
 71145  1  0  0  0
 72 75  1  0  0  0
 72146  1  0  0  0
 73 75  2  0  0  0
 73 76  1  0  0  0
 73147  1  0  0  0
 74 76  2  0  0  0
 74 82  1  0  0  0
 75 83  1  0  0  0
 76 85  1  0  0  0
 77 79  1  0  0  0
 77 81  1  0  0  0
 77148  1  0  0  0
 77149  1  0  0  0
 78 80  1  0  0  0
 78 81  1  0  0  0
 78150  1  0  0  0
 78151  1  0  0  0
 79 83  1  0  0  0
 79152  1  0  0  0
 79153  1  0  0  0
 80 83  1  0  0  0
 80154  1  0  0  0
 80155  1  0  0  0
 81156  1  0  0  0
 82 84  1  0  0  0
 82157  1  0  0  0
 82158  1  0  0  0
 84159  1  0  0  0
M  ISO  4   1 100  68 101  81 101  84 100
M  END
> <chiral flag>
0

> <version>
0

> <s_m_source_file>
/data/baiqing/PycharmProjects/Reinvent-master-3.2/result/LINK_invent/BTK/process_docking_weight1_custom_product_contain_oxygen_bond_distance_aromatic_linkinvent_7_9_3/rearranged_h_0031.sdf

> <i_m_source_file_index>
23

> <r_mmod_Potential_Energy-OPLS-2005>
-18.8841361999512

> <r_mmod_Stretch_Energy-OPLS-2005>
50.7289619445801

> <r_mmod_Bend_Energy-OPLS-2005>
123.325675964355

> <r_mmod_Torsional_Energy-OPLS-2005>
246.022705078125

> <r_mmod_Improper_Torsional_Energy-OPLS-2005>
6.87644720077515

> <r_mmod_Van_der_Waal_Energy-OPLS-2005>
155.816772460938

> <r_mmod_Electrostatic_Energy-OPLS-2005>
-406.614440917969

> <r_mmod_Solvation_Energy-OPLS-2005>
-215.446044921875

> <b_mmod_Minimization_Converged-OPLS-2005>
0

> <r_mmod_RMS_Derivative-OPLS-2005>
0.242338120937347

$$$$
23
                    3D
 Structure written by MMmdl.
170179  0  0  1  0            999 V2000
  -30.6548  -14.6357   20.4550 C   0  0  0  0  0  0
  -30.4424  -12.3821   19.4392 C   0  0  0  0  0  0
  -29.5050  -12.4797   18.2168 C   0  0  0  0  0  0
  -28.0357  -12.3141   18.6480 C   0  0  0  0  0  0
  -27.6574  -13.2123   19.8538 C   0  0  2  0  0  0
  -28.7095  -13.1009   20.9821 C   0  0  0  0  0  0
  -25.2594  -13.8167   20.5650 C   0  0  0  0  0  0
  -24.1894  -13.0435   20.9187 C   0  0  0  0  0  0
  -24.6448  -11.6895   20.8727 C   0  0  0  0  0  0
  -23.9114  -10.4288   21.0420 C   0  0  0  0  0  0
  -24.3660   -9.4210   21.9213 C   0  0  0  0  0  0
  -23.6325   -8.2249   22.0777 C   0  0  0  0  0  0
  -22.4304   -8.0295   21.3559 C   0  0  0  0  0  0
  -21.9936   -9.0278   20.4667 C   0  0  0  0  0  0
  -22.7268  -10.2154   20.3087 C   0  0  0  0  0  0
  -21.6858   -6.0742   22.5272 C   0  0  0  0  0  0
  -21.4010   -6.5650   23.8199 C   0  0  0  0  0  0
  -21.3656   -5.6808   24.9168 C   0  0  0  0  0  0
  -21.6057   -4.3071   24.7230 C   0  0  0  0  0  0
  -21.8820   -3.8152   23.4350 C   0  0  0  0  0  0
  -21.9189   -4.6965   22.3399 C   0  0  0  0  0  0
  -22.7916  -13.5232   21.1876 C   0  0  0  0  0  0
  -22.1650   -4.2142   21.0979 F   0  0  0  0  0  0
  -21.5641   -3.4569   25.7751 F   0  0  0  0  0  0
  -30.0278  -13.4163   20.4075 N   0  0  0  0  0  0
  -26.3041  -12.9340   20.3308 N   0  0  0  0  0  0
  -25.9395  -11.6491   20.5811 N   0  0  0  0  0  0
  -22.0597  -12.8200   22.0414 N   0  0  0  0  0  0
  -25.4281  -15.1900   20.3980 N   0  0  0  0  0  0
  -31.8266  -14.7709   20.1030 O   0  0  0  0  0  0
  -21.6649   -6.8910   21.4247 O   0  0  0  0  0  0
  -22.3586  -14.5548   20.6755 O   0  0  0  0  0  0
  -24.6291  -31.8577   23.1992 C   0  0  0  0  0  0
  -25.9121  -32.4771   23.8347 C   0  0  1  0  0  0
  -27.2429  -27.3144   20.1089 C   0  0  0  0  0  0
  -25.5915  -33.8570   24.2273 N   0  0  0  0  0  0
  -23.4288  -30.4762   21.5424 C   0  0  2  0  0  0
  -24.8777  -28.9308   20.1122 C   0  0  0  0  0  0
  -22.7552  -29.4586   22.4934 C   0  0  0  0  0  0
  -18.0352  -28.1348   22.8516 C   0  0  0  0  0  0
  -24.1506  -36.7285   23.2636 C   0  0  0  0  0  0
  -25.9693  -30.7834   21.3774 C   0  0  0  0  0  0
  -26.0450  -29.4129   20.7154 C   0  0  0  0  0  0
  -27.2277  -28.6154   20.7060 C   0  0  0  0  0  0
  -26.0507  -26.8942   19.4731 C   0  0  0  0  0  0
  -24.8811  -27.6770   19.4864 C   0  0  0  0  0  0
  -23.6468  -29.8105   20.1585 C   0  0  0  0  0  0
  -25.4133  -36.3064   24.0322 C   0  0  1  0  0  0
  -20.5978  -28.3681   23.1315 C   0  0  2  0  0  0
  -20.6846  -26.9417   22.5443 C   0  0  0  0  0  0
  -19.5871  -26.6511   21.5145 C   0  0  0  0  0  0
  -18.2035  -26.7911   22.1583 C   0  0  0  0  0  0
  -19.1605  -28.8828   23.2907 C   0  0  0  0  0  0
  -18.9546  -30.1439   23.8903 C   0  0  0  0  0  0
  -17.6555  -30.6562   24.0607 C   0  0  0  0  0  0
  -25.9054  -34.9431   23.5089 C   0  0  0  0  0  0
  -16.5437  -29.9055   23.6424 C   0  0  0  0  0  0
  -16.7337  -28.6476   23.0422 C   0  0  0  0  0  0
  -26.4509  -31.6576   25.0722 C   0  0  0  0  0  0
  -25.3750  -31.3728   26.1455 C   0  0  0  0  0  0
  -27.0335  -30.2980   24.6217 C   0  0  0  0  0  0
  -27.6059  -32.4325   25.7498 C   0  0  0  0  0  0
  -27.5584  -37.1799   24.8459 C   0  0  0  0  0  0
  -21.4270  -29.2996   22.3659 N   0  0  0  0  0  0
  -26.4300  -37.3766   23.9383 N   0  0  0  0  0  0
  -24.6946  -31.0567   22.0959 N   0  0  0  0  0  0
  -23.4279  -28.8170   23.3047 O   0  0  0  0  0  0
  -28.3742  -26.4765   20.1702 O   0  0  0  0  0  0
  -26.5643  -34.8902   22.4667 O   0  0  0  0  0  0
  -23.5427  -32.1350   23.7281 O   0  0  0  0  0  0
  -30.1043  -18.0964   21.3999 C   0  0  0  0  0  0
  -29.9743  -19.5038   21.1741 C   0  0  0  0  0  0
  -29.6212  -19.0540   18.8206 C   0  0  0  0  0  0
  -29.6784  -20.0261   19.8771 C   0  0  0  0  0  0
  -29.7423  -17.6383   19.0602 C   0  0  0  0  0  0
  -29.9660  -17.1287   20.3729 C   0  0  0  0  0  0
  -27.5514  -22.8230   20.8781 C   0  0  0  0  0  0
  -26.5837  -21.9181   21.1500 C   0  0  0  0  0  0
  -27.3019  -24.3262   20.9619 C   0  0  0  0  0  0
  -29.4698  -24.0552   20.1061 C   0  0  0  0  0  0
  -28.2305  -25.0092   19.9631 C   0  0  2  0  0  0
  -30.1194  -20.4241   22.3712 C   0  0  0  0  0  0
  -29.4273  -19.5609   17.3886 C   0  0  0  0  0  0
  -29.6088  -16.6681   17.8887 C   0  0  0  0  0  0
  -26.5713  -20.4059   21.1669 C   0  0  0  0  0  0
  -29.4606  -21.5702   19.5237 C   0  0  0  0  0  0
  -29.8499  -15.7111   20.7209 N   0  0  0  0  0  0
  -29.0101  -22.6544   20.4942 N   0  3  2  0  0  0
  -30.3769  -11.3918   19.8919 H   0  0  0  0  0  0
  -31.4810  -12.4986   19.1228 H   0  0  0  0  0  0
  -29.7594  -11.7096   17.4862 H   0  0  0  0  0  0
  -29.6420  -13.4348   17.7112 H   0  0  0  0  0  0
  -27.8975  -11.2676   18.9197 H   0  0  0  0  0  0
  -27.3708  -12.5047   17.8052 H   0  0  0  0  0  0
  -27.6694  -14.2388   19.4842 H   0  0  0  0  0  0
  -28.4604  -13.7825   21.7957 H   0  0  0  0  0  0
  -28.7174  -12.1011   21.4223 H   0  0  0  0  0  0
  -25.2846   -9.5669   22.4751 H   0  0  0  0  0  0
  -24.0030   -7.4645   22.7499 H   0  0  0  0  0  0
  -21.0872   -8.8822   19.8973 H   0  0  0  0  0  0
  -22.3771  -10.9702   19.6179 H   0  0  0  0  0  0
  -21.1981   -7.6154   23.9690 H   0  0  0  0  0  0
  -21.1491   -6.0553   25.9066 H   0  0  0  0  0  0
  -22.0597   -2.7614   23.2861 H   0  0  0  0  0  0
  -22.4194  -11.9797   22.4687 H   0  0  0  0  0  0
  -21.1241  -13.1232   22.2701 H   0  0  0  0  0  0
  -24.6607  -15.8465   20.5056 H   0  0  0  0  0  0
  -26.2697  -15.6222   20.0390 H   0  0  0  0  0  0
  -26.7188  -32.5439   23.1083 H   0  0  0  0  0  0
  -25.0025  -33.9733   25.0397 H   0  0  0  0  0  0
  -22.7250  -31.2968   21.3946 H   0  0  0  0  0  0
  -23.3752  -35.9626   23.3312 H   0  0  0  0  0  0
  -24.3587  -36.8906   22.2042 H   0  0  0  0  0  0
  -23.7283  -37.6502   23.6661 H   0  0  0  0  0  0
  -26.1079  -31.5496   20.6138 H   0  0  0  0  0  0
  -26.8419  -30.8228   22.0174 H   0  0  0  0  0  0
  -28.1230  -28.9807   21.1904 H   0  0  0  0  0  0
  -25.9864  -25.9475   18.9617 H   0  0  0  0  0  0
  -23.9878  -27.3010   19.0088 H   0  0  0  0  0  0
  -23.7648  -30.5841   19.4005 H   0  0  0  0  0  0
  -22.7711  -29.2385   19.8500 H   0  0  0  0  0  0
  -25.1320  -36.1902   25.0819 H   0  0  0  0  0  0
  -21.0086  -28.3233   24.1450 H   0  0  0  0  0  0
  -20.5603  -26.2367   23.3664 H   0  0  0  0  0  0
  -21.6769  -26.7352   22.1400 H   0  0  0  0  0  0
  -19.7075  -25.6509   21.0974 H   0  0  0  0  0  0
  -19.6879  -27.3525   20.6845 H   0  0  0  0  0  0
  -17.4209  -26.6454   21.4110 H   0  0  0  0  0  0
  -18.0627  -26.0098   22.9060 H   0  0  0  0  0  0
  -19.8044  -30.7287   24.2207 H   0  0  0  0  0  0
  -17.5156  -31.6245   24.5217 H   0  0  0  0  0  0
  -15.5479  -30.2999   23.7815 H   0  0  0  0  0  0
  -15.8718  -28.0824   22.7201 H   0  0  0  0  0  0
  -24.5920  -30.7079   25.7804 H   0  0  0  0  0  0
  -24.8953  -32.2895   26.4886 H   0  0  0  0  0  0
  -25.8081  -30.8906   27.0229 H   0  0  0  0  0  0
  -26.2885  -29.6751   24.1253 H   0  0  0  0  0  0
  -27.3998  -29.7245   25.4747 H   0  0  0  0  0  0
  -27.8796  -30.4253   23.9462 H   0  0  0  0  0  0
  -27.2648  -33.3614   26.2094 H   0  0  0  0  0  0
  -28.3856  -32.6924   25.0320 H   0  0  0  0  0  0
  -28.0753  -31.8452   26.5407 H   0  0  0  0  0  0
  -28.2616  -38.0089   24.7491 H   0  0  0  0  0  0
  -28.1077  -36.2614   24.6304 H   0  0  0  0  0  0
  -27.2294  -37.1467   25.8867 H   0  0  0  0  0  0
  -20.9454  -29.8583   21.6759 H   0  0  0  0  0  0
  -26.0174  -38.2844   24.1360 H   0  0  0  0  0  0
  -30.2866  -17.7414   22.4043 H   0  0  0  0  0  0
  -25.6284  -22.3256   21.4462 H   0  0  0  0  0  0
  -27.5372  -24.6608   21.9746 H   0  0  0  0  0  0
  -26.2546  -24.5513   20.7732 H   0  0  0  0  0  0
  -30.1188  -24.4230   20.9026 H   0  0  0  0  0  0
  -30.0669  -24.0763   19.1932 H   0  0  0  0  0  0
  -27.8416  -24.8455   18.9578 H   0  0  0  0  0  0
  -30.7455  -21.2841   22.1387 H   0  0  0  0  0  0
  -30.5736  -19.9030   23.2139 H   0  0  0  0  0  0
  -29.1386  -20.7700   22.6944 H   0  0  0  0  0  0
  -28.4522  -20.0362   17.2742 H   0  0  0  0  0  0
  -29.4897  -18.8027   16.6118 H   0  0  0  0  0  0
  -30.2031  -20.2926   17.1544 H   0  0  0  0  0  0
  -30.3933  -16.8496   17.1535 H   0  0  0  0  0  0
  -28.6375  -16.7748   17.4061 H   0  0  0  0  0  0
  -29.6989  -15.6271   18.1721 H   0  0  0  0  0  0
  -27.3841  -19.9404   20.6358 H   0  0  0  0  0  0
  -25.6633  -20.0644   20.6736 H   0  0  0  0  0  0
  -26.5529  -20.0418   22.1958 H   0  0  0  0  0  0
  -28.7734  -21.6680   18.6875 H   0  0  0  0  0  0
  -30.4316  -21.8776   19.1316 H   0  0  0  0  0  0
  -28.9297  -15.4445   21.0279 H   0  0  0  0  0  0
  -29.5200  -22.4386   21.3359 H   0  0  0  0  0  0
  1 25  1  0  0  0
  1 30  2  0  0  0
  1 87  1  0  0  0
  2  3  1  0  0  0
  2 25  1  0  0  0
  2 89  1  0  0  0
  2 90  1  0  0  0
  3  4  1  0  0  0
  3 91  1  0  0  0
  3 92  1  0  0  0
  4  5  1  0  0  0
  4 93  1  0  0  0
  4 94  1  0  0  0
  5  6  1  0  0  0
  5 26  1  0  0  0
  5 95  1  0  0  0
  6 25  1  0  0  0
  6 96  1  0  0  0
  6 97  1  0  0  0
  7  8  2  0  0  0
  7 26  1  0  0  0
  7 29  1  0  0  0
  8  9  1  0  0  0
  8 22  1  0  0  0
  9 10  1  0  0  0
  9 27  2  0  0  0
 10 11  2  0  0  0
 10 15  1  0  0  0
 11 12  1  0  0  0
 11 98  1  0  0  0
 12 13  2  0  0  0
 12 99  1  0  0  0
 13 14  1  0  0  0
 13 31  1  0  0  0
 14 15  2  0  0  0
 14100  1  0  0  0
 15101  1  0  0  0
 16 17  2  0  0  0
 16 21  1  0  0  0
 16 31  1  0  0  0
 17 18  1  0  0  0
 17102  1  0  0  0
 18 19  2  0  0  0
 18103  1  0  0  0
 19 20  1  0  0  0
 19 24  1  0  0  0
 20 21  2  0  0  0
 20104  1  0  0  0
 21 23  1  0  0  0
 22 28  1  0  0  0
 22 32  2  0  0  0
 26 27  1  0  0  0
 28105  1  0  0  0
 28106  1  0  0  0
 29107  1  0  0  0
 29108  1  0  0  0
 33 34  1  0  0  0
 33 66  1  0  0  0
 33 70  2  0  0  0
 34 36  1  0  0  0
 34 59  1  0  0  0
 34109  1  0  0  0
 35 44  2  0  0  0
 35 45  1  0  0  0
 35 68  1  0  0  0
 36 56  1  0  0  0
 36110  1  0  0  0
 37 39  1  0  0  0
 37 47  1  0  0  0
 37 66  1  0  0  0
 37111  1  0  0  0
 38 43  2  0  0  0
 38 46  1  0  0  0
 38 47  1  0  0  0
 39 64  1  0  0  0
 39 67  2  0  0  0
 40 52  1  0  0  0
 40 53  2  0  0  0
 40 58  1  0  0  0
 41112  1  0  0  0
 41113  1  0  0  0
 41114  1  0  0  0
 41 48  1  0  0  0
 42 43  1  0  0  0
 42 66  1  0  0  0
 42115  1  0  0  0
 42116  1  0  0  0
 43 44  1  0  0  0
 44117  1  0  0  0
 45 46  2  0  0  0
 45118  1  0  0  0
 46119  1  0  0  0
 47120  1  0  0  0
 47121  1  0  0  0
 48 56  1  0  0  0
 48 65  1  0  0  0
 48122  1  0  0  0
 49 50  1  0  0  0
 49 53  1  0  0  0
 49 64  1  0  0  0
 49123  1  0  0  0
 50 51  1  0  0  0
 50124  1  0  0  0
 50125  1  0  0  0
 51 52  1  0  0  0
 51126  1  0  0  0
 51127  1  0  0  0
 52128  1  0  0  0
 52129  1  0  0  0
 53 54  1  0  0  0
 54 55  2  0  0  0
 54130  1  0  0  0
 55 57  1  0  0  0
 55131  1  0  0  0
 56 69  2  0  0  0
 57 58  2  0  0  0
 57132  1  0  0  0
 58133  1  0  0  0
 59 60  1  0  0  0
 59 61  1  0  0  0
 59 62  1  0  0  0
 60134  1  0  0  0
 60135  1  0  0  0
 60136  1  0  0  0
 61137  1  0  0  0
 61138  1  0  0  0
 61139  1  0  0  0
 62140  1  0  0  0
 62141  1  0  0  0
 62142  1  0  0  0
 63 65  1  0  0  0
 63143  1  0  0  0
 63144  1  0  0  0
 63145  1  0  0  0
 64146  1  0  0  0
 65147  1  0  0  0
 68 81  1  0  0  0
 71 72  2  0  0  0
 71 76  1  0  0  0
 71148  1  0  0  0
 72 74  1  0  0  0
 72 82  1  0  0  0
 73 74  2  0  0  0
 73 75  1  0  0  0
 73 83  1  0  0  0
 74 86  1  0  0  0
 75 76  2  0  0  0
 75 84  1  0  0  0
 76 87  1  0  0  0
 77 78  2  0  0  0
 77 79  1  0  0  0
 77 88  1  0  0  0
 78 85  1  0  0  0
 78149  1  0  0  0
 79 81  1  0  0  0
 79150  1  0  0  0
 79151  1  0  0  0
 80 81  1  0  0  0
 80 88  1  0  0  0
 80152  1  0  0  0
 80153  1  0  0  0
 81154  1  0  0  0
 82155  1  0  0  0
 82156  1  0  0  0
 82157  1  0  0  0
 83158  1  0  0  0
 83159  1  0  0  0
 83160  1  0  0  0
 84161  1  0  0  0
 84162  1  0  0  0
 84163  1  0  0  0
 85164  1  0  0  0
 85165  1  0  0  0
 85166  1  0  0  0
 86167  1  0  0  0
 86168  1  0  0  0
 86 88  1  0  0  0
 87169  1  0  0  0
 88170  1  0  0  0
M  CHG  1  88   1
M  ISO  4   1 100  68 101  81 101  87 100
M  END
> <chiral flag>
0

> <version>
0

> <s_m_source_file>
/data/baiqing/PycharmProjects/Reinvent-master-3.2/result/LINK_invent/BTK/process_docking_weight1_custom_product_contain_oxygen_bond_distance_aromatic_linkinvent_7_9_3/rearranged_h_0031.sdf

> <i_m_source_file_index>
24

> <r_mmod_Potential_Energy-OPLS-2005>
63.1992492675781

> <r_mmod_Stretch_Energy-OPLS-2005>
92.2903518676758

> <r_mmod_Bend_Energy-OPLS-2005>
209.704879760742

> <r_mmod_Torsional_Energy-OPLS-2005>
271.189819335938

> <r_mmod_Improper_Torsional_Energy-OPLS-2005>
6.1881799697876

> <r_mmod_Van_der_Waal_Energy-OPLS-2005>
152.976928710938

> <r_mmod_Electrostatic_Energy-OPLS-2005>
-296.573608398438

> <r_mmod_Solvation_Energy-OPLS-2005>
-423.444549560547

> <b_mmod_Minimization_Converged-OPLS-2005>
0

> <r_mmod_RMS_Derivative-OPLS-2005>
4.56074190139771

$$$$
24
                    3D
 Structure written by MMmdl.
166175  0  0  1  0            999 V2000
  -30.6342  -14.7510   20.4740 C   0  0  0  0  0  0
  -30.4294  -12.4637   19.4745 C   0  0  0  0  0  0
  -29.5084  -12.5145   18.2369 C   0  0  0  0  0  0
  -28.0375  -12.3335   18.6538 C   0  0  0  0  0  0
  -27.6428  -13.2370   19.8519 C   0  0  2  0  0  0
  -28.6885  -13.1840   20.9875 C   0  0  0  0  0  0
  -25.2522  -13.8219   20.5728 C   0  0  0  0  0  0
  -24.1818  -13.0456   20.9226 C   0  0  0  0  0  0
  -24.6414  -11.6934   20.8753 C   0  0  0  0  0  0
  -23.9090  -10.4303   21.0408 C   0  0  0  0  0  0
  -24.3638   -9.4216   21.9179 C   0  0  0  0  0  0
  -23.6306   -8.2253   22.0744 C   0  0  0  0  0  0
  -22.4284   -8.0300   21.3544 C   0  0  0  0  0  0
  -21.9928   -9.0280   20.4646 C   0  0  0  0  0  0
  -22.7263  -10.2149   20.3059 C   0  0  0  0  0  0
  -21.6857   -6.0746   22.5280 C   0  0  0  0  0  0
  -21.4015   -6.5643   23.8216 C   0  0  0  0  0  0
  -21.3658   -5.6786   24.9174 C   0  0  0  0  0  0
  -21.6043   -4.3050   24.7217 C   0  0  0  0  0  0
  -21.8822   -3.8153   23.4336 C   0  0  0  0  0  0
  -21.9194   -4.6973   22.3397 C   0  0  0  0  0  0
  -22.7842  -13.5240   21.1891 C   0  0  0  0  0  0
  -22.1669   -4.2165   21.0969 F   0  0  0  0  0  0
  -21.5624   -3.4530   25.7725 F   0  0  0  0  0  0
  -29.9894  -13.5338   20.4025 N   0  0  0  0  0  0
  -26.2953  -12.9439   20.3308 N   0  0  0  0  0  0
  -25.9343  -11.6575   20.5749 N   0  0  0  0  0  0
  -22.0482  -12.8222   22.0437 N   0  0  0  0  0  0
  -25.4215  -15.1947   20.4165 N   0  0  0  0  0  0
  -31.8085  -14.8244   20.1003 O   0  0  0  0  0  0
  -21.6646   -6.8902   21.4247 O   0  0  0  0  0  0
  -22.3529  -14.5546   20.6737 O   0  0  0  0  0  0
  -24.6312  -31.8551   23.1978 C   0  0  0  0  0  0
  -25.9131  -32.4757   23.8329 C   0  0  1  0  0  0
  -27.2148  -27.2504   20.1388 C   0  0  0  0  0  0
  -25.5919  -33.8562   24.2242 N   0  0  0  0  0  0
  -23.4295  -30.4773   21.5409 C   0  0  2  0  0  0
  -24.8763  -28.9223   20.1125 C   0  0  0  0  0  0
  -22.7505  -29.4601   22.4898 C   0  0  0  0  0  0
  -18.0295  -28.1392   22.8490 C   0  0  0  0  0  0
  -24.1488  -36.7289   23.2633 C   0  0  0  0  0  0
  -25.9762  -30.7645   21.3810 C   0  0  0  0  0  0
  -26.0483  -29.3854   20.7247 C   0  0  0  0  0  0
  -27.2216  -28.5631   20.7240 C   0  0  0  0  0  0
  -26.0251  -26.8648   19.4823 C   0  0  0  0  0  0
  -24.8699  -27.6704   19.4798 C   0  0  0  0  0  0
  -23.6496  -29.8127   20.1570 C   0  0  0  0  0  0
  -25.4110  -36.3069   24.0320 C   0  0  1  0  0  0
  -20.5899  -28.3709   23.1261 C   0  0  2  0  0  0
  -20.6785  -26.9425   22.5405 C   0  0  0  0  0  0
  -19.5753  -26.6388   21.5214 C   0  0  0  0  0  0
  -18.1938  -26.7928   22.1642 C   0  0  0  0  0  0
  -19.1549  -28.8867   23.2871 C   0  0  0  0  0  0
  -18.9470  -30.1461   23.8900 C   0  0  0  0  0  0
  -17.6472  -30.6594   24.0566 C   0  0  0  0  0  0
  -25.9059  -34.9441   23.5087 C   0  0  0  0  0  0
  -16.5362  -29.9094   23.6331 C   0  0  0  0  0  0
  -16.7281  -28.6508   23.0357 C   0  0  0  0  0  0
  -26.4494  -31.6594   25.0729 C   0  0  0  0  0  0
  -25.3721  -31.3787   26.1464 C   0  0  0  0  0  0
  -27.0311  -30.2987   24.6246 C   0  0  0  0  0  0
  -27.6054  -32.4334   25.7494 C   0  0  0  0  0  0
  -27.5586  -37.1775   24.8447 C   0  0  0  0  0  0
  -21.4211  -29.3044   22.3638 N   0  0  0  0  0  0
  -26.4272  -37.3780   23.9432 N   0  0  0  0  0  0
  -24.6981  -31.0507   22.0961 N   0  0  0  0  0  0
  -23.4200  -28.8141   23.3002 O   0  0  0  0  0  0
  -28.3076  -26.3507   20.1738 O   0  0  0  0  0  0
  -26.5643  -34.8919   22.4664 O   0  0  0  0  0  0
  -23.5460  -32.1375   23.7264 O   0  0  0  0  0  0
  -29.5156  -18.4561   20.4763 C   0  0  0  0  0  0
  -29.9084  -19.8593   20.5584 C   0  0  0  0  0  0
  -31.2120  -20.0966   21.0769 C   0  0  0  0  0  0
  -31.9417  -19.0462   21.7105 C   0  0  0  0  0  0
  -31.4917  -17.6918   21.6709 C   0  0  0  0  0  0
  -30.3174  -17.3319   20.9426 C   0  0  0  0  0  0
  -28.4763  -24.4303   21.8514 C   0  0  0  0  0  0
  -28.5284  -22.8754   21.8006 C   0  0  0  0  0  0
  -28.7564  -23.7062   19.5930 C   0  0  0  0  0  0
  -28.0690  -24.8771   20.4396 C   0  0  2  0  0  0
  -31.8635  -21.4732   20.9304 C   0  0  0  0  0  0
  -33.2525  -19.3718   22.4412 C   0  0  0  0  0  0
  -32.2879  -16.6340   22.4411 C   0  0  0  0  0  0
  -28.9949  -21.0628   19.9973 C   0  0  0  0  0  0
  -29.9047  -15.9004   20.7802 N   0  0  0  0  0  0
  -29.1300  -22.5265   20.4943 N   0  3  2  0  0  0
  -31.4703  -12.5746   19.1679 H   0  0  0  0  0  0
  -30.3689  -11.4903   19.9638 H   0  0  0  0  0  0
  -29.7907  -11.7429   17.5191 H   0  0  0  0  0  0
  -29.6312  -13.4700   17.7244 H   0  0  0  0  0  0
  -27.8999  -11.2851   18.9194 H   0  0  0  0  0  0
  -27.3791  -12.5214   17.8050 H   0  0  0  0  0  0
  -27.6330  -14.2560   19.4640 H   0  0  0  0  0  0
  -28.7274  -12.1914   21.4377 H   0  0  0  0  0  0
  -28.4217  -13.8722   21.7906 H   0  0  0  0  0  0
  -25.2785   -9.5675   22.4752 H   0  0  0  0  0  0
  -24.0014   -7.4637   22.7456 H   0  0  0  0  0  0
  -21.0859   -8.8818   19.8947 H   0  0  0  0  0  0
  -22.3742  -10.9698   19.6172 H   0  0  0  0  0  0
  -21.2006   -7.6147   23.9735 H   0  0  0  0  0  0
  -21.1476   -6.0503   25.9076 H   0  0  0  0  0  0
  -22.0595   -2.7614   23.2833 H   0  0  0  0  0  0
  -22.4114  -11.9880   22.4807 H   0  0  0  0  0  0
  -21.1109  -13.1254   22.2663 H   0  0  0  0  0  0
  -24.6545  -15.8477   20.5341 H   0  0  0  0  0  0
  -26.2656  -15.6349   20.0736 H   0  0  0  0  0  0
  -26.7201  -32.5411   23.1074 H   0  0  0  0  0  0
  -25.0027  -33.9702   25.0358 H   0  0  0  0  0  0
  -22.7264  -31.2995   21.3942 H   0  0  0  0  0  0
  -23.3769  -35.9599   23.3236 H   0  0  0  0  0  0
  -24.3596  -36.8980   22.2064 H   0  0  0  0  0  0
  -23.7213  -37.6455   23.6706 H   0  0  0  0  0  0
  -26.1183  -31.5252   20.6124 H   0  0  0  0  0  0
  -26.8527  -30.8129   22.0156 H   0  0  0  0  0  0
  -28.1201  -28.9121   21.2134 H   0  0  0  0  0  0
  -25.9680  -25.9185   18.9642 H   0  0  0  0  0  0
  -23.9757  -27.3167   18.9841 H   0  0  0  0  0  0
  -23.7792  -30.5904   19.4032 H   0  0  0  0  0  0
  -22.7674  -29.2493   19.8479 H   0  0  0  0  0  0
  -25.1285  -36.1899   25.0808 H   0  0  0  0  0  0
  -20.9993  -28.3295   24.1380 H   0  0  0  0  0  0
  -20.5697  -26.2319   23.3610 H   0  0  0  0  0  0
  -21.6652  -26.7453   22.1184 H   0  0  0  0  0  0
  -19.6916  -25.6297   21.1248 H   0  0  0  0  0  0
  -19.6676  -27.3195   20.6740 H   0  0  0  0  0  0
  -17.4190  -26.6645   21.4066 H   0  0  0  0  0  0
  -18.0365  -26.0085   22.9061 H   0  0  0  0  0  0
  -19.7943  -30.7270   24.2281 H   0  0  0  0  0  0
  -17.5027  -31.6271   24.5168 H   0  0  0  0  0  0
  -15.5363  -30.3001   23.7654 H   0  0  0  0  0  0
  -15.8675  -28.0825   22.7084 H   0  0  0  0  0  0
  -24.5805  -30.7249   25.7788 H   0  0  0  0  0  0
  -24.9038  -32.2993   26.4959 H   0  0  0  0  0  0
  -25.8016  -30.8872   27.0201 H   0  0  0  0  0  0
  -26.2879  -29.6752   24.1263 H   0  0  0  0  0  0
  -27.3940  -29.7251   25.4787 H   0  0  0  0  0  0
  -27.8798  -30.4221   23.9514 H   0  0  0  0  0  0
  -27.2668  -33.3659   26.2024 H   0  0  0  0  0  0
  -28.3886  -32.6853   25.0332 H   0  0  0  0  0  0
  -28.0688  -31.8487   26.5452 H   0  0  0  0  0  0
  -28.2535  -38.0141   24.7597 H   0  0  0  0  0  0
  -28.1150  -36.2679   24.6131 H   0  0  0  0  0  0
  -27.2324  -37.1245   25.8849 H   0  0  0  0  0  0
  -20.9395  -29.8762   21.6838 H   0  0  0  0  0  0
  -26.0142  -38.2830   24.1517 H   0  0  0  0  0  0
  -28.5694  -18.2339   20.0039 H   0  0  0  0  0  0
  -29.4665  -24.8234   22.0858 H   0  0  0  0  0  0
  -27.7898  -24.7966   22.6142 H   0  0  0  0  0  0
  -27.5167  -22.4721   21.8521 H   0  0  0  0  0  0
  -29.0938  -22.4501   22.6307 H   0  0  0  0  0  0
  -29.6661  -24.0738   19.1184 H   0  0  0  0  0  0
  -28.0892  -23.3843   18.7930 H   0  0  0  0  0  0
  -26.9995  -24.6763   20.3935 H   0  0  0  0  0  0
  -31.5518  -21.9805   20.0193 H   0  0  0  0  0  0
  -32.9447  -21.4018   20.8131 H   0  0  0  0  0  0
  -31.6532  -22.1032   21.7956 H   0  0  0  0  0  0
  -33.3993  -20.4298   22.6459 H   0  0  0  0  0  0
  -34.1071  -19.0164   21.8645 H   0  0  0  0  0  0
  -33.2952  -18.9260   23.4317 H   0  0  0  0  0  0
  -33.1761  -16.3437   21.8789 H   0  0  0  0  0  0
  -31.7055  -15.7449   22.6678 H   0  0  0  0  0  0
  -32.6016  -16.9750   23.4231 H   0  0  0  0  0  0
  -27.9508  -20.7684   20.1026 H   0  0  0  0  0  0
  -29.1753  -21.0818   18.9218 H   0  0  0  0  0  0
  -28.9141  -15.7324   20.8694 H   0  0  0  0  0  0
  -30.1240  -22.6333   20.6327 H   0  0  0  0  0  0
  1 25  1  0  0  0
  1 30  2  0  0  0
  1 85  1  0  0  0
  2  3  1  0  0  0
  2 25  1  0  0  0
  2 87  1  0  0  0
  2 88  1  0  0  0
  3  4  1  0  0  0
  3 89  1  0  0  0
  3 90  1  0  0  0
  4  5  1  0  0  0
  4 91  1  0  0  0
  4 92  1  0  0  0
  5  6  1  0  0  0
  5 26  1  0  0  0
  5 93  1  0  0  0
  6 25  1  0  0  0
  6 94  1  0  0  0
  6 95  1  0  0  0
  7  8  2  0  0  0
  7 26  1  0  0  0
  7 29  1  0  0  0
  8  9  1  0  0  0
  8 22  1  0  0  0
  9 10  1  0  0  0
  9 27  2  0  0  0
 10 11  2  0  0  0
 10 15  1  0  0  0
 11 12  1  0  0  0
 11 96  1  0  0  0
 12 13  2  0  0  0
 12 97  1  0  0  0
 13 14  1  0  0  0
 13 31  1  0  0  0
 14 15  2  0  0  0
 14 98  1  0  0  0
 15 99  1  0  0  0
 16 17  2  0  0  0
 16 21  1  0  0  0
 16 31  1  0  0  0
 17 18  1  0  0  0
 17100  1  0  0  0
 18 19  2  0  0  0
 18101  1  0  0  0
 19 20  1  0  0  0
 19 24  1  0  0  0
 20 21  2  0  0  0
 20102  1  0  0  0
 21 23  1  0  0  0
 22 28  1  0  0  0
 22 32  2  0  0  0
 26 27  1  0  0  0
 28103  1  0  0  0
 28104  1  0  0  0
 29105  1  0  0  0
 29106  1  0  0  0
 33 34  1  0  0  0
 33 66  1  0  0  0
 33 70  2  0  0  0
 34 36  1  0  0  0
 34 59  1  0  0  0
 34107  1  0  0  0
 35 44  2  0  0  0
 35 45  1  0  0  0
 35 68  1  0  0  0
 36 56  1  0  0  0
 36108  1  0  0  0
 37 39  1  0  0  0
 37 47  1  0  0  0
 37 66  1  0  0  0
 37109  1  0  0  0
 38 43  2  0  0  0
 38 46  1  0  0  0
 38 47  1  0  0  0
 39 64  1  0  0  0
 39 67  2  0  0  0
 40 52  1  0  0  0
 40 53  2  0  0  0
 40 58  1  0  0  0
 41110  1  0  0  0
 41111  1  0  0  0
 41112  1  0  0  0
 41 48  1  0  0  0
 42 43  1  0  0  0
 42 66  1  0  0  0
 42113  1  0  0  0
 42114  1  0  0  0
 43 44  1  0  0  0
 44115  1  0  0  0
 45 46  2  0  0  0
 45116  1  0  0  0
 46117  1  0  0  0
 47118  1  0  0  0
 47119  1  0  0  0
 48 56  1  0  0  0
 48 65  1  0  0  0
 48120  1  0  0  0
 49 50  1  0  0  0
 49 53  1  0  0  0
 49 64  1  0  0  0
 49121  1  0  0  0
 50 51  1  0  0  0
 50122  1  0  0  0
 50123  1  0  0  0
 51 52  1  0  0  0
 51124  1  0  0  0
 51125  1  0  0  0
 52126  1  0  0  0
 52127  1  0  0  0
 53 54  1  0  0  0
 54 55  2  0  0  0
 54128  1  0  0  0
 55 57  1  0  0  0
 55129  1  0  0  0
 56 69  2  0  0  0
 57 58  2  0  0  0
 57130  1  0  0  0
 58131  1  0  0  0
 59 60  1  0  0  0
 59 61  1  0  0  0
 59 62  1  0  0  0
 60132  1  0  0  0
 60133  1  0  0  0
 60134  1  0  0  0
 61135  1  0  0  0
 61136  1  0  0  0
 61137  1  0  0  0
 62138  1  0  0  0
 62139  1  0  0  0
 62140  1  0  0  0
 63 65  1  0  0  0
 63141  1  0  0  0
 63142  1  0  0  0
 63143  1  0  0  0
 64144  1  0  0  0
 65145  1  0  0  0
 68 80  1  0  0  0
 71 72  2  0  0  0
 71 76  1  0  0  0
 71146  1  0  0  0
 72 73  1  0  0  0
 72 84  1  0  0  0
 73 74  2  0  0  0
 73 81  1  0  0  0
 74 75  1  0  0  0
 74 82  1  0  0  0
 75 76  2  0  0  0
 75 83  1  0  0  0
 76 85  1  0  0  0
 77 78  1  0  0  0
 77 80  1  0  0  0
 77147  1  0  0  0
 77148  1  0  0  0
 78 86  1  0  0  0
 78149  1  0  0  0
 78150  1  0  0  0
 79 80  1  0  0  0
 79 86  1  0  0  0
 79151  1  0  0  0
 79152  1  0  0  0
 80153  1  0  0  0
 81154  1  0  0  0
 81155  1  0  0  0
 81156  1  0  0  0
 82157  1  0  0  0
 82158  1  0  0  0
 82159  1  0  0  0
 83160  1  0  0  0
 83161  1  0  0  0
 83162  1  0  0  0
 84163  1  0  0  0
 84164  1  0  0  0
 84 86  1  0  0  0
 85165  1  0  0  0
 86166  1  0  0  0
M  CHG  1  86   1
M  ISO  4   1 100  68 101  80 101  85 100
M  END
> <chiral flag>
0

> <version>
0

> <s_m_source_file>
/data/baiqing/PycharmProjects/Reinvent-master-3.2/result/LINK_invent/BTK/process_docking_weight1_custom_product_contain_oxygen_bond_distance_aromatic_linkinvent_7_9_3/rearranged_h_0031.sdf

> <i_m_source_file_index>
25

> <r_mmod_Potential_Energy-OPLS-2005>
137.503143310547

> <r_mmod_Stretch_Energy-OPLS-2005>
136.574813842773

> <r_mmod_Bend_Energy-OPLS-2005>
199.990615844727

> <r_mmod_Torsional_Energy-OPLS-2005>
295.774200439453

> <r_mmod_Improper_Torsional_Energy-OPLS-2005>
4.50094842910767

> <r_mmod_Van_der_Waal_Energy-OPLS-2005>
160.447402954102

> <r_mmod_Electrostatic_Energy-OPLS-2005>
-315.129821777344

> <r_mmod_Solvation_Energy-OPLS-2005>
-432.977783203125

> <b_mmod_Minimization_Converged-OPLS-2005>
0

> <r_mmod_RMS_Derivative-OPLS-2005>
1.59687507152557

$$$$
25
                    3D
 Structure written by MMmdl.
169178  0  0  1  0            999 V2000
  -29.6114  -15.9587   19.7997 C   0  0  0  0  0  0
  -30.2775  -13.4312   19.3207 C   0  0  0  0  0  0
  -29.4717  -12.6285   18.2722 C   0  0  0  0  0  0
  -28.1303  -12.1498   18.8477 C   0  0  0  0  0  0
  -27.4893  -13.2459   19.7227 C   0  0  2  0  0  0
  -28.4423  -13.8008   20.7676 C   0  0  0  0  0  0
  -25.1981  -13.8019   20.5786 C   0  0  0  0  0  0
  -24.1415  -13.0249   20.9409 C   0  0  0  0  0  0
  -24.6088  -11.6763   20.8898 C   0  0  0  0  0  0
  -23.8886  -10.4194   21.0528 C   0  0  0  0  0  0
  -24.3525   -9.4109   21.9251 C   0  0  0  0  0  0
  -23.6229   -8.2133   22.0790 C   0  0  0  0  0  0
  -22.4212   -8.0199   21.3558 C   0  0  0  0  0  0
  -21.9813   -9.0147   20.4643 C   0  0  0  0  0  0
  -22.7120  -10.2038   20.3081 C   0  0  0  0  0  0
  -21.6811   -6.0705   22.5303 C   0  0  0  0  0  0
  -21.3982   -6.5626   23.8222 C   0  0  0  0  0  0
  -21.3647   -5.6795   24.9192 C   0  0  0  0  0  0
  -21.6048   -4.3045   24.7249 C   0  0  0  0  0  0
  -21.8827   -3.8132   23.4351 C   0  0  0  0  0  0
  -21.9176   -4.6949   22.3415 C   0  0  0  0  0  0
  -22.7494  -13.5094   21.2017 C   0  0  0  0  0  0
  -22.1657   -4.2133   21.0983 F   0  0  0  0  0  0
  -21.5637   -3.4528   25.7752 F   0  0  0  0  0  0
  -29.4117  -14.5325   19.9367 N   0  0  0  0  0  0
  -26.2195  -12.9176   20.2953 N   0  0  0  0  0  0
  -25.8895  -11.6352   20.5656 N   0  0  0  0  0  0
  -22.0143  -12.8119   22.0576 N   0  0  0  0  0  0
  -25.3681  -15.1764   20.4242 N   0  0  0  0  0  0
  -30.8572  -16.0721   19.8668 O   0  0  0  0  0  0
  -21.6588   -6.8818   21.4236 O   0  0  0  0  0  0
  -22.3252  -14.5431   20.6824 O   0  0  0  0  0  0
  -24.6078  -31.8118   23.1711 C   0  0  0  0  0  0
  -25.8743  -32.4537   23.8130 C   0  0  1  0  0  0
  -27.1087  -27.3972   20.3007 C   0  0  0  0  0  0
  -25.5255  -33.8435   24.1538 N   0  0  0  0  0  0
  -23.3367  -30.5974   21.4696 C   0  0  2  0  0  0
  -24.8406  -29.2355   19.8267 C   0  0  0  0  0  0
  -22.7269  -29.4990   22.3920 C   0  0  0  0  0  0
  -18.0485  -28.2088   22.8013 C   0  0  0  0  0  0
  -24.1177  -36.7063   23.2730 C   0  0  0  0  0  0
  -25.8664  -30.8593   21.2714 C   0  0  0  0  0  0
  -25.9106  -29.5195   20.7760 C   0  0  0  0  0  0
  -26.9870  -28.5945   21.0362 C   0  0  0  0  0  0
  -26.3545  -27.3560   19.0385 C   0  0  0  0  0  0
  -25.2045  -28.1873   18.9065 C   0  0  0  0  0  0
  -23.5142  -30.0877   19.9884 C   0  0  0  0  0  0
  -25.4035  -36.2891   24.0184 C   0  0  1  0  0  0
  -20.5585  -28.4269   23.1595 C   0  0  2  0  0  0
  -20.5842  -26.9437   22.8075 C   0  0  0  0  0  0
  -19.6361  -26.5530   21.6718 C   0  0  0  0  0  0
  -18.1989  -26.8783   22.0880 C   0  0  0  0  0  0
  -19.1419  -28.9749   23.2568 C   0  0  0  0  0  0
  -18.9369  -30.2199   23.8716 C   0  0  0  0  0  0
  -17.6396  -30.6929   24.0528 C   0  0  0  0  0  0
  -25.9228  -34.9310   23.4936 C   0  0  0  0  0  0
  -16.5511  -29.9292   23.6239 C   0  0  0  0  0  0
  -16.7323  -28.6880   23.0014 C   0  0  0  0  0  0
  -26.4499  -31.6445   25.0142 C   0  0  0  0  0  0
  -25.3590  -31.3445   26.0660 C   0  0  0  0  0  0
  -27.0167  -30.3024   24.4994 C   0  0  0  0  0  0
  -27.5874  -32.4391   25.6625 C   0  0  0  0  0  0
  -27.5624  -37.1411   24.8382 C   0  0  0  0  0  0
  -21.4274  -29.2488   22.2582 N   0  0  0  0  0  0
  -26.4076  -37.3917   23.9672 N   0  0  0  0  0  0
  -24.6768  -31.0893   22.0508 N   0  0  0  0  0  0
  -23.3789  -28.9975   23.2673 O   0  0  0  0  0  0
  -27.1682  -26.2199   21.0044 O   0  0  0  0  0  0
  -26.6194  -34.9209   22.4977 O   0  0  0  0  0  0
  -23.5186  -32.1513   23.7004 O   0  0  0  0  0  0
  -25.4611  -20.5156   18.3391 C   0  0  0  0  0  0
  -24.6449  -21.8463   18.3658 C   0  0  0  0  0  0
  -26.9221  -20.3096   18.8189 C   0  0  0  0  0  0
  -27.3090  -21.8162   18.7840 C   0  0  0  0  0  0
  -26.4217  -22.9571   18.4552 C   0  0  0  0  0  0
  -25.1397  -23.1075   18.9531 C   0  0  0  0  0  0
  -24.9296  -24.6087   22.2769 C   0  0  0  0  0  0
  -23.5925  -24.5877   21.4573 C   0  0  0  0  0  0
  -24.6072  -26.3731   21.1340 C   0  0  0  0  0  0
  -25.9055  -25.8909   21.9191 C   0  0  2  0  0  0
  -23.4684  -22.2823   17.3857 C   0  0  0  0  0  0
  -28.4956  -22.4524   19.4009 C   0  0  0  0  0  0
  -26.7098  -23.9926   17.3038 C   0  0  0  0  0  0
  -28.1777  -18.8513   19.0021 C   0  0  0  0  0  0
  -24.3194  -24.5484   18.9996 C   0  0  0  0  0  0
  -28.5165  -17.0946   19.4633 N   0  0  0  0  0  0
  -23.8358  -25.3610   20.2895 N   0  3  2  0  0  0
  -31.0734  -13.9257   18.7720 H   0  0  0  0  0  0
  -30.7559  -12.8423   20.0966 H   0  0  0  0  0  0
  -30.0791  -11.7933   17.9032 H   0  0  0  0  0  0
  -29.2607  -13.2607   17.4015 H   0  0  0  0  0  0
  -28.3402  -11.2897   19.4922 H   0  0  0  0  0  0
  -27.4583  -11.7946   18.0615 H   0  0  0  0  0  0
  -27.2421  -14.0343   18.9982 H   0  0  0  0  0  0
  -28.9029  -13.0572   21.4210 H   0  0  0  0  0  0
  -27.9134  -14.5207   21.3960 H   0  0  0  0  0  0
  -25.2656   -9.5624   22.4832 H   0  0  0  0  0  0
  -23.9950   -7.4534   22.7457 H   0  0  0  0  0  0
  -21.0805   -8.8637   19.8932 H   0  0  0  0  0  0
  -22.3587  -10.9584   19.6210 H   0  0  0  0  0  0
  -21.1964   -7.6119   23.9721 H   0  0  0  0  0  0
  -21.1469   -6.0509   25.9090 H   0  0  0  0  0  0
  -22.0611   -2.7583   23.2856 H   0  0  0  0  0  0
  -22.3762  -11.9774   22.4985 H   0  0  0  0  0  0
  -21.0763  -13.1142   22.2773 H   0  0  0  0  0  0
  -24.6115  -15.8364   20.5707 H   0  0  0  0  0  0
  -26.2347  -15.6181   20.1622 H   0  0  0  0  0  0
  -26.6772  -32.5563   23.1058 H   0  0  0  0  0  0
  -24.7516  -33.9818   24.7889 H   0  0  0  0  0  0
  -22.6760  -31.4397   21.5137 H   0  0  0  0  0  0
  -23.4147  -35.8873   23.2584 H   0  0  0  0  0  0
  -24.3275  -36.9845   22.2484 H   0  0  0  0  0  0
  -23.6390  -37.5380   23.7723 H   0  0  0  0  0  0
  -25.5394  -31.4137   20.3358 H   0  0  0  0  0  0
  -26.8317  -31.2384   21.6859 H   0  0  0  0  0  0
  -27.5959  -28.6556   21.9983 H   0  0  0  0  0  0
  -26.7821  -26.9981   18.1177 H   0  0  0  0  0  0
  -25.1146  -28.6087   17.8950 H   0  0  0  0  0  0
  -22.9845  -29.4287   19.3333 H   0  0  0  0  0  0
  -22.6038  -29.5584   20.1038 H   0  0  0  0  0  0
  -25.1332  -36.1417   25.0703 H   0  0  0  0  0  0
  -21.0282  -28.5651   24.1212 H   0  0  0  0  0  0
  -20.2571  -26.4864   23.7191 H   0  0  0  0  0  0
  -21.5935  -26.6338   22.7017 H   0  0  0  0  0  0
  -19.6818  -25.4776   21.5101 H   0  0  0  0  0  0
  -19.9158  -26.9987   20.7247 H   0  0  0  0  0  0
  -17.5045  -26.8230   21.2315 H   0  0  0  0  0  0
  -17.8280  -26.1080   22.7814 H   0  0  0  0  0  0
  -19.7853  -30.8033   24.1878 H   0  0  0  0  0  0
  -17.4737  -31.6386   24.5511 H   0  0  0  0  0  0
  -15.5242  -30.2863   23.7700 H   0  0  0  0  0  0
  -15.9031  -28.0967   22.6678 H   0  0  0  0  0  0
  -24.5816  -30.6963   25.6530 H   0  0  0  0  0  0
  -24.8730  -32.2531   26.4159 H   0  0  0  0  0  0
  -25.7706  -30.8099   26.9293 H   0  0  0  0  0  0
  -26.2739  -29.6936   23.9767 H   0  0  0  0  0  0
  -27.3856  -29.6947   25.3253 H   0  0  0  0  0  0
  -27.8387  -30.4488   23.8030 H   0  0  0  0  0  0
  -27.2516  -33.3957   26.1167 H   0  0  0  0  0  0
  -28.3521  -32.7271   24.9068 H   0  0  0  0  0  0
  -28.1259  -31.8871   26.4356 H   0  0  0  0  0  0
  -28.2126  -38.0054   24.8387 H   0  0  0  0  0  0
  -28.1470  -36.2886   24.4906 H   0  0  0  0  0  0
  -27.2516  -36.9400   25.8613 H   0  0  0  0  0  0
  -20.9891  -29.5375   21.3693 H   0  0  0  0  0  0
  -25.9762  -38.2779   24.2538 H   0  0  0  0  0  0
  -24.9270  -19.7827   17.7692 H   0  0  0  0  0  0
  -25.3892  -23.7082   22.6207 H   0  0  0  0  0  0
  -24.4927  -25.0453   23.1288 H   0  0  0  0  0  0
  -23.0185  -23.5988   21.2983 H   0  0  0  0  0  0
  -22.7384  -25.1062   21.9576 H   0  0  0  0  0  0
  -23.8971  -26.6569   21.9908 H   0  0  0  0  0  0
  -24.5014  -27.3551   20.9031 H   0  0  0  0  0  0
  -25.9957  -26.4766   22.8552 H   0  0  0  0  0  0
  -23.0386  -21.5629   16.7077 H   0  0  0  0  0  0
  -23.8700  -23.0892   16.7452 H   0  0  0  0  0  0
  -22.6318  -22.8124   17.8575 H   0  0  0  0  0  0
  -28.0916  -22.8166   20.3639 H   0  0  0  0  0  0
  -28.8164  -23.3776   18.8532 H   0  0  0  0  0  0
  -29.3452  -21.7644   19.5849 H   0  0  0  0  0  0
  -26.6093  -23.5240   16.2798 H   0  0  0  0  0  0
  -27.6570  -24.5512   17.2811 H   0  0  0  0  0  0
  -25.9865  -24.7823   17.1071 H   0  0  0  0  0  0
  -28.8409  -19.4206   19.6242 H   0  0  0  0  0  0
  -28.5685  -18.9488   17.9994 H   0  0  0  0  0  0
  -23.4470  -24.5943   18.3551 H   0  0  0  0  0  0
  -24.8510  -25.3098   18.4861 H   0  0  0  0  0  0
  -27.6208  -16.6421   19.3480 H   0  0  0  0  0  0
  -23.1447  -25.9549   19.7904 H   0  0  0  0  0  0
  1 25  1  0  0  0
  1 30  2  0  0  0
  1 86  1  0  0  0
  2  3  1  0  0  0
  2 25  1  0  0  0
  2 88  1  0  0  0
  2 89  1  0  0  0
  3  4  1  0  0  0
  3 90  1  0  0  0
  3 91  1  0  0  0
  4  5  1  0  0  0
  4 92  1  0  0  0
  4 93  1  0  0  0
  5  6  1  0  0  0
  5 26  1  0  0  0
  5 94  1  0  0  0
  6 25  1  0  0  0
  6 95  1  0  0  0
  6 96  1  0  0  0
  7  8  2  0  0  0
  7 26  1  0  0  0
  7 29  1  0  0  0
  8  9  1  0  0  0
  8 22  1  0  0  0
  9 10  1  0  0  0
  9 27  2  0  0  0
 10 11  2  0  0  0
 10 15  1  0  0  0
 11 12  1  0  0  0
 11 97  1  0  0  0
 12 13  2  0  0  0
 12 98  1  0  0  0
 13 14  1  0  0  0
 13 31  1  0  0  0
 14 15  2  0  0  0
 14 99  1  0  0  0
 15100  1  0  0  0
 16 17  2  0  0  0
 16 21  1  0  0  0
 16 31  1  0  0  0
 17 18  1  0  0  0
 17101  1  0  0  0
 18 19  2  0  0  0
 18102  1  0  0  0
 19 20  1  0  0  0
 19 24  1  0  0  0
 20 21  2  0  0  0
 20103  1  0  0  0
 21 23  1  0  0  0
 22 28  1  0  0  0
 22 32  2  0  0  0
 26 27  1  0  0  0
 28104  1  0  0  0
 28105  1  0  0  0
 29106  1  0  0  0
 29107  1  0  0  0
 33 34  1  0  0  0
 33 66  1  0  0  0
 33 70  2  0  0  0
 34 36  1  0  0  0
 34 59  1  0  0  0
 34108  1  0  0  0
 35 44  2  0  0  0
 35 45  1  0  0  0
 35 68  1  0  0  0
 36 56  1  0  0  0
 36109  1  0  0  0
 37 39  1  0  0  0
 37 47  1  0  0  0
 37 66  1  0  0  0
 37110  1  0  0  0
 38 43  2  0  0  0
 38 46  1  0  0  0
 38 47  1  0  0  0
 39 64  1  0  0  0
 39 67  2  0  0  0
 40 52  1  0  0  0
 40 53  2  0  0  0
 40 58  1  0  0  0
 41111  1  0  0  0
 41112  1  0  0  0
 41113  1  0  0  0
 41 48  1  0  0  0
 42 43  1  0  0  0
 42 66  1  0  0  0
 42114  1  0  0  0
 42115  1  0  0  0
 43 44  1  0  0  0
 44116  1  0  0  0
 45 46  2  0  0  0
 45117  1  0  0  0
 46118  1  0  0  0
 47119  1  0  0  0
 47120  1  0  0  0
 48 56  1  0  0  0
 48 65  1  0  0  0
 48121  1  0  0  0
 49 50  1  0  0  0
 49 53  1  0  0  0
 49 64  1  0  0  0
 49122  1  0  0  0
 50 51  1  0  0  0
 50123  1  0  0  0
 50124  1  0  0  0
 51 52  1  0  0  0
 51125  1  0  0  0
 51126  1  0  0  0
 52127  1  0  0  0
 52128  1  0  0  0
 53 54  1  0  0  0
 54 55  2  0  0  0
 54129  1  0  0  0
 55 57  1  0  0  0
 55130  1  0  0  0
 56 69  2  0  0  0
 57 58  2  0  0  0
 57131  1  0  0  0
 58132  1  0  0  0
 59 60  1  0  0  0
 59 61  1  0  0  0
 59 62  1  0  0  0
 60133  1  0  0  0
 60134  1  0  0  0
 60135  1  0  0  0
 61136  1  0  0  0
 61137  1  0  0  0
 61138  1  0  0  0
 62139  1  0  0  0
 62140  1  0  0  0
 62141  1  0  0  0
 63 65  1  0  0  0
 63142  1  0  0  0
 63143  1  0  0  0
 63144  1  0  0  0
 64145  1  0  0  0
 65146  1  0  0  0
 68 80  1  0  0  0
 71 72  2  0  0  0
 71 73  1  0  0  0
 71147  1  0  0  0
 72 76  1  0  0  0
 72 81  1  0  0  0
 73 74  2  0  0  0
 73 84  1  0  0  0
 74 75  1  0  0  0
 74 82  1  0  0  0
 75 76  2  0  0  0
 75 83  1  0  0  0
 76 85  1  0  0  0
 77 78  1  0  0  0
 77 80  1  0  0  0
 77148  1  0  0  0
 77149  1  0  0  0
 78 87  1  0  0  0
 78150  1  0  0  0
 78151  1  0  0  0
 79 80  1  0  0  0
 79 87  1  0  0  0
 79152  1  0  0  0
 79153  1  0  0  0
 80154  1  0  0  0
 81155  1  0  0  0
 81156  1  0  0  0
 81157  1  0  0  0
 82158  1  0  0  0
 82159  1  0  0  0
 82160  1  0  0  0
 83161  1  0  0  0
 83162  1  0  0  0
 83163  1  0  0  0
 84 86  1  0  0  0
 84164  1  0  0  0
 84165  1  0  0  0
 85166  1  0  0  0
 85167  1  0  0  0
 85 87  1  0  0  0
 86168  1  0  0  0
 87169  1  0  0  0
M  CHG  1  87   1
M  ISO  4   1 100  68 101  80 101  86 100
M  END
> <chiral flag>
0

> <version>
0

> <s_m_source_file>
/data/baiqing/PycharmProjects/Reinvent-master-3.2/result/LINK_invent/BTK/process_docking_weight1_custom_product_contain_oxygen_bond_distance_aromatic_linkinvent_7_9_3/rearranged_h_0031.sdf

> <i_m_source_file_index>
26

> <r_mmod_Potential_Energy-OPLS-2005>
4481.08935546875

> <r_mmod_Stretch_Energy-OPLS-2005>
1101.9990234375

> <r_mmod_Bend_Energy-OPLS-2005>
1304.68029785156

> <r_mmod_Torsional_Energy-OPLS-2005>
748.521606445312

> <r_mmod_Improper_Torsional_Energy-OPLS-2005>
58.8103981018066

> <r_mmod_Van_der_Waal_Energy-OPLS-2005>
307.53662109375

> <r_mmod_Electrostatic_Energy-OPLS-2005>
-345.416809082031

> <r_mmod_Solvation_Energy-OPLS-2005>
-417.989013671875

> <b_mmod_Minimization_Converged-OPLS-2005>
0

> <r_mmod_RMS_Derivative-OPLS-2005>
99.9990005493164

$$$$
26
                    3D
 Structure written by MMmdl.
147155  0  0  1  0            999 V2000
  -30.4075  -15.3385   20.3686 C   0  0  0  0  0  0
  -30.4394  -12.8683   19.5103 C   0  0  0  0  0  0
  -29.5353  -12.5855   18.2833 C   0  0  0  0  0  0
  -28.0893  -12.2930   18.7211 C   0  0  0  0  0  0
  -27.6063  -13.2779   19.8137 C   0  0  2  0  0  0
  -28.6417  -13.4868   20.9380 C   0  0  0  0  0  0
  -25.2377  -13.8243   20.5753 C   0  0  0  0  0  0
  -24.1737  -13.0429   20.9269 C   0  0  0  0  0  0
  -24.6398  -11.6928   20.8766 C   0  0  0  0  0  0
  -23.9094  -10.4288   21.0407 C   0  0  0  0  0  0
  -24.3638   -9.4202   21.9186 C   0  0  0  0  0  0
  -23.6304   -8.2241   22.0755 C   0  0  0  0  0  0
  -22.4285   -8.0282   21.3545 C   0  0  0  0  0  0
  -21.9928   -9.0257   20.4645 C   0  0  0  0  0  0
  -22.7265  -10.2131   20.3055 C   0  0  0  0  0  0
  -21.6855   -6.0738   22.5279 C   0  0  0  0  0  0
  -21.4016   -6.5641   23.8213 C   0  0  0  0  0  0
  -21.3660   -5.6793   24.9174 C   0  0  0  0  0  0
  -21.6044   -4.3056   24.7225 C   0  0  0  0  0  0
  -21.8819   -3.8148   23.4346 C   0  0  0  0  0  0
  -21.9193   -4.6965   22.3402 C   0  0  0  0  0  0
  -22.7753  -13.5180   21.1913 C   0  0  0  0  0  0
  -22.1661   -4.2151   21.0979 F   0  0  0  0  0  0
  -21.5628   -3.4539   25.7737 F   0  0  0  0  0  0
  -29.8534  -14.0220   20.2918 N   0  0  0  0  0  0
  -26.2801  -12.9521   20.3202 N   0  0  0  0  0  0
  -25.9334  -11.6624   20.5711 N   0  0  0  0  0  0
  -22.0412  -12.8161   22.0465 N   0  0  0  0  0  0
  -25.3993  -15.1980   20.4188 N   0  0  0  0  0  0
  -31.6420  -15.3254   20.2462 O   0  0  0  0  0  0
  -21.6644   -6.8882   21.4242 O   0  0  0  0  0  0
  -22.3433  -14.5481   20.6751 O   0  0  0  0  0  0
  -24.6676  -31.8193   23.1665 C   0  0  0  0  0  0
  -25.9335  -32.4567   23.8148 C   0  0  1  0  0  0
  -27.2191  -26.8807   20.2005 C   0  0  0  0  0  0
  -25.5984  -33.8383   24.2051 N   0  0  0  0  0  0
  -23.4844  -30.4287   21.5177 C   0  0  2  0  0  0
  -24.9377  -28.8020   20.1222 C   0  0  0  0  0  0
  -22.7687  -29.4421   22.4778 C   0  0  0  0  0  0
  -18.0326  -28.1411   22.8465 C   0  0  0  0  0  0
  -24.1494  -36.7197   23.2648 C   0  0  0  0  0  0
  -26.0566  -30.6118   21.4026 C   0  0  0  0  0  0
  -26.1252  -29.1943   20.7534 C   0  0  0  0  0  0
  -27.2630  -28.2590   20.7592 C   0  0  0  0  0  0
  -25.9986  -26.6489   19.5275 C   0  0  0  0  0  0
  -24.9018  -27.5500   19.4879 C   0  0  0  0  0  0
  -23.7278  -29.7379   20.1478 C   0  0  0  0  0  0
  -25.4137  -36.2954   24.0296 C   0  0  1  0  0  0
  -20.5953  -28.3760   23.1180 C   0  0  2  0  0  0
  -20.6801  -26.9438   22.5402 C   0  0  0  0  0  0
  -19.5775  -26.6377   21.5215 C   0  0  0  0  0  0
  -18.1957  -26.7943   22.1622 C   0  0  0  0  0  0
  -19.1588  -28.8907   23.2808 C   0  0  0  0  0  0
  -18.9497  -30.1496   23.8845 C   0  0  0  0  0  0
  -17.6489  -30.6599   24.0554 C   0  0  0  0  0  0
  -25.9105  -34.9339   23.4997 C   0  0  0  0  0  0
  -16.5379  -29.9085   23.6345 C   0  0  0  0  0  0
  -16.7307  -28.6506   23.0363 C   0  0  0  0  0  0
  -26.4569  -31.6528   25.0695 C   0  0  0  0  0  0
  -25.3682  -31.3791   26.1341 C   0  0  0  0  0  0
  -27.0475  -30.2890   24.6459 C   0  0  0  0  0  0
  -27.6050  -32.4348   25.7505 C   0  0  0  0  0  0
  -27.5568  -37.1756   24.8467 C   0  0  0  0  0  0
  -21.4353  -29.3043   22.3525 N   0  0  0  0  0  0
  -26.4278  -37.3695   23.9408 N   0  0  0  0  0  0
  -24.7582  -30.9814   22.0825 N   0  0  0  0  0  0
  -23.4213  -28.7999   23.3043 O   0  0  0  0  0  0
  -28.2246  -25.7619   20.1857 O   0  0  0  0  0  0
  -26.5721  -34.8883   22.4598 O   0  0  0  0  0  0
  -23.5734  -32.1182   23.6731 O   0  0  0  0  0  0
  -28.9453  -21.1695   17.9988 C   0  0  0  0  0  0
  -29.2196  -19.9454   18.6761 C   0  0  0  0  0  0
  -28.6601  -22.4175   18.6269 C   0  0  0  0  0  0
  -28.9239  -21.2205   20.7003 C   0  0  0  0  0  0
  -29.2567  -19.8277   20.0822 C   0  0  0  0  0  0
  -28.6045  -22.5905   20.0271 C   0  0  0  0  0  0
  -29.8038  -18.2707   20.7308 C   0  0  0  0  0  0
  -28.0097  -24.1588   20.6024 C   0  0  0  0  0  0
  -29.6295  -16.6212   20.3858 N   0  0  0  0  0  0
  -31.4482  -13.0988   19.1653 H   0  0  0  0  0  0
  -30.5387  -11.9797   20.1359 H   0  0  0  0  0  0
  -29.9296  -11.7509   17.7022 H   0  0  0  0  0  0
  -29.5454  -13.4526   17.6211 H   0  0  0  0  0  0
  -28.0631  -11.2750   19.1117 H   0  0  0  0  0  0
  -27.4172  -12.3093   17.8623 H   0  0  0  0  0  0
  -27.5076  -14.2341   19.2984 H   0  0  0  0  0  0
  -28.8363  -12.5627   21.4844 H   0  0  0  0  0  0
  -28.2690  -14.2079   21.6672 H   0  0  0  0  0  0
  -25.2779   -9.5677   22.4767 H   0  0  0  0  0  0
  -24.0008   -7.4632   22.7477 H   0  0  0  0  0  0
  -21.0859   -8.8781   19.8951 H   0  0  0  0  0  0
  -22.3724  -10.9673   19.6167 H   0  0  0  0  0  0
  -21.2010   -7.6149   23.9716 H   0  0  0  0  0  0
  -21.1482   -6.0523   25.9077 H   0  0  0  0  0  0
  -22.0597   -2.7610   23.2845 H   0  0  0  0  0  0
  -22.4047  -11.9832   22.4857 H   0  0  0  0  0  0
  -21.1022  -13.1164   22.2666 H   0  0  0  0  0  0
  -24.6265  -15.8451   20.5329 H   0  0  0  0  0  0
  -26.2357  -15.6418   20.0643 H   0  0  0  0  0  0
  -26.7408  -32.5095   23.0864 H   0  0  0  0  0  0
  -25.0072  -33.9453   25.0163 H   0  0  0  0  0  0
  -22.8002  -31.2613   21.3415 H   0  0  0  0  0  0
  -23.3771  -35.9511   23.3272 H   0  0  0  0  0  0
  -24.3570  -36.8885   22.2070 H   0  0  0  0  0  0
  -23.7237  -37.6366   23.6734 H   0  0  0  0  0  0
  -26.2389  -31.3476   20.6182 H   0  0  0  0  0  0
  -26.9157  -30.6743   22.0585 H   0  0  0  0  0  0
  -28.1689  -28.5669   21.2622 H   0  0  0  0  0  0
  -25.8699  -25.6954   19.0348 H   0  0  0  0  0  0
  -24.0014  -27.2428   18.9738 H   0  0  0  0  0  0
  -23.8906  -30.5027   19.3876 H   0  0  0  0  0  0
  -22.8360  -29.1960   19.8281 H   0  0  0  0  0  0
  -25.1338  -36.1743   25.0787 H   0  0  0  0  0  0
  -21.0037  -28.3369   24.1305 H   0  0  0  0  0  0
  -20.5680  -26.2380   23.3646 H   0  0  0  0  0  0
  -21.6664  -26.7409   22.1210 H   0  0  0  0  0  0
  -19.6934  -25.6274   21.1279 H   0  0  0  0  0  0
  -19.6713  -27.3158   20.6722 H   0  0  0  0  0  0
  -17.4226  -26.6685   21.4027 H   0  0  0  0  0  0
  -18.0352  -26.0099   22.9032 H   0  0  0  0  0  0
  -19.7972  -30.7327   24.2191 H   0  0  0  0  0  0
  -17.5039  -31.6274   24.5166 H   0  0  0  0  0  0
  -15.5377  -30.2969   23.7699 H   0  0  0  0  0  0
  -15.8708  -28.0806   22.7109 H   0  0  0  0  0  0
  -24.5883  -30.7122   25.7647 H   0  0  0  0  0  0
  -24.8852  -32.2996   26.4628 H   0  0  0  0  0  0
  -25.7902  -30.9048   27.0211 H   0  0  0  0  0  0
  -26.3154  -29.6552   24.1444 H   0  0  0  0  0  0
  -27.3969  -29.7271   25.5132 H   0  0  0  0  0  0
  -27.9108  -30.4062   23.9907 H   0  0  0  0  0  0
  -27.2610  -33.3698   26.1940 H   0  0  0  0  0  0
  -28.3937  -32.6831   25.0390 H   0  0  0  0  0  0
  -28.0634  -31.8571   26.5540 H   0  0  0  0  0  0
  -28.2565  -38.0071   24.7512 H   0  0  0  0  0  0
  -28.1085  -36.2596   24.6297 H   0  0  0  0  0  0
  -27.2284  -37.1400   25.8869 H   0  0  0  0  0  0
  -20.9620  -29.8722   21.6636 H   0  0  0  0  0  0
  -26.0121  -38.2751   24.1416 H   0  0  0  0  0  0
  -28.9516  -21.1496   16.9175 H   0  0  0  0  0  0
  -29.4437  -19.0700   18.0814 H   0  0  0  0  0  0
  -28.4390  -23.2690   17.9978 H   0  0  0  0  0  0
  -28.9082  -21.2402   21.7811 H   0  0  0  0  0  0
  -29.5077  -18.3294   21.7784 H   0  0  0  0  0  0
  -30.8867  -18.3942   20.7676 H   0  0  0  0  0  0
  -28.2486  -24.1429   21.6657 H   0  0  0  0  0  0
  -26.9275  -24.0300   20.5824 H   0  0  0  0  0  0
  -28.6486  -16.3991   20.3052 H   0  0  0  0  0  0
  1 25  1  0  0  0
  1 30  2  0  0  0
  1 79  1  0  0  0
  2  3  1  0  0  0
  2 25  1  0  0  0
  2 80  1  0  0  0
  2 81  1  0  0  0
  3  4  1  0  0  0
  3 82  1  0  0  0
  3 83  1  0  0  0
  4  5  1  0  0  0
  4 84  1  0  0  0
  4 85  1  0  0  0
  5  6  1  0  0  0
  5 26  1  0  0  0
  5 86  1  0  0  0
  6 25  1  0  0  0
  6 87  1  0  0  0
  6 88  1  0  0  0
  7  8  2  0  0  0
  7 26  1  0  0  0
  7 29  1  0  0  0
  8  9  1  0  0  0
  8 22  1  0  0  0
  9 10  1  0  0  0
  9 27  2  0  0  0
 10 11  2  0  0  0
 10 15  1  0  0  0
 11 12  1  0  0  0
 11 89  1  0  0  0
 12 13  2  0  0  0
 12 90  1  0  0  0
 13 14  1  0  0  0
 13 31  1  0  0  0
 14 15  2  0  0  0
 14 91  1  0  0  0
 15 92  1  0  0  0
 16 17  2  0  0  0
 16 21  1  0  0  0
 16 31  1  0  0  0
 17 18  1  0  0  0
 17 93  1  0  0  0
 18 19  2  0  0  0
 18 94  1  0  0  0
 19 20  1  0  0  0
 19 24  1  0  0  0
 20 21  2  0  0  0
 20 95  1  0  0  0
 21 23  1  0  0  0
 22 28  1  0  0  0
 22 32  2  0  0  0
 26 27  1  0  0  0
 28 96  1  0  0  0
 28 97  1  0  0  0
 29 98  1  0  0  0
 29 99  1  0  0  0
 33 34  1  0  0  0
 33 66  1  0  0  0
 33 70  2  0  0  0
 34 36  1  0  0  0
 34 59  1  0  0  0
 34100  1  0  0  0
 35 44  2  0  0  0
 35 45  1  0  0  0
 35 68  1  0  0  0
 36 56  1  0  0  0
 36101  1  0  0  0
 37 39  1  0  0  0
 37 47  1  0  0  0
 37 66  1  0  0  0
 37102  1  0  0  0
 38 43  2  0  0  0
 38 46  1  0  0  0
 38 47  1  0  0  0
 39 64  1  0  0  0
 39 67  2  0  0  0
 40 52  1  0  0  0
 40 53  2  0  0  0
 40 58  1  0  0  0
 41103  1  0  0  0
 41104  1  0  0  0
 41105  1  0  0  0
 41 48  1  0  0  0
 42 43  1  0  0  0
 42 66  1  0  0  0
 42106  1  0  0  0
 42107  1  0  0  0
 43 44  1  0  0  0
 44108  1  0  0  0
 45 46  2  0  0  0
 45109  1  0  0  0
 46110  1  0  0  0
 47111  1  0  0  0
 47112  1  0  0  0
 48 56  1  0  0  0
 48 65  1  0  0  0
 48113  1  0  0  0
 49 50  1  0  0  0
 49 53  1  0  0  0
 49 64  1  0  0  0
 49114  1  0  0  0
 50 51  1  0  0  0
 50115  1  0  0  0
 50116  1  0  0  0
 51 52  1  0  0  0
 51117  1  0  0  0
 51118  1  0  0  0
 52119  1  0  0  0
 52120  1  0  0  0
 53 54  1  0  0  0
 54 55  2  0  0  0
 54121  1  0  0  0
 55 57  1  0  0  0
 55122  1  0  0  0
 56 69  2  0  0  0
 57 58  2  0  0  0
 57123  1  0  0  0
 58124  1  0  0  0
 59 60  1  0  0  0
 59 61  1  0  0  0
 59 62  1  0  0  0
 60125  1  0  0  0
 60126  1  0  0  0
 60127  1  0  0  0
 61128  1  0  0  0
 61129  1  0  0  0
 61130  1  0  0  0
 62131  1  0  0  0
 62132  1  0  0  0
 62133  1  0  0  0
 63 65  1  0  0  0
 63134  1  0  0  0
 63135  1  0  0  0
 63136  1  0  0  0
 64137  1  0  0  0
 65138  1  0  0  0
 68 78  1  0  0  0
 71 72  2  0  0  0
 71 73  1  0  0  0
 71139  1  0  0  0
 72 75  1  0  0  0
 72140  1  0  0  0
 73 76  2  0  0  0
 73141  1  0  0  0
 74 75  2  0  0  0
 74 76  1  0  0  0
 74142  1  0  0  0
 75 77  1  0  0  0
 76 78  1  0  0  0
 77 79  1  0  0  0
 77143  1  0  0  0
 77144  1  0  0  0
 78145  1  0  0  0
 78146  1  0  0  0
 79147  1  0  0  0
M  ISO  4   1 100  68 101  78 101  79 100
M  END
> <chiral flag>
0

> <version>
0

> <s_m_source_file>
/data/baiqing/PycharmProjects/Reinvent-master-3.2/result/LINK_invent/BTK/process_docking_weight1_custom_product_contain_oxygen_bond_distance_aromatic_linkinvent_7_9_3/rearranged_h_0031.sdf

> <i_m_source_file_index>
27

> <r_mmod_Potential_Energy-OPLS-2005>
1401.74060058594

> <r_mmod_Stretch_Energy-OPLS-2005>
643.052795410156

> <r_mmod_Bend_Energy-OPLS-2005>
451.203063964844

> <r_mmod_Torsional_Energy-OPLS-2005>
238.437026977539

> <r_mmod_Improper_Torsional_Energy-OPLS-2005>
6.01917123794556

> <r_mmod_Van_der_Waal_Energy-OPLS-2005>
122.058601379395

> <r_mmod_Electrostatic_Energy-OPLS-2005>
-377.779266357422

> <r_mmod_Solvation_Energy-OPLS-2005>
-214.792663574219

> <b_mmod_Minimization_Converged-OPLS-2005>
1

> <r_mmod_RMS_Derivative-OPLS-2005>
0.046136412769556

$$$$
27
                    3D
 Structure written by MMmdl.
160169  0  0  1  0            999 V2000
  -30.5699  -14.8272   20.4655 C   0  0  0  0  0  0
  -30.4531  -12.5160   19.4709 C   0  0  0  0  0  0
  -29.5229  -12.5129   18.2379 C   0  0  0  0  0  0
  -28.0486  -12.3217   18.6525 C   0  0  0  0  0  0
  -27.6393  -13.2328   19.8401 C   0  0  2  0  0  0
  -28.6867  -13.1917   20.9717 C   0  0  0  0  0  0
  -25.2528  -13.8190   20.5697 C   0  0  0  0  0  0
  -24.1829  -13.0440   20.9240 C   0  0  0  0  0  0
  -24.6423  -11.6918   20.8774 C   0  0  0  0  0  0
  -23.9093  -10.4296   21.0433 C   0  0  0  0  0  0
  -24.3634   -9.4202   21.9201 C   0  0  0  0  0  0
  -23.6297   -8.2243   22.0750 C   0  0  0  0  0  0
  -22.4277   -8.0290   21.3545 C   0  0  0  0  0  0
  -21.9930   -9.0275   20.4656 C   0  0  0  0  0  0
  -22.7271  -10.2150   20.3073 C   0  0  0  0  0  0
  -21.6857   -6.0760   22.5291 C   0  0  0  0  0  0
  -21.4009   -6.5652   23.8230 C   0  0  0  0  0  0
  -21.3651   -5.6797   24.9182 C   0  0  0  0  0  0
  -21.6038   -4.3059   24.7225 C   0  0  0  0  0  0
  -21.8816   -3.8165   23.4336 C   0  0  0  0  0  0
  -21.9188   -4.6991   22.3404 C   0  0  0  0  0  0
  -22.7848  -13.5223   21.1897 C   0  0  0  0  0  0
  -22.1660   -4.2182   21.0980 F   0  0  0  0  0  0
  -21.5627   -3.4533   25.7729 F   0  0  0  0  0  0
  -29.9725  -13.5830   20.3810 N   0  0  0  0  0  0
  -26.2938  -12.9400   20.3225 N   0  0  0  0  0  0
  -25.9344  -11.6546   20.5728 N   0  0  0  0  0  0
  -22.0477  -12.8210   22.0426 N   0  0  0  0  0  0
  -25.4235  -15.1918   20.4127 N   0  0  0  0  0  0
  -31.7710  -14.9309   20.2024 O   0  0  0  0  0  0
  -21.6631   -6.8896   21.4246 O   0  0  0  0  0  0
  -22.3556  -14.5545   20.6753 O   0  0  0  0  0  0
  -24.6355  -31.8492   23.1936 C   0  0  0  0  0  0
  -25.9157  -32.4730   23.8305 C   0  0  1  0  0  0
  -27.2223  -27.2015   20.1507 C   0  0  0  0  0  0
  -25.5933  -33.8533   24.2226 N   0  0  0  0  0  0
  -23.4369  -30.4694   21.5363 C   0  0  2  0  0  0
  -24.8860  -28.8984   20.1176 C   0  0  0  0  0  0
  -22.7520  -29.4582   22.4876 C   0  0  0  0  0  0
  -18.0290  -28.1401   22.8482 C   0  0  0  0  0  0
  -24.1480  -36.7282   23.2644 C   0  0  0  0  0  0
  -25.9859  -30.7480   21.3765 C   0  0  0  0  0  0
  -26.0610  -29.3606   20.7250 C   0  0  0  0  0  0
  -27.2326  -28.5265   20.7227 C   0  0  0  0  0  0
  -26.0236  -26.8170   19.5148 C   0  0  0  0  0  0
  -24.8754  -27.6373   19.5014 C   0  0  0  0  0  0
  -23.6618  -29.7960   20.1569 C   0  0  0  0  0  0
  -25.4110  -36.3059   24.0321 C   0  0  1  0  0  0
  -20.5896  -28.3729   23.1247 C   0  0  2  0  0  0
  -20.6767  -26.9430   22.5414 C   0  0  0  0  0  0
  -19.5754  -26.6385   21.5208 C   0  0  0  0  0  0
  -18.1935  -26.7941   22.1627 C   0  0  0  0  0  0
  -19.1544  -28.8881   23.2864 C   0  0  0  0  0  0
  -18.9473  -30.1471   23.8898 C   0  0  0  0  0  0
  -17.6472  -30.6601   24.0562 C   0  0  0  0  0  0
  -25.9054  -34.9425   23.5078 C   0  0  0  0  0  0
  -16.5361  -29.9097   23.6332 C   0  0  0  0  0  0
  -16.7275  -28.6510   23.0359 C   0  0  0  0  0  0
  -26.4505  -31.6579   25.0716 C   0  0  0  0  0  0
  -25.3713  -31.3764   26.1434 C   0  0  0  0  0  0
  -27.0348  -30.2984   24.6235 C   0  0  0  0  0  0
  -27.6053  -32.4318   25.7518 C   0  0  0  0  0  0
  -27.5565  -37.1809   24.8464 C   0  0  0  0  0  0
  -21.4214  -29.3062   22.3627 N   0  0  0  0  0  0
  -26.4280  -37.3758   23.9401 N   0  0  0  0  0  0
  -24.7061  -31.0414   22.0930 N   0  0  0  0  0  0
  -23.4197  -28.8111   23.2985 O   0  0  0  0  0  0
  -28.3022  -26.2726   20.1927 O   0  0  0  0  0  0
  -26.5628  -34.8898   22.4648 O   0  0  0  0  0  0
  -23.5504  -32.1338   23.7211 O   0  0  0  0  0  0
  -30.3639  -18.8595   22.9546 C   0  0  0  0  0  0
  -29.5303  -18.5997   20.3508 C   0  0  0  0  0  0
  -30.0441  -20.0349   22.2383 C   0  0  0  0  0  0
  -30.2911  -17.5495   22.4231 C   0  0  0  0  0  0
  -29.5776  -19.9731   20.8978 C   0  0  0  0  0  0
  -29.9079  -17.3604   21.0624 C   0  0  0  0  0  0
  -29.2060  -23.8640   21.0639 C   0  0  0  0  0  0
  -28.0112  -23.6108   19.4917 C   0  0  0  0  0  0
  -28.0526  -24.7979   20.5257 C   0  0  2  0  0  0
  -30.2233  -21.3490   22.9780 C   0  0  0  0  0  0
  -29.2906  -21.3450   20.0440 C   0  0  0  0  0  0
  -30.5797  -16.3863   23.3840 C   0  0  0  0  0  0
  -29.7367  -15.9564   20.5347 N   0  0  0  0  0  0
  -28.5248  -22.6315   20.5218 N   0  3  1  0  0  0
  -31.7288  -15.7883   23.0767 F   0  0  0  0  0  0
  -30.6764  -16.7881   24.6527 F   0  0  0  0  0  0
  -29.5989  -15.4839   23.3452 F   0  0  0  0  0  0
  -31.4851  -12.6833   19.1544 H   0  0  0  0  0  0
  -30.4477  -11.5488   19.9737 H   0  0  0  0  0  0
  -29.8243  -11.7250   17.5460 H   0  0  0  0  0  0
  -29.6331  -13.4524   17.6936 H   0  0  0  0  0  0
  -27.9156  -11.2756   18.9281 H   0  0  0  0  0  0
  -27.3933  -12.4932   17.7991 H   0  0  0  0  0  0
  -27.6220  -14.2474   19.4411 H   0  0  0  0  0  0
  -28.7481  -12.1956   21.4132 H   0  0  0  0  0  0
  -28.4027  -13.8714   21.7770 H   0  0  0  0  0  0
  -25.2783   -9.5662   22.4777 H   0  0  0  0  0  0
  -24.0015   -7.4620   22.7450 H   0  0  0  0  0  0
  -21.0871   -8.8803   19.8946 H   0  0  0  0  0  0
  -22.3751  -10.9689   19.6177 H   0  0  0  0  0  0
  -21.1994   -7.6164   23.9743 H   0  0  0  0  0  0
  -21.1479   -6.0522   25.9090 H   0  0  0  0  0  0
  -22.0602   -2.7626   23.2832 H   0  0  0  0  0  0
  -22.4078  -11.9843   22.4780 H   0  0  0  0  0  0
  -21.1100  -13.1259   22.2644 H   0  0  0  0  0  0
  -24.6565  -15.8434   20.5366 H   0  0  0  0  0  0
  -26.2587  -15.6314   20.0495 H   0  0  0  0  0  0
  -26.7209  -32.5380   23.1036 H   0  0  0  0  0  0
  -25.0049  -33.9647   25.0359 H   0  0  0  0  0  0
  -22.7365  -31.2937   21.3806 H   0  0  0  0  0  0
  -23.3727  -35.9626   23.3317 H   0  0  0  0  0  0
  -24.3568  -36.8911   22.2059 H   0  0  0  0  0  0
  -23.7245  -37.6489   23.6665 H   0  0  0  0  0  0
  -26.1146  -31.5010   20.5985 H   0  0  0  0  0  0
  -26.8680  -30.8133   22.0034 H   0  0  0  0  0  0
  -28.1320  -28.8757   21.2115 H   0  0  0  0  0  0
  -25.9638  -25.8509   19.0349 H   0  0  0  0  0  0
  -23.9730  -27.2780   19.0243 H   0  0  0  0  0  0
  -23.7992  -30.5688   19.3997 H   0  0  0  0  0  0
  -22.7792  -29.2347   19.8452 H   0  0  0  0  0  0
  -25.1292  -36.1905   25.0810 H   0  0  0  0  0  0
  -20.9991  -28.3308   24.1370 H   0  0  0  0  0  0
  -20.5644  -26.2330   23.3622 H   0  0  0  0  0  0
  -21.6630  -26.7412   22.1228 H   0  0  0  0  0  0
  -19.6902  -25.6287   21.1260 H   0  0  0  0  0  0
  -19.6700  -27.3174   20.6721 H   0  0  0  0  0  0
  -17.4193  -26.6677   21.4043 H   0  0  0  0  0  0
  -18.0344  -26.0091   22.9038 H   0  0  0  0  0  0
  -19.7950  -30.7278   24.2274 H   0  0  0  0  0  0
  -17.5034  -31.6287   24.5162 H   0  0  0  0  0  0
  -15.5369  -30.3009   23.7658 H   0  0  0  0  0  0
  -15.8670  -28.0830   22.7083 H   0  0  0  0  0  0
  -24.5893  -30.7091   25.7784 H   0  0  0  0  0  0
  -24.8888  -32.2942   26.4798 H   0  0  0  0  0  0
  -25.8025  -30.9002   27.0246 H   0  0  0  0  0  0
  -26.2938  -29.6755   24.1204 H   0  0  0  0  0  0
  -27.3946  -29.7235   25.4781 H   0  0  0  0  0  0
  -27.8843  -30.4244   23.9518 H   0  0  0  0  0  0
  -27.2643  -33.3618   26.2067 H   0  0  0  0  0  0
  -28.3892  -32.6879   25.0382 H   0  0  0  0  0  0
  -28.0658  -31.8453   26.5477 H   0  0  0  0  0  0
  -28.2591  -38.0098   24.7470 H   0  0  0  0  0  0
  -28.1051  -36.2625   24.6327 H   0  0  0  0  0  0
  -27.2278  -37.1497   25.8868 H   0  0  0  0  0  0
  -20.9396  -29.8806   21.6846 H   0  0  0  0  0  0
  -26.0160  -38.2826   24.1413 H   0  0  0  0  0  0
  -30.6773  -18.9708   23.9818 H   0  0  0  0  0  0
  -29.2013  -18.4890   19.3277 H   0  0  0  0  0  0
  -30.1715  -24.0571   20.5917 H   0  0  0  0  0  0
  -29.3007  -23.8945   22.1484 H   0  0  0  0  0  0
  -27.0120  -23.3755   19.1245 H   0  0  0  0  0  0
  -28.7065  -23.7370   18.6576 H   0  0  0  0  0  0
  -27.1919  -24.7337   21.1964 H   0  0  0  0  0  0
  -29.2566  -21.8009   23.1921 H   0  0  0  0  0  0
  -30.8413  -22.0412   22.4089 H   0  0  0  0  0  0
  -30.7200  -21.2100   23.9398 H   0  0  0  0  0  0
  -28.7271  -21.0018   19.1760 H   0  0  0  0  0  0
  -30.2424  -21.6802   19.6349 H   0  0  0  0  0  0
  -28.7689  -15.7092   20.4055 H   0  0  0  0  0  0
  -27.7570  -22.3572   21.1154 H   0  0  0  0  0  0
  1 25  1  0  0  0
  1 30  2  0  0  0
  1 83  1  0  0  0
  2  3  1  0  0  0
  2 25  1  0  0  0
  2 88  1  0  0  0
  2 89  1  0  0  0
  3  4  1  0  0  0
  3 90  1  0  0  0
  3 91  1  0  0  0
  4  5  1  0  0  0
  4 92  1  0  0  0
  4 93  1  0  0  0
  5  6  1  0  0  0
  5 26  1  0  0  0
  5 94  1  0  0  0
  6 25  1  0  0  0
  6 95  1  0  0  0
  6 96  1  0  0  0
  7  8  2  0  0  0
  7 26  1  0  0  0
  7 29  1  0  0  0
  8  9  1  0  0  0
  8 22  1  0  0  0
  9 10  1  0  0  0
  9 27  2  0  0  0
 10 11  2  0  0  0
 10 15  1  0  0  0
 11 12  1  0  0  0
 11 97  1  0  0  0
 12 13  2  0  0  0
 12 98  1  0  0  0
 13 14  1  0  0  0
 13 31  1  0  0  0
 14 15  2  0  0  0
 14 99  1  0  0  0
 15100  1  0  0  0
 16 17  2  0  0  0
 16 21  1  0  0  0
 16 31  1  0  0  0
 17 18  1  0  0  0
 17101  1  0  0  0
 18 19  2  0  0  0
 18102  1  0  0  0
 19 20  1  0  0  0
 19 24  1  0  0  0
 20 21  2  0  0  0
 20103  1  0  0  0
 21 23  1  0  0  0
 22 28  1  0  0  0
 22 32  2  0  0  0
 26 27  1  0  0  0
 28104  1  0  0  0
 28105  1  0  0  0
 29106  1  0  0  0
 29107  1  0  0  0
 33 34  1  0  0  0
 33 66  1  0  0  0
 33 70  2  0  0  0
 34 36  1  0  0  0
 34 59  1  0  0  0
 34108  1  0  0  0
 35 44  2  0  0  0
 35 45  1  0  0  0
 35 68  1  0  0  0
 36 56  1  0  0  0
 36109  1  0  0  0
 37 39  1  0  0  0
 37 47  1  0  0  0
 37 66  1  0  0  0
 37110  1  0  0  0
 38 43  2  0  0  0
 38 46  1  0  0  0
 38 47  1  0  0  0
 39 64  1  0  0  0
 39 67  2  0  0  0
 40 52  1  0  0  0
 40 53  2  0  0  0
 40 58  1  0  0  0
 41111  1  0  0  0
 41112  1  0  0  0
 41113  1  0  0  0
 41 48  1  0  0  0
 42 43  1  0  0  0
 42 66  1  0  0  0
 42114  1  0  0  0
 42115  1  0  0  0
 43 44  1  0  0  0
 44116  1  0  0  0
 45 46  2  0  0  0
 45117  1  0  0  0
 46118  1  0  0  0
 47119  1  0  0  0
 47120  1  0  0  0
 48 56  1  0  0  0
 48 65  1  0  0  0
 48121  1  0  0  0
 49 50  1  0  0  0
 49 53  1  0  0  0
 49 64  1  0  0  0
 49122  1  0  0  0
 50 51  1  0  0  0
 50123  1  0  0  0
 50124  1  0  0  0
 51 52  1  0  0  0
 51125  1  0  0  0
 51126  1  0  0  0
 52127  1  0  0  0
 52128  1  0  0  0
 53 54  1  0  0  0
 54 55  2  0  0  0
 54129  1  0  0  0
 55 57  1  0  0  0
 55130  1  0  0  0
 56 69  2  0  0  0
 57 58  2  0  0  0
 57131  1  0  0  0
 58132  1  0  0  0
 59 60  1  0  0  0
 59 61  1  0  0  0
 59 62  1  0  0  0
 60133  1  0  0  0
 60134  1  0  0  0
 60135  1  0  0  0
 61136  1  0  0  0
 61137  1  0  0  0
 61138  1  0  0  0
 62139  1  0  0  0
 62140  1  0  0  0
 62141  1  0  0  0
 63 65  1  0  0  0
 63142  1  0  0  0
 63143  1  0  0  0
 63144  1  0  0  0
 64145  1  0  0  0
 65146  1  0  0  0
 68 79  1  0  0  0
 71 73  2  0  0  0
 71 74  1  0  0  0
 71147  1  0  0  0
 72 75  2  0  0  0
 72 76  1  0  0  0
 72148  1  0  0  0
 73 75  1  0  0  0
 73 80  1  0  0  0
 74 76  2  0  0  0
 74 82  1  0  0  0
 75 81  1  0  0  0
 76 83  1  0  0  0
 77 79  1  0  0  0
 77 84  1  0  0  0
 77149  1  0  0  0
 77150  1  0  0  0
 78 79  1  0  0  0
 78 84  1  0  0  0
 78151  1  0  0  0
 78152  1  0  0  0
 79153  1  0  0  0
 80154  1  0  0  0
 80155  1  0  0  0
 80156  1  0  0  0
 81157  1  0  0  0
 81158  1  0  0  0
 81 84  1  0  0  0
 82 85  1  0  0  0
 82 86  1  0  0  0
 82 87  1  0  0  0
 83159  1  0  0  0
 84160  1  0  0  0
M  CHG  1  84   1
M  ISO  4   1 100  68 101  79 101  83 100
M  END
> <chiral flag>
0

> <version>
0

> <s_m_source_file>
/data/baiqing/PycharmProjects/Reinvent-master-3.2/result/LINK_invent/BTK/process_docking_weight1_custom_product_contain_oxygen_bond_distance_aromatic_linkinvent_7_9_3/rearranged_h_0031.sdf

> <i_m_source_file_index>
28

> <r_mmod_Potential_Energy-OPLS-2005>
219.740676879883

> <r_mmod_Stretch_Energy-OPLS-2005>
177.924606323242

> <r_mmod_Bend_Energy-OPLS-2005>
237.810638427734

> <r_mmod_Torsional_Energy-OPLS-2005>
260.440155029297

> <r_mmod_Improper_Torsional_Energy-OPLS-2005>
9.81790924072266

> <r_mmod_Van_der_Waal_Energy-OPLS-2005>
137.802322387695

> <r_mmod_Electrostatic_Energy-OPLS-2005>
-237.886611938477

> <r_mmod_Solvation_Energy-OPLS-2005>
-492.305511474609

> <b_mmod_Minimization_Converged-OPLS-2005>
0

> <r_mmod_RMS_Derivative-OPLS-2005>
2.68996930122375

$$$$
28
                    3D
 Structure written by MMmdl.
164173  0  0  1  0            999 V2000
  -30.6217  -14.7551   20.4737 C   0  0  0  0  0  0
  -30.4288  -12.4625   19.4905 C   0  0  0  0  0  0
  -29.5241  -12.5030   18.2385 C   0  0  0  0  0  0
  -28.0453  -12.3382   18.6364 C   0  0  0  0  0  0
  -27.6393  -13.2344   19.8386 C   0  0  2  0  0  0
  -28.6728  -13.1799   20.9834 C   0  0  0  0  0  0
  -25.2494  -13.8155   20.5650 C   0  0  0  0  0  0
  -24.1760  -13.0409   20.9176 C   0  0  0  0  0  0
  -24.6374  -11.6902   20.8718 C   0  0  0  0  0  0
  -23.9062  -10.4285   21.0398 C   0  0  0  0  0  0
  -24.3617   -9.4203   21.9183 C   0  0  0  0  0  0
  -23.6276   -8.2244   22.0769 C   0  0  0  0  0  0
  -22.4256   -8.0283   21.3548 C   0  0  0  0  0  0
  -21.9908   -9.0261   20.4645 C   0  0  0  0  0  0
  -22.7244  -10.2135   20.3039 C   0  0  0  0  0  0
  -21.6851   -6.0733   22.5296 C   0  0  0  0  0  0
  -21.4035   -6.5640   23.8233 C   0  0  0  0  0  0
  -21.3678   -5.6788   24.9182 C   0  0  0  0  0  0
  -21.6045   -4.3053   24.7233 C   0  0  0  0  0  0
  -21.8792   -3.8146   23.4347 C   0  0  0  0  0  0
  -21.9171   -4.6961   22.3402 C   0  0  0  0  0  0
  -22.7810  -13.5251   21.1816 C   0  0  0  0  0  0
  -22.1651   -4.2141   21.0980 F   0  0  0  0  0  0
  -21.5602   -3.4547   25.7753 F   0  0  0  0  0  0
  -29.9777  -13.5357   20.4127 N   0  0  0  0  0  0
  -26.2910  -12.9375   20.3181 N   0  0  0  0  0  0
  -25.9292  -11.6517   20.5655 N   0  0  0  0  0  0
  -22.0441  -12.8300   22.0416 N   0  0  0  0  0  0
  -25.4142  -15.1846   20.4034 N   0  0  0  0  0  0
  -31.7977  -14.8050   20.1110 O   0  0  0  0  0  0
  -21.6603   -6.8875   21.4264 O   0  0  0  0  0  0
  -22.3548  -14.5555   20.6625 O   0  0  0  0  0  0
  -24.6290  -31.8552   23.1980 C   0  0  0  0  0  0
  -25.9127  -32.4765   23.8286 C   0  0  1  0  0  0
  -27.2264  -27.2574   20.1281 C   0  0  0  0  0  0
  -25.5927  -33.8567   24.2222 N   0  0  0  0  0  0
  -23.4278  -30.4754   21.5441 C   0  0  2  0  0  0
  -24.8808  -28.9210   20.1136 C   0  0  0  0  0  0
  -22.7490  -29.4636   22.4984 C   0  0  0  0  0  0
  -18.0336  -28.1378   22.8458 C   0  0  0  0  0  0
  -24.1493  -36.7273   23.2621 C   0  0  0  0  0  0
  -25.9717  -30.7670   21.3792 C   0  0  0  0  0  0
  -26.0495  -29.3861   20.7271 C   0  0  0  0  0  0
  -27.2236  -28.5628   20.7341 C   0  0  0  0  0  0
  -26.0453  -26.8900   19.4466 C   0  0  0  0  0  0
  -24.8788  -27.6764   19.4690 C   0  0  0  0  0  0
  -23.6456  -29.7970   20.1650 C   0  0  0  0  0  0
  -25.4122  -36.3074   24.0295 C   0  0  1  0  0  0
  -20.5898  -28.3745   23.1339 C   0  0  2  0  0  0
  -20.6870  -26.9496   22.5347 C   0  0  0  0  0  0
  -19.5868  -26.6565   21.5100 C   0  0  0  0  0  0
  -18.2015  -26.8008   22.1460 C   0  0  0  0  0  0
  -19.1550  -28.8862   23.2893 C   0  0  0  0  0  0
  -18.9395  -30.1478   23.8867 C   0  0  0  0  0  0
  -17.6381  -30.6567   24.0513 C   0  0  0  0  0  0
  -25.9046  -34.9459   23.5068 C   0  0  0  0  0  0
  -16.5306  -29.8992   23.6323 C   0  0  0  0  0  0
  -16.7306  -28.6434   23.0340 C   0  0  0  0  0  0
  -26.4512  -31.6570   25.0653 C   0  0  0  0  0  0
  -25.3729  -31.3750   26.1362 C   0  0  0  0  0  0
  -27.0353  -30.2977   24.6140 C   0  0  0  0  0  0
  -27.6054  -32.4297   25.7450 C   0  0  0  0  0  0
  -27.5582  -37.1785   24.8453 C   0  0  0  0  0  0
  -21.4185  -29.3163   22.3796 N   0  0  0  0  0  0
  -26.4307  -37.3768   23.9382 N   0  0  0  0  0  0
  -24.6964  -31.0491   22.0975 N   0  0  0  0  0  0
  -23.4199  -28.8074   23.2999 O   0  0  0  0  0  0
  -28.3015  -26.3371   20.2417 O   0  0  0  0  0  0
  -26.5616  -34.8947   22.4643 O   0  0  0  0  0  0
  -23.5434  -32.1407   23.7244 O   0  0  0  0  0  0
  -30.9770  -20.1540   20.3591 C   0  0  0  0  0  0
  -31.5345  -17.7746   20.2692 C   0  0  0  0  0  0
  -29.6526  -19.8920   20.7585 C   0  0  0  0  0  0
  -29.2843  -18.4732   20.9017 C   0  0  0  0  0  0
  -30.2255  -17.3737   20.6462 C   0  0  0  0  0  0
  -31.8993  -19.1238   20.1200 C   0  0  0  0  0  0
  -26.9778  -22.7393   20.3568 C   0  0  0  0  0  0
  -25.9147  -22.0210   19.9379 C   0  0  0  0  0  0
  -26.9386  -24.2063   20.7654 C   0  0  0  0  0  0
  -29.1454  -23.6885   20.2565 C   0  0  0  0  0  0
  -28.0814  -24.8597   19.9826 C   0  0  2  0  0  0
  -27.8823  -18.0859   21.3598 C   0  0  0  0  0  0
  -25.9071  -20.6217   19.3512 C   0  0  0  0  0  0
  -28.8378  -21.2001   21.2089 C   0  0  0  0  0  0
  -29.8920  -15.9135   20.7693 N   0  0  0  0  0  0
  -28.4214  -22.3343   20.2415 N   0  3  1  0  0  0
  -33.5124  -19.5319   19.6576 Cl  0  0  0  0  0  0
  -31.4728  -12.5742   19.1924 H   0  0  0  0  0  0
  -30.3683  -11.4930   19.9835 H   0  0  0  0  0  0
  -29.8187  -11.7152   17.5418 H   0  0  0  0  0  0
  -29.6630  -13.4497   17.7087 H   0  0  0  0  0  0
  -27.8934  -11.2880   18.8870 H   0  0  0  0  0  0
  -27.4039  -12.5462   17.7799 H   0  0  0  0  0  0
  -27.6275  -14.2547   19.4553 H   0  0  0  0  0  0
  -28.7033  -12.1818   21.4260 H   0  0  0  0  0  0
  -28.3929  -13.8577   21.7905 H   0  0  0  0  0  0
  -25.2757   -9.5664   22.4765 H   0  0  0  0  0  0
  -23.9956   -7.4652   22.7531 H   0  0  0  0  0  0
  -21.0824   -8.8791   19.8988 H   0  0  0  0  0  0
  -22.3707  -10.9665   19.6137 H   0  0  0  0  0  0
  -21.2087   -7.6160   23.9739 H   0  0  0  0  0  0
  -21.1533   -6.0521   25.9083 H   0  0  0  0  0  0
  -22.0546   -2.7605   23.2842 H   0  0  0  0  0  0
  -22.4062  -11.9980   22.4821 H   0  0  0  0  0  0
  -21.1085  -13.1389   22.2606 H   0  0  0  0  0  0
  -24.6254  -15.8177   20.4639 H   0  0  0  0  0  0
  -26.2496  -15.6267   20.0433 H   0  0  0  0  0  0
  -26.7186  -32.5427   23.1015 H   0  0  0  0  0  0
  -25.0133  -33.9669   25.0409 H   0  0  0  0  0  0
  -22.7255  -31.2967   21.3909 H   0  0  0  0  0  0
  -23.3764  -35.9593   23.3295 H   0  0  0  0  0  0
  -24.3598  -36.8907   22.2042 H   0  0  0  0  0  0
  -23.7249  -37.6475   23.6660 H   0  0  0  0  0  0
  -26.0899  -31.5254   20.6033 H   0  0  0  0  0  0
  -26.8562  -30.8332   21.9998 H   0  0  0  0  0  0
  -28.1081  -28.9003   21.2559 H   0  0  0  0  0  0
  -25.9700  -25.9594   18.9084 H   0  0  0  0  0  0
  -23.9848  -27.3145   18.9829 H   0  0  0  0  0  0
  -23.7446  -30.5629   19.3959 H   0  0  0  0  0  0
  -22.7699  -29.2080   19.8789 H   0  0  0  0  0  0
  -25.1323  -36.1925   25.0787 H   0  0  0  0  0  0
  -20.9910  -28.3321   24.1514 H   0  0  0  0  0  0
  -20.5879  -26.2226   23.3401 H   0  0  0  0  0  0
  -21.6712  -26.7638   22.1031 H   0  0  0  0  0  0
  -19.6857  -27.3471   20.6715 H   0  0  0  0  0  0
  -19.7023  -25.6579   21.0922 H   0  0  0  0  0  0
  -18.0437  -26.0075   22.8763 H   0  0  0  0  0  0
  -17.4328  -26.6865   21.3774 H   0  0  0  0  0  0
  -19.7833  -30.7369   24.2207 H   0  0  0  0  0  0
  -17.4857  -31.6238   24.5085 H   0  0  0  0  0  0
  -15.5274  -30.2819   23.7605 H   0  0  0  0  0  0
  -15.8777  -28.0688   22.7004 H   0  0  0  0  0  0
  -24.5896  -30.7121   25.7688 H   0  0  0  0  0  0
  -24.8923  -32.2945   26.4731 H   0  0  0  0  0  0
  -25.8027  -30.8974   27.0176 H   0  0  0  0  0  0
  -26.2939  -29.6705   24.1165 H   0  0  0  0  0  0
  -27.4059  -29.7263   25.4660 H   0  0  0  0  0  0
  -27.8824  -30.4232   23.9373 H   0  0  0  0  0  0
  -27.2657  -33.3593   26.2038 H   0  0  0  0  0  0
  -28.3894  -32.6854   25.0306 H   0  0  0  0  0  0
  -28.0679  -31.8399   26.5378 H   0  0  0  0  0  0
  -28.2586  -38.0092   24.7521 H   0  0  0  0  0  0
  -28.1106  -36.2631   24.6289 H   0  0  0  0  0  0
  -27.2289  -37.1430   25.8851 H   0  0  0  0  0  0
  -20.9310  -29.9074   21.7211 H   0  0  0  0  0  0
  -26.0194  -38.2846   24.1416 H   0  0  0  0  0  0
  -31.3251  -21.1735   20.2953 H   0  0  0  0  0  0
  -32.3179  -17.0608   20.0847 H   0  0  0  0  0  0
  -24.9368  -22.4846   19.9902 H   0  0  0  0  0  0
  -25.9517  -24.6143   20.5694 H   0  0  0  0  0  0
  -27.1167  -24.3059   21.8351 H   0  0  0  0  0  0
  -29.6247  -23.8444   21.2231 H   0  0  0  0  0  0
  -29.9273  -23.6782   19.4976 H   0  0  0  0  0  0
  -27.8527  -24.7853   18.9197 H   0  0  0  0  0  0
  -27.3228  -18.8799   21.8522 H   0  0  0  0  0  0
  -27.9313  -17.2775   22.0863 H   0  0  0  0  0  0
  -27.2926  -17.7406   20.5108 H   0  0  0  0  0  0
  -25.2921  -19.9652   19.9649 H   0  0  0  0  0  0
  -26.8996  -20.1804   19.2700 H   0  0  0  0  0  0
  -25.4446  -20.6326   18.3631 H   0  0  0  0  0  0
  -29.4501  -21.6415   21.9954 H   0  0  0  0  0  0
  -27.9427  -20.9001   21.7450 H   0  0  0  0  0  0
  -28.9457  -15.7275   21.0627 H   0  0  0  0  0  0
  -28.5458  -21.9511   19.3169 H   0  0  0  0  0  0
  1 25  1  0  0  0
  1 30  2  0  0  0
  1 85  1  0  0  0
  2  3  1  0  0  0
  2 25  1  0  0  0
  2 88  1  0  0  0
  2 89  1  0  0  0
  3  4  1  0  0  0
  3 90  1  0  0  0
  3 91  1  0  0  0
  4  5  1  0  0  0
  4 92  1  0  0  0
  4 93  1  0  0  0
  5  6  1  0  0  0
  5 26  1  0  0  0
  5 94  1  0  0  0
  6 25  1  0  0  0
  6 95  1  0  0  0
  6 96  1  0  0  0
  7  8  2  0  0  0
  7 26  1  0  0  0
  7 29  1  0  0  0
  8  9  1  0  0  0
  8 22  1  0  0  0
  9 10  1  0  0  0
  9 27  2  0  0  0
 10 11  2  0  0  0
 10 15  1  0  0  0
 11 12  1  0  0  0
 11 97  1  0  0  0
 12 13  2  0  0  0
 12 98  1  0  0  0
 13 14  1  0  0  0
 13 31  1  0  0  0
 14 15  2  0  0  0
 14 99  1  0  0  0
 15100  1  0  0  0
 16 17  2  0  0  0
 16 21  1  0  0  0
 16 31  1  0  0  0
 17 18  1  0  0  0
 17101  1  0  0  0
 18 19  2  0  0  0
 18102  1  0  0  0
 19 20  1  0  0  0
 19 24  1  0  0  0
 20 21  2  0  0  0
 20103  1  0  0  0
 21 23  1  0  0  0
 22 28  1  0  0  0
 22 32  2  0  0  0
 26 27  1  0  0  0
 28104  1  0  0  0
 28105  1  0  0  0
 29106  1  0  0  0
 29107  1  0  0  0
 33 34  1  0  0  0
 33 66  1  0  0  0
 33 70  2  0  0  0
 34 36  1  0  0  0
 34 59  1  0  0  0
 34108  1  0  0  0
 35 44  2  0  0  0
 35 45  1  0  0  0
 35 68  1  0  0  0
 36 56  1  0  0  0
 36109  1  0  0  0
 37 39  1  0  0  0
 37 47  1  0  0  0
 37 66  1  0  0  0
 37110  1  0  0  0
 38 43  2  0  0  0
 38 46  1  0  0  0
 38 47  1  0  0  0
 39 64  1  0  0  0
 39 67  2  0  0  0
 40 52  1  0  0  0
 40 53  2  0  0  0
 40 58  1  0  0  0
 41111  1  0  0  0
 41112  1  0  0  0
 41113  1  0  0  0
 41 48  1  0  0  0
 42 43  1  0  0  0
 42 66  1  0  0  0
 42114  1  0  0  0
 42115  1  0  0  0
 43 44  1  0  0  0
 44116  1  0  0  0
 45 46  2  0  0  0
 45117  1  0  0  0
 46118  1  0  0  0
 47119  1  0  0  0
 47120  1  0  0  0
 48 56  1  0  0  0
 48 65  1  0  0  0
 48121  1  0  0  0
 49 50  1  0  0  0
 49 53  1  0  0  0
 49 64  1  0  0  0
 49122  1  0  0  0
 50 51  1  0  0  0
 50123  1  0  0  0
 50124  1  0  0  0
 51 52  1  0  0  0
 51125  1  0  0  0
 51126  1  0  0  0
 52127  1  0  0  0
 52128  1  0  0  0
 53 54  1  0  0  0
 54 55  2  0  0  0
 54129  1  0  0  0
 55 57  1  0  0  0
 55130  1  0  0  0
 56 69  2  0  0  0
 57 58  2  0  0  0
 57131  1  0  0  0
 58132  1  0  0  0
 59 60  1  0  0  0
 59 61  1  0  0  0
 59 62  1  0  0  0
 60133  1  0  0  0
 60134  1  0  0  0
 60135  1  0  0  0
 61136  1  0  0  0
 61137  1  0  0  0
 61138  1  0  0  0
 62139  1  0  0  0
 62140  1  0  0  0
 62141  1  0  0  0
 63 65  1  0  0  0
 63142  1  0  0  0
 63143  1  0  0  0
 63144  1  0  0  0
 64145  1  0  0  0
 65146  1  0  0  0
 68 81  1  0  0  0
 71 73  2  0  0  0
 71 76  1  0  0  0
 71147  1  0  0  0
 72 75  1  0  0  0
 72 76  2  0  0  0
 72148  1  0  0  0
 73 74  1  0  0  0
 73 84  1  0  0  0
 74 75  2  0  0  0
 74 82  1  0  0  0
 75 85  1  0  0  0
 76 87  1  0  0  0
 77 78  2  0  0  0
 77 79  1  0  0  0
 77 86  1  0  0  0
 78 83  1  0  0  0
 78149  1  0  0  0
 79 81  1  0  0  0
 79150  1  0  0  0
 79151  1  0  0  0
 80 81  1  0  0  0
 80 86  1  0  0  0
 80152  1  0  0  0
 80153  1  0  0  0
 81154  1  0  0  0
 82155  1  0  0  0
 82156  1  0  0  0
 82157  1  0  0  0
 83158  1  0  0  0
 83159  1  0  0  0
 83160  1  0  0  0
 84161  1  0  0  0
 84162  1  0  0  0
 84 86  1  0  0  0
 85163  1  0  0  0
 86164  1  0  0  0
M  CHG  1  86   1
M  ISO  4   1 100  68 101  81 101  85 100
M  END
> <chiral flag>
0

> <version>
0

> <s_m_source_file>
/data/baiqing/PycharmProjects/Reinvent-master-3.2/result/LINK_invent/BTK/process_docking_weight1_custom_product_contain_oxygen_bond_distance_aromatic_linkinvent_7_9_3/rearranged_h_0031.sdf

> <i_m_source_file_index>
29

> <r_mmod_Potential_Energy-OPLS-2005>
125.506958007812

> <r_mmod_Stretch_Energy-OPLS-2005>
140.464126586914

> <r_mmod_Bend_Energy-OPLS-2005>
233.815322875977

> <r_mmod_Torsional_Energy-OPLS-2005>
235.381454467773

> <r_mmod_Improper_Torsional_Energy-OPLS-2005>
5.74635791778564

> <r_mmod_Van_der_Waal_Energy-OPLS-2005>
142.108856201172

> <r_mmod_Electrostatic_Energy-OPLS-2005>
-281.087249755859

> <r_mmod_Solvation_Energy-OPLS-2005>
-442.767364501953

> <b_mmod_Minimization_Converged-OPLS-2005>
0

> <r_mmod_RMS_Derivative-OPLS-2005>
6.12280559539795

$$$$
29
                    3D
 Structure written by MMmdl.
163172  0  0  1  0            999 V2000
  -30.6251  -14.6342   20.4521 C   0  0  0  0  0  0
  -30.4311  -12.3719   19.4752 C   0  0  0  0  0  0
  -29.5211  -12.4911   18.2342 C   0  0  0  0  0  0
  -28.0423  -12.3193   18.6408 C   0  0  0  0  0  0
  -27.6487  -13.2155   19.8479 C   0  0  2  0  0  0
  -28.6865  -13.1178   20.9888 C   0  0  0  0  0  0
  -25.2574  -13.8159   20.5748 C   0  0  0  0  0  0
  -24.1819  -13.0414   20.9148 C   0  0  0  0  0  0
  -24.6387  -11.6890   20.8673 C   0  0  0  0  0  0
  -23.9050  -10.4280   21.0370 C   0  0  0  0  0  0
  -24.3608   -9.4203   21.9165 C   0  0  0  0  0  0
  -23.6273   -8.2248   22.0762 C   0  0  0  0  0  0
  -22.4246   -8.0273   21.3576 C   0  0  0  0  0  0
  -21.9892   -9.0240   20.4667 C   0  0  0  0  0  0
  -22.7215  -10.2112   20.3055 C   0  0  0  0  0  0
  -21.6847   -6.0716   22.5293 C   0  0  0  0  0  0
  -21.4003   -6.5630   23.8217 C   0  0  0  0  0  0
  -21.3668   -5.6794   24.9185 C   0  0  0  0  0  0
  -21.6051   -4.3058   24.7238 C   0  0  0  0  0  0
  -21.8808   -3.8142   23.4355 C   0  0  0  0  0  0
  -21.9186   -4.6950   22.3409 C   0  0  0  0  0  0
  -22.7837  -13.5209   21.1787 C   0  0  0  0  0  0
  -22.1655   -4.2143   21.0985 F   0  0  0  0  0  0
  -21.5640   -3.4544   25.7748 F   0  0  0  0  0  0
  -30.0067  -13.4187   20.4205 N   0  0  0  0  0  0
  -26.2964  -12.9349   20.3249 N   0  0  0  0  0  0
  -25.9312  -11.6485   20.5659 N   0  0  0  0  0  0
  -22.0483  -12.8262   22.0391 N   0  0  0  0  0  0
  -25.4344  -15.1911   20.4452 N   0  0  0  0  0  0
  -31.8049  -14.7700   20.1148 O   0  0  0  0  0  0
  -21.6631   -6.8861   21.4249 O   0  0  0  0  0  0
  -22.3513  -14.5504   20.6590 O   0  0  0  0  0  0
  -24.6208  -31.8632   23.1981 C   0  0  0  0  0  0
  -25.9078  -32.4785   23.8294 C   0  0  1  0  0  0
  -27.2439  -27.3702   20.1185 C   0  0  0  0  0  0
  -25.5937  -33.8581   24.2249 N   0  0  0  0  0  0
  -23.4113  -30.4787   21.5398 C   0  0  2  0  0  0
  -24.8571  -28.9174   20.1205 C   0  0  0  0  0  0
  -22.7408  -29.4654   22.4954 C   0  0  0  0  0  0
  -18.0308  -28.1363   22.8448 C   0  0  0  0  0  0
  -24.1505  -36.7301   23.2635 C   0  0  0  0  0  0
  -25.9397  -30.8120   21.3518 C   0  0  0  0  0  0
  -26.0163  -29.4333   20.7131 C   0  0  0  0  0  0
  -27.2071  -28.6676   20.6989 C   0  0  0  0  0  0
  -26.0660  -26.8730   19.5268 C   0  0  0  0  0  0
  -24.8795  -27.6415   19.5254 C   0  0  0  0  0  0
  -23.6209  -29.7914   20.1628 C   0  0  0  0  0  0
  -25.4124  -36.3079   24.0319 C   0  0  1  0  0  0
  -20.5881  -28.3684   23.1312 C   0  0  2  0  0  0
  -20.6808  -26.9421   22.5431 C   0  0  0  0  0  0
  -19.5841  -26.6453   21.5150 C   0  0  0  0  0  0
  -18.1971  -26.7944   22.1524 C   0  0  0  0  0  0
  -19.1532  -28.8831   23.2897 C   0  0  0  0  0  0
  -18.9456  -30.1404   23.8966 C   0  0  0  0  0  0
  -17.6459  -30.6547   24.0598 C   0  0  0  0  0  0
  -25.9058  -34.9449   23.5092 C   0  0  0  0  0  0
  -16.5347  -29.9067   23.6321 C   0  0  0  0  0  0
  -16.7289  -28.6488   23.0304 C   0  0  0  0  0  0
  -26.4483  -31.6565   25.0638 C   0  0  0  0  0  0
  -25.3723  -31.3705   26.1372 C   0  0  0  0  0  0
  -27.0309  -30.3002   24.6014 C   0  0  0  0  0  0
  -27.6065  -32.4273   25.7411 C   0  0  0  0  0  0
  -27.5582  -37.1795   24.8455 C   0  0  0  0  0  0
  -21.4144  -29.3040   22.3695 N   0  0  0  0  0  0
  -26.4310  -37.3768   23.9387 N   0  0  0  0  0  0
  -24.6763  -31.0673   22.0904 N   0  0  0  0  0  0
  -23.4141  -28.8231   23.3062 O   0  0  0  0  0  0
  -28.4570  -26.7003   20.0931 O   0  0  0  0  0  0
  -26.5616  -34.8925   22.4638 O   0  0  0  0  0  0
  -23.5392  -32.1435   23.7344 O   0  0  0  0  0  0
  -28.0021  -19.3488   22.7048 C   0  0  0  0  0  0
  -29.0084  -19.5061   20.1223 C   0  0  0  0  0  0
  -28.7695  -18.2750   22.2076 C   0  0  0  0  0  0
  -27.7182  -20.4925   21.9356 C   0  0  0  0  0  0
  -29.2602  -18.3084   20.8760 C   0  0  0  0  0  0
  -28.2556  -20.6223   20.6285 C   0  0  0  0  0  0
  -28.5595  -24.2578   19.0473 C   0  0  0  0  0  0
  -27.8844  -24.2034   20.9661 C   0  0  0  0  0  0
  -28.7074  -25.2607   20.2035 C   0  0  2  0  0  0
  -29.0597  -17.1258   23.1555 C   0  0  0  0  0  0
  -26.8051  -21.5336   22.5646 C   0  0  0  0  0  0
  -30.1168  -17.1401   20.2703 C   0  0  0  0  0  0
  -27.9356  -21.8754   19.7380 C   0  0  0  0  0  0
  -29.8139  -15.7172   20.6239 N   0  0  0  0  0  0
  -28.5646  -23.2038   20.0910 N   0  3  1  0  0  0
  -31.4820  -12.4645   19.1974 H   0  0  0  0  0  0
  -30.3298  -11.3881   19.9360 H   0  0  0  0  0  0
  -29.8038  -11.7462   17.4906 H   0  0  0  0  0  0
  -29.6636  -13.4597   17.7525 H   0  0  0  0  0  0
  -27.8854  -11.2708   18.8962 H   0  0  0  0  0  0
  -27.4008  -12.5191   17.7828 H   0  0  0  0  0  0
  -27.6539  -14.2370   19.4687 H   0  0  0  0  0  0
  -28.6876  -12.1242   21.4352 H   0  0  0  0  0  0
  -28.4338  -13.8088   21.7936 H   0  0  0  0  0  0
  -25.2749   -9.5658   22.4740 H   0  0  0  0  0  0
  -23.9959   -7.4640   22.7493 H   0  0  0  0  0  0
  -21.0822   -8.8735   19.8989 H   0  0  0  0  0  0
  -22.3654  -10.9626   19.6166 H   0  0  0  0  0  0
  -21.1976   -7.6138   23.9708 H   0  0  0  0  0  0
  -21.1510   -6.0533   25.9089 H   0  0  0  0  0  0
  -22.0572   -2.7595   23.2859 H   0  0  0  0  0  0
  -22.4032  -11.9902   22.4796 H   0  0  0  0  0  0
  -21.1111  -13.1338   22.2584 H   0  0  0  0  0  0
  -24.6868  -15.8505   20.6312 H   0  0  0  0  0  0
  -26.3051  -15.6499   20.2121 H   0  0  0  0  0  0
  -26.7139  -32.5464   23.1043 H   0  0  0  0  0  0
  -25.0059  -33.9701   25.0379 H   0  0  0  0  0  0
  -22.7066  -31.2979   21.3859 H   0  0  0  0  0  0
  -23.3759  -35.9647   23.3302 H   0  0  0  0  0  0
  -24.3614  -36.8920   22.2055 H   0  0  0  0  0  0
  -23.7277  -37.6515   23.6655 H   0  0  0  0  0  0
  -26.0441  -31.5681   20.5711 H   0  0  0  0  0  0
  -26.8326  -30.8813   21.9619 H   0  0  0  0  0  0
  -28.1032  -29.0705   21.1518 H   0  0  0  0  0  0
  -26.0559  -25.9041   19.0515 H   0  0  0  0  0  0
  -23.9870  -27.2378   19.0676 H   0  0  0  0  0  0
  -23.7276  -30.5544   19.3925 H   0  0  0  0  0  0
  -22.7456  -29.2056   19.8758 H   0  0  0  0  0  0
  -25.1300  -36.1937   25.0820 H   0  0  0  0  0  0
  -20.9983  -28.3269   24.1425 H   0  0  0  0  0  0
  -20.5756  -26.2263   23.3590 H   0  0  0  0  0  0
  -21.6688  -26.7562   22.1218 H   0  0  0  0  0  0
  -19.7095  -25.6431   21.1031 H   0  0  0  0  0  0
  -19.6822  -27.3347   20.6749 H   0  0  0  0  0  0
  -17.4299  -26.6771   21.3850 H   0  0  0  0  0  0
  -18.0332  -26.0045   22.8863 H   0  0  0  0  0  0
  -19.7944  -30.7186   24.2370 H   0  0  0  0  0  0
  -17.5013  -31.6237   24.5168 H   0  0  0  0  0  0
  -15.5344  -30.2963   23.7615 H   0  0  0  0  0  0
  -15.8685  -28.0848   22.6950 H   0  0  0  0  0  0
  -24.5879  -30.7084   25.7692 H   0  0  0  0  0  0
  -24.8935  -32.2887   26.4797 H   0  0  0  0  0  0
  -25.8051  -30.8869   27.0131 H   0  0  0  0  0  0
  -26.2852  -29.6762   24.1086 H   0  0  0  0  0  0
  -27.4112  -29.7243   25.4455 H   0  0  0  0  0  0
  -27.8661  -30.4322   23.9128 H   0  0  0  0  0  0
  -27.2681  -33.3551   26.2031 H   0  0  0  0  0  0
  -28.3853  -32.6864   25.0227 H   0  0  0  0  0  0
  -28.0753  -31.8355   26.5282 H   0  0  0  0  0  0
  -28.2586  -38.0098   24.7479 H   0  0  0  0  0  0
  -28.1079  -36.2621   24.6297 H   0  0  0  0  0  0
  -27.2284  -37.1460   25.8853 H   0  0  0  0  0  0
  -20.9318  -29.8773   21.6914 H   0  0  0  0  0  0
  -26.0192  -38.2851   24.1373 H   0  0  0  0  0  0
  -27.6135  -19.3008   23.7139 H   0  0  0  0  0  0
  -29.3961  -19.5620   19.1139 H   0  0  0  0  0  0
  -29.4039  -24.2214   18.3596 H   0  0  0  0  0  0
  -27.6129  -24.3147   18.5031 H   0  0  0  0  0  0
  -26.8039  -24.2708   20.8166 H   0  0  0  0  0  0
  -28.1456  -24.1241   22.0210 H   0  0  0  0  0  0
  -29.7379  -25.2264   20.5716 H   0  0  0  0  0  0
  -28.7724  -17.3733   24.1766 H   0  0  0  0  0  0
  -30.1278  -16.9026   23.1655 H   0  0  0  0  0  0
  -28.4974  -16.2322   22.8822 H   0  0  0  0  0  0
  -26.0695  -21.0459   23.2039 H   0  0  0  0  0  0
  -26.2354  -22.0964   21.8290 H   0  0  0  0  0  0
  -27.3799  -22.2196   23.1871 H   0  0  0  0  0  0
  -31.1582  -17.3402   20.5273 H   0  0  0  0  0  0
  -30.0599  -17.2151   19.1829 H   0  0  0  0  0  0
  -26.8586  -21.9874   19.6270 H   0  0  0  0  0  0
  -28.2841  -21.6328   18.7343 H   0  0  0  0  0  0
  -28.8606  -15.5160   20.8768 H   0  0  0  0  0  0
  -29.5126  -23.0604   20.4013 H   0  0  0  0  0  0
  1 25  1  0  0  0
  1 30  2  0  0  0
  1 84  1  0  0  0
  2  3  1  0  0  0
  2 25  1  0  0  0
  2 86  1  0  0  0
  2 87  1  0  0  0
  3  4  1  0  0  0
  3 88  1  0  0  0
  3 89  1  0  0  0
  4  5  1  0  0  0
  4 90  1  0  0  0
  4 91  1  0  0  0
  5  6  1  0  0  0
  5 26  1  0  0  0
  5 92  1  0  0  0
  6 25  1  0  0  0
  6 93  1  0  0  0
  6 94  1  0  0  0
  7  8  2  0  0  0
  7 26  1  0  0  0
  7 29  1  0  0  0
  8  9  1  0  0  0
  8 22  1  0  0  0
  9 10  1  0  0  0
  9 27  2  0  0  0
 10 11  2  0  0  0
 10 15  1  0  0  0
 11 12  1  0  0  0
 11 95  1  0  0  0
 12 13  2  0  0  0
 12 96  1  0  0  0
 13 14  1  0  0  0
 13 31  1  0  0  0
 14 15  2  0  0  0
 14 97  1  0  0  0
 15 98  1  0  0  0
 16 17  2  0  0  0
 16 21  1  0  0  0
 16 31  1  0  0  0
 17 18  1  0  0  0
 17 99  1  0  0  0
 18 19  2  0  0  0
 18100  1  0  0  0
 19 20  1  0  0  0
 19 24  1  0  0  0
 20 21  2  0  0  0
 20101  1  0  0  0
 21 23  1  0  0  0
 22 28  1  0  0  0
 22 32  2  0  0  0
 26 27  1  0  0  0
 28102  1  0  0  0
 28103  1  0  0  0
 29104  1  0  0  0
 29105  1  0  0  0
 33 34  1  0  0  0
 33 66  1  0  0  0
 33 70  2  0  0  0
 34 36  1  0  0  0
 34 59  1  0  0  0
 34106  1  0  0  0
 35 44  2  0  0  0
 35 45  1  0  0  0
 35 68  1  0  0  0
 36 56  1  0  0  0
 36107  1  0  0  0
 37 39  1  0  0  0
 37 47  1  0  0  0
 37 66  1  0  0  0
 37108  1  0  0  0
 38 43  2  0  0  0
 38 46  1  0  0  0
 38 47  1  0  0  0
 39 64  1  0  0  0
 39 67  2  0  0  0
 40 52  1  0  0  0
 40 53  2  0  0  0
 40 58  1  0  0  0
 41109  1  0  0  0
 41110  1  0  0  0
 41111  1  0  0  0
 41 48  1  0  0  0
 42 43  1  0  0  0
 42 66  1  0  0  0
 42112  1  0  0  0
 42113  1  0  0  0
 43 44  1  0  0  0
 44114  1  0  0  0
 45 46  2  0  0  0
 45115  1  0  0  0
 46116  1  0  0  0
 47117  1  0  0  0
 47118  1  0  0  0
 48 56  1  0  0  0
 48 65  1  0  0  0
 48119  1  0  0  0
 49 50  1  0  0  0
 49 53  1  0  0  0
 49 64  1  0  0  0
 49120  1  0  0  0
 50 51  1  0  0  0
 50121  1  0  0  0
 50122  1  0  0  0
 51 52  1  0  0  0
 51123  1  0  0  0
 51124  1  0  0  0
 52125  1  0  0  0
 52126  1  0  0  0
 53 54  1  0  0  0
 54 55  2  0  0  0
 54127  1  0  0  0
 55 57  1  0  0  0
 55128  1  0  0  0
 56 69  2  0  0  0
 57 58  2  0  0  0
 57129  1  0  0  0
 58130  1  0  0  0
 59 60  1  0  0  0
 59 61  1  0  0  0
 59 62  1  0  0  0
 60131  1  0  0  0
 60132  1  0  0  0
 60133  1  0  0  0
 61134  1  0  0  0
 61135  1  0  0  0
 61136  1  0  0  0
 62137  1  0  0  0
 62138  1  0  0  0
 62139  1  0  0  0
 63 65  1  0  0  0
 63140  1  0  0  0
 63141  1  0  0  0
 63142  1  0  0  0
 64143  1  0  0  0
 65144  1  0  0  0
 68 79  1  0  0  0
 71 73  2  0  0  0
 71 74  1  0  0  0
 71145  1  0  0  0
 72 75  2  0  0  0
 72 76  1  0  0  0
 72146  1  0  0  0
 73 75  1  0  0  0
 73 80  1  0  0  0
 74 76  2  0  0  0
 74 81  1  0  0  0
 75 82  1  0  0  0
 76 83  1  0  0  0
 77 79  1  0  0  0
 77 85  1  0  0  0
 77147  1  0  0  0
 77148  1  0  0  0
 78 79  1  0  0  0
 78 85  1  0  0  0
 78149  1  0  0  0
 78150  1  0  0  0
 79151  1  0  0  0
 80152  1  0  0  0
 80153  1  0  0  0
 80154  1  0  0  0
 81155  1  0  0  0
 81156  1  0  0  0
 81157  1  0  0  0
 82 84  1  0  0  0
 82158  1  0  0  0
 82159  1  0  0  0
 83160  1  0  0  0
 83161  1  0  0  0
 83 85  1  0  0  0
 84162  1  0  0  0
 85163  1  0  0  0
M  CHG  1  85   1
M  ISO  4   1 100  68 101  79 101  84 100
M  END
> <chiral flag>
0

> <version>
0

> <s_m_source_file>
/data/baiqing/PycharmProjects/Reinvent-master-3.2/result/LINK_invent/BTK/process_docking_weight1_custom_product_contain_oxygen_bond_distance_aromatic_linkinvent_7_9_3/rearranged_h_0031.sdf

> <i_m_source_file_index>
30

> <r_mmod_Potential_Energy-OPLS-2005>
-164.219635009766

> <r_mmod_Stretch_Energy-OPLS-2005>
65.5687484741211

> <r_mmod_Bend_Energy-OPLS-2005>
205.102920532227

> <r_mmod_Torsional_Energy-OPLS-2005>
209.25944519043

> <r_mmod_Improper_Torsional_Energy-OPLS-2005>
6.72974300384521

> <r_mmod_Van_der_Waal_Energy-OPLS-2005>
141.35383605957

> <r_mmod_Electrostatic_Energy-OPLS-2005>
-368.217926025391

> <r_mmod_Solvation_Energy-OPLS-2005>
-463.366668701172

> <b_mmod_Minimization_Converged-OPLS-2005>
0

> <r_mmod_RMS_Derivative-OPLS-2005>
4.24232196807861

$$$$
30
                    3D
 Structure written by MMmdl.
167176  0  0  1  0            999 V2000
  -30.6122  -14.7355   20.4646 C   0  0  0  0  0  0
  -30.4403  -12.4542   19.4455 C   0  0  0  0  0  0
  -29.5100  -12.5151   18.2149 C   0  0  0  0  0  0
  -28.0332  -12.3457   18.6298 C   0  0  0  0  0  0
  -27.6435  -13.2317   19.8429 C   0  0  2  0  0  0
  -28.6949  -13.1530   20.9706 C   0  0  0  0  0  0
  -25.2536  -13.8195   20.5671 C   0  0  0  0  0  0
  -24.1814  -13.0449   20.9191 C   0  0  0  0  0  0
  -24.6406  -11.6913   20.8724 C   0  0  0  0  0  0
  -23.9069  -10.4295   21.0404 C   0  0  0  0  0  0
  -24.3621   -9.4209   21.9185 C   0  0  0  0  0  0
  -23.6304   -8.2243   22.0761 C   0  0  0  0  0  0
  -22.4284   -8.0280   21.3555 C   0  0  0  0  0  0
  -21.9914   -9.0249   20.4652 C   0  0  0  0  0  0
  -22.7241  -10.2132   20.3052 C   0  0  0  0  0  0
  -21.6856   -6.0734   22.5280 C   0  0  0  0  0  0
  -21.4013   -6.5645   23.8207 C   0  0  0  0  0  0
  -21.3651   -5.6794   24.9170 C   0  0  0  0  0  0
  -21.6032   -4.3053   24.7219 C   0  0  0  0  0  0
  -21.8818   -3.8146   23.4347 C   0  0  0  0  0  0
  -21.9199   -4.6966   22.3409 C   0  0  0  0  0  0
  -22.7839  -13.5247   21.1832 C   0  0  0  0  0  0
  -22.1669   -4.2151   21.0985 F   0  0  0  0  0  0
  -21.5626   -3.4534   25.7734 F   0  0  0  0  0  0
  -29.9913  -13.5103   20.3788 N   0  0  0  0  0  0
  -26.2956  -12.9403   20.3240 N   0  0  0  0  0  0
  -25.9337  -11.6545   20.5696 N   0  0  0  0  0  0
  -22.0463  -12.8245   22.0377 N   0  0  0  0  0  0
  -25.4210  -15.1929   20.4120 N   0  0  0  0  0  0
  -31.8081  -14.8425   20.1832 O   0  0  0  0  0  0
  -21.6649   -6.8882   21.4241 O   0  0  0  0  0  0
  -22.3521  -14.5542   20.6655 O   0  0  0  0  0  0
  -24.6318  -31.8522   23.1969 C   0  0  0  0  0  0
  -25.9145  -32.4734   23.8311 C   0  0  1  0  0  0
  -27.2294  -27.2541   20.1279 C   0  0  0  0  0  0
  -25.5931  -33.8534   24.2236 N   0  0  0  0  0  0
  -23.4277  -30.4759   21.5380 C   0  0  2  0  0  0
  -24.8766  -28.9207   20.1074 C   0  0  0  0  0  0
  -22.7515  -29.4583   22.4886 C   0  0  0  0  0  0
  -18.0302  -28.1412   22.8488 C   0  0  0  0  0  0
  -24.1471  -36.7268   23.2642 C   0  0  0  0  0  0
  -25.9731  -30.7652   21.3758 C   0  0  0  0  0  0
  -26.0458  -29.3855   20.7198 C   0  0  0  0  0  0
  -27.2179  -28.5648   20.7197 C   0  0  0  0  0  0
  -26.0297  -26.8564   19.4896 C   0  0  0  0  0  0
  -24.8754  -27.6654   19.4811 C   0  0  0  0  0  0
  -23.6471  -29.8079   20.1544 C   0  0  0  0  0  0
  -25.4095  -36.3051   24.0330 C   0  0  1  0  0  0
  -20.5903  -28.3703   23.1276 C   0  0  2  0  0  0
  -20.6778  -26.9412   22.5427 C   0  0  0  0  0  0
  -19.5748  -26.6403   21.5226 C   0  0  0  0  0  0
  -18.1926  -26.7957   22.1631 C   0  0  0  0  0  0
  -19.1552  -28.8873   23.2876 C   0  0  0  0  0  0
  -18.9469  -30.1478   23.8889 C   0  0  0  0  0  0
  -17.6466  -30.6603   24.0572 C   0  0  0  0  0  0
  -25.9047  -34.9423   23.5084 C   0  0  0  0  0  0
  -16.5355  -29.9113   23.6342 C   0  0  0  0  0  0
  -16.7290  -28.6536   23.0354 C   0  0  0  0  0  0
  -26.4499  -31.6567   25.0707 C   0  0  0  0  0  0
  -25.3732  -31.3760   26.1444 C   0  0  0  0  0  0
  -27.0354  -30.2980   24.6210 C   0  0  0  0  0  0
  -27.6023  -32.4338   25.7499 C   0  0  0  0  0  0
  -27.5563  -37.1785   24.8460 C   0  0  0  0  0  0
  -21.4210  -29.3041   22.3658 N   0  0  0  0  0  0
  -26.4260  -37.3759   23.9420 N   0  0  0  0  0  0
  -24.6957  -31.0504   22.0927 N   0  0  0  0  0  0
  -23.4214  -28.8131   23.2977 O   0  0  0  0  0  0
  -28.3574  -26.3985   20.2234 O   0  0  0  0  0  0
  -26.5623  -34.8913   22.4662 O   0  0  0  0  0  0
  -23.5470  -32.1339   23.7287 O   0  0  0  0  0  0
  -30.1154  -19.8844   22.2233 C   0  0  0  0  0  0
  -30.7735  -18.7913   22.8184 C   0  0  0  0  0  0
  -29.4152  -18.4146   20.4257 C   0  0  0  0  0  0
  -29.4490  -19.7614   20.9881 C   0  0  0  0  0  0
  -30.7375  -17.4937   22.2614 C   0  0  0  0  0  0
  -30.0396  -17.2488   21.0452 C   0  0  0  0  0  0
  -30.2683  -22.6109   19.1476 C   0  0  0  0  0  0
  -31.5495  -22.2525   19.3634 C   0  0  0  0  0  0
  -29.8343  -23.5655   18.0479 C   0  0  0  0  0  0
  -29.5358  -24.9669   18.6437 C   0  0  0  0  0  0
  -28.6966  -23.7281   20.7405 C   0  0  0  0  0  0
  -28.4277  -24.9719   19.7284 C   0  0  1  0  0  0
  -31.3898  -16.3818   23.0700 C   0  0  0  0  0  0
  -32.1443  -21.5625   20.5662 C   0  0  0  0  0  0
  -28.5909  -21.0089   20.4700 C   0  0  0  0  0  0
  -29.7975  -15.8531   20.5948 N   0  0  0  0  0  0
  -29.0869  -22.4138   20.0371 N   0  3  1  0  0  0
  -31.4797  -12.5839   19.1366 H   0  0  0  0  0  0
  -30.3916  -11.4719   19.9184 H   0  0  0  0  0  0
  -29.7877  -11.7476   17.4911 H   0  0  0  0  0  0
  -29.6392  -13.4741   17.7071 H   0  0  0  0  0  0
  -27.8750  -11.2950   18.8769 H   0  0  0  0  0  0
  -27.3770  -12.5590   17.7831 H   0  0  0  0  0  0
  -27.6387  -14.2552   19.4675 H   0  0  0  0  0  0
  -28.7312  -12.1512   21.3996 H   0  0  0  0  0  0
  -28.4352  -13.8290   21.7874 H   0  0  0  0  0  0
  -25.2770   -9.5699   22.4748 H   0  0  0  0  0  0
  -24.0018   -7.4641   22.7492 H   0  0  0  0  0  0
  -21.0843   -8.8750   19.8975 H   0  0  0  0  0  0
  -22.3691  -10.9650   19.6139 H   0  0  0  0  0  0
  -21.1999   -7.6154   23.9706 H   0  0  0  0  0  0
  -21.1476   -6.0527   25.9068 H   0  0  0  0  0  0
  -22.0608   -2.7609   23.2832 H   0  0  0  0  0  0
  -22.4074  -11.9927   22.4814 H   0  0  0  0  0  0
  -21.1063  -13.1245   22.2533 H   0  0  0  0  0  0
  -24.6498  -15.8412   20.5248 H   0  0  0  0  0  0
  -26.2650  -15.6344   20.0721 H   0  0  0  0  0  0
  -26.7204  -32.5377   23.1042 H   0  0  0  0  0  0
  -25.0077  -33.9632   25.0386 H   0  0  0  0  0  0
  -22.7250  -31.2987   21.3927 H   0  0  0  0  0  0
  -23.3729  -35.9603   23.3294 H   0  0  0  0  0  0
  -24.3574  -36.8907   22.2061 H   0  0  0  0  0  0
  -23.7223  -37.6468   23.6671 H   0  0  0  0  0  0
  -26.1107  -31.5229   20.6036 H   0  0  0  0  0  0
  -26.8531  -30.8182   22.0049 H   0  0  0  0  0  0
  -28.1101  -28.9178   21.2172 H   0  0  0  0  0  0
  -25.9261  -25.9017   19.0023 H   0  0  0  0  0  0
  -23.9783  -27.3066   18.9947 H   0  0  0  0  0  0
  -23.7695  -30.5822   19.3963 H   0  0  0  0  0  0
  -22.7663  -29.2390   19.8520 H   0  0  0  0  0  0
  -25.1277  -36.1877   25.0820 H   0  0  0  0  0  0
  -20.9997  -28.3284   24.1395 H   0  0  0  0  0  0
  -20.5673  -26.2300   23.3636 H   0  0  0  0  0  0
  -21.6637  -26.7444   22.1194 H   0  0  0  0  0  0
  -19.6884  -25.6319   21.1243 H   0  0  0  0  0  0
  -19.6678  -27.3224   20.6762 H   0  0  0  0  0  0
  -17.4193  -26.6718   21.4033 H   0  0  0  0  0  0
  -18.0300  -26.0120   22.9042 H   0  0  0  0  0  0
  -19.7939  -30.7307   24.2221 H   0  0  0  0  0  0
  -17.5028  -31.6270   24.5205 H   0  0  0  0  0  0
  -15.5357  -30.3014   23.7676 H   0  0  0  0  0  0
  -15.8691  -28.0878   22.7048 H   0  0  0  0  0  0
  -24.5896  -30.7091   25.7822 H   0  0  0  0  0  0
  -24.8924  -32.2946   26.4811 H   0  0  0  0  0  0
  -25.8067  -30.9007   27.0251 H   0  0  0  0  0  0
  -26.2946  -29.6729   24.1199 H   0  0  0  0  0  0
  -27.3991  -29.7241   25.4742 H   0  0  0  0  0  0
  -27.8843  -30.4242   23.9491 H   0  0  0  0  0  0
  -27.2580  -33.3646   26.2018 H   0  0  0  0  0  0
  -28.3871  -32.6889   25.0370 H   0  0  0  0  0  0
  -28.0636  -31.8506   26.5474 H   0  0  0  0  0  0
  -28.2558  -38.0100   24.7530 H   0  0  0  0  0  0
  -28.1084  -36.2637   24.6250 H   0  0  0  0  0  0
  -27.2302  -37.1402   25.8868 H   0  0  0  0  0  0
  -20.9401  -29.8794   21.6888 H   0  0  0  0  0  0
  -26.0132  -38.2822   24.1461 H   0  0  0  0  0  0
  -30.1133  -20.8336   22.7422 H   0  0  0  0  0  0
  -31.2718  -18.9464   23.7664 H   0  0  0  0  0  0
  -28.8378  -18.2615   19.5245 H   0  0  0  0  0  0
  -32.2775  -22.5275   18.6142 H   0  0  0  0  0  0
  -28.9590  -23.1678   17.5341 H   0  0  0  0  0  0
  -30.6201  -23.6389   17.2950 H   0  0  0  0  0  0
  -29.2652  -25.6486   17.8373 H   0  0  0  0  0  0
  -30.4537  -25.3700   19.0741 H   0  0  0  0  0  0
  -27.8169  -23.5708   21.3658 H   0  0  0  0  0  0
  -29.5092  -23.9886   21.4198 H   0  0  0  0  0  0
  -27.5165  -24.7054   19.2055 H   0  0  0  0  0  0
  -31.6189  -16.7050   24.0862 H   0  0  0  0  0  0
  -32.3253  -16.0717   22.6063 H   0  0  0  0  0  0
  -30.7319  -15.5185   23.1597 H   0  0  0  0  0  0
  -31.6263  -21.8634   21.4738 H   0  0  0  0  0  0
  -33.1836  -21.8655   20.6879 H   0  0  0  0  0  0
  -32.1261  -20.4787   20.4528 H   0  0  0  0  0  0
  -27.8051  -21.1619   21.2104 H   0  0  0  0  0  0
  -28.0611  -20.6387   19.5922 H   0  0  0  0  0  0
  -28.8229  -15.6330   20.4688 H   0  0  0  0  0  0
  -28.3460  -22.4666   19.3541 H   0  0  0  0  0  0
  1 25  1  0  0  0
  1 30  2  0  0  0
  1 86  1  0  0  0
  2  3  1  0  0  0
  2 25  1  0  0  0
  2 88  1  0  0  0
  2 89  1  0  0  0
  3  4  1  0  0  0
  3 90  1  0  0  0
  3 91  1  0  0  0
  4  5  1  0  0  0
  4 92  1  0  0  0
  4 93  1  0  0  0
  5  6  1  0  0  0
  5 26  1  0  0  0
  5 94  1  0  0  0
  6 25  1  0  0  0
  6 95  1  0  0  0
  6 96  1  0  0  0
  7  8  2  0  0  0
  7 26  1  0  0  0
  7 29  1  0  0  0
  8  9  1  0  0  0
  8 22  1  0  0  0
  9 10  1  0  0  0
  9 27  2  0  0  0
 10 11  2  0  0  0
 10 15  1  0  0  0
 11 12  1  0  0  0
 11 97  1  0  0  0
 12 13  2  0  0  0
 12 98  1  0  0  0
 13 14  1  0  0  0
 13 31  1  0  0  0
 14 15  2  0  0  0
 14 99  1  0  0  0
 15100  1  0  0  0
 16 17  2  0  0  0
 16 21  1  0  0  0
 16 31  1  0  0  0
 17 18  1  0  0  0
 17101  1  0  0  0
 18 19  2  0  0  0
 18102  1  0  0  0
 19 20  1  0  0  0
 19 24  1  0  0  0
 20 21  2  0  0  0
 20103  1  0  0  0
 21 23  1  0  0  0
 22 28  1  0  0  0
 22 32  2  0  0  0
 26 27  1  0  0  0
 28104  1  0  0  0
 28105  1  0  0  0
 29106  1  0  0  0
 29107  1  0  0  0
 33 34  1  0  0  0
 33 66  1  0  0  0
 33 70  2  0  0  0
 34 36  1  0  0  0
 34 59  1  0  0  0
 34108  1  0  0  0
 35 44  2  0  0  0
 35 45  1  0  0  0
 35 68  1  0  0  0
 36 56  1  0  0  0
 36109  1  0  0  0
 37 39  1  0  0  0
 37 47  1  0  0  0
 37 66  1  0  0  0
 37110  1  0  0  0
 38 43  2  0  0  0
 38 46  1  0  0  0
 38 47  1  0  0  0
 39 64  1  0  0  0
 39 67  2  0  0  0
 40 52  1  0  0  0
 40 53  2  0  0  0
 40 58  1  0  0  0
 41111  1  0  0  0
 41112  1  0  0  0
 41113  1  0  0  0
 41 48  1  0  0  0
 42 43  1  0  0  0
 42 66  1  0  0  0
 42114  1  0  0  0
 42115  1  0  0  0
 43 44  1  0  0  0
 44116  1  0  0  0
 45 46  2  0  0  0
 45117  1  0  0  0
 46118  1  0  0  0
 47119  1  0  0  0
 47120  1  0  0  0
 48 56  1  0  0  0
 48 65  1  0  0  0
 48121  1  0  0  0
 49 50  1  0  0  0
 49 53  1  0  0  0
 49 64  1  0  0  0
 49122  1  0  0  0
 50 51  1  0  0  0
 50123  1  0  0  0
 50124  1  0  0  0
 51 52  1  0  0  0
 51125  1  0  0  0
 51126  1  0  0  0
 52127  1  0  0  0
 52128  1  0  0  0
 53 54  1  0  0  0
 54 55  2  0  0  0
 54129  1  0  0  0
 55 57  1  0  0  0
 55130  1  0  0  0
 56 69  2  0  0  0
 57 58  2  0  0  0
 57131  1  0  0  0
 58132  1  0  0  0
 59 60  1  0  0  0
 59 61  1  0  0  0
 59 62  1  0  0  0
 60133  1  0  0  0
 60134  1  0  0  0
 60135  1  0  0  0
 61136  1  0  0  0
 61137  1  0  0  0
 61138  1  0  0  0
 62139  1  0  0  0
 62140  1  0  0  0
 62141  1  0  0  0
 63 65  1  0  0  0
 63142  1  0  0  0
 63143  1  0  0  0
 63144  1  0  0  0
 64145  1  0  0  0
 65146  1  0  0  0
 68 82  1  0  0  0
 71 72  2  0  0  0
 71 74  1  0  0  0
 71147  1  0  0  0
 72 75  1  0  0  0
 72148  1  0  0  0
 73 74  2  0  0  0
 73 76  1  0  0  0
 73149  1  0  0  0
 74 85  1  0  0  0
 75 76  2  0  0  0
 75 83  1  0  0  0
 76 86  1  0  0  0
 77 78  2  0  0  0
 77 79  1  0  0  0
 77 87  1  0  0  0
 78 84  1  0  0  0
 78150  1  0  0  0
 79 80  1  0  0  0
 79151  1  0  0  0
 79152  1  0  0  0
 80 82  1  0  0  0
 80153  1  0  0  0
 80154  1  0  0  0
 81 82  1  0  0  0
 81 87  1  0  0  0
 81155  1  0  0  0
 81156  1  0  0  0
 82157  1  0  0  0
 83158  1  0  0  0
 83159  1  0  0  0
 83160  1  0  0  0
 84161  1  0  0  0
 84162  1  0  0  0
 84163  1  0  0  0
 85164  1  0  0  0
 85165  1  0  0  0
 85 87  1  0  0  0
 86166  1  0  0  0
 87167  1  0  0  0
M  CHG  1  87   1
M  ISO  4   1 100  68 101  82 101  86 100
M  END
> <chiral flag>
0

> <version>
0

> <s_m_source_file>
/data/baiqing/PycharmProjects/Reinvent-master-3.2/result/LINK_invent/BTK/process_docking_weight1_custom_product_contain_oxygen_bond_distance_aromatic_linkinvent_7_9_3/rearranged_h_0031.sdf

> <i_m_source_file_index>
31

> <r_mmod_Potential_Energy-OPLS-2005>
168.071304321289

> <r_mmod_Stretch_Energy-OPLS-2005>
130.598922729492

> <r_mmod_Bend_Energy-OPLS-2005>
250.653656005859

> <r_mmod_Torsional_Energy-OPLS-2005>
266.824340820312

> <r_mmod_Improper_Torsional_Energy-OPLS-2005>
9.83536148071289

> <r_mmod_Van_der_Waal_Energy-OPLS-2005>
141.250793457031

> <r_mmod_Electrostatic_Energy-OPLS-2005>
-280.752716064453

> <r_mmod_Solvation_Energy-OPLS-2005>
-434.085083007812

> <b_mmod_Minimization_Converged-OPLS-2005>
0

> <r_mmod_RMS_Derivative-OPLS-2005>
2.80694675445557

$$$$
31
                    3D
 Structure written by MMmdl.
160169  0  0  1  0            999 V2000
  -30.6131  -14.6512   20.5093 C   0  0  0  0  0  0
  -30.4417  -12.4008   19.4444 C   0  0  0  0  0  0
  -29.5099  -12.5302   18.2195 C   0  0  0  0  0  0
  -28.0291  -12.3687   18.6250 C   0  0  0  0  0  0
  -27.6554  -13.2165   19.8692 C   0  0  2  0  0  0
  -28.7040  -13.0615   20.9939 C   0  0  0  0  0  0
  -25.2545  -13.8131   20.5680 C   0  0  0  0  0  0
  -24.1819  -13.0413   20.9204 C   0  0  0  0  0  0
  -24.6385  -11.6889   20.8726 C   0  0  0  0  0  0
  -23.9029  -10.4284   21.0386 C   0  0  0  0  0  0
  -24.3584   -9.4211   21.9170 C   0  0  0  0  0  0
  -23.6277   -8.2231   22.0739 C   0  0  0  0  0  0
  -22.4260   -8.0255   21.3515 C   0  0  0  0  0  0
  -21.9881   -9.0224   20.4627 C   0  0  0  0  0  0
  -22.7193  -10.2122   20.3038 C   0  0  0  0  0  0
  -21.6851   -6.0715   22.5282 C   0  0  0  0  0  0
  -21.4012   -6.5630   23.8211 C   0  0  0  0  0  0
  -21.3664   -5.6782   24.9172 C   0  0  0  0  0  0
  -21.6042   -4.3039   24.7225 C   0  0  0  0  0  0
  -21.8820   -3.8131   23.4351 C   0  0  0  0  0  0
  -21.9196   -4.6944   22.3405 C   0  0  0  0  0  0
  -22.7842  -13.5218   21.1858 C   0  0  0  0  0  0
  -22.1673   -4.2124   21.0983 F   0  0  0  0  0  0
  -21.5622   -3.4522   25.7739 F   0  0  0  0  0  0
  -30.0171  -13.4158   20.4317 N   0  0  0  0  0  0
  -26.2997  -12.9326   20.3334 N   0  0  0  0  0  0
  -25.9326  -11.6479   20.5771 N   0  0  0  0  0  0
  -22.0465  -12.8222   22.0411 N   0  0  0  0  0  0
  -25.4176  -15.1831   20.4030 N   0  0  0  0  0  0
  -31.7726  -14.8300   20.1290 O   0  0  0  0  0  0
  -21.6633   -6.8849   21.4230 O   0  0  0  0  0  0
  -22.3531  -14.5527   20.6700 O   0  0  0  0  0  0
  -24.6297  -31.8564   23.2046 C   0  0  0  0  0  0
  -25.9154  -32.4739   23.8362 C   0  0  1  0  0  0
  -27.2118  -27.3056   20.1241 C   0  0  0  0  0  0
  -25.5956  -33.8542   24.2276 N   0  0  0  0  0  0
  -23.4208  -30.4847   21.5500 C   0  0  2  0  0  0
  -24.8650  -28.9443   20.1124 C   0  0  0  0  0  0
  -22.7477  -29.4609   22.4956 C   0  0  0  0  0  0
  -18.0277  -28.1390   22.8453 C   0  0  0  0  0  0
  -24.1502  -36.7286   23.2633 C   0  0  0  0  0  0
  -25.9641  -30.7854   21.3800 C   0  0  0  0  0  0
  -26.0342  -29.4124   20.7242 C   0  0  0  0  0  0
  -27.2125  -28.6051   20.7226 C   0  0  0  0  0  0
  -26.0299  -26.9150   19.4563 C   0  0  0  0  0  0
  -24.8665  -27.7023   19.4649 C   0  0  0  0  0  0
  -23.6314  -29.8218   20.1644 C   0  0  0  0  0  0
  -25.4106  -36.3040   24.0345 C   0  0  1  0  0  0
  -20.5871  -28.3667   23.1284 C   0  0  2  0  0  0
  -20.6762  -26.9394   22.5407 C   0  0  0  0  0  0
  -19.5745  -26.6370   21.5199 C   0  0  0  0  0  0
  -18.1924  -26.7945   22.1584 C   0  0  0  0  0  0
  -19.1526  -28.8860   23.2856 C   0  0  0  0  0  0
  -18.9434  -30.1471   23.8846 C   0  0  0  0  0  0
  -17.6433  -30.6575   24.0562 C   0  0  0  0  0  0
  -25.9045  -34.9416   23.5094 C   0  0  0  0  0  0
  -16.5325  -29.9057   23.6356 C   0  0  0  0  0  0
  -16.7262  -28.6501   23.0329 C   0  0  0  0  0  0
  -26.4531  -31.6559   25.0749 C   0  0  0  0  0  0
  -25.3736  -31.3726   26.1448 C   0  0  0  0  0  0
  -27.0379  -30.2958   24.6265 C   0  0  0  0  0  0
  -27.6082  -32.4296   25.7534 C   0  0  0  0  0  0
  -27.5590  -37.1779   24.8444 C   0  0  0  0  0  0
  -21.4191  -29.3022   22.3707 N   0  0  0  0  0  0
  -26.4273  -37.3737   23.9425 N   0  0  0  0  0  0
  -24.6906  -31.0579   22.1008 N   0  0  0  0  0  0
  -23.4208  -28.8123   23.3017 O   0  0  0  0  0  0
  -28.3236  -26.4470   20.1316 O   0  0  0  0  0  0
  -26.5580  -34.8896   22.4642 O   0  0  0  0  0  0
  -23.5461  -32.1365   23.7368 O   0  0  0  0  0  0
  -30.8107  -17.9486   21.4115 C   0  0  0  0  0  0
  -28.9551  -19.2650   19.7911 C   0  0  0  0  0  0
  -30.8010  -19.3804   21.3326 C   0  0  0  0  0  0
  -29.8762  -20.0845   20.4936 C   0  0  0  0  0  0
  -29.8940  -17.1365   20.6913 C   0  0  0  0  0  0
  -28.9491  -17.8431   19.8963 C   0  0  0  0  0  0
  -27.2418  -24.0728   19.8493 C   0  0  0  0  0  0
  -27.6433  -22.6311   20.2537 C   0  0  0  0  0  0
  -29.4532  -24.1220   20.6009 C   0  0  0  0  0  0
  -28.1732  -25.0363   20.6093 C   0  0  2  0  0  0
  -31.8345  -20.1413   22.1478 C   0  0  0  0  0  0
  -29.9916  -21.6329   20.1724 C   0  0  0  0  0  0
  -29.7882  -15.6863   20.8699 N   0  0  0  0  0  0
  -29.0387  -22.6710   20.7490 N   0  3  2  0  0  0
  -27.7621  -16.9692   18.9980 Cl  0  0  0  0  0  0
  -31.4809  -12.5345   19.1407 H   0  0  0  0  0  0
  -30.3799  -11.3982   19.8713 H   0  0  0  0  0  0
  -29.7736  -11.7935   17.4586 H   0  0  0  0  0  0
  -29.6539  -13.5087   17.7601 H   0  0  0  0  0  0
  -27.8494  -11.3137   18.8257 H   0  0  0  0  0  0
  -27.3797  -12.6309   17.7891 H   0  0  0  0  0  0
  -27.6719  -14.2543   19.5421 H   0  0  0  0  0  0
  -28.7217  -12.0360   21.3655 H   0  0  0  0  0  0
  -28.4497  -13.6792   21.8570 H   0  0  0  0  0  0
  -25.2720   -9.5692   22.4762 H   0  0  0  0  0  0
  -23.9972   -7.4622   22.7465 H   0  0  0  0  0  0
  -21.0802   -8.8733   19.8948 H   0  0  0  0  0  0
  -22.3623  -10.9649   19.6158 H   0  0  0  0  0  0
  -21.2005   -7.6146   23.9707 H   0  0  0  0  0  0
  -21.1502   -6.0516   25.9076 H   0  0  0  0  0  0
  -22.0600   -2.7590   23.2852 H   0  0  0  0  0  0
  -22.4045  -11.9876   22.4813 H   0  0  0  0  0  0
  -21.1101  -13.1276   22.2618 H   0  0  0  0  0  0
  -24.6242  -15.8120   20.4489 H   0  0  0  0  0  0
  -26.2356  -15.6107   19.9832 H   0  0  0  0  0  0
  -26.7240  -32.5408   23.1127 H   0  0  0  0  0  0
  -25.0212  -33.9686   25.0498 H   0  0  0  0  0  0
  -22.7176  -31.3097   21.4139 H   0  0  0  0  0  0
  -23.3759  -35.9620   23.3234 H   0  0  0  0  0  0
  -24.3611  -36.8939   22.2053 H   0  0  0  0  0  0
  -23.7270  -37.6486   23.6684 H   0  0  0  0  0  0
  -26.1034  -31.5526   20.6156 H   0  0  0  0  0  0
  -26.8403  -30.8252   22.0164 H   0  0  0  0  0  0
  -28.1097  -28.9642   21.2072 H   0  0  0  0  0  0
  -25.9845  -26.0046   18.8850 H   0  0  0  0  0  0
  -23.9808  -27.3570   18.9481 H   0  0  0  0  0  0
  -23.7369  -30.5960   19.4039 H   0  0  0  0  0  0
  -22.7531  -29.2439   19.8707 H   0  0  0  0  0  0
  -25.1288  -36.1874   25.0841 H   0  0  0  0  0  0
  -20.9949  -28.3223   24.1410 H   0  0  0  0  0  0
  -20.5632  -26.2274   23.3600 H   0  0  0  0  0  0
  -21.6633  -26.7418   22.1221 H   0  0  0  0  0  0
  -19.6898  -25.6272   21.1252 H   0  0  0  0  0  0
  -19.6718  -27.3164   20.6725 H   0  0  0  0  0  0
  -17.4210  -26.6702   21.3968 H   0  0  0  0  0  0
  -18.0293  -26.0092   22.8974 H   0  0  0  0  0  0
  -19.7911  -30.7323   24.2161 H   0  0  0  0  0  0
  -17.4976  -31.6253   24.5163 H   0  0  0  0  0  0
  -15.5321  -30.2921   23.7736 H   0  0  0  0  0  0
  -15.8668  -28.0833   22.7010 H   0  0  0  0  0  0
  -24.5993  -30.6966   25.7808 H   0  0  0  0  0  0
  -24.8828  -32.2883   26.4744 H   0  0  0  0  0  0
  -25.8037  -30.9038   27.0304 H   0  0  0  0  0  0
  -26.2976  -29.6687   24.1272 H   0  0  0  0  0  0
  -27.4008  -29.7247   25.4829 H   0  0  0  0  0  0
  -27.8895  -30.4203   23.9566 H   0  0  0  0  0  0
  -27.2706  -33.3621   26.2074 H   0  0  0  0  0  0
  -28.3936  -32.6776   25.0385 H   0  0  0  0  0  0
  -28.0720  -31.8428   26.5473 H   0  0  0  0  0  0
  -28.2546  -38.0130   24.7519 H   0  0  0  0  0  0
  -28.1132  -36.2653   24.6203 H   0  0  0  0  0  0
  -27.2318  -37.1342   25.8842 H   0  0  0  0  0  0
  -20.9382  -29.8776   21.6941 H   0  0  0  0  0  0
  -26.0146  -38.2811   24.1401 H   0  0  0  0  0  0
  -31.5284  -17.4571   22.0537 H   0  0  0  0  0  0
  -28.2461  -19.7275   19.1190 H   0  0  0  0  0  0
  -26.1887  -24.2377   20.0749 H   0  0  0  0  0  0
  -27.3925  -24.1959   18.7758 H   0  0  0  0  0  0
  -27.5054  -21.9457   19.4187 H   0  0  0  0  0  0
  -27.0079  -22.2737   21.0649 H   0  0  0  0  0  0
  -30.1665  -24.4107   21.3729 H   0  0  0  0  0  0
  -29.9549  -24.2364   19.6383 H   0  0  0  0  0  0
  -27.8172  -25.0950   21.6413 H   0  0  0  0  0  0
  -32.2804  -19.5074   22.9148 H   0  0  0  0  0  0
  -31.3876  -20.9940   22.6608 H   0  0  0  0  0  0
  -32.6409  -20.4977   21.5055 H   0  0  0  0  0  0
  -29.9736  -21.7294   19.0872 H   0  0  0  0  0  0
  -30.9952  -21.9566   20.4492 H   0  0  0  0  0  0
  -28.8518  -15.3701   21.0640 H   0  0  0  0  0  0
  -28.9826  -22.4829   21.7400 H   0  0  0  0  0  0
  1 25  1  0  0  0
  1 30  2  0  0  0
  1 83  1  0  0  0
  2  3  1  0  0  0
  2 25  1  0  0  0
  2 86  1  0  0  0
  2 87  1  0  0  0
  3  4  1  0  0  0
  3 88  1  0  0  0
  3 89  1  0  0  0
  4  5  1  0  0  0
  4 90  1  0  0  0
  4 91  1  0  0  0
  5  6  1  0  0  0
  5 26  1  0  0  0
  5 92  1  0  0  0
  6 25  1  0  0  0
  6 93  1  0  0  0
  6 94  1  0  0  0
  7  8  2  0  0  0
  7 26  1  0  0  0
  7 29  1  0  0  0
  8  9  1  0  0  0
  8 22  1  0  0  0
  9 10  1  0  0  0
  9 27  2  0  0  0
 10 11  2  0  0  0
 10 15  1  0  0  0
 11 12  1  0  0  0
 11 95  1  0  0  0
 12 13  2  0  0  0
 12 96  1  0  0  0
 13 14  1  0  0  0
 13 31  1  0  0  0
 14 15  2  0  0  0
 14 97  1  0  0  0
 15 98  1  0  0  0
 16 17  2  0  0  0
 16 21  1  0  0  0
 16 31  1  0  0  0
 17 18  1  0  0  0
 17 99  1  0  0  0
 18 19  2  0  0  0
 18100  1  0  0  0
 19 20  1  0  0  0
 19 24  1  0  0  0
 20 21  2  0  0  0
 20101  1  0  0  0
 21 23  1  0  0  0
 22 28  1  0  0  0
 22 32  2  0  0  0
 26 27  1  0  0  0
 28102  1  0  0  0
 28103  1  0  0  0
 29104  1  0  0  0
 29105  1  0  0  0
 33 34  1  0  0  0
 33 66  1  0  0  0
 33 70  2  0  0  0
 34 36  1  0  0  0
 34 59  1  0  0  0
 34106  1  0  0  0
 35 44  2  0  0  0
 35 45  1  0  0  0
 35 68  1  0  0  0
 36 56  1  0  0  0
 36107  1  0  0  0
 37 39  1  0  0  0
 37 47  1  0  0  0
 37 66  1  0  0  0
 37108  1  0  0  0
 38 43  2  0  0  0
 38 46  1  0  0  0
 38 47  1  0  0  0
 39 64  1  0  0  0
 39 67  2  0  0  0
 40 52  1  0  0  0
 40 53  2  0  0  0
 40 58  1  0  0  0
 41109  1  0  0  0
 41110  1  0  0  0
 41111  1  0  0  0
 41 48  1  0  0  0
 42 43  1  0  0  0
 42 66  1  0  0  0
 42112  1  0  0  0
 42113  1  0  0  0
 43 44  1  0  0  0
 44114  1  0  0  0
 45 46  2  0  0  0
 45115  1  0  0  0
 46116  1  0  0  0
 47117  1  0  0  0
 47118  1  0  0  0
 48 56  1  0  0  0
 48 65  1  0  0  0
 48119  1  0  0  0
 49 50  1  0  0  0
 49 53  1  0  0  0
 49 64  1  0  0  0
 49120  1  0  0  0
 50 51  1  0  0  0
 50121  1  0  0  0
 50122  1  0  0  0
 51 52  1  0  0  0
 51123  1  0  0  0
 51124  1  0  0  0
 52125  1  0  0  0
 52126  1  0  0  0
 53 54  1  0  0  0
 54 55  2  0  0  0
 54127  1  0  0  0
 55 57  1  0  0  0
 55128  1  0  0  0
 56 69  2  0  0  0
 57 58  2  0  0  0
 57129  1  0  0  0
 58130  1  0  0  0
 59 60  1  0  0  0
 59 61  1  0  0  0
 59 62  1  0  0  0
 60131  1  0  0  0
 60132  1  0  0  0
 60133  1  0  0  0
 61134  1  0  0  0
 61135  1  0  0  0
 61136  1  0  0  0
 62137  1  0  0  0
 62138  1  0  0  0
 62139  1  0  0  0
 63 65  1  0  0  0
 63140  1  0  0  0
 63141  1  0  0  0
 63142  1  0  0  0
 64143  1  0  0  0
 65144  1  0  0  0
 68 80  1  0  0  0
 71 73  2  0  0  0
 71 75  1  0  0  0
 71145  1  0  0  0
 72 74  2  0  0  0
 72 76  1  0  0  0
 72146  1  0  0  0
 73 74  1  0  0  0
 73 81  1  0  0  0
 74 82  1  0  0  0
 75 76  2  0  0  0
 75 83  1  0  0  0
 76 85  1  0  0  0
 77 78  1  0  0  0
 77 80  1  0  0  0
 77147  1  0  0  0
 77148  1  0  0  0
 78 84  1  0  0  0
 78149  1  0  0  0
 78150  1  0  0  0
 79 80  1  0  0  0
 79 84  1  0  0  0
 79151  1  0  0  0
 79152  1  0  0  0
 80153  1  0  0  0
 81154  1  0  0  0
 81155  1  0  0  0
 81156  1  0  0  0
 82157  1  0  0  0
 82158  1  0  0  0
 82 84  1  0  0  0
 83159  1  0  0  0
 84160  1  0  0  0
M  CHG  1  84   1
M  ISO  4   1 100  68 101  80 101  83 100
M  END
> <chiral flag>
0

> <version>
0

> <s_m_source_file>
/data/baiqing/PycharmProjects/Reinvent-master-3.2/result/LINK_invent/BTK/process_docking_weight1_custom_product_contain_oxygen_bond_distance_aromatic_linkinvent_7_9_3/rearranged_h_0031.sdf

> <i_m_source_file_index>
32

> <r_mmod_Potential_Energy-OPLS-2005>
4.7130560874939

> <r_mmod_Stretch_Energy-OPLS-2005>
82.9097061157227

> <r_mmod_Bend_Energy-OPLS-2005>
171.273300170898

> <r_mmod_Torsional_Energy-OPLS-2005>
297.821411132812

> <r_mmod_Improper_Torsional_Energy-OPLS-2005>
7.05595445632935

> <r_mmod_Van_der_Waal_Energy-OPLS-2005>
135.285720825195

> <r_mmod_Electrostatic_Energy-OPLS-2005>
-301.932586669922

> <r_mmod_Solvation_Energy-OPLS-2005>
-439.863708496094

> <b_mmod_Minimization_Converged-OPLS-2005>
0

> <r_mmod_RMS_Derivative-OPLS-2005>
3.1489269733429

$$$$
32
                    3D
 Structure written by MMmdl.
161170  0  0  1  0            999 V2000
  -30.5979  -14.7639   20.4305 C   0  0  0  0  0  0
  -30.4424  -12.4416   19.5094 C   0  0  0  0  0  0
  -29.5274  -12.4337   18.2638 C   0  0  0  0  0  0
  -28.0443  -12.3105   18.6638 C   0  0  0  0  0  0
  -27.6469  -13.2296   19.8505 C   0  0  2  0  0  0
  -28.6857  -13.1762   20.9926 C   0  0  0  0  0  0
  -25.2537  -13.8204   20.5682 C   0  0  0  0  0  0
  -24.1822  -13.0454   20.9203 C   0  0  0  0  0  0
  -24.6405  -11.6932   20.8752 C   0  0  0  0  0  0
  -23.9084  -10.4305   21.0414 C   0  0  0  0  0  0
  -24.3632   -9.4212   21.9187 C   0  0  0  0  0  0
  -23.6302   -8.2248   22.0753 C   0  0  0  0  0  0
  -22.4287   -8.0287   21.3542 C   0  0  0  0  0  0
  -21.9929   -9.0262   20.4643 C   0  0  0  0  0  0
  -22.7260  -10.2139   20.3058 C   0  0  0  0  0  0
  -21.6850   -6.0743   22.5281 C   0  0  0  0  0  0
  -21.4014   -6.5644   23.8216 C   0  0  0  0  0  0
  -21.3663   -5.6792   24.9174 C   0  0  0  0  0  0
  -21.6041   -4.3055   24.7223 C   0  0  0  0  0  0
  -21.8822   -3.8154   23.4341 C   0  0  0  0  0  0
  -21.9193   -4.6972   22.3398 C   0  0  0  0  0  0
  -22.7839  -13.5228   21.1869 C   0  0  0  0  0  0
  -22.1661   -4.2160   21.0974 F   0  0  0  0  0  0
  -21.5632   -3.4538   25.7735 F   0  0  0  0  0  0
  -29.9919  -13.5240   20.4181 N   0  0  0  0  0  0
  -26.2963  -12.9408   20.3275 N   0  0  0  0  0  0
  -25.9335  -11.6560   20.5774 N   0  0  0  0  0  0
  -22.0494  -12.8199   22.0418 N   0  0  0  0  0  0
  -25.4248  -15.1919   20.4096 N   0  0  0  0  0  0
  -31.7743  -14.8714   20.0723 O   0  0  0  0  0  0
  -21.6641   -6.8889   21.4243 O   0  0  0  0  0  0
  -22.3519  -14.5536   20.6723 O   0  0  0  0  0  0
  -24.6299  -31.8529   23.1974 C   0  0  0  0  0  0
  -25.9132  -32.4734   23.8311 C   0  0  1  0  0  0
  -27.2227  -27.2532   20.1341 C   0  0  0  0  0  0
  -25.5938  -33.8540   24.2234 N   0  0  0  0  0  0
  -23.4290  -30.4750   21.5386 C   0  0  2  0  0  0
  -24.8786  -28.9223   20.1048 C   0  0  0  0  0  0
  -22.7509  -29.4578   22.4881 C   0  0  0  0  0  0
  -18.0299  -28.1378   22.8465 C   0  0  0  0  0  0
  -24.1502  -36.7283   23.2640 C   0  0  0  0  0  0
  -25.9742  -30.7613   21.3810 C   0  0  0  0  0  0
  -26.0465  -29.3833   20.7241 C   0  0  0  0  0  0
  -27.2177  -28.5595   20.7323 C   0  0  0  0  0  0
  -26.0363  -26.8707   19.4660 C   0  0  0  0  0  0
  -24.8798  -27.6747   19.4634 C   0  0  0  0  0  0
  -23.6494  -29.8096   20.1536 C   0  0  0  0  0  0
  -25.4124  -36.3048   24.0322 C   0  0  1  0  0  0
  -20.5902  -28.3682   23.1255 C   0  0  2  0  0  0
  -20.6782  -26.9393   22.5405 C   0  0  0  0  0  0
  -19.5763  -26.6363   21.5203 C   0  0  0  0  0  0
  -18.1940  -26.7919   22.1613 C   0  0  0  0  0  0
  -19.1556  -28.8849   23.2854 C   0  0  0  0  0  0
  -18.9480  -30.1445   23.8871 C   0  0  0  0  0  0
  -17.6485  -30.6573   24.0553 C   0  0  0  0  0  0
  -25.9068  -34.9426   23.5082 C   0  0  0  0  0  0
  -16.5371  -29.9070   23.6335 C   0  0  0  0  0  0
  -16.7290  -28.6498   23.0338 C   0  0  0  0  0  0
  -26.4498  -31.6574   25.0711 C   0  0  0  0  0  0
  -25.3731  -31.3734   26.1439 C   0  0  0  0  0  0
  -27.0358  -30.2995   24.6206 C   0  0  0  0  0  0
  -27.6032  -32.4329   25.7499 C   0  0  0  0  0  0
  -27.5580  -37.1786   24.8461 C   0  0  0  0  0  0
  -21.4216  -29.3032   22.3645 N   0  0  0  0  0  0
  -26.4285  -37.3752   23.9412 N   0  0  0  0  0  0
  -24.6961  -31.0488   22.0948 N   0  0  0  0  0  0
  -23.4202  -28.8111   23.2985 O   0  0  0  0  0  0
  -28.3206  -26.3610   20.2233 O   0  0  0  0  0  0
  -26.5633  -34.8903   22.4641 O   0  0  0  0  0  0
  -23.5456  -32.1356   23.7271 O   0  0  0  0  0  0
  -29.4992  -19.7778   18.7109 C   0  0  0  0  0  0
  -29.4906  -18.5588   18.0160 C   0  0  0  0  0  0
  -29.6110  -19.8203   20.1127 C   0  0  0  0  0  0
  -29.7568  -18.5248   20.7926 C   0  0  0  0  0  0
  -29.7924  -17.2389   20.0818 C   0  0  0  0  0  0
  -29.6210  -17.3215   18.6710 C   0  0  0  0  0  0
  -27.4589  -22.6372   20.8805 C   0  0  0  0  0  0
  -26.6876  -21.6370   21.3419 C   0  0  0  0  0  0
  -27.1402  -24.1448   20.8944 C   0  0  0  0  0  0
  -29.3581  -23.8524   20.1656 C   0  0  0  0  0  0
  -28.1553  -24.8763   19.9883 C   0  0  2  0  0  0
  -29.9016  -18.5187   22.3066 C   0  0  0  0  0  0
  -29.6814  -21.2866   20.7608 C   0  0  0  0  0  0
  -29.8307  -15.8872   20.7228 N   0  0  0  0  0  0
  -28.7920  -22.4373   20.2305 N   0  3  1  0  0  0
  -29.4738  -15.9311   17.6626 Cl  0  0  0  0  0  0
  -31.4857  -12.5619   19.2104 H   0  0  0  0  0  0
  -30.3940  -11.4815   20.0244 H   0  0  0  0  0  0
  -29.8011  -11.6028   17.6124 H   0  0  0  0  0  0
  -29.6895  -13.3284   17.6700 H   0  0  0  0  0  0
  -27.8780  -11.2685   18.9393 H   0  0  0  0  0  0
  -27.4015  -12.5008   17.8036 H   0  0  0  0  0  0
  -27.6421  -14.2465   19.4571 H   0  0  0  0  0  0
  -28.7172  -12.1831   21.4436 H   0  0  0  0  0  0
  -28.4125  -13.8638   21.7943 H   0  0  0  0  0  0
  -25.2781   -9.5675   22.4757 H   0  0  0  0  0  0
  -24.0012   -7.4636   22.7466 H   0  0  0  0  0  0
  -21.0868   -8.8784   19.8940 H   0  0  0  0  0  0
  -22.3734  -10.9676   19.6162 H   0  0  0  0  0  0
  -21.2006   -7.6154   23.9722 H   0  0  0  0  0  0
  -21.1482   -6.0521   25.9075 H   0  0  0  0  0  0
  -22.0598   -2.7620   23.2836 H   0  0  0  0  0  0
  -22.4126  -11.9848   22.4776 H   0  0  0  0  0  0
  -21.1109  -13.1202   22.2640 H   0  0  0  0  0  0
  -24.6576  -15.8469   20.5128 H   0  0  0  0  0  0
  -26.2707  -15.6266   20.0638 H   0  0  0  0  0  0
  -26.7190  -32.5363   23.1045 H   0  0  0  0  0  0
  -25.0072  -33.9663   25.0375 H   0  0  0  0  0  0
  -22.7269  -31.2980   21.3895 H   0  0  0  0  0  0
  -23.3744  -35.9635   23.3298 H   0  0  0  0  0  0
  -24.3597  -36.8921   22.2057 H   0  0  0  0  0  0
  -23.7283  -37.6490   23.6684 H   0  0  0  0  0  0
  -26.1165  -31.5200   20.6101 H   0  0  0  0  0  0
  -26.8513  -30.8089   22.0142 H   0  0  0  0  0  0
  -28.1051  -28.8993   21.2465 H   0  0  0  0  0  0
  -25.9685  -25.9274   18.9456 H   0  0  0  0  0  0
  -23.9909  -27.3211   18.9589 H   0  0  0  0  0  0
  -23.7787  -30.5870   19.3993 H   0  0  0  0  0  0
  -22.7675  -29.2444   19.8452 H   0  0  0  0  0  0
  -25.1306  -36.1879   25.0814 H   0  0  0  0  0  0
  -20.9998  -28.3257   24.1376 H   0  0  0  0  0  0
  -20.5683  -26.2278   23.3602 H   0  0  0  0  0  0
  -21.6640  -26.7410   22.1191 H   0  0  0  0  0  0
  -19.6932  -25.6275   21.1225 H   0  0  0  0  0  0
  -19.6715  -27.3176   20.6727 H   0  0  0  0  0  0
  -17.4210  -26.6660   21.4012 H   0  0  0  0  0  0
  -18.0335  -26.0076   22.9022 H   0  0  0  0  0  0
  -19.7967  -30.7248   24.2229 H   0  0  0  0  0  0
  -17.5050  -31.6259   24.5139 H   0  0  0  0  0  0
  -15.5371  -30.2956   23.7681 H   0  0  0  0  0  0
  -15.8690  -28.0811   22.7042 H   0  0  0  0  0  0
  -24.5906  -30.7083   25.7783 H   0  0  0  0  0  0
  -24.8915  -32.2903   26.4841 H   0  0  0  0  0  0
  -25.8040  -30.8934   27.0232 H   0  0  0  0  0  0
  -26.2941  -29.6723   24.1248 H   0  0  0  0  0  0
  -27.4061  -29.7275   25.4720 H   0  0  0  0  0  0
  -27.8813  -30.4275   23.9442 H   0  0  0  0  0  0
  -27.2625  -33.3638   26.2042 H   0  0  0  0  0  0
  -28.3863  -32.6881   25.0350 H   0  0  0  0  0  0
  -28.0688  -31.8489   26.5449 H   0  0  0  0  0  0
  -28.2551  -38.0117   24.7493 H   0  0  0  0  0  0
  -28.1103  -36.2629   24.6286 H   0  0  0  0  0  0
  -27.2289  -37.1437   25.8860 H   0  0  0  0  0  0
  -20.9396  -29.8780   21.6872 H   0  0  0  0  0  0
  -26.0154  -38.2817   24.1421 H   0  0  0  0  0  0
  -29.4218  -20.6898   18.1355 H   0  0  0  0  0  0
  -29.3645  -18.5685   16.9435 H   0  0  0  0  0  0
  -25.7288  -21.8426   21.7966 H   0  0  0  0  0  0
  -26.9913  -20.6010   21.2830 H   0  0  0  0  0  0
  -27.2264  -24.5047   21.9190 H   0  0  0  0  0  0
  -26.1122  -24.3110   20.5756 H   0  0  0  0  0  0
  -29.8694  -24.0656   21.1051 H   0  0  0  0  0  0
  -30.0933  -23.9498   19.3668 H   0  0  0  0  0  0
  -27.8302  -24.7632   18.9530 H   0  0  0  0  0  0
  -30.8812  -18.9012   22.5941 H   0  0  0  0  0  0
  -29.7963  -17.5223   22.7356 H   0  0  0  0  0  0
  -29.1368  -19.1420   22.7696 H   0  0  0  0  0  0
  -30.7128  -21.6070   20.6133 H   0  0  0  0  0  0
  -29.5652  -21.2275   21.8417 H   0  0  0  0  0  0
  -28.9893  -15.6612   21.2303 H   0  0  0  0  0  0
  -28.6218  -22.1869   19.2682 H   0  0  0  0  0  0
  1 25  1  0  0  0
  1 30  2  0  0  0
  1 84  1  0  0  0
  2  3  1  0  0  0
  2 25  1  0  0  0
  2 87  1  0  0  0
  2 88  1  0  0  0
  3  4  1  0  0  0
  3 89  1  0  0  0
  3 90  1  0  0  0
  4  5  1  0  0  0
  4 91  1  0  0  0
  4 92  1  0  0  0
  5  6  1  0  0  0
  5 26  1  0  0  0
  5 93  1  0  0  0
  6 25  1  0  0  0
  6 94  1  0  0  0
  6 95  1  0  0  0
  7  8  2  0  0  0
  7 26  1  0  0  0
  7 29  1  0  0  0
  8  9  1  0  0  0
  8 22  1  0  0  0
  9 10  1  0  0  0
  9 27  2  0  0  0
 10 11  2  0  0  0
 10 15  1  0  0  0
 11 12  1  0  0  0
 11 96  1  0  0  0
 12 13  2  0  0  0
 12 97  1  0  0  0
 13 14  1  0  0  0
 13 31  1  0  0  0
 14 15  2  0  0  0
 14 98  1  0  0  0
 15 99  1  0  0  0
 16 17  2  0  0  0
 16 21  1  0  0  0
 16 31  1  0  0  0
 17 18  1  0  0  0
 17100  1  0  0  0
 18 19  2  0  0  0
 18101  1  0  0  0
 19 20  1  0  0  0
 19 24  1  0  0  0
 20 21  2  0  0  0
 20102  1  0  0  0
 21 23  1  0  0  0
 22 28  1  0  0  0
 22 32  2  0  0  0
 26 27  1  0  0  0
 28103  1  0  0  0
 28104  1  0  0  0
 29105  1  0  0  0
 29106  1  0  0  0
 33 34  1  0  0  0
 33 66  1  0  0  0
 33 70  2  0  0  0
 34 36  1  0  0  0
 34 59  1  0  0  0
 34107  1  0  0  0
 35 44  2  0  0  0
 35 45  1  0  0  0
 35 68  1  0  0  0
 36 56  1  0  0  0
 36108  1  0  0  0
 37 39  1  0  0  0
 37 47  1  0  0  0
 37 66  1  0  0  0
 37109  1  0  0  0
 38 43  2  0  0  0
 38 46  1  0  0  0
 38 47  1  0  0  0
 39 64  1  0  0  0
 39 67  2  0  0  0
 40 52  1  0  0  0
 40 53  2  0  0  0
 40 58  1  0  0  0
 41110  1  0  0  0
 41111  1  0  0  0
 41112  1  0  0  0
 41 48  1  0  0  0
 42 43  1  0  0  0
 42 66  1  0  0  0
 42113  1  0  0  0
 42114  1  0  0  0
 43 44  1  0  0  0
 44115  1  0  0  0
 45 46  2  0  0  0
 45116  1  0  0  0
 46117  1  0  0  0
 47118  1  0  0  0
 47119  1  0  0  0
 48 56  1  0  0  0
 48 65  1  0  0  0
 48120  1  0  0  0
 49 50  1  0  0  0
 49 53  1  0  0  0
 49 64  1  0  0  0
 49121  1  0  0  0
 50 51  1  0  0  0
 50122  1  0  0  0
 50123  1  0  0  0
 51 52  1  0  0  0
 51124  1  0  0  0
 51125  1  0  0  0
 52126  1  0  0  0
 52127  1  0  0  0
 53 54  1  0  0  0
 54 55  2  0  0  0
 54128  1  0  0  0
 55 57  1  0  0  0
 55129  1  0  0  0
 56 69  2  0  0  0
 57 58  2  0  0  0
 57130  1  0  0  0
 58131  1  0  0  0
 59 60  1  0  0  0
 59 61  1  0  0  0
 59 62  1  0  0  0
 60132  1  0  0  0
 60133  1  0  0  0
 60134  1  0  0  0
 61135  1  0  0  0
 61136  1  0  0  0
 61137  1  0  0  0
 62138  1  0  0  0
 62139  1  0  0  0
 62140  1  0  0  0
 63 65  1  0  0  0
 63141  1  0  0  0
 63142  1  0  0  0
 63143  1  0  0  0
 64144  1  0  0  0
 65145  1  0  0  0
 68 81  1  0  0  0
 71 72  2  0  0  0
 71 73  1  0  0  0
 71146  1  0  0  0
 72 76  1  0  0  0
 72147  1  0  0  0
 73 74  2  0  0  0
 73 83  1  0  0  0
 74 75  1  0  0  0
 74 82  1  0  0  0
 75 76  2  0  0  0
 75 84  1  0  0  0
 76 86  1  0  0  0
 77 78  2  0  0  0
 77 79  1  0  0  0
 77 85  1  0  0  0
 78148  1  0  0  0
 78149  1  0  0  0
 79 81  1  0  0  0
 79150  1  0  0  0
 79151  1  0  0  0
 80 81  1  0  0  0
 80 85  1  0  0  0
 80152  1  0  0  0
 80153  1  0  0  0
 81154  1  0  0  0
 82155  1  0  0  0
 82156  1  0  0  0
 82157  1  0  0  0
 83158  1  0  0  0
 83159  1  0  0  0
 83 85  1  0  0  0
 84160  1  0  0  0
 85161  1  0  0  0
M  CHG  1  85   1
M  ISO  4   1 100  68 101  81 101  84 100
M  END
> <chiral flag>
0

> <version>
0

> <s_m_source_file>
/data/baiqing/PycharmProjects/Reinvent-master-3.2/result/LINK_invent/BTK/process_docking_weight1_custom_product_contain_oxygen_bond_distance_aromatic_linkinvent_7_9_3/rearranged_h_0031.sdf

> <i_m_source_file_index>
33

> <r_mmod_Potential_Energy-OPLS-2005>
90.0900344848633

> <r_mmod_Stretch_Energy-OPLS-2005>
130.098373413086

> <r_mmod_Bend_Energy-OPLS-2005>
200.233993530273

> <r_mmod_Torsional_Energy-OPLS-2005>
260.487579345703

> <r_mmod_Improper_Torsional_Energy-OPLS-2005>
5.19051074981689

> <r_mmod_Van_der_Waal_Energy-OPLS-2005>
132.080032348633

> <r_mmod_Electrostatic_Energy-OPLS-2005>
-282.445648193359

> <r_mmod_Solvation_Energy-OPLS-2005>
-450.524353027344

> <b_mmod_Minimization_Converged-OPLS-2005>
0

> <r_mmod_RMS_Derivative-OPLS-2005>
1.84180772304535

$$$$
33
                    3D
 Structure written by MMmdl.
161170  0  0  1  0            999 V2000
  -30.5817  -14.6692   20.4829 C   0  0  0  0  0  0
  -30.4440  -12.4055   19.4489 C   0  0  0  0  0  0
  -29.5070  -12.4992   18.2215 C   0  0  0  0  0  0
  -28.0261  -12.3530   18.6286 C   0  0  0  0  0  0
  -27.6521  -13.2111   19.8651 C   0  0  2  0  0  0
  -28.6996  -13.0552   20.9914 C   0  0  0  0  0  0
  -25.2564  -13.8138   20.5651 C   0  0  0  0  0  0
  -24.1857  -13.0421   20.9196 C   0  0  0  0  0  0
  -24.6423  -11.6894   20.8743 C   0  0  0  0  0  0
  -23.9093  -10.4287   21.0420 C   0  0  0  0  0  0
  -24.3636   -9.4187   21.9191 C   0  0  0  0  0  0
  -23.6302   -8.2225   22.0759 C   0  0  0  0  0  0
  -22.4282   -8.0284   21.3561 C   0  0  0  0  0  0
  -21.9931   -9.0251   20.4650 C   0  0  0  0  0  0
  -22.7266  -10.2134   20.3061 C   0  0  0  0  0  0
  -21.6854   -6.0749   22.5282 C   0  0  0  0  0  0
  -21.4000   -6.5645   23.8210 C   0  0  0  0  0  0
  -21.3652   -5.6795   24.9169 C   0  0  0  0  0  0
  -21.6050   -4.3062   24.7211 C   0  0  0  0  0  0
  -21.8826   -3.8161   23.4330 C   0  0  0  0  0  0
  -21.9194   -4.6984   22.3398 C   0  0  0  0  0  0
  -22.7881  -13.5235   21.1824 C   0  0  0  0  0  0
  -22.1671   -4.2169   21.0978 F   0  0  0  0  0  0
  -21.5632   -3.4549   25.7719 F   0  0  0  0  0  0
  -30.0065  -13.4234   20.4248 N   0  0  0  0  0  0
  -26.2982  -12.9306   20.3331 N   0  0  0  0  0  0
  -25.9340  -11.6476   20.5777 N   0  0  0  0  0  0
  -22.0525  -12.8227   22.0377 N   0  0  0  0  0  0
  -25.4281  -15.1847   20.3994 N   0  0  0  0  0  0
  -31.7512  -14.8494   20.1294 O   0  0  0  0  0  0
  -21.6651   -6.8892   21.4246 O   0  0  0  0  0  0
  -22.3563  -14.5549   20.6683 O   0  0  0  0  0  0
  -24.6191  -31.8538   23.1997 C   0  0  0  0  0  0
  -25.9004  -32.4779   23.8329 C   0  0  1  0  0  0
  -27.2416  -27.3123   20.1398 C   0  0  0  0  0  0
  -25.5784  -33.8571   24.2188 N   0  0  0  0  0  0
  -23.4166  -30.4747   21.5360 C   0  0  2  0  0  0
  -24.8689  -28.9161   20.1212 C   0  0  0  0  0  0
  -22.7460  -29.4544   22.4877 C   0  0  0  0  0  0
  -18.0274  -28.1435   22.8520 C   0  0  0  0  0  0
  -24.1392  -36.7190   23.2697 C   0  0  0  0  0  0
  -25.9601  -30.7822   21.3785 C   0  0  0  0  0  0
  -26.0350  -29.4107   20.7215 C   0  0  0  0  0  0
  -27.2198  -28.6232   20.7098 C   0  0  0  0  0  0
  -26.0516  -26.8488   19.5411 C   0  0  0  0  0  0
  -24.8822  -27.6402   19.5268 C   0  0  0  0  0  0
  -23.6386  -29.8007   20.1549 C   0  0  0  0  0  0
  -25.4040  -36.3037   24.0358 C   0  0  1  0  0  0
  -20.5889  -28.3634   23.1315 C   0  0  2  0  0  0
  -20.6699  -26.9326   22.5457 C   0  0  0  0  0  0
  -19.5648  -26.6351   21.5263 C   0  0  0  0  0  0
  -18.1854  -26.7975   22.1688 C   0  0  0  0  0  0
  -19.1554  -28.8864   23.2911 C   0  0  0  0  0  0
  -18.9506  -30.1498   23.8874 C   0  0  0  0  0  0
  -17.6519  -30.6645   24.0576 C   0  0  0  0  0  0
  -25.9008  -34.9445   23.5085 C   0  0  0  0  0  0
  -16.5383  -29.9159   23.6413 C   0  0  0  0  0  0
  -16.7279  -28.6591   23.0407 C   0  0  0  0  0  0
  -26.4407  -31.6716   25.0774 C   0  0  0  0  0  0
  -25.3646  -31.3949   26.1516 C   0  0  0  0  0  0
  -27.0325  -30.3145   24.6357 C   0  0  0  0  0  0
  -27.5843  -32.4602   25.7583 C   0  0  0  0  0  0
  -27.5490  -37.1728   24.8492 C   0  0  0  0  0  0
  -21.4172  -29.2979   22.3667 N   0  0  0  0  0  0
  -26.4180  -37.3763   23.9478 N   0  0  0  0  0  0
  -24.6831  -31.0583   22.0915 N   0  0  0  0  0  0
  -23.4208  -28.8064   23.2927 O   0  0  0  0  0  0
  -28.4288  -26.5736   20.1007 O   0  0  0  0  0  0
  -26.5671  -34.8915   22.4707 O   0  0  0  0  0  0
  -23.5350  -32.1272   23.7318 O   0  0  0  0  0  0
  -30.7697  -19.3921   20.3063 C   0  0  0  0  0  0
  -30.8787  -17.9777   20.4857 C   0  0  0  0  0  0
  -28.4848  -17.8411   20.4702 C   0  0  0  0  0  0
  -29.5257  -20.0853   20.1738 C   0  0  0  0  0  0
  -28.3675  -19.2527   20.2547 C   0  0  0  0  0  0
  -29.7280  -17.1515   20.5629 C   0  0  0  0  0  0
  -28.3301  -23.0302   21.6557 C   0  0  0  0  0  0
  -28.4027  -22.1665   22.6825 C   0  0  0  0  0  0
  -28.1133  -24.5494   21.7356 C   0  0  0  0  0  0
  -28.4080  -23.9284   19.4209 C   0  0  0  0  0  0
  -28.6081  -25.1260   20.4081 C   0  0  1  0  0  0
  -26.9594  -19.8123   20.1012 C   0  0  0  0  0  0
  -29.5502  -21.6394   19.8195 C   0  0  0  0  0  0
  -29.7132  -15.6970   20.7734 N   0  0  0  0  0  0
  -28.4550  -22.6327   20.2134 N   0  3  1  0  0  0
  -31.4800  -12.5558   19.1415 H   0  0  0  0  0  0
  -30.4085  -11.4077   19.8897 H   0  0  0  0  0  0
  -29.7657  -11.7280   17.4939 H   0  0  0  0  0  0
  -29.6593  -13.4548   17.7181 H   0  0  0  0  0  0
  -27.8402  -11.2990   18.8361 H   0  0  0  0  0  0
  -27.3823  -12.6134   17.7871 H   0  0  0  0  0  0
  -27.6708  -14.2496   19.5358 H   0  0  0  0  0  0
  -28.7191  -12.0242   21.3502 H   0  0  0  0  0  0
  -28.4444  -13.6642   21.8586 H   0  0  0  0  0  0
  -25.2786   -9.5665   22.4759 H   0  0  0  0  0  0
  -24.0020   -7.4621   22.7481 H   0  0  0  0  0  0
  -21.0866   -8.8782   19.8931 H   0  0  0  0  0  0
  -22.3746  -10.9678   19.6167 H   0  0  0  0  0  0
  -21.1982   -7.6144   23.9718 H   0  0  0  0  0  0
  -21.1464   -6.0522   25.9077 H   0  0  0  0  0  0
  -22.0611   -2.7617   23.2822 H   0  0  0  0  0  0
  -22.4155  -11.9898   22.4762 H   0  0  0  0  0  0
  -21.1129  -13.1228   22.2577 H   0  0  0  0  0  0
  -24.6447  -15.8268   20.4681 H   0  0  0  0  0  0
  -26.2511  -15.6030   19.9854 H   0  0  0  0  0  0
  -26.7060  -32.5407   23.1067 H   0  0  0  0  0  0
  -24.9723  -33.9699   25.0199 H   0  0  0  0  0  0
  -22.7079  -31.2922   21.3848 H   0  0  0  0  0  0
  -23.3695  -35.9492   23.3418 H   0  0  0  0  0  0
  -24.3393  -36.8758   22.2088 H   0  0  0  0  0  0
  -23.7110  -37.6379   23.6714 H   0  0  0  0  0  0
  -26.1164  -31.5529   20.6224 H   0  0  0  0  0  0
  -26.8281  -30.8131   22.0255 H   0  0  0  0  0  0
  -28.1226  -29.0105   21.1628 H   0  0  0  0  0  0
  -26.0279  -25.8737   19.0749 H   0  0  0  0  0  0
  -23.9851  -27.2560   19.0601 H   0  0  0  0  0  0
  -23.7629  -30.5710   19.3922 H   0  0  0  0  0  0
  -22.7629  -29.2256   19.8496 H   0  0  0  0  0  0
  -25.1245  -36.1821   25.0855 H   0  0  0  0  0  0
  -21.0029  -28.3169   24.1410 H   0  0  0  0  0  0
  -20.5515  -26.2214   23.3657 H   0  0  0  0  0  0
  -21.6543  -26.7242   22.1253 H   0  0  0  0  0  0
  -19.6717  -25.6260   21.1281 H   0  0  0  0  0  0
  -19.6612  -27.3181   20.6816 H   0  0  0  0  0  0
  -17.4091  -26.6790   21.4123 H   0  0  0  0  0  0
  -18.0179  -26.0162   22.9115 H   0  0  0  0  0  0
  -19.8013  -30.7341   24.2146 H   0  0  0  0  0  0
  -17.5129  -31.6345   24.5143 H   0  0  0  0  0  0
  -15.5414  -30.3095   23.7786 H   0  0  0  0  0  0
  -15.8653  -28.0949   22.7135 H   0  0  0  0  0  0
  -24.5655  -30.7498   25.7865 H   0  0  0  0  0  0
  -24.9047  -32.3207   26.5011 H   0  0  0  0  0  0
  -25.7907  -30.9025   27.0270 H   0  0  0  0  0  0
  -26.2954  -29.6846   24.1370 H   0  0  0  0  0  0
  -27.3993  -29.7473   25.4931 H   0  0  0  0  0  0
  -27.8818  -30.4444   23.9639 H   0  0  0  0  0  0
  -27.2260  -33.3848   26.2122 H   0  0  0  0  0  0
  -28.3660  -32.7309   25.0486 H   0  0  0  0  0  0
  -28.0529  -31.8860   26.5573 H   0  0  0  0  0  0
  -28.2547  -37.9987   24.7516 H   0  0  0  0  0  0
  -28.0938  -36.2523   24.6355 H   0  0  0  0  0  0
  -27.2224  -37.1428   25.8902 H   0  0  0  0  0  0
  -20.9320  -29.8688   21.6885 H   0  0  0  0  0  0
  -26.0034  -38.2797   24.1630 H   0  0  0  0  0  0
  -31.6926  -19.9556   20.2408 H   0  0  0  0  0  0
  -31.8607  -17.5347   20.5687 H   0  0  0  0  0  0
  -27.5751  -17.2638   20.5478 H   0  0  0  0  0  0
  -28.3073  -22.5104   23.7009 H   0  0  0  0  0  0
  -28.5553  -21.1074   22.5299 H   0  0  0  0  0  0
  -28.6625  -24.9772   22.5730 H   0  0  0  0  0  0
  -27.0543  -24.7585   21.8836 H   0  0  0  0  0  0
  -29.1537  -23.9510   18.6269 H   0  0  0  0  0  0
  -27.4319  -23.9880   18.9448 H   0  0  0  0  0  0
  -29.6924  -25.1250   20.5405 H   0  0  0  0  0  0
  -26.2754  -19.0352   19.7588 H   0  0  0  0  0  0
  -26.8986  -20.6135   19.3664 H   0  0  0  0  0  0
  -26.5811  -20.1767   21.0566 H   0  0  0  0  0  0
  -29.6212  -21.6678   18.7314 H   0  0  0  0  0  0
  -30.4928  -22.0526   20.1797 H   0  0  0  0  0  0
  -28.8053  -15.3399   21.0245 H   0  0  0  0  0  0
  -27.6071  -22.1519   19.9549 H   0  0  0  0  0  0
  1 25  1  0  0  0
  1 30  2  0  0  0
  1 84  1  0  0  0
  2  3  1  0  0  0
  2 25  1  0  0  0
  2 86  1  0  0  0
  2 87  1  0  0  0
  3  4  1  0  0  0
  3 88  1  0  0  0
  3 89  1  0  0  0
  4  5  1  0  0  0
  4 90  1  0  0  0
  4 91  1  0  0  0
  5  6  1  0  0  0
  5 26  1  0  0  0
  5 92  1  0  0  0
  6 25  1  0  0  0
  6 93  1  0  0  0
  6 94  1  0  0  0
  7  8  2  0  0  0
  7 26  1  0  0  0
  7 29  1  0  0  0
  8  9  1  0  0  0
  8 22  1  0  0  0
  9 10  1  0  0  0
  9 27  2  0  0  0
 10 11  2  0  0  0
 10 15  1  0  0  0
 11 12  1  0  0  0
 11 95  1  0  0  0
 12 13  2  0  0  0
 12 96  1  0  0  0
 13 14  1  0  0  0
 13 31  1  0  0  0
 14 15  2  0  0  0
 14 97  1  0  0  0
 15 98  1  0  0  0
 16 17  2  0  0  0
 16 21  1  0  0  0
 16 31  1  0  0  0
 17 18  1  0  0  0
 17 99  1  0  0  0
 18 19  2  0  0  0
 18100  1  0  0  0
 19 20  1  0  0  0
 19 24  1  0  0  0
 20 21  2  0  0  0
 20101  1  0  0  0
 21 23  1  0  0  0
 22 28  1  0  0  0
 22 32  2  0  0  0
 26 27  1  0  0  0
 28102  1  0  0  0
 28103  1  0  0  0
 29104  1  0  0  0
 29105  1  0  0  0
 33 34  1  0  0  0
 33 66  1  0  0  0
 33 70  2  0  0  0
 34 36  1  0  0  0
 34 59  1  0  0  0
 34106  1  0  0  0
 35 44  2  0  0  0
 35 45  1  0  0  0
 35 68  1  0  0  0
 36 56  1  0  0  0
 36107  1  0  0  0
 37 39  1  0  0  0
 37 47  1  0  0  0
 37 66  1  0  0  0
 37108  1  0  0  0
 38 43  2  0  0  0
 38 46  1  0  0  0
 38 47  1  0  0  0
 39 64  1  0  0  0
 39 67  2  0  0  0
 40 52  1  0  0  0
 40 53  2  0  0  0
 40 58  1  0  0  0
 41109  1  0  0  0
 41110  1  0  0  0
 41111  1  0  0  0
 41 48  1  0  0  0
 42 43  1  0  0  0
 42 66  1  0  0  0
 42112  1  0  0  0
 42113  1  0  0  0
 43 44  1  0  0  0
 44114  1  0  0  0
 45 46  2  0  0  0
 45115  1  0  0  0
 46116  1  0  0  0
 47117  1  0  0  0
 47118  1  0  0  0
 48 56  1  0  0  0
 48 65  1  0  0  0
 48119  1  0  0  0
 49 50  1  0  0  0
 49 53  1  0  0  0
 49 64  1  0  0  0
 49120  1  0  0  0
 50 51  1  0  0  0
 50121  1  0  0  0
 50122  1  0  0  0
 51 52  1  0  0  0
 51123  1  0  0  0
 51124  1  0  0  0
 52125  1  0  0  0
 52126  1  0  0  0
 53 54  1  0  0  0
 54 55  2  0  0  0
 54127  1  0  0  0
 55 57  1  0  0  0
 55128  1  0  0  0
 56 69  2  0  0  0
 57 58  2  0  0  0
 57129  1  0  0  0
 58130  1  0  0  0
 59 60  1  0  0  0
 59 61  1  0  0  0
 59 62  1  0  0  0
 60131  1  0  0  0
 60132  1  0  0  0
 60133  1  0  0  0
 61134  1  0  0  0
 61135  1  0  0  0
 61136  1  0  0  0
 62137  1  0  0  0
 62138  1  0  0  0
 62139  1  0  0  0
 63 65  1  0  0  0
 63140  1  0  0  0
 63141  1  0  0  0
 63142  1  0  0  0
 64143  1  0  0  0
 65144  1  0  0  0
 68 81  1  0  0  0
 71 72  2  0  0  0
 71 74  1  0  0  0
 71145  1  0  0  0
 72 76  1  0  0  0
 72146  1  0  0  0
 73 75  1  0  0  0
 73 76  2  0  0  0
 73147  1  0  0  0
 74 75  2  0  0  0
 74 83  1  0  0  0
 75 82  1  0  0  0
 76 84  1  0  0  0
 77 78  2  0  0  0
 77 79  1  0  0  0
 77 85  1  0  0  0
 78148  1  0  0  0
 78149  1  0  0  0
 79 81  1  0  0  0
 79150  1  0  0  0
 79151  1  0  0  0
 80 81  1  0  0  0
 80 85  1  0  0  0
 80152  1  0  0  0
 80153  1  0  0  0
 81154  1  0  0  0
 82155  1  0  0  0
 82156  1  0  0  0
 82157  1  0  0  0
 83158  1  0  0  0
 83159  1  0  0  0
 83 85  1  0  0  0
 84160  1  0  0  0
 85161  1  0  0  0
M  CHG  1  85   1
M  ISO  4   1 100  68 101  81 101  84 100
M  END
> <chiral flag>
0

> <version>
0

> <s_m_source_file>
/data/baiqing/PycharmProjects/Reinvent-master-3.2/result/LINK_invent/BTK/process_docking_weight1_custom_product_contain_oxygen_bond_distance_aromatic_linkinvent_7_9_3/rearranged_h_0031.sdf

> <i_m_source_file_index>
34

> <r_mmod_Potential_Energy-OPLS-2005>
57.4630012512207

> <r_mmod_Stretch_Energy-OPLS-2005>
86.6951751708984

> <r_mmod_Bend_Energy-OPLS-2005>
228.087326049805

> <r_mmod_Torsional_Energy-OPLS-2005>
247.75032043457

> <r_mmod_Improper_Torsional_Energy-OPLS-2005>
5.99251222610474

> <r_mmod_Van_der_Waal_Energy-OPLS-2005>
125.041954040527

> <r_mmod_Electrostatic_Energy-OPLS-2005>
-253.759674072266

> <r_mmod_Solvation_Energy-OPLS-2005>
-432.915740966797

> <b_mmod_Minimization_Converged-OPLS-2005>
0

> <r_mmod_RMS_Derivative-OPLS-2005>
5.14261674880981

$$$$
34
                    3D
 Structure written by MMmdl.
161170  0  0  1  0            999 V2000
  -30.5519  -14.7048   20.5430 C   0  0  0  0  0  0
  -30.4466  -12.4434   19.4719 C   0  0  0  0  0  0
  -29.5168  -12.5374   18.2385 C   0  0  0  0  0  0
  -28.0367  -12.3591   18.6391 C   0  0  0  0  0  0
  -27.6535  -13.2154   19.8764 C   0  0  2  0  0  0
  -28.6901  -13.0510   21.0101 C   0  0  0  0  0  0
  -25.2524  -13.8135   20.5601 C   0  0  0  0  0  0
  -24.1803  -13.0423   20.9168 C   0  0  0  0  0  0
  -24.6370  -11.6884   20.8755 C   0  0  0  0  0  0
  -23.9028  -10.4274   21.0426 C   0  0  0  0  0  0
  -24.3580   -9.4189   21.9204 C   0  0  0  0  0  0
  -23.6250   -8.2226   22.0763 C   0  0  0  0  0  0
  -22.4235   -8.0268   21.3553 C   0  0  0  0  0  0
  -21.9878   -9.0238   20.4649 C   0  0  0  0  0  0
  -22.7210  -10.2118   20.3062 C   0  0  0  0  0  0
  -21.6831   -6.0719   22.5273 C   0  0  0  0  0  0
  -21.3991   -6.5616   23.8215 C   0  0  0  0  0  0
  -21.3664   -5.6767   24.9177 C   0  0  0  0  0  0
  -21.6057   -4.3031   24.7221 C   0  0  0  0  0  0
  -21.8817   -3.8127   23.4336 C   0  0  0  0  0  0
  -21.9174   -4.6946   22.3396 C   0  0  0  0  0  0
  -22.7836  -13.5253   21.1826 C   0  0  0  0  0  0
  -22.1653   -4.2133   21.0978 F   0  0  0  0  0  0
  -21.5628   -3.4521   25.7734 F   0  0  0  0  0  0
  -30.0011  -13.4456   20.4652 N   0  0  0  0  0  0
  -26.2967  -12.9325   20.3334 N   0  0  0  0  0  0
  -25.9303  -11.6488   20.5793 N   0  0  0  0  0  0
  -22.0453  -12.8286   22.0401 N   0  0  0  0  0  0
  -25.4207  -15.1826   20.3812 N   0  0  0  0  0  0
  -31.6801  -14.9254   20.0833 O   0  0  0  0  0  0
  -21.6618   -6.8860   21.4235 O   0  0  0  0  0  0
  -22.3549  -14.5558   20.6662 O   0  0  0  0  0  0
  -24.6321  -31.8526   23.1991 C   0  0  0  0  0  0
  -25.9152  -32.4723   23.8338 C   0  0  1  0  0  0
  -27.1954  -27.2472   20.1470 C   0  0  0  0  0  0
  -25.5974  -33.8533   24.2265 N   0  0  0  0  0  0
  -23.4276  -30.4799   21.5421 C   0  0  2  0  0  0
  -24.8722  -28.9307   20.1056 C   0  0  0  0  0  0
  -22.7518  -29.4596   22.4898 C   0  0  0  0  0  0
  -18.0288  -28.1387   22.8470 C   0  0  0  0  0  0
  -24.1493  -36.7262   23.2652 C   0  0  0  0  0  0
  -25.9755  -30.7639   21.3818 C   0  0  0  0  0  0
  -26.0443  -29.3884   20.7217 C   0  0  0  0  0  0
  -27.2118  -28.5592   20.7292 C   0  0  0  0  0  0
  -26.0153  -26.8766   19.4664 C   0  0  0  0  0  0
  -24.8640  -27.6838   19.4640 C   0  0  0  0  0  0
  -23.6453  -29.8197   20.1551 C   0  0  0  0  0  0
  -25.4111  -36.3033   24.0333 C   0  0  1  0  0  0
  -20.5896  -28.3679   23.1247 C   0  0  2  0  0  0
  -20.6777  -26.9389   22.5411 C   0  0  0  0  0  0
  -19.5755  -26.6369   21.5205 C   0  0  0  0  0  0
  -18.1928  -26.7939   22.1597 C   0  0  0  0  0  0
  -19.1555  -28.8848   23.2858 C   0  0  0  0  0  0
  -18.9474  -30.1458   23.8858 C   0  0  0  0  0  0
  -17.6474  -30.6580   24.0552 C   0  0  0  0  0  0
  -25.9059  -34.9414   23.5085 C   0  0  0  0  0  0
  -16.5353  -29.9076   23.6346 C   0  0  0  0  0  0
  -16.7281  -28.6506   23.0340 C   0  0  0  0  0  0
  -26.4538  -31.6546   25.0722 C   0  0  0  0  0  0
  -25.3795  -31.3652   26.1449 C   0  0  0  0  0  0
  -27.0404  -30.2961   24.6231 C   0  0  0  0  0  0
  -27.6097  -32.4306   25.7488 C   0  0  0  0  0  0
  -27.5567  -37.1760   24.8466 C   0  0  0  0  0  0
  -21.4227  -29.3020   22.3644 N   0  0  0  0  0  0
  -26.4267  -37.3746   23.9435 N   0  0  0  0  0  0
  -24.6977  -31.0514   22.0955 N   0  0  0  0  0  0
  -23.4211  -28.8142   23.3018 O   0  0  0  0  0  0
  -28.2457  -26.3052   20.2507 O   0  0  0  0  0  0
  -26.5630  -34.8888   22.4650 O   0  0  0  0  0  0
  -23.5466  -32.1346   23.7283 O   0  0  0  0  0  0
  -29.7596  -19.3306   19.7544 C   0  0  0  0  0  0
  -30.1260  -17.9550   19.9414 C   0  0  0  0  0  0
  -28.8256  -20.0239   20.5825 C   0  0  0  0  0  0
  -28.3224  -19.2399   21.6791 C   0  0  0  0  0  0
  -28.7054  -17.8509   21.8768 C   0  0  0  0  0  0
  -29.5771  -17.1521   20.9762 C   0  0  0  0  0  0
  -28.3737  -23.8867   19.3029 C   0  0  0  0  0  0
  -28.3937  -23.9958   17.9624 C   0  0  0  0  0  0
  -28.6758  -23.8068   21.2638 C   0  0  0  0  0  0
  -27.8665  -24.8423   20.3829 C   0  0  1  0  0  0
  -27.2735  -19.8726   22.6033 C   0  0  0  0  0  0
  -28.1308  -17.0726   23.0683 C   0  0  0  0  0  0
  -28.1908  -21.4404   20.1317 C   0  0  0  0  0  0
  -29.7451  -15.6792   21.0945 N   0  0  0  0  0  0
  -28.8947  -22.8134   20.1595 N   0  3  1  0  0  0
  -31.4850  -12.5977   19.1749 H   0  0  0  0  0  0
  -30.4129  -11.4407   19.9018 H   0  0  0  0  0  0
  -29.7998  -11.7913   17.4937 H   0  0  0  0  0  0
  -29.6475  -13.5083   17.7581 H   0  0  0  0  0  0
  -27.8777  -11.3019   18.8538 H   0  0  0  0  0  0
  -27.3839  -12.5945   17.7977 H   0  0  0  0  0  0
  -27.6789  -14.2579   19.5578 H   0  0  0  0  0  0
  -28.7194  -12.0155   21.3548 H   0  0  0  0  0  0
  -28.4119  -13.6368   21.8878 H   0  0  0  0  0  0
  -25.2709   -9.5659   22.4805 H   0  0  0  0  0  0
  -23.9940   -7.4607   22.7470 H   0  0  0  0  0  0
  -21.0816   -8.8740   19.8954 H   0  0  0  0  0  0
  -22.3661  -10.9652   19.6158 H   0  0  0  0  0  0
  -21.1996   -7.6118   23.9736 H   0  0  0  0  0  0
  -21.1492   -6.0485   25.9090 H   0  0  0  0  0  0
  -22.0606   -2.7585   23.2843 H   0  0  0  0  0  0
  -22.3989  -11.9927   22.4808 H   0  0  0  0  0  0
  -21.1085  -13.1404   22.2590 H   0  0  0  0  0  0
  -24.6180  -15.8022   20.3777 H   0  0  0  0  0  0
  -26.2303  -15.5824   19.9239 H   0  0  0  0  0  0
  -26.7221  -32.5356   23.1082 H   0  0  0  0  0  0
  -25.0142  -33.9688   25.0417 H   0  0  0  0  0  0
  -22.7243  -31.3028   21.3972 H   0  0  0  0  0  0
  -23.3767  -35.9588   23.3284 H   0  0  0  0  0  0
  -24.3586  -36.8907   22.2073 H   0  0  0  0  0  0
  -23.7220  -37.6439   23.6700 H   0  0  0  0  0  0
  -26.1247  -31.5295   20.6190 H   0  0  0  0  0  0
  -26.8490  -30.8026   22.0213 H   0  0  0  0  0  0
  -28.1026  -28.9023   21.2336 H   0  0  0  0  0  0
  -25.9557  -25.9283   18.9526 H   0  0  0  0  0  0
  -23.9701  -27.3339   18.9665 H   0  0  0  0  0  0
  -23.7775  -30.5993   19.4045 H   0  0  0  0  0  0
  -22.7640  -29.2591   19.8382 H   0  0  0  0  0  0
  -25.1286  -36.1872   25.0826 H   0  0  0  0  0  0
  -20.9963  -28.3253   24.1376 H   0  0  0  0  0  0
  -20.5618  -26.2311   23.3639 H   0  0  0  0  0  0
  -21.6643  -26.7376   22.1216 H   0  0  0  0  0  0
  -19.6909  -25.6274   21.1247 H   0  0  0  0  0  0
  -19.6699  -27.3187   20.6740 H   0  0  0  0  0  0
  -17.4207  -26.6696   21.3995 H   0  0  0  0  0  0
  -18.0293  -26.0068   22.8966 H   0  0  0  0  0  0
  -19.7954  -30.7296   24.2179 H   0  0  0  0  0  0
  -17.5022  -31.6255   24.5172 H   0  0  0  0  0  0
  -15.5351  -30.2950   23.7702 H   0  0  0  0  0  0
  -15.8683  -28.0817   22.7044 H   0  0  0  0  0  0
  -24.6071  -30.6864   25.7806 H   0  0  0  0  0  0
  -24.8877  -32.2775   26.4833 H   0  0  0  0  0  0
  -25.8169  -30.8910   27.0242 H   0  0  0  0  0  0
  -26.2964  -29.6673   24.1306 H   0  0  0  0  0  0
  -27.4125  -29.7265   25.4762 H   0  0  0  0  0  0
  -27.8854  -30.4246   23.9459 H   0  0  0  0  0  0
  -27.2708  -33.3625   26.2041 H   0  0  0  0  0  0
  -28.3909  -32.6809   25.0297 H   0  0  0  0  0  0
  -28.0780  -31.8436   26.5403 H   0  0  0  0  0  0
  -28.2535  -38.0104   24.7526 H   0  0  0  0  0  0
  -28.1088  -36.2605   24.6252 H   0  0  0  0  0  0
  -27.2286  -37.1361   25.8871 H   0  0  0  0  0  0
  -20.9440  -29.8754   21.6837 H   0  0  0  0  0  0
  -26.0129  -38.2806   24.1473 H   0  0  0  0  0  0
  -30.1582  -19.8385   18.8877 H   0  0  0  0  0  0
  -30.7980  -17.5009   19.2277 H   0  0  0  0  0  0
  -27.9875  -24.8762   17.4837 H   0  0  0  0  0  0
  -28.8092  -23.2284   17.3263 H   0  0  0  0  0  0
  -28.1054  -23.3951   22.0981 H   0  0  0  0  0  0
  -29.6164  -24.2240   21.6262 H   0  0  0  0  0  0
  -26.8126  -24.7252   20.6398 H   0  0  0  0  0  0
  -26.2710  -19.7238   22.1967 H   0  0  0  0  0  0
  -27.4338  -20.9438   22.7203 H   0  0  0  0  0  0
  -27.2748  -19.4798   23.6181 H   0  0  0  0  0  0
  -28.6445  -16.1315   23.2650 H   0  0  0  0  0  0
  -27.0754  -16.8535   22.9102 H   0  0  0  0  0  0
  -28.2294  -17.6240   24.0018 H   0  0  0  0  0  0
  -27.1771  -21.5469   20.5160 H   0  0  0  0  0  0
  -28.0185  -21.2741   19.0674 H   0  0  0  0  0  0
  -28.9826  -15.2485   21.5972 H   0  0  0  0  0  0
  -29.8831  -22.6809   20.0074 H   0  0  0  0  0  0
  1 25  1  0  0  0
  1 30  2  0  0  0
  1 84  1  0  0  0
  2  3  1  0  0  0
  2 25  1  0  0  0
  2 86  1  0  0  0
  2 87  1  0  0  0
  3  4  1  0  0  0
  3 88  1  0  0  0
  3 89  1  0  0  0
  4  5  1  0  0  0
  4 90  1  0  0  0
  4 91  1  0  0  0
  5  6  1  0  0  0
  5 26  1  0  0  0
  5 92  1  0  0  0
  6 25  1  0  0  0
  6 93  1  0  0  0
  6 94  1  0  0  0
  7  8  2  0  0  0
  7 26  1  0  0  0
  7 29  1  0  0  0
  8  9  1  0  0  0
  8 22  1  0  0  0
  9 10  1  0  0  0
  9 27  2  0  0  0
 10 11  2  0  0  0
 10 15  1  0  0  0
 11 12  1  0  0  0
 11 95  1  0  0  0
 12 13  2  0  0  0
 12 96  1  0  0  0
 13 14  1  0  0  0
 13 31  1  0  0  0
 14 15  2  0  0  0
 14 97  1  0  0  0
 15 98  1  0  0  0
 16 17  2  0  0  0
 16 21  1  0  0  0
 16 31  1  0  0  0
 17 18  1  0  0  0
 17 99  1  0  0  0
 18 19  2  0  0  0
 18100  1  0  0  0
 19 20  1  0  0  0
 19 24  1  0  0  0
 20 21  2  0  0  0
 20101  1  0  0  0
 21 23  1  0  0  0
 22 28  1  0  0  0
 22 32  2  0  0  0
 26 27  1  0  0  0
 28102  1  0  0  0
 28103  1  0  0  0
 29104  1  0  0  0
 29105  1  0  0  0
 33 34  1  0  0  0
 33 66  1  0  0  0
 33 70  2  0  0  0
 34 36  1  0  0  0
 34 59  1  0  0  0
 34106  1  0  0  0
 35 44  2  0  0  0
 35 45  1  0  0  0
 35 68  1  0  0  0
 36 56  1  0  0  0
 36107  1  0  0  0
 37 39  1  0  0  0
 37 47  1  0  0  0
 37 66  1  0  0  0
 37108  1  0  0  0
 38 43  2  0  0  0
 38 46  1  0  0  0
 38 47  1  0  0  0
 39 64  1  0  0  0
 39 67  2  0  0  0
 40 52  1  0  0  0
 40 53  2  0  0  0
 40 58  1  0  0  0
 41109  1  0  0  0
 41110  1  0  0  0
 41111  1  0  0  0
 41 48  1  0  0  0
 42 43  1  0  0  0
 42 66  1  0  0  0
 42112  1  0  0  0
 42113  1  0  0  0
 43 44  1  0  0  0
 44114  1  0  0  0
 45 46  2  0  0  0
 45115  1  0  0  0
 46116  1  0  0  0
 47117  1  0  0  0
 47118  1  0  0  0
 48 56  1  0  0  0
 48 65  1  0  0  0
 48119  1  0  0  0
 49 50  1  0  0  0
 49 53  1  0  0  0
 49 64  1  0  0  0
 49120  1  0  0  0
 50 51  1  0  0  0
 50121  1  0  0  0
 50122  1  0  0  0
 51 52  1  0  0  0
 51123  1  0  0  0
 51124  1  0  0  0
 52125  1  0  0  0
 52126  1  0  0  0
 53 54  1  0  0  0
 54 55  2  0  0  0
 54127  1  0  0  0
 55 57  1  0  0  0
 55128  1  0  0  0
 56 69  2  0  0  0
 57 58  2  0  0  0
 57129  1  0  0  0
 58130  1  0  0  0
 59 60  1  0  0  0
 59 61  1  0  0  0
 59 62  1  0  0  0
 60131  1  0  0  0
 60132  1  0  0  0
 60133  1  0  0  0
 61134  1  0  0  0
 61135  1  0  0  0
 61136  1  0  0  0
 62137  1  0  0  0
 62138  1  0  0  0
 62139  1  0  0  0
 63 65  1  0  0  0
 63140  1  0  0  0
 63141  1  0  0  0
 63142  1  0  0  0
 64143  1  0  0  0
 65144  1  0  0  0
 68 80  1  0  0  0
 71 72  2  0  0  0
 71 73  1  0  0  0
 71145  1  0  0  0
 72 76  1  0  0  0
 72146  1  0  0  0
 73 74  2  0  0  0
 73 83  1  0  0  0
 74 75  1  0  0  0
 74 81  1  0  0  0
 75 76  2  0  0  0
 75 82  1  0  0  0
 76 84  1  0  0  0
 77 78  2  0  0  0
 77 80  1  0  0  0
 77 85  1  0  0  0
 78147  1  0  0  0
 78148  1  0  0  0
 79 80  1  0  0  0
 79 85  1  0  0  0
 79149  1  0  0  0
 79150  1  0  0  0
 80151  1  0  0  0
 81152  1  0  0  0
 81153  1  0  0  0
 81154  1  0  0  0
 82155  1  0  0  0
 82156  1  0  0  0
 82157  1  0  0  0
 83158  1  0  0  0
 83159  1  0  0  0
 83 85  1  0  0  0
 84160  1  0  0  0
 85161  1  0  0  0
M  CHG  1  85   1
M  ISO  4   1 100  68 101  80 101  84 100
M  END
> <chiral flag>
0

> <version>
0

> <s_m_source_file>
/data/baiqing/PycharmProjects/Reinvent-master-3.2/result/LINK_invent/BTK/process_docking_weight1_custom_product_contain_oxygen_bond_distance_aromatic_linkinvent_7_9_3/rearranged_h_0031.sdf

> <i_m_source_file_index>
35

> <r_mmod_Potential_Energy-OPLS-2005>
27.2483997344971

> <r_mmod_Stretch_Energy-OPLS-2005>
122.350570678711

> <r_mmod_Bend_Energy-OPLS-2005>
213.90803527832

> <r_mmod_Torsional_Energy-OPLS-2005>
240.929397583008

> <r_mmod_Improper_Torsional_Energy-OPLS-2005>
6.45304393768311

> <r_mmod_Van_der_Waal_Energy-OPLS-2005>
142.022979736328

> <r_mmod_Electrostatic_Energy-OPLS-2005>
-330.836273193359

> <r_mmod_Solvation_Energy-OPLS-2005>
-455.755859375

> <b_mmod_Minimization_Converged-OPLS-2005>
0

> <r_mmod_RMS_Derivative-OPLS-2005>
4.00251626968384

$$$$
35
                    3D
 Structure written by MMmdl.
155163  0  0  1  0            999 V2000
  -30.3944  -15.3534   20.4025 C   0  0  0  0  0  0
  -30.4388  -12.8753   19.5426 C   0  0  0  0  0  0
  -29.5415  -12.6026   18.3055 C   0  0  0  0  0  0
  -28.0853  -12.3256   18.7181 C   0  0  0  0  0  0
  -27.6082  -13.2917   19.8295 C   0  0  2  0  0  0
  -28.6386  -13.4714   20.9657 C   0  0  0  0  0  0
  -25.2341  -13.8273   20.5776 C   0  0  0  0  0  0
  -24.1728  -13.0453   20.9280 C   0  0  0  0  0  0
  -24.6391  -11.6957   20.8774 C   0  0  0  0  0  0
  -23.9093  -10.4302   21.0401 C   0  0  0  0  0  0
  -24.3644   -9.4203   21.9169 C   0  0  0  0  0  0
  -23.6311   -8.2240   22.0739 C   0  0  0  0  0  0
  -22.4280   -8.0288   21.3547 C   0  0  0  0  0  0
  -21.9932   -9.0256   20.4641 C   0  0  0  0  0  0
  -22.7265  -10.2132   20.3046 C   0  0  0  0  0  0
  -21.6850   -6.0738   22.5279 C   0  0  0  0  0  0
  -21.4009   -6.5638   23.8216 C   0  0  0  0  0  0
  -21.3654   -5.6792   24.9182 C   0  0  0  0  0  0
  -21.6045   -4.3056   24.7233 C   0  0  0  0  0  0
  -21.8815   -3.8148   23.4352 C   0  0  0  0  0  0
  -21.9190   -4.6963   22.3406 C   0  0  0  0  0  0
  -22.7731  -13.5161   21.1929 C   0  0  0  0  0  0
  -22.1660   -4.2155   21.0984 F   0  0  0  0  0  0
  -21.5627   -3.4538   25.7744 F   0  0  0  0  0  0
  -29.8571  -14.0220   20.3484 N   0  0  0  0  0  0
  -26.2798  -12.9599   20.3242 N   0  0  0  0  0  0
  -25.9342  -11.6683   20.5718 N   0  0  0  0  0  0
  -22.0418  -12.8145   22.0487 N   0  0  0  0  0  0
  -25.3923  -15.2037   20.4196 N   0  0  0  0  0  0
  -31.6104  -15.3551   20.1592 O   0  0  0  0  0  0
  -21.6642   -6.8894   21.4242 O   0  0  0  0  0  0
  -22.3397  -14.5445   20.6739 O   0  0  0  0  0  0
  -24.6598  -31.8251   23.1818 C   0  0  0  0  0  0
  -25.9337  -32.4587   23.8239 C   0  0  1  0  0  0
  -27.1917  -26.8634   20.2617 C   0  0  0  0  0  0
  -25.5997  -33.8400   24.2137 N   0  0  0  0  0  0
  -23.4786  -30.4356   21.5296 C   0  0  2  0  0  0
  -24.9436  -28.8164   20.1354 C   0  0  0  0  0  0
  -22.7688  -29.4406   22.4846 C   0  0  0  0  0  0
  -18.0306  -28.1344   22.8482 C   0  0  0  0  0  0
  -24.1486  -36.7146   23.2666 C   0  0  0  0  0  0
  -26.0520  -30.6038   21.4440 C   0  0  0  0  0  0
  -26.1204  -29.1856   20.8001 C   0  0  0  0  0  0
  -27.2425  -28.2293   20.8462 C   0  0  0  0  0  0
  -26.0082  -26.6820   19.5102 C   0  0  0  0  0  0
  -24.9156  -27.5850   19.4639 C   0  0  0  0  0  0
  -23.7411  -29.7642   20.1524 C   0  0  0  0  0  0
  -25.4145  -36.2944   24.0309 C   0  0  1  0  0  0
  -20.5949  -28.3703   23.1190 C   0  0  2  0  0  0
  -20.6806  -26.9384   22.5397 C   0  0  0  0  0  0
  -19.5768  -26.6343   21.5212 C   0  0  0  0  0  0
  -18.1946  -26.7880   22.1616 C   0  0  0  0  0  0
  -19.1575  -28.8850   23.2799 C   0  0  0  0  0  0
  -18.9487  -30.1454   23.8806 C   0  0  0  0  0  0
  -17.6483  -30.6572   24.0508 C   0  0  0  0  0  0
  -25.9100  -34.9324   23.5050 C   0  0  0  0  0  0
  -16.5377  -29.9029   23.6353 C   0  0  0  0  0  0
  -16.7288  -28.6436   23.0400 C   0  0  0  0  0  0
  -26.4604  -31.6572   25.0797 C   0  0  0  0  0  0
  -25.3741  -31.3776   26.1447 C   0  0  0  0  0  0
  -27.0600  -30.2936   24.6691 C   0  0  0  0  0  0
  -27.6046  -32.4465   25.7596 C   0  0  0  0  0  0
  -27.5553  -37.1728   24.8481 C   0  0  0  0  0  0
  -21.4371  -29.3003   22.3573 N   0  0  0  0  0  0
  -26.4268  -37.3712   23.9432 N   0  0  0  0  0  0
  -24.7505  -30.9841   22.1027 N   0  0  0  0  0  0
  -23.4218  -28.7950   23.3102 O   0  0  0  0  0  0
  -28.1574  -25.7179   20.1645 O   0  0  0  0  0  0
  -26.5662  -34.8813   22.4625 O   0  0  0  0  0  0
  -23.5670  -32.1279   23.6858 O   0  0  0  0  0  0
  -31.0462  -18.7579   20.0525 C   0  0  0  0  0  0
  -31.3429  -20.1436   19.9139 C   0  0  0  0  0  0
  -28.8207  -19.4791   20.6486 C   0  0  0  0  0  0
  -29.0783  -21.0240   20.4494 C   0  0  0  0  0  0
  -29.7796  -18.2640   20.4393 C   0  0  0  0  0  0
  -30.4308  -21.2181   20.1031 C   0  0  0  0  0  0
  -28.2938  -24.2003   20.9376 C   0  0  0  0  0  0
  -27.4628  -19.0363   21.1711 C   0  0  0  0  0  0
  -26.6849  -22.0813   20.8376 C   0  0  0  0  0  0
  -28.1015  -22.5247   20.3636 C   0  0  2  0  0  0
  -29.6069  -16.6290   20.5587 N   0  0  0  0  0  0
  -25.5680  -23.0540   20.8295 N   0  3  0  0  0  0
  -28.4435  -24.2561   22.1591 O   0  0  0  0  0  0
  -30.8753  -22.4827   19.8997 F   0  0  0  0  0  0
  -31.4480  -13.1016   19.1983 H   0  0  0  0  0  0
  -30.5398  -11.9779   20.1559 H   0  0  0  0  0  0
  -29.9302  -11.7643   17.7275 H   0  0  0  0  0  0
  -29.5704  -13.4726   17.6475 H   0  0  0  0  0  0
  -28.0253  -11.2976   19.0739 H   0  0  0  0  0  0
  -27.4273  -12.3898   17.8495 H   0  0  0  0  0  0
  -27.5173  -14.2590   19.3347 H   0  0  0  0  0  0
  -28.8296  -12.5273   21.4809 H   0  0  0  0  0  0
  -28.2618  -14.1649   21.7185 H   0  0  0  0  0  0
  -25.2781   -9.5673   22.4765 H   0  0  0  0  0  0
  -24.0014   -7.4622   22.7454 H   0  0  0  0  0  0
  -21.0864   -8.8766   19.8962 H   0  0  0  0  0  0
  -22.3696  -10.9674   19.6167 H   0  0  0  0  0  0
  -21.1992   -7.6146   23.9723 H   0  0  0  0  0  0
  -21.1480   -6.0524   25.9088 H   0  0  0  0  0  0
  -22.0598   -2.7611   23.2850 H   0  0  0  0  0  0
  -22.4074  -11.9835   22.4914 H   0  0  0  0  0  0
  -21.0999  -13.1108   22.2667 H   0  0  0  0  0  0
  -24.6083  -15.8408   20.5168 H   0  0  0  0  0  0
  -26.2058  -15.6385   20.0048 H   0  0  0  0  0  0
  -26.7372  -32.5097   23.0907 H   0  0  0  0  0  0
  -25.0210  -33.9558   25.0332 H   0  0  0  0  0  0
  -22.7905  -31.2689   21.3625 H   0  0  0  0  0  0
  -23.3772  -35.9440   23.3339 H   0  0  0  0  0  0
  -24.3525  -36.8803   22.2062 H   0  0  0  0  0  0
  -23.7184  -37.6306   23.6737 H   0  0  0  0  0  0
  -26.2680  -31.3428   20.6706 H   0  0  0  0  0  0
  -26.8875  -30.6485   22.1284 H   0  0  0  0  0  0
  -28.1273  -28.5059   21.4025 H   0  0  0  0  0  0
  -25.9087  -25.7635   18.9491 H   0  0  0  0  0  0
  -24.0364  -27.3161   18.8923 H   0  0  0  0  0  0
  -23.9277  -30.5439   19.4118 H   0  0  0  0  0  0
  -22.8500  -29.2409   19.8061 H   0  0  0  0  0  0
  -25.1365  -36.1734   25.0787 H   0  0  0  0  0  0
  -20.9976  -28.3247   24.1339 H   0  0  0  0  0  0
  -20.5720  -26.2306   23.3642 H   0  0  0  0  0  0
  -21.6667  -26.7397   22.1177 H   0  0  0  0  0  0
  -19.6931  -25.6243   21.1281 H   0  0  0  0  0  0
  -19.6673  -27.3120   20.6707 H   0  0  0  0  0  0
  -17.4249  -26.6635   21.3992 H   0  0  0  0  0  0
  -18.0250  -26.0011   22.8978 H   0  0  0  0  0  0
  -19.7979  -30.7269   24.2141 H   0  0  0  0  0  0
  -17.5050  -31.6253   24.5101 H   0  0  0  0  0  0
  -15.5376  -30.2882   23.7770 H   0  0  0  0  0  0
  -15.8682  -28.0713   22.7204 H   0  0  0  0  0  0
  -24.5922  -30.7183   25.7687 H   0  0  0  0  0  0
  -24.8933  -32.2942   26.4847 H   0  0  0  0  0  0
  -25.7931  -30.8908   27.0273 H   0  0  0  0  0  0
  -26.3360  -29.6514   24.1661 H   0  0  0  0  0  0
  -27.4025  -29.7422   25.5465 H   0  0  0  0  0  0
  -27.9340  -30.4085   24.0277 H   0  0  0  0  0  0
  -27.2584  -33.3833   26.1971 H   0  0  0  0  0  0
  -28.3895  -32.6955   25.0456 H   0  0  0  0  0  0
  -28.0685  -31.8790   26.5669 H   0  0  0  0  0  0
  -28.2581  -38.0020   24.7559 H   0  0  0  0  0  0
  -28.1053  -36.2554   24.6337 H   0  0  0  0  0  0
  -27.2254  -37.1379   25.8877 H   0  0  0  0  0  0
  -20.9658  -29.8707   21.6679 H   0  0  0  0  0  0
  -26.0114  -38.2766   24.1461 H   0  0  0  0  0  0
  -31.8506  -18.0660   19.8516 H   0  0  0  0  0  0
  -32.3474  -20.4054   19.6187 H   0  0  0  0  0  0
  -26.6822  -19.1267   20.4162 H   0  0  0  0  0  0
  -27.1796  -19.5922   22.0647 H   0  0  0  0  0  0
  -27.4830  -17.9923   21.4794 H   0  0  0  0  0  0
  -26.7666  -21.7200   21.8628 H   0  0  0  0  0  0
  -26.3550  -21.2511   20.2201 H   0  0  0  0  0  0
  -28.0284  -22.6916   19.2893 H   0  0  0  0  0  0
  -28.6568  -16.3796   20.7895 H   0  0  0  0  0  0
  -25.7221  -23.8072   21.4790 H   0  0  0  0  0  0
  -24.7448  -22.5648   21.1404 H   0  0  0  0  0  0
  -25.3671  -23.4129   19.9134 H   0  0  0  0  0  0
  1 25  1  0  0  0
  1 30  2  0  0  0
  1 81  1  0  0  0
  2  3  1  0  0  0
  2 25  1  0  0  0
  2 85  1  0  0  0
  2 86  1  0  0  0
  3  4  1  0  0  0
  3 87  1  0  0  0
  3 88  1  0  0  0
  4  5  1  0  0  0
  4 89  1  0  0  0
  4 90  1  0  0  0
  5  6  1  0  0  0
  5 26  1  0  0  0
  5 91  1  0  0  0
  6 25  1  0  0  0
  6 92  1  0  0  0
  6 93  1  0  0  0
  7  8  2  0  0  0
  7 26  1  0  0  0
  7 29  1  0  0  0
  8  9  1  0  0  0
  8 22  1  0  0  0
  9 10  1  0  0  0
  9 27  2  0  0  0
 10 11  2  0  0  0
 10 15  1  0  0  0
 11 12  1  0  0  0
 11 94  1  0  0  0
 12 13  2  0  0  0
 12 95  1  0  0  0
 13 14  1  0  0  0
 13 31  1  0  0  0
 14 15  2  0  0  0
 14 96  1  0  0  0
 15 97  1  0  0  0
 16 17  2  0  0  0
 16 21  1  0  0  0
 16 31  1  0  0  0
 17 18  1  0  0  0
 17 98  1  0  0  0
 18 19  2  0  0  0
 18 99  1  0  0  0
 19 20  1  0  0  0
 19 24  1  0  0  0
 20 21  2  0  0  0
 20100  1  0  0  0
 21 23  1  0  0  0
 22 28  1  0  0  0
 22 32  2  0  0  0
 26 27  1  0  0  0
 28101  1  0  0  0
 28102  1  0  0  0
 29103  1  0  0  0
 29104  1  0  0  0
 33 34  1  0  0  0
 33 66  1  0  0  0
 33 70  2  0  0  0
 34 36  1  0  0  0
 34 59  1  0  0  0
 34105  1  0  0  0
 35 44  2  0  0  0
 35 45  1  0  0  0
 35 68  1  0  0  0
 36 56  1  0  0  0
 36106  1  0  0  0
 37 39  1  0  0  0
 37 47  1  0  0  0
 37 66  1  0  0  0
 37107  1  0  0  0
 38 43  2  0  0  0
 38 46  1  0  0  0
 38 47  1  0  0  0
 39 64  1  0  0  0
 39 67  2  0  0  0
 40 52  1  0  0  0
 40 53  2  0  0  0
 40 58  1  0  0  0
 41108  1  0  0  0
 41109  1  0  0  0
 41110  1  0  0  0
 41 48  1  0  0  0
 42 43  1  0  0  0
 42 66  1  0  0  0
 42111  1  0  0  0
 42112  1  0  0  0
 43 44  1  0  0  0
 44113  1  0  0  0
 45 46  2  0  0  0
 45114  1  0  0  0
 46115  1  0  0  0
 47116  1  0  0  0
 47117  1  0  0  0
 48 56  1  0  0  0
 48 65  1  0  0  0
 48118  1  0  0  0
 49 50  1  0  0  0
 49 53  1  0  0  0
 49 64  1  0  0  0
 49119  1  0  0  0
 50 51  1  0  0  0
 50120  1  0  0  0
 50121  1  0  0  0
 51 52  1  0  0  0
 51122  1  0  0  0
 51123  1  0  0  0
 52124  1  0  0  0
 52125  1  0  0  0
 53 54  1  0  0  0
 54 55  2  0  0  0
 54126  1  0  0  0
 55 57  1  0  0  0
 55127  1  0  0  0
 56 69  2  0  0  0
 57 58  2  0  0  0
 57128  1  0  0  0
 58129  1  0  0  0
 59 60  1  0  0  0
 59 61  1  0  0  0
 59 62  1  0  0  0
 60130  1  0  0  0
 60131  1  0  0  0
 60132  1  0  0  0
 61133  1  0  0  0
 61134  1  0  0  0
 61135  1  0  0  0
 62136  1  0  0  0
 62137  1  0  0  0
 62138  1  0  0  0
 63 65  1  0  0  0
 63139  1  0  0  0
 63140  1  0  0  0
 63141  1  0  0  0
 64142  1  0  0  0
 65143  1  0  0  0
 68 77  1  0  0  0
 71 72  2  0  0  0
 71 75  1  0  0  0
 71144  1  0  0  0
 72 76  1  0  0  0
 72145  1  0  0  0
 73 74  1  0  0  0
 73 75  2  0  0  0
 73 78  1  0  0  0
 74 76  2  0  0  0
 74 80  1  0  0  0
 75 81  1  0  0  0
 76 84  1  0  0  0
 77 80  1  0  0  0
 77 83  2  0  0  0
 78146  1  0  0  0
 78147  1  0  0  0
 78148  1  0  0  0
 79 82  1  0  0  0
 79149  1  0  0  0
 79150  1  0  0  0
 79 80  1  0  0  0
 80151  1  0  0  0
 81152  1  0  0  0
 82153  1  0  0  0
 82154  1  0  0  0
 82155  1  0  0  0
M  CHG  1  82   1
M  ISO  4   1 100  68 101  77 101  81 100
M  END
> <chiral flag>
0

> <version>
0

> <s_m_source_file>
/data/baiqing/PycharmProjects/Reinvent-master-3.2/result/LINK_invent/BTK/process_docking_weight1_custom_product_contain_oxygen_bond_distance_aromatic_linkinvent_7_9_3/rearranged_h_0031.sdf

> <i_m_source_file_index>
36

> <r_mmod_Potential_Energy-OPLS-2005>
1287.94189453125

> <r_mmod_Stretch_Energy-OPLS-2005>
721.155395507812

> <r_mmod_Bend_Energy-OPLS-2005>
480.874542236328

> <r_mmod_Torsional_Energy-OPLS-2005>
252.360168457031

> <r_mmod_Improper_Torsional_Energy-OPLS-2005>
6.37229347229004

> <r_mmod_Van_der_Waal_Energy-OPLS-2005>
127.199729919434

> <r_mmod_Electrostatic_Energy-OPLS-2005>
-327.580322265625

> <r_mmod_Solvation_Energy-OPLS-2005>
-525.526550292969

> <b_mmod_Minimization_Converged-OPLS-2005>
0

> <r_mmod_RMS_Derivative-OPLS-2005>
5.46562433242798

$$$$
36
                    3D
 Structure written by MMmdl.
163172  0  0  1  0            999 V2000
  -30.7353  -14.4905   20.5944 C   0  0  0  0  0  0
  -30.4180  -12.3326   19.4311 C   0  0  0  0  0  0
  -29.4921  -12.5018   18.2124 C   0  0  0  0  0  0
  -28.0208  -12.3419   18.6350 C   0  0  0  0  0  0
  -27.6545  -13.2136   19.8651 C   0  0  2  0  0  0
  -28.6949  -13.0499   20.9951 C   0  0  0  0  0  0
  -25.2562  -13.8190   20.5700 C   0  0  0  0  0  0
  -24.1842  -13.0450   20.9211 C   0  0  0  0  0  0
  -24.6409  -11.6915   20.8746 C   0  0  0  0  0  0
  -23.9083  -10.4288   21.0413 C   0  0  0  0  0  0
  -24.3630   -9.4194   21.9195 C   0  0  0  0  0  0
  -23.6293   -8.2245   22.0761 C   0  0  0  0  0  0
  -22.4272   -8.0300   21.3556 C   0  0  0  0  0  0
  -21.9916   -9.0272   20.4657 C   0  0  0  0  0  0
  -22.7256  -10.2140   20.3060 C   0  0  0  0  0  0
  -21.6837   -6.0752   22.5297 C   0  0  0  0  0  0
  -21.4014   -6.5658   23.8229 C   0  0  0  0  0  0
  -21.3649   -5.6803   24.9186 C   0  0  0  0  0  0
  -21.6026   -4.3068   24.7228 C   0  0  0  0  0  0
  -21.8814   -3.8166   23.4347 C   0  0  0  0  0  0
  -21.9194   -4.6982   22.3408 C   0  0  0  0  0  0
  -22.7855  -13.5239   21.1891 C   0  0  0  0  0  0
  -22.1654   -4.2177   21.0975 F   0  0  0  0  0  0
  -21.5618   -3.4544   25.7730 F   0  0  0  0  0  0
  -30.0253  -13.3406   20.4340 N   0  0  0  0  0  0
  -26.2992  -12.9365   20.3329 N   0  0  0  0  0  0
  -25.9329  -11.6518   20.5766 N   0  0  0  0  0  0
  -22.0471  -12.8230   22.0420 N   0  0  0  0  0  0
  -25.4276  -15.1909   20.4094 N   0  0  0  0  0  0
  -31.8585  -14.6365   20.1036 O   0  0  0  0  0  0
  -21.6628   -6.8903   21.4262 O   0  0  0  0  0  0
  -22.3548  -14.5557   20.6744 O   0  0  0  0  0  0
  -24.6115  -31.8651   23.2106 C   0  0  0  0  0  0
  -25.8988  -32.4804   23.8369 C   0  0  1  0  0  0
  -27.2064  -27.4022   20.0920 C   0  0  0  0  0  0
  -25.5816  -33.8601   24.2276 N   0  0  0  0  0  0
  -23.4002  -30.4935   21.5499 C   0  0  2  0  0  0
  -24.8416  -28.9641   20.1094 C   0  0  0  0  0  0
  -22.7384  -29.4659   22.4981 C   0  0  0  0  0  0
  -18.0258  -28.1380   22.8469 C   0  0  0  0  0  0
  -24.1516  -36.7354   23.2641 C   0  0  0  0  0  0
  -25.9312  -30.8244   21.3670 C   0  0  0  0  0  0
  -26.0013  -29.4555   20.7168 C   0  0  0  0  0  0
  -27.1834  -28.6757   20.7148 C   0  0  0  0  0  0
  -26.0387  -26.9625   19.4306 C   0  0  0  0  0  0
  -24.8570  -27.7178   19.4647 C   0  0  0  0  0  0
  -23.6088  -29.8350   20.1619 C   0  0  0  0  0  0
  -25.4106  -36.3085   24.0338 C   0  0  1  0  0  0
  -20.5831  -28.3652   23.1347 C   0  0  2  0  0  0
  -20.6742  -26.9395   22.5418 C   0  0  0  0  0  0
  -19.5718  -26.6388   21.5219 C   0  0  0  0  0  0
  -18.1895  -26.7923   22.1622 C   0  0  0  0  0  0
  -19.1488  -28.8831   23.2919 C   0  0  0  0  0  0
  -18.9420  -30.1448   23.8909 C   0  0  0  0  0  0
  -17.6405  -30.6567   24.0576 C   0  0  0  0  0  0
  -25.9033  -34.9463   23.5133 C   0  0  0  0  0  0
  -16.5310  -29.9058   23.6350 C   0  0  0  0  0  0
  -16.7244  -28.6509   23.0294 C   0  0  0  0  0  0
  -26.4459  -31.6580   25.0662 C   0  0  0  0  0  0
  -25.3774  -31.3687   26.1485 C   0  0  0  0  0  0
  -27.0239  -30.3023   24.6036 C   0  0  0  0  0  0
  -27.6180  -32.4228   25.7246 C   0  0  0  0  0  0
  -27.5596  -37.1841   24.8479 C   0  0  0  0  0  0
  -21.4096  -29.3051   22.3770 N   0  0  0  0  0  0
  -26.4305  -37.3760   23.9413 N   0  0  0  0  0  0
  -24.6652  -31.0762   22.1016 N   0  0  0  0  0  0
  -23.4159  -28.8205   23.3022 O   0  0  0  0  0  0
  -28.3516  -26.6324   20.1765 O   0  0  0  0  0  0
  -26.5664  -34.8908   22.4745 O   0  0  0  0  0  0
  -23.5302  -32.1396   23.7505 O   0  0  0  0  0  0
  -30.7570  -18.8064   20.4936 C   0  0  0  0  0  0
  -29.5090  -20.1905   22.5843 C   0  0  0  0  0  0
  -30.6097  -20.2142   20.4163 C   0  0  0  0  0  0
  -30.3509  -18.0813   21.6386 C   0  0  0  0  0  0
  -30.0458  -20.9299   21.5031 C   0  0  0  0  0  0
  -29.6587  -18.7847   22.6585 C   0  0  0  0  0  0
  -27.2500  -24.2706   20.2677 C   0  0  0  0  0  0
  -27.9579  -22.9466   20.5862 C   0  0  0  0  0  0
  -29.6326  -24.6009   20.4549 C   0  0  0  0  0  0
  -28.3788  -25.2312   19.7983 C   0  0  2  0  0  0
  -31.1610  -20.9513   19.2070 C   0  0  0  0  0  0
  -30.8717  -16.6425   21.8560 C   0  0  0  0  0  0
  -30.2480  -22.4546   21.6433 C   0  0  0  0  0  0
  -30.1425  -15.4970   21.2715 N   0  0  0  0  0  0
  -29.1826  -23.4156   21.2347 N   0  3  2  0  0  0
  -29.0783  -17.9685   24.0677 Cl  0  0  0  0  0  0
  -31.4629  -12.4212   19.1248 H   0  0  0  0  0  0
  -30.3211  -11.3313   19.8529 H   0  0  0  0  0  0
  -29.7398  -11.7686   17.4433 H   0  0  0  0  0  0
  -29.6475  -13.4830   17.7612 H   0  0  0  0  0  0
  -27.8641  -11.2899   18.8780 H   0  0  0  0  0  0
  -27.3554  -12.5609   17.8002 H   0  0  0  0  0  0
  -27.6835  -14.2506   19.5336 H   0  0  0  0  0  0
  -28.6770  -12.0363   21.3955 H   0  0  0  0  0  0
  -28.4484  -13.6980   21.8372 H   0  0  0  0  0  0
  -25.2760   -9.5665   22.4787 H   0  0  0  0  0  0
  -23.9989   -7.4621   22.7468 H   0  0  0  0  0  0
  -21.0848   -8.8817   19.8947 H   0  0  0  0  0  0
  -22.3734  -10.9700   19.6185 H   0  0  0  0  0  0
  -21.2020   -7.6167   23.9754 H   0  0  0  0  0  0
  -21.1460   -6.0520   25.9091 H   0  0  0  0  0  0
  -22.0600   -2.7631   23.2839 H   0  0  0  0  0  0
  -22.4051  -11.9877   22.4810 H   0  0  0  0  0  0
  -21.1105  -13.1314   22.2620 H   0  0  0  0  0  0
  -24.6629  -15.8469   20.5231 H   0  0  0  0  0  0
  -26.2833  -15.6292   20.0939 H   0  0  0  0  0  0
  -26.7036  -32.5551   23.1125 H   0  0  0  0  0  0
  -24.9824  -33.9749   25.0315 H   0  0  0  0  0  0
  -22.6890  -31.3122   21.4163 H   0  0  0  0  0  0
  -23.3718  -35.9760   23.3293 H   0  0  0  0  0  0
  -24.3652  -36.8968   22.2066 H   0  0  0  0  0  0
  -23.7357  -37.6590   23.6670 H   0  0  0  0  0  0
  -26.0287  -31.5833   20.5905 H   0  0  0  0  0  0
  -26.8266  -30.8906   21.9743 H   0  0  0  0  0  0
  -28.0748  -29.0400   21.2098 H   0  0  0  0  0  0
  -26.0115  -26.0457   18.8674 H   0  0  0  0  0  0
  -23.9715  -27.3402   18.9745 H   0  0  0  0  0  0
  -23.7223  -30.6151   19.4084 H   0  0  0  0  0  0
  -22.7298  -29.2637   19.8628 H   0  0  0  0  0  0
  -25.1284  -36.1957   25.0819 H   0  0  0  0  0  0
  -20.9904  -28.3201   24.1476 H   0  0  0  0  0  0
  -20.5657  -26.2232   23.3569 H   0  0  0  0  0  0
  -21.6612  -26.7487   22.1186 H   0  0  0  0  0  0
  -19.6891  -25.6300   21.1252 H   0  0  0  0  0  0
  -19.6651  -27.3213   20.6749 H   0  0  0  0  0  0
  -17.4159  -26.6668   21.4038 H   0  0  0  0  0  0
  -18.0289  -26.0068   22.9016 H   0  0  0  0  0  0
  -19.7889  -30.7293   24.2241 H   0  0  0  0  0  0
  -17.4956  -31.6248   24.5173 H   0  0  0  0  0  0
  -15.5294  -30.2925   23.7684 H   0  0  0  0  0  0
  -15.8666  -28.0881   22.6877 H   0  0  0  0  0  0
  -24.5876  -30.7071   25.7882 H   0  0  0  0  0  0
  -24.9049  -32.2825   26.5104 H   0  0  0  0  0  0
  -25.8199  -30.8758   27.0147 H   0  0  0  0  0  0
  -27.3961  -29.7201   25.4478 H   0  0  0  0  0  0
  -27.8625  -30.4379   23.9209 H   0  0  0  0  0  0
  -26.2741  -29.6879   24.1057 H   0  0  0  0  0  0
  -27.3040  -33.3668   26.1676 H   0  0  0  0  0  0
  -28.3950  -32.6532   24.9940 H   0  0  0  0  0  0
  -28.0846  -31.8364   26.5170 H   0  0  0  0  0  0
  -28.2581  -38.0158   24.7446 H   0  0  0  0  0  0
  -28.1092  -36.2669   24.6350 H   0  0  0  0  0  0
  -27.2316  -37.1553   25.8883 H   0  0  0  0  0  0
  -20.9207  -29.8785   21.7040 H   0  0  0  0  0  0
  -26.0168  -38.2846   24.1360 H   0  0  0  0  0  0
  -31.2862  -18.2889   19.7046 H   0  0  0  0  0  0
  -29.0694  -20.7089   23.4261 H   0  0  0  0  0  0
  -26.7700  -24.6601   21.1660 H   0  0  0  0  0  0
  -26.4722  -24.1044   19.5235 H   0  0  0  0  0  0
  -28.1995  -22.4053   19.6688 H   0  0  0  0  0  0
  -27.3664  -22.2949   21.2305 H   0  0  0  0  0  0
  -30.1552  -25.3012   21.1066 H   0  0  0  0  0  0
  -30.3295  -24.3042   19.6714 H   0  0  0  0  0  0
  -28.4779  -25.1676   18.7126 H   0  0  0  0  0  0
  -31.3239  -20.2774   18.3654 H   0  0  0  0  0  0
  -32.1121  -21.4329   19.4417 H   0  0  0  0  0  0
  -30.4615  -21.7209   18.8813 H   0  0  0  0  0  0
  -30.9723  -16.4487   22.9248 H   0  0  0  0  0  0
  -31.9059  -16.6469   21.5091 H   0  0  0  0  0  0
  -31.1834  -22.7330   21.1604 H   0  0  0  0  0  0
  -30.4414  -22.6541   22.6974 H   0  0  0  0  0  0
  -29.1939  -15.3462   21.5794 H   0  0  0  0  0  0
  -28.8475  -23.7871   22.1118 H   0  0  0  0  0  0
  1 25  1  0  0  0
  1 30  2  0  0  0
  1 84  1  0  0  0
  2  3  1  0  0  0
  2 25  1  0  0  0
  2 87  1  0  0  0
  2 88  1  0  0  0
  3  4  1  0  0  0
  3 89  1  0  0  0
  3 90  1  0  0  0
  4  5  1  0  0  0
  4 91  1  0  0  0
  4 92  1  0  0  0
  5  6  1  0  0  0
  5 26  1  0  0  0
  5 93  1  0  0  0
  6 25  1  0  0  0
  6 94  1  0  0  0
  6 95  1  0  0  0
  7  8  2  0  0  0
  7 26  1  0  0  0
  7 29  1  0  0  0
  8  9  1  0  0  0
  8 22  1  0  0  0
  9 10  1  0  0  0
  9 27  2  0  0  0
 10 11  2  0  0  0
 10 15  1  0  0  0
 11 12  1  0  0  0
 11 96  1  0  0  0
 12 13  2  0  0  0
 12 97  1  0  0  0
 13 14  1  0  0  0
 13 31  1  0  0  0
 14 15  2  0  0  0
 14 98  1  0  0  0
 15 99  1  0  0  0
 16 17  2  0  0  0
 16 21  1  0  0  0
 16 31  1  0  0  0
 17 18  1  0  0  0
 17100  1  0  0  0
 18 19  2  0  0  0
 18101  1  0  0  0
 19 20  1  0  0  0
 19 24  1  0  0  0
 20 21  2  0  0  0
 20102  1  0  0  0
 21 23  1  0  0  0
 22 28  1  0  0  0
 22 32  2  0  0  0
 26 27  1  0  0  0
 28103  1  0  0  0
 28104  1  0  0  0
 29105  1  0  0  0
 29106  1  0  0  0
 33 34  1  0  0  0
 33 66  1  0  0  0
 33 70  2  0  0  0
 34 36  1  0  0  0
 34 59  1  0  0  0
 34107  1  0  0  0
 35 44  2  0  0  0
 35 45  1  0  0  0
 35 68  1  0  0  0
 36 56  1  0  0  0
 36108  1  0  0  0
 37 39  1  0  0  0
 37 47  1  0  0  0
 37 66  1  0  0  0
 37109  1  0  0  0
 38 43  2  0  0  0
 38 46  1  0  0  0
 38 47  1  0  0  0
 39 64  1  0  0  0
 39 67  2  0  0  0
 40 52  1  0  0  0
 40 53  2  0  0  0
 40 58  1  0  0  0
 41110  1  0  0  0
 41111  1  0  0  0
 41112  1  0  0  0
 41 48  1  0  0  0
 42 43  1  0  0  0
 42 66  1  0  0  0
 42113  1  0  0  0
 42114  1  0  0  0
 43 44  1  0  0  0
 44115  1  0  0  0
 45 46  2  0  0  0
 45116  1  0  0  0
 46117  1  0  0  0
 47118  1  0  0  0
 47119  1  0  0  0
 48 56  1  0  0  0
 48 65  1  0  0  0
 48120  1  0  0  0
 49 50  1  0  0  0
 49 53  1  0  0  0
 49 64  1  0  0  0
 49121  1  0  0  0
 50 51  1  0  0  0
 50122  1  0  0  0
 50123  1  0  0  0
 51 52  1  0  0  0
 51124  1  0  0  0
 51125  1  0  0  0
 52126  1  0  0  0
 52127  1  0  0  0
 53 54  1  0  0  0
 54 55  2  0  0  0
 54128  1  0  0  0
 55 57  1  0  0  0
 55129  1  0  0  0
 56 69  2  0  0  0
 57 58  2  0  0  0
 57130  1  0  0  0
 58131  1  0  0  0
 59 60  1  0  0  0
 59 61  1  0  0  0
 59 62  1  0  0  0
 60132  1  0  0  0
 60133  1  0  0  0
 60134  1  0  0  0
 61135  1  0  0  0
 61136  1  0  0  0
 61137  1  0  0  0
 62138  1  0  0  0
 62139  1  0  0  0
 62140  1  0  0  0
 63 65  1  0  0  0
 63141  1  0  0  0
 63142  1  0  0  0
 63143  1  0  0  0
 64144  1  0  0  0
 65145  1  0  0  0
 68 80  1  0  0  0
 71 73  2  0  0  0
 71 74  1  0  0  0
 71146  1  0  0  0
 72 75  2  0  0  0
 72 76  1  0  0  0
 72147  1  0  0  0
 73 75  1  0  0  0
 73 81  1  0  0  0
 74 76  2  0  0  0
 74 82  1  0  0  0
 75 83  1  0  0  0
 76 86  1  0  0  0
 77 78  1  0  0  0
 77 80  1  0  0  0
 77148  1  0  0  0
 77149  1  0  0  0
 78 85  1  0  0  0
 78150  1  0  0  0
 78151  1  0  0  0
 79 80  1  0  0  0
 79 85  1  0  0  0
 79152  1  0  0  0
 79153  1  0  0  0
 80154  1  0  0  0
 81155  1  0  0  0
 81156  1  0  0  0
 81157  1  0  0  0
 82 84  1  0  0  0
 82158  1  0  0  0
 82159  1  0  0  0
 83160  1  0  0  0
 83161  1  0  0  0
 83 85  1  0  0  0
 84162  1  0  0  0
 85163  1  0  0  0
M  CHG  1  85   1
M  ISO  4   1 100  68 101  80 101  84 100
M  END
> <chiral flag>
0

> <version>
0

> <s_m_source_file>
/data/baiqing/PycharmProjects/Reinvent-master-3.2/result/LINK_invent/BTK/process_docking_weight1_custom_product_contain_oxygen_bond_distance_aromatic_linkinvent_7_9_3/rearranged_h_0031.sdf

> <i_m_source_file_index>
37

> <r_mmod_Potential_Energy-OPLS-2005>
-85.9360961914062

> <r_mmod_Stretch_Energy-OPLS-2005>
42.9242057800293

> <r_mmod_Bend_Energy-OPLS-2005>
165.025726318359

> <r_mmod_Torsional_Energy-OPLS-2005>
272.577331542969

> <r_mmod_Improper_Torsional_Energy-OPLS-2005>
5.52482986450195

> <r_mmod_Van_der_Waal_Energy-OPLS-2005>
152.598205566406

> <r_mmod_Electrostatic_Energy-OPLS-2005>
-315.180694580078

> <r_mmod_Solvation_Energy-OPLS-2005>
-430.512756347656

> <b_mmod_Minimization_Converged-OPLS-2005>
0

> <r_mmod_RMS_Derivative-OPLS-2005>
4.02226066589355

$$$$
37
                    3D
 Structure written by MMmdl.
166175  0  0  1  0            999 V2000
  -30.6989  -14.5047   20.5462 C   0  0  0  0  0  0
  -30.4199  -12.3192   19.4276 C   0  0  0  0  0  0
  -29.4970  -12.4985   18.2046 C   0  0  0  0  0  0
  -28.0178  -12.3577   18.6196 C   0  0  0  0  0  0
  -27.6576  -13.2090   19.8662 C   0  0  2  0  0  0
  -28.7016  -13.0213   20.9898 C   0  0  0  0  0  0
  -25.2591  -13.8154   20.5699 C   0  0  0  0  0  0
  -24.1843  -13.0427   20.9202 C   0  0  0  0  0  0
  -24.6396  -11.6901   20.8734 C   0  0  0  0  0  0
  -23.9054  -10.4287   21.0415 C   0  0  0  0  0  0
  -24.3607   -9.4200   21.9182 C   0  0  0  0  0  0
  -23.6277   -8.2245   22.0757 C   0  0  0  0  0  0
  -22.4260   -8.0274   21.3553 C   0  0  0  0  0  0
  -21.9899   -9.0242   20.4659 C   0  0  0  0  0  0
  -22.7232  -10.2121   20.3062 C   0  0  0  0  0  0
  -21.6838   -6.0735   22.5288 C   0  0  0  0  0  0
  -21.4004   -6.5639   23.8218 C   0  0  0  0  0  0
  -21.3664   -5.6799   24.9181 C   0  0  0  0  0  0
  -21.6049   -4.3062   24.7229 C   0  0  0  0  0  0
  -21.8814   -3.8148   23.4353 C   0  0  0  0  0  0
  -21.9189   -4.6967   22.3412 C   0  0  0  0  0  0
  -22.7877  -13.5248   21.1870 C   0  0  0  0  0  0
  -22.1674   -4.2149   21.0996 F   0  0  0  0  0  0
  -21.5627   -3.4551   25.7744 F   0  0  0  0  0  0
  -30.0290  -13.3236   20.4303 N   0  0  0  0  0  0
  -26.2999  -12.9326   20.3315 N   0  0  0  0  0  0
  -25.9310  -11.6481   20.5712 N   0  0  0  0  0  0
  -22.0501  -12.8234   22.0425 N   0  0  0  0  0  0
  -25.4331  -15.1872   20.4202 N   0  0  0  0  0  0
  -31.8379  -14.6682   20.1027 O   0  0  0  0  0  0
  -21.6632   -6.8870   21.4250 O   0  0  0  0  0  0
  -22.3581  -14.5577   20.6745 O   0  0  0  0  0  0
  -24.6207  -31.8675   23.2113 C   0  0  0  0  0  0
  -25.9085  -32.4824   23.8425 C   0  0  1  0  0  0
  -27.2172  -27.3922   20.0791 C   0  0  0  0  0  0
  -25.5926  -33.8628   24.2348 N   0  0  0  0  0  0
  -23.4094  -30.4970   21.5541 C   0  0  2  0  0  0
  -24.8507  -28.9704   20.1100 C   0  0  0  0  0  0
  -22.7453  -29.4667   22.4969 C   0  0  0  0  0  0
  -18.0305  -28.1374   22.8514 C   0  0  0  0  0  0
  -24.1488  -36.7313   23.2638 C   0  0  0  0  0  0
  -25.9476  -30.8190   21.3739 C   0  0  0  0  0  0
  -26.0198  -29.4553   20.7090 C   0  0  0  0  0  0
  -27.2078  -28.6766   20.6885 C   0  0  0  0  0  0
  -26.0239  -26.9540   19.4527 C   0  0  0  0  0  0
  -24.8496  -27.7209   19.4791 C   0  0  0  0  0  0
  -23.6174  -29.8412   20.1659 C   0  0  0  0  0  0
  -25.4108  -36.3113   24.0343 C   0  0  1  0  0  0
  -20.5898  -28.3653   23.1272 C   0  0  2  0  0  0
  -20.6764  -26.9400   22.5370 C   0  0  0  0  0  0
  -19.5741  -26.6450   21.5156 C   0  0  0  0  0  0
  -18.1963  -26.7910   22.1663 C   0  0  0  0  0  0
  -19.1561  -28.8839   23.2892 C   0  0  0  0  0  0
  -18.9506  -30.1442   23.8905 C   0  0  0  0  0  0
  -17.6501  -30.6567   24.0592 C   0  0  0  0  0  0
  -25.9039  -34.9476   23.5135 C   0  0  0  0  0  0
  -16.5383  -29.9083   23.6350 C   0  0  0  0  0  0
  -16.7298  -28.6500   23.0357 C   0  0  0  0  0  0
  -26.4487  -31.6604   25.0760 C   0  0  0  0  0  0
  -25.3743  -31.3708   26.1497 C   0  0  0  0  0  0
  -27.0321  -30.3045   24.6157 C   0  0  0  0  0  0
  -27.6077  -32.4313   25.7512 C   0  0  0  0  0  0
  -27.5582  -37.1811   24.8465 C   0  0  0  0  0  0
  -21.4187  -29.3011   22.3684 N   0  0  0  0  0  0
  -26.4297  -37.3791   23.9407 N   0  0  0  0  0  0
  -24.6784  -31.0741   22.1048 N   0  0  0  0  0  0
  -23.4203  -28.8216   23.3038 O   0  0  0  0  0  0
  -28.3518  -26.5820   20.1153 O   0  0  0  0  0  0
  -26.5589  -34.8908   22.4690 O   0  0  0  0  0  0
  -23.5387  -32.1451   23.7466 O   0  0  0  0  0  0
  -28.6034  -17.5780   19.4233 C   0  0  0  0  0  0
  -28.3041  -19.8709   18.6368 C   0  0  0  0  0  0
  -30.0342  -19.3597   20.2733 C   0  0  0  0  0  0
  -27.9248  -18.5133   18.6178 C   0  0  0  0  0  0
  -29.6668  -17.9822   20.2591 C   0  0  0  0  0  0
  -29.3601  -20.3170   19.4630 C   0  0  0  0  0  0
  -27.1881  -23.3410   21.8182 C   0  0  0  0  0  0
  -27.4647  -24.8409   21.6033 C   0  0  0  0  0  0
  -27.7108  -22.4438   20.6811 C   0  0  0  0  0  0
  -29.3818  -24.2247   20.0657 C   0  0  0  0  0  0
  -28.1273  -25.1428   20.2413 C   0  0  2  0  0  0
  -26.7896  -18.0512   17.7259 C   0  0  0  0  0  0
  -30.4182  -16.9558   21.1331 C   0  0  0  0  0  0
  -29.7817  -21.8057   19.3975 C   0  0  0  0  0  0
  -29.9882  -15.5411   21.0359 N   0  0  0  0  0  0
  -29.1304  -22.7561   20.3605 N   0  3  2  0  0  0
  -31.4669  -12.4084   19.1316 H   0  0  0  0  0  0
  -30.3107  -11.3158   19.8415 H   0  0  0  0  0  0
  -29.7387  -11.7632   17.4352 H   0  0  0  0  0  0
  -29.6639  -13.4766   17.7508 H   0  0  0  0  0  0
  -27.8337  -11.3023   18.8255 H   0  0  0  0  0  0
  -27.3664  -12.6211   17.7851 H   0  0  0  0  0  0
  -27.6926  -14.2508   19.5486 H   0  0  0  0  0  0
  -28.6846  -11.9951   21.3567 H   0  0  0  0  0  0
  -28.4617  -13.6471   21.8510 H   0  0  0  0  0  0
  -25.2744   -9.5678   22.4756 H   0  0  0  0  0  0
  -23.9978   -7.4638   22.7472 H   0  0  0  0  0  0
  -21.0822   -8.8759   19.8960 H   0  0  0  0  0  0
  -22.3680  -10.9656   19.6170 H   0  0  0  0  0  0
  -21.1995   -7.6140   23.9721 H   0  0  0  0  0  0
  -21.1495   -6.0529   25.9085 H   0  0  0  0  0  0
  -22.0589   -2.7604   23.2859 H   0  0  0  0  0  0
  -22.4097  -11.9868   22.4777 H   0  0  0  0  0  0
  -21.1129  -13.1287   22.2651 H   0  0  0  0  0  0
  -24.6744  -15.8466   20.5485 H   0  0  0  0  0  0
  -26.2906  -15.6270   20.1170 H   0  0  0  0  0  0
  -26.7162  -32.5498   23.1187 H   0  0  0  0  0  0
  -25.0101  -33.9803   25.0511 H   0  0  0  0  0  0
  -22.7008  -31.3176   21.4198 H   0  0  0  0  0  0
  -23.3745  -35.9648   23.3314 H   0  0  0  0  0  0
  -24.3586  -36.8908   22.2047 H   0  0  0  0  0  0
  -23.7231  -37.6521   23.6637 H   0  0  0  0  0  0
  -26.0741  -31.5908   20.6128 H   0  0  0  0  0  0
  -26.8312  -30.8606   22.0007 H   0  0  0  0  0  0
  -28.1065  -29.0454   21.1633 H   0  0  0  0  0  0
  -25.9512  -26.0195   18.9231 H   0  0  0  0  0  0
  -23.9541  -27.3506   19.0003 H   0  0  0  0  0  0
  -23.7309  -30.6215   19.4130 H   0  0  0  0  0  0
  -22.7386  -29.2672   19.8653 H   0  0  0  0  0  0
  -25.1274  -36.1992   25.0836 H   0  0  0  0  0  0
  -21.0014  -28.3174   24.1379 H   0  0  0  0  0  0
  -20.5655  -26.2252   23.3535 H   0  0  0  0  0  0
  -21.6630  -26.7438   22.1151 H   0  0  0  0  0  0
  -19.6942  -25.6410   21.1080 H   0  0  0  0  0  0
  -19.6645  -27.3368   20.6765 H   0  0  0  0  0  0
  -17.4138  -26.6568   21.4178 H   0  0  0  0  0  0
  -18.0558  -26.0040   22.9088 H   0  0  0  0  0  0
  -19.8004  -30.7258   24.2252 H   0  0  0  0  0  0
  -17.5084  -31.6248   24.5207 H   0  0  0  0  0  0
  -15.5378  -30.2991   23.7689 H   0  0  0  0  0  0
  -15.8717  -28.0801   22.7045 H   0  0  0  0  0  0
  -24.5925  -30.7044   25.7828 H   0  0  0  0  0  0
  -24.8924  -32.2852   26.4966 H   0  0  0  0  0  0
  -25.8093  -30.8873   27.0252 H   0  0  0  0  0  0
  -26.2880  -29.6814   24.1183 H   0  0  0  0  0  0
  -27.4046  -29.7269   25.4627 H   0  0  0  0  0  0
  -27.8735  -30.4362   23.9352 H   0  0  0  0  0  0
  -27.2729  -33.3607   26.2129 H   0  0  0  0  0  0
  -28.3865  -32.6881   25.0318 H   0  0  0  0  0  0
  -28.0769  -31.8414   26.5390 H   0  0  0  0  0  0
  -28.2605  -38.0102   24.7494 H   0  0  0  0  0  0
  -28.1071  -36.2629   24.6313 H   0  0  0  0  0  0
  -27.2303  -37.1484   25.8870 H   0  0  0  0  0  0
  -20.9367  -29.8701   21.6867 H   0  0  0  0  0  0
  -26.0196  -38.2879   24.1389 H   0  0  0  0  0  0
  -28.3011  -16.5426   19.3838 H   0  0  0  0  0  0
  -27.7848  -20.5777   18.0023 H   0  0  0  0  0  0
  -30.8579  -19.6791   20.8970 H   0  0  0  0  0  0
  -26.1158  -23.1792   21.9332 H   0  0  0  0  0  0
  -27.6385  -23.0289   22.7621 H   0  0  0  0  0  0
  -28.1129  -25.2053   22.4009 H   0  0  0  0  0  0
  -26.5269  -25.3850   21.7119 H   0  0  0  0  0  0
  -27.0979  -22.5502   19.7847 H   0  0  0  0  0  0
  -27.6013  -21.4080   21.0011 H   0  0  0  0  0  0
  -30.1809  -24.5677   20.7241 H   0  0  0  0  0  0
  -29.7599  -24.3479   19.0506 H   0  0  0  0  0  0
  -27.4724  -24.8142   19.4395 H   0  0  0  0  0  0
  -26.9738  -17.0458   17.3441 H   0  0  0  0  0  0
  -26.6680  -18.7131   16.8673 H   0  0  0  0  0  0
  -25.8501  -18.0360   18.2806 H   0  0  0  0  0  0
  -30.3006  -17.2587   22.1746 H   0  0  0  0  0  0
  -31.4849  -17.0442   20.9226 H   0  0  0  0  0  0
  -29.5804  -22.1501   18.3816 H   0  0  0  0  0  0
  -30.8627  -21.8730   19.5209 H   0  0  0  0  0  0
  -29.0578  -15.3299   21.3637 H   0  0  0  0  0  0
  -29.6116  -22.5781   21.2297 H   0  0  0  0  0  0
  1 25  1  0  0  0
  1 30  2  0  0  0
  1 85  1  0  0  0
  2  3  1  0  0  0
  2 25  1  0  0  0
  2 87  1  0  0  0
  2 88  1  0  0  0
  3  4  1  0  0  0
  3 89  1  0  0  0
  3 90  1  0  0  0
  4  5  1  0  0  0
  4 91  1  0  0  0
  4 92  1  0  0  0
  5  6  1  0  0  0
  5 26  1  0  0  0
  5 93  1  0  0  0
  6 25  1  0  0  0
  6 94  1  0  0  0
  6 95  1  0  0  0
  7  8  2  0  0  0
  7 26  1  0  0  0
  7 29  1  0  0  0
  8  9  1  0  0  0
  8 22  1  0  0  0
  9 10  1  0  0  0
  9 27  2  0  0  0
 10 11  2  0  0  0
 10 15  1  0  0  0
 11 12  1  0  0  0
 11 96  1  0  0  0
 12 13  2  0  0  0
 12 97  1  0  0  0
 13 14  1  0  0  0
 13 31  1  0  0  0
 14 15  2  0  0  0
 14 98  1  0  0  0
 15 99  1  0  0  0
 16 17  2  0  0  0
 16 21  1  0  0  0
 16 31  1  0  0  0
 17 18  1  0  0  0
 17100  1  0  0  0
 18 19  2  0  0  0
 18101  1  0  0  0
 19 20  1  0  0  0
 19 24  1  0  0  0
 20 21  2  0  0  0
 20102  1  0  0  0
 21 23  1  0  0  0
 22 28  1  0  0  0
 22 32  2  0  0  0
 26 27  1  0  0  0
 28103  1  0  0  0
 28104  1  0  0  0
 29105  1  0  0  0
 29106  1  0  0  0
 33 34  1  0  0  0
 33 66  1  0  0  0
 33 70  2  0  0  0
 34 36  1  0  0  0
 34 59  1  0  0  0
 34107  1  0  0  0
 35 44  2  0  0  0
 35 45  1  0  0  0
 35 68  1  0  0  0
 36 56  1  0  0  0
 36108  1  0  0  0
 37 39  1  0  0  0
 37 47  1  0  0  0
 37 66  1  0  0  0
 37109  1  0  0  0
 38 43  2  0  0  0
 38 46  1  0  0  0
 38 47  1  0  0  0
 39 64  1  0  0  0
 39 67  2  0  0  0
 40 52  1  0  0  0
 40 53  2  0  0  0
 40 58  1  0  0  0
 41110  1  0  0  0
 41111  1  0  0  0
 41112  1  0  0  0
 41 48  1  0  0  0
 42 43  1  0  0  0
 42 66  1  0  0  0
 42113  1  0  0  0
 42114  1  0  0  0
 43 44  1  0  0  0
 44115  1  0  0  0
 45 46  2  0  0  0
 45116  1  0  0  0
 46117  1  0  0  0
 47118  1  0  0  0
 47119  1  0  0  0
 48 56  1  0  0  0
 48 65  1  0  0  0
 48120  1  0  0  0
 49 50  1  0  0  0
 49 53  1  0  0  0
 49 64  1  0  0  0
 49121  1  0  0  0
 50 51  1  0  0  0
 50122  1  0  0  0
 50123  1  0  0  0
 51 52  1  0  0  0
 51124  1  0  0  0
 51125  1  0  0  0
 52126  1  0  0  0
 52127  1  0  0  0
 53 54  1  0  0  0
 54 55  2  0  0  0
 54128  1  0  0  0
 55 57  1  0  0  0
 55129  1  0  0  0
 56 69  2  0  0  0
 57 58  2  0  0  0
 57130  1  0  0  0
 58131  1  0  0  0
 59 60  1  0  0  0
 59 61  1  0  0  0
 59 62  1  0  0  0
 60132  1  0  0  0
 60133  1  0  0  0
 60134  1  0  0  0
 61135  1  0  0  0
 61136  1  0  0  0
 61137  1  0  0  0
 62138  1  0  0  0
 62139  1  0  0  0
 62140  1  0  0  0
 63 65  1  0  0  0
 63141  1  0  0  0
 63142  1  0  0  0
 63143  1  0  0  0
 64144  1  0  0  0
 65145  1  0  0  0
 68 81  1  0  0  0
 71 74  2  0  0  0
 71 75  1  0  0  0
 71146  1  0  0  0
 72 74  1  0  0  0
 72 76  2  0  0  0
 72147  1  0  0  0
 73 75  2  0  0  0
 73 76  1  0  0  0
 73148  1  0  0  0
 74 82  1  0  0  0
 75 83  1  0  0  0
 76 84  1  0  0  0
 77 78  1  0  0  0
 77 79  1  0  0  0
 77149  1  0  0  0
 77150  1  0  0  0
 78 81  1  0  0  0
 78151  1  0  0  0
 78152  1  0  0  0
 79 86  1  0  0  0
 79153  1  0  0  0
 79154  1  0  0  0
 80 81  1  0  0  0
 80 86  1  0  0  0
 80155  1  0  0  0
 80156  1  0  0  0
 81157  1  0  0  0
 82158  1  0  0  0
 82159  1  0  0  0
 82160  1  0  0  0
 83 85  1  0  0  0
 83161  1  0  0  0
 83162  1  0  0  0
 84163  1  0  0  0
 84164  1  0  0  0
 84 86  1  0  0  0
 85165  1  0  0  0
 86166  1  0  0  0
M  CHG  1  86   1
M  ISO  4   1 100  68 101  81 101  85 100
M  END
> <chiral flag>
0

> <version>
0

> <s_m_source_file>
/data/baiqing/PycharmProjects/Reinvent-master-3.2/result/LINK_invent/BTK/process_docking_weight1_custom_product_contain_oxygen_bond_distance_aromatic_linkinvent_7_9_3/rearranged_h_0031.sdf

> <i_m_source_file_index>
38

> <r_mmod_Potential_Energy-OPLS-2005>
-135.901321411133

> <r_mmod_Stretch_Energy-OPLS-2005>
51.9530639648438

> <r_mmod_Bend_Energy-OPLS-2005>
109.984153747559

> <r_mmod_Torsional_Energy-OPLS-2005>
237.744964599609

> <r_mmod_Improper_Torsional_Energy-OPLS-2005>
3.34722089767456

> <r_mmod_Van_der_Waal_Energy-OPLS-2005>
163.510772705078

> <r_mmod_Electrostatic_Energy-OPLS-2005>
-300.835174560547

> <r_mmod_Solvation_Energy-OPLS-2005>
-423.185882568359

> <b_mmod_Minimization_Converged-OPLS-2005>
0

> <r_mmod_RMS_Derivative-OPLS-2005>
2.66290783882141

$$$$
38
                    3D
 Structure written by MMmdl.
166175  0  0  1  0            999 V2000
  -30.7716  -14.6005   20.5390 C   0  0  0  0  0  0
  -30.4006  -12.3793   19.4906 C   0  0  0  0  0  0
  -29.4952  -12.4803   18.2503 C   0  0  0  0  0  0
  -28.0259  -12.3139   18.6701 C   0  0  0  0  0  0
  -27.6484  -13.2277   19.8663 C   0  0  2  0  0  0
  -28.6923  -13.1663   21.0051 C   0  0  0  0  0  0
  -25.2555  -13.8194   20.5776 C   0  0  0  0  0  0
  -24.1831  -13.0406   20.9273 C   0  0  0  0  0  0
  -24.6423  -11.6909   20.8808 C   0  0  0  0  0  0
  -23.9136  -10.4261   21.0424 C   0  0  0  0  0  0
  -24.3656   -9.4171   21.9186 C   0  0  0  0  0  0
  -23.6293   -8.2241   22.0753 C   0  0  0  0  0  0
  -22.4271   -8.0285   21.3565 C   0  0  0  0  0  0
  -21.9932   -9.0280   20.4663 C   0  0  0  0  0  0
  -22.7313  -10.2147   20.3061 C   0  0  0  0  0  0
  -21.6830   -6.0743   22.5275 C   0  0  0  0  0  0
  -21.4001   -6.5653   23.8219 C   0  0  0  0  0  0
  -21.3640   -5.6800   24.9177 C   0  0  0  0  0  0
  -21.6050   -4.3068   24.7212 C   0  0  0  0  0  0
  -21.8816   -3.8158   23.4331 C   0  0  0  0  0  0
  -21.9193   -4.6973   22.3394 C   0  0  0  0  0  0
  -22.7848  -13.5186   21.1894 C   0  0  0  0  0  0
  -22.1656   -4.2178   21.0965 F   0  0  0  0  0  0
  -21.5653   -3.4538   25.7718 F   0  0  0  0  0  0
  -30.0112  -13.4575   20.4336 N   0  0  0  0  0  0
  -26.2982  -12.9385   20.3420 N   0  0  0  0  0  0
  -25.9374  -11.6543   20.5873 N   0  0  0  0  0  0
  -22.0468  -12.8168   22.0426 N   0  0  0  0  0  0
  -25.4218  -15.1880   20.4138 N   0  0  0  0  0  0
  -31.9032  -14.6267   20.0599 O   0  0  0  0  0  0
  -21.6634   -6.8875   21.4225 O   0  0  0  0  0  0
  -22.3544  -14.5475   20.6706 O   0  0  0  0  0  0
  -24.6154  -31.8652   23.2063 C   0  0  0  0  0  0
  -25.9012  -32.4821   23.8439 C   0  0  1  0  0  0
  -27.2487  -27.3917   20.1392 C   0  0  0  0  0  0
  -25.5822  -33.8633   24.2326 N   0  0  0  0  0  0
  -23.4087  -30.4840   21.5464 C   0  0  2  0  0  0
  -24.8586  -28.9315   20.1282 C   0  0  0  0  0  0
  -22.7418  -29.4652   22.4973 C   0  0  0  0  0  0
  -18.0308  -28.1357   22.8500 C   0  0  0  0  0  0
  -24.1474  -36.7344   23.2639 C   0  0  0  0  0  0
  -25.9361  -30.8289   21.3557 C   0  0  0  0  0  0
  -26.0175  -29.4499   20.7193 C   0  0  0  0  0  0
  -27.2174  -28.6930   20.7067 C   0  0  0  0  0  0
  -26.0700  -26.8896   19.5467 C   0  0  0  0  0  0
  -24.8810  -27.6540   19.5363 C   0  0  0  0  0  0
  -23.6206  -29.8037   20.1684 C   0  0  0  0  0  0
  -25.4082  -36.3112   24.0335 C   0  0  1  0  0  0
  -20.5884  -28.3697   23.1335 C   0  0  2  0  0  0
  -20.6803  -26.9428   22.5481 C   0  0  0  0  0  0
  -19.5813  -26.6358   21.5304 C   0  0  0  0  0  0
  -18.1975  -26.7895   22.1719 C   0  0  0  0  0  0
  -19.1551  -28.8854   23.2879 C   0  0  0  0  0  0
  -18.9438  -30.1447   23.8861 C   0  0  0  0  0  0
  -17.6415  -30.6539   24.0544 C   0  0  0  0  0  0
  -25.8979  -34.9460   23.5121 C   0  0  0  0  0  0
  -16.5317  -29.9034   23.6258 C   0  0  0  0  0  0
  -16.7286  -28.6496   23.0279 C   0  0  0  0  0  0
  -26.4426  -31.6613   25.0772 C   0  0  0  0  0  0
  -25.3768  -31.3691   26.1590 C   0  0  0  0  0  0
  -27.0214  -30.3049   24.6093 C   0  0  0  0  0  0
  -27.5991  -32.4354   25.7543 C   0  0  0  0  0  0
  -27.5574  -37.1823   24.8457 C   0  0  0  0  0  0
  -21.4154  -29.3085   22.3711 N   0  0  0  0  0  0
  -26.4278  -37.3774   23.9392 N   0  0  0  0  0  0
  -24.6720  -31.0758   22.0939 N   0  0  0  0  0  0
  -23.4179  -28.8218   23.3059 O   0  0  0  0  0  0
  -28.4447  -26.6958   20.0507 O   0  0  0  0  0  0
  -26.5595  -34.8900   22.4708 O   0  0  0  0  0  0
  -23.5323  -32.1388   23.7435 O   0  0  0  0  0  0
  -29.1034  -18.9431   18.3316 C   0  0  0  0  0  0
  -29.2485  -17.8348   19.1756 C   0  0  0  0  0  0
  -28.7523  -20.2073   18.8369 C   0  0  0  0  0  0
  -29.0928  -17.9400   20.5650 C   0  0  0  0  0  0
  -28.7665  -19.2513   21.1025 C   0  0  0  0  0  0
  -28.5448  -20.3896   20.2296 C   0  0  0  0  0  0
  -27.8994  -25.0636   21.9760 C   0  0  0  0  0  0
  -28.3669  -23.6224   22.2612 C   0  0  0  0  0  0
  -28.6180  -24.0889   19.9365 C   0  0  0  0  0  0
  -28.6841  -25.4236   20.7241 C   0  0  1  0  0  0
  -28.5289  -21.3221   17.8278 C   0  0  0  0  0  0
  -28.5960  -19.4634   22.6034 C   0  0  0  0  0  0
  -29.1517  -16.5632   21.3257 C   0  0  0  0  0  0
  -27.8570  -21.7195   20.7007 C   0  0  0  0  0  0
  -30.3902  -15.7358   21.2009 N   0  0  0  0  0  0
  -28.6788  -22.9706   20.9538 N   0  3  2  0  0  0
  -31.4480  -12.4114   19.1946 H   0  0  0  0  0  0
  -30.2775  -11.4086   19.9754 H   0  0  0  0  0  0
  -29.7643  -11.7143   17.5216 H   0  0  0  0  0  0
  -29.6341  -13.4423   17.7573 H   0  0  0  0  0  0
  -27.8824  -11.2650   18.9388 H   0  0  0  0  0  0
  -27.3628  -12.5067   17.8244 H   0  0  0  0  0  0
  -27.6476  -14.2447   19.4774 H   0  0  0  0  0  0
  -28.6885  -12.1797   21.4692 H   0  0  0  0  0  0
  -28.4464  -13.8717   21.8004 H   0  0  0  0  0  0
  -25.2796   -9.5613   22.4771 H   0  0  0  0  0  0
  -24.0004   -7.4601   22.7458 H   0  0  0  0  0  0
  -21.0874   -8.8836   19.8928 H   0  0  0  0  0  0
  -22.3803  -10.9717   19.6182 H   0  0  0  0  0  0
  -21.1980   -7.6164   23.9724 H   0  0  0  0  0  0
  -21.1463   -6.0529   25.9096 H   0  0  0  0  0  0
  -22.0601   -2.7626   23.2824 H   0  0  0  0  0  0
  -22.4071  -11.9825   22.4838 H   0  0  0  0  0  0
  -21.1102  -13.1184   22.2659 H   0  0  0  0  0  0
  -24.6435  -15.8328   20.4986 H   0  0  0  0  0  0
  -26.2540  -15.6211   20.0329 H   0  0  0  0  0  0
  -26.7124  -32.5507   23.1269 H   0  0  0  0  0  0
  -24.9954  -33.9803   25.0463 H   0  0  0  0  0  0
  -22.6954  -31.2988   21.4038 H   0  0  0  0  0  0
  -23.3706  -35.9712   23.3294 H   0  0  0  0  0  0
  -24.3572  -36.8955   22.2053 H   0  0  0  0  0  0
  -23.7270  -37.6555   23.6671 H   0  0  0  0  0  0
  -26.0307  -31.5866   20.5771 H   0  0  0  0  0  0
  -26.8292  -30.8985   21.9673 H   0  0  0  0  0  0
  -28.1181  -29.1078   21.1338 H   0  0  0  0  0  0
  -26.0709  -25.9177   19.0729 H   0  0  0  0  0  0
  -23.9882  -27.2533   19.0733 H   0  0  0  0  0  0
  -23.7284  -30.5673   19.3973 H   0  0  0  0  0  0
  -22.7449  -29.2226   19.8786 H   0  0  0  0  0  0
  -25.1265  -36.1973   25.0833 H   0  0  0  0  0  0
  -20.9929  -28.3290   24.1505 H   0  0  0  0  0  0
  -20.5839  -26.2325   23.3691 H   0  0  0  0  0  0
  -21.6626  -26.7507   22.1127 H   0  0  0  0  0  0
  -19.6936  -25.6205   21.1494 H   0  0  0  0  0  0
  -19.6795  -27.3074   20.6733 H   0  0  0  0  0  0
  -17.4287  -26.6608   21.4076 H   0  0  0  0  0  0
  -18.0345  -26.0098   22.9147 H   0  0  0  0  0  0
  -19.7919  -30.7298   24.2192 H   0  0  0  0  0  0
  -17.4953  -31.6170   24.5203 H   0  0  0  0  0  0
  -15.5294  -30.2890   23.7582 H   0  0  0  0  0  0
  -15.8733  -28.0766   22.6939 H   0  0  0  0  0  0
  -24.5941  -30.6970   25.8039 H   0  0  0  0  0  0
  -24.8983  -32.2817   26.5138 H   0  0  0  0  0  0
  -25.8232  -30.8892   27.0311 H   0  0  0  0  0  0
  -26.2704  -29.6893   24.1108 H   0  0  0  0  0  0
  -27.3907  -29.7178   25.4512 H   0  0  0  0  0  0
  -27.8582  -30.4353   23.9236 H   0  0  0  0  0  0
  -27.2557  -33.3623   26.2164 H   0  0  0  0  0  0
  -28.3793  -32.6976   25.0390 H   0  0  0  0  0  0
  -28.0692  -31.8497   26.5452 H   0  0  0  0  0  0
  -28.2592  -38.0122   24.7471 H   0  0  0  0  0  0
  -28.1062  -36.2635   24.6310 H   0  0  0  0  0  0
  -27.2295  -37.1518   25.8865 H   0  0  0  0  0  0
  -20.9366  -29.8850   21.6915 H   0  0  0  0  0  0
  -26.0164  -38.2839   24.1403 H   0  0  0  0  0  0
  -29.2140  -18.7907   17.2677 H   0  0  0  0  0  0
  -29.4459  -16.8709   18.7328 H   0  0  0  0  0  0
  -28.0924  -25.7328   22.8149 H   0  0  0  0  0  0
  -26.8301  -25.0786   21.7673 H   0  0  0  0  0  0
  -27.6320  -23.0952   22.8710 H   0  0  0  0  0  0
  -29.2867  -23.6510   22.8488 H   0  0  0  0  0  0
  -29.4487  -24.0356   19.2303 H   0  0  0  0  0  0
  -27.6959  -24.0650   19.3540 H   0  0  0  0  0  0
  -29.7265  -25.5212   21.0363 H   0  0  0  0  0  0
  -29.0539  -22.2303   18.1075 H   0  0  0  0  0  0
  -27.4665  -21.5542   17.7356 H   0  0  0  0  0  0
  -28.9187  -21.0488   16.8449 H   0  0  0  0  0  0
  -29.0608  -20.4029   22.8982 H   0  0  0  0  0  0
  -29.0969  -18.6989   23.1892 H   0  0  0  0  0  0
  -27.5447  -19.5001   22.8939 H   0  0  0  0  0  0
  -28.9726  -16.6910   22.3924 H   0  0  0  0  0  0
  -28.3246  -15.9749   20.9307 H   0  0  0  0  0  0
  -27.2797  -21.4677   21.5852 H   0  0  0  0  0  0
  -27.0676  -21.9673   19.9914 H   0  0  0  0  0  0
  -31.2141  -16.3026   21.3546 H   0  0  0  0  0  0
  -29.6433  -22.6807   21.0271 H   0  0  0  0  0  0
  1 25  1  0  0  0
  1 30  2  0  0  0
  1 85  1  0  0  0
  2  3  1  0  0  0
  2 25  1  0  0  0
  2 87  1  0  0  0
  2 88  1  0  0  0
  3  4  1  0  0  0
  3 89  1  0  0  0
  3 90  1  0  0  0
  4  5  1  0  0  0
  4 91  1  0  0  0
  4 92  1  0  0  0
  5  6  1  0  0  0
  5 26  1  0  0  0
  5 93  1  0  0  0
  6 25  1  0  0  0
  6 94  1  0  0  0
  6 95  1  0  0  0
  7  8  2  0  0  0
  7 26  1  0  0  0
  7 29  1  0  0  0
  8  9  1  0  0  0
  8 22  1  0  0  0
  9 10  1  0  0  0
  9 27  2  0  0  0
 10 11  2  0  0  0
 10 15  1  0  0  0
 11 12  1  0  0  0
 11 96  1  0  0  0
 12 13  2  0  0  0
 12 97  1  0  0  0
 13 14  1  0  0  0
 13 31  1  0  0  0
 14 15  2  0  0  0
 14 98  1  0  0  0
 15 99  1  0  0  0
 16 17  2  0  0  0
 16 21  1  0  0  0
 16 31  1  0  0  0
 17 18  1  0  0  0
 17100  1  0  0  0
 18 19  2  0  0  0
 18101  1  0  0  0
 19 20  1  0  0  0
 19 24  1  0  0  0
 20 21  2  0  0  0
 20102  1  0  0  0
 21 23  1  0  0  0
 22 28  1  0  0  0
 22 32  2  0  0  0
 26 27  1  0  0  0
 28103  1  0  0  0
 28104  1  0  0  0
 29105  1  0  0  0
 29106  1  0  0  0
 33 34  1  0  0  0
 33 66  1  0  0  0
 33 70  2  0  0  0
 34 36  1  0  0  0
 34 59  1  0  0  0
 34107  1  0  0  0
 35 44  2  0  0  0
 35 45  1  0  0  0
 35 68  1  0  0  0
 36 56  1  0  0  0
 36108  1  0  0  0
 37 39  1  0  0  0
 37 47  1  0  0  0
 37 66  1  0  0  0
 37109  1  0  0  0
 38 43  2  0  0  0
 38 46  1  0  0  0
 38 47  1  0  0  0
 39 64  1  0  0  0
 39 67  2  0  0  0
 40 52  1  0  0  0
 40 53  2  0  0  0
 40 58  1  0  0  0
 41110  1  0  0  0
 41111  1  0  0  0
 41112  1  0  0  0
 41 48  1  0  0  0
 42 43  1  0  0  0
 42 66  1  0  0  0
 42113  1  0  0  0
 42114  1  0  0  0
 43 44  1  0  0  0
 44115  1  0  0  0
 45 46  2  0  0  0
 45116  1  0  0  0
 46117  1  0  0  0
 47118  1  0  0  0
 47119  1  0  0  0
 48 56  1  0  0  0
 48 65  1  0  0  0
 48120  1  0  0  0
 49 50  1  0  0  0
 49 53  1  0  0  0
 49 64  1  0  0  0
 49121  1  0  0  0
 50 51  1  0  0  0
 50122  1  0  0  0
 50123  1  0  0  0
 51 52  1  0  0  0
 51124  1  0  0  0
 51125  1  0  0  0
 52126  1  0  0  0
 52127  1  0  0  0
 53 54  1  0  0  0
 54 55  2  0  0  0
 54128  1  0  0  0
 55 57  1  0  0  0
 55129  1  0  0  0
 56 69  2  0  0  0
 57 58  2  0  0  0
 57130  1  0  0  0
 58131  1  0  0  0
 59 60  1  0  0  0
 59 61  1  0  0  0
 59 62  1  0  0  0
 60132  1  0  0  0
 60133  1  0  0  0
 60134  1  0  0  0
 61135  1  0  0  0
 61136  1  0  0  0
 61137  1  0  0  0
 62138  1  0  0  0
 62139  1  0  0  0
 62140  1  0  0  0
 63 65  1  0  0  0
 63141  1  0  0  0
 63142  1  0  0  0
 63143  1  0  0  0
 64144  1  0  0  0
 65145  1  0  0  0
 68 80  1  0  0  0
 71 72  2  0  0  0
 71 73  1  0  0  0
 71146  1  0  0  0
 72 74  1  0  0  0
 72147  1  0  0  0
 73 76  2  0  0  0
 73 81  1  0  0  0
 74 75  2  0  0  0
 74 83  1  0  0  0
 75 76  1  0  0  0
 75 82  1  0  0  0
 76 84  1  0  0  0
 77 78  1  0  0  0
 77 80  1  0  0  0
 77148  1  0  0  0
 77149  1  0  0  0
 78 86  1  0  0  0
 78150  1  0  0  0
 78151  1  0  0  0
 79 80  1  0  0  0
 79 86  1  0  0  0
 79152  1  0  0  0
 79153  1  0  0  0
 80154  1  0  0  0
 81155  1  0  0  0
 81156  1  0  0  0
 81157  1  0  0  0
 82158  1  0  0  0
 82159  1  0  0  0
 82160  1  0  0  0
 83 85  1  0  0  0
 83161  1  0  0  0
 83162  1  0  0  0
 84163  1  0  0  0
 84164  1  0  0  0
 84 86  1  0  0  0
 85165  1  0  0  0
 86166  1  0  0  0
M  CHG  1  86   1
M  ISO  4   1 100  68 101  80 101  85 100
M  END
> <chiral flag>
0

> <version>
0

> <s_m_source_file>
/data/baiqing/PycharmProjects/Reinvent-master-3.2/result/LINK_invent/BTK/process_docking_weight1_custom_product_contain_oxygen_bond_distance_aromatic_linkinvent_7_9_3/rearranged_h_0031.sdf

> <i_m_source_file_index>
39

> <r_mmod_Potential_Energy-OPLS-2005>
43.9677886962891

> <r_mmod_Stretch_Energy-OPLS-2005>
72.85498046875

> <r_mmod_Bend_Energy-OPLS-2005>
229.731063842773

> <r_mmod_Torsional_Energy-OPLS-2005>
323.313201904297

> <r_mmod_Improper_Torsional_Energy-OPLS-2005>
5.98915958404541

> <r_mmod_Van_der_Waal_Energy-OPLS-2005>
135.626937866211

> <r_mmod_Electrostatic_Energy-OPLS-2005>
-328.718383789062

> <r_mmod_Solvation_Energy-OPLS-2005>
-429.169403076172

> <b_mmod_Minimization_Converged-OPLS-2005>
0

> <r_mmod_RMS_Derivative-OPLS-2005>
8.10239028930664

$$$$
39
                    3D
 Structure written by MMmdl.
163172  0  0  1  0            999 V2000
  -30.7232  -14.4654   20.5935 C   0  0  0  0  0  0
  -30.4194  -12.3145   19.4160 C   0  0  0  0  0  0
  -29.4911  -12.5124   18.2013 C   0  0  0  0  0  0
  -28.0134  -12.3705   18.6162 C   0  0  0  0  0  0
  -27.6608  -13.2107   19.8735 C   0  0  2  0  0  0
  -28.7036  -12.9981   20.9932 C   0  0  0  0  0  0
  -25.2585  -13.8168   20.5690 C   0  0  0  0  0  0
  -24.1836  -13.0442   20.9170 C   0  0  0  0  0  0
  -24.6396  -11.6909   20.8730 C   0  0  0  0  0  0
  -23.9059  -10.4295   21.0402 C   0  0  0  0  0  0
  -24.3617   -9.4211   21.9177 C   0  0  0  0  0  0
  -23.6294   -8.2247   22.0752 C   0  0  0  0  0  0
  -22.4274   -8.0282   21.3547 C   0  0  0  0  0  0
  -21.9907   -9.0251   20.4646 C   0  0  0  0  0  0
  -22.7232  -10.2132   20.3049 C   0  0  0  0  0  0
  -21.6852   -6.0736   22.5278 C   0  0  0  0  0  0
  -21.4014   -6.5640   23.8211 C   0  0  0  0  0  0
  -21.3661   -5.6788   24.9172 C   0  0  0  0  0  0
  -21.6043   -4.3052   24.7220 C   0  0  0  0  0  0
  -21.8820   -3.8142   23.4343 C   0  0  0  0  0  0
  -21.9193   -4.6963   22.3402 C   0  0  0  0  0  0
  -22.7859  -13.5241   21.1840 C   0  0  0  0  0  0
  -22.1660   -4.2151   21.0976 F   0  0  0  0  0  0
  -21.5631   -3.4537   25.7734 F   0  0  0  0  0  0
  -30.0332  -13.3016   20.4369 N   0  0  0  0  0  0
  -26.3027  -12.9346   20.3368 N   0  0  0  0  0  0
  -25.9322  -11.6502   20.5765 N   0  0  0  0  0  0
  -22.0493  -12.8241   22.0398 N   0  0  0  0  0  0
  -25.4311  -15.1886   20.4131 N   0  0  0  0  0  0
  -31.8341  -14.6524   20.0894 O   0  0  0  0  0  0
  -21.6641   -6.8877   21.4241 O   0  0  0  0  0  0
  -22.3550  -14.5548   20.6687 O   0  0  0  0  0  0
  -24.6147  -31.8673   23.2089 C   0  0  0  0  0  0
  -25.9036  -32.4818   23.8388 C   0  0  1  0  0  0
  -27.2350  -27.4243   20.0994 C   0  0  0  0  0  0
  -25.5892  -33.8620   24.2316 N   0  0  0  0  0  0
  -23.4035  -30.4903   21.5495 C   0  0  2  0  0  0
  -24.8504  -28.9555   20.1133 C   0  0  0  0  0  0
  -22.7416  -29.4652   22.4984 C   0  0  0  0  0  0
  -18.0272  -28.1369   22.8500 C   0  0  0  0  0  0
  -24.1478  -36.7305   23.2622 C   0  0  0  0  0  0
  -25.9331  -30.8303   21.3632 C   0  0  0  0  0  0
  -26.0113  -29.4647   20.7086 C   0  0  0  0  0  0
  -27.2075  -28.7089   20.6940 C   0  0  0  0  0  0
  -26.0575  -26.9368   19.4882 C   0  0  0  0  0  0
  -24.8693  -27.6917   19.4984 C   0  0  0  0  0  0
  -23.6123  -29.8217   20.1641 C   0  0  0  0  0  0
  -25.4092  -36.3107   24.0340 C   0  0  1  0  0  0
  -20.5866  -28.3653   23.1318 C   0  0  2  0  0  0
  -20.6758  -26.9388   22.5423 C   0  0  0  0  0  0
  -19.5740  -26.6373   21.5219 C   0  0  0  0  0  0
  -18.1915  -26.7923   22.1616 C   0  0  0  0  0  0
  -19.1525  -28.8831   23.2906 C   0  0  0  0  0  0
  -18.9454  -30.1442   23.8902 C   0  0  0  0  0  0
  -17.6452  -30.6579   24.0566 C   0  0  0  0  0  0
  -25.9038  -34.9480   23.5131 C   0  0  0  0  0  0
  -16.5343  -29.9086   23.6327 C   0  0  0  0  0  0
  -16.7262  -28.6497   23.0347 C   0  0  0  0  0  0
  -26.4462  -31.6601   25.0718 C   0  0  0  0  0  0
  -25.3737  -31.3750   26.1488 C   0  0  0  0  0  0
  -27.0262  -30.3029   24.6097 C   0  0  0  0  0  0
  -27.6059  -32.4309   25.7451 C   0  0  0  0  0  0
  -27.5619  -37.1747   24.8418 C   0  0  0  0  0  0
  -21.4142  -29.3027   22.3731 N   0  0  0  0  0  0
  -26.4254  -37.3825   23.9476 N   0  0  0  0  0  0
  -24.6687  -31.0769   22.0992 N   0  0  0  0  0  0
  -23.4190  -28.8185   23.3018 O   0  0  0  0  0  0
  -28.4002  -26.6794   20.1127 O   0  0  0  0  0  0
  -26.5611  -34.8940   22.4699 O   0  0  0  0  0  0
  -23.5338  -32.1430   23.7477 O   0  0  0  0  0  0
  -30.7472  -18.6162   19.9753 C   0  0  0  0  0  0
  -28.5326  -19.8733   21.1396 C   0  0  0  0  0  0
  -30.2933  -19.8562   19.4600 C   0  0  0  0  0  0
  -30.1115  -17.9996   21.0755 C   0  0  0  0  0  0
  -29.1696  -20.5035   20.0443 C   0  0  0  0  0  0
  -28.9945  -18.6413   21.6518 C   0  0  0  0  0  0
  -29.2145  -24.8451   21.5359 C   0  0  0  0  0  0
  -29.2779  -23.3208   21.3626 C   0  0  0  0  0  0
  -28.6789  -24.3154   19.2721 C   0  0  0  0  0  0
  -28.2746  -25.2711   20.4140 C   0  0  2  0  0  0
  -31.0289  -20.4606   18.2744 C   0  0  0  0  0  0
  -30.6938  -16.7218   21.6954 C   0  0  0  0  0  0
  -28.5714  -21.8078   19.4765 C   0  0  0  0  0  0
  -30.0972  -15.4416   21.2749 N   0  0  0  0  0  0
  -29.2347  -23.0770   19.9017 N   0  3  2  0  0  0
  -28.3666  -18.0848   22.7151 F   0  0  0  0  0  0
  -31.4643  -12.4081   19.1143 H   0  0  0  0  0  0
  -30.3174  -11.3042   19.8145 H   0  0  0  0  0  0
  -29.7318  -11.7882   17.4218 H   0  0  0  0  0  0
  -29.6580  -13.4982   17.7643 H   0  0  0  0  0  0
  -27.8252  -11.3144   18.8106 H   0  0  0  0  0  0
  -27.3621  -12.6443   17.7854 H   0  0  0  0  0  0
  -27.7032  -14.2591   19.5764 H   0  0  0  0  0  0
  -28.6816  -11.9639   21.3407 H   0  0  0  0  0  0
  -28.4613  -13.6018   21.8682 H   0  0  0  0  0  0
  -25.2766   -9.5690   22.4749 H   0  0  0  0  0  0
  -24.0004   -7.4641   22.7469 H   0  0  0  0  0  0
  -21.0837   -8.8760   19.8955 H   0  0  0  0  0  0
  -22.3684  -10.9665   19.6158 H   0  0  0  0  0  0
  -21.2001   -7.6149   23.9717 H   0  0  0  0  0  0
  -21.1481   -6.0516   25.9074 H   0  0  0  0  0  0
  -22.0598   -2.7603   23.2837 H   0  0  0  0  0  0
  -22.4086  -11.9894   22.4784 H   0  0  0  0  0  0
  -21.1113  -13.1277   22.2594 H   0  0  0  0  0  0
  -24.6695  -15.8471   20.5359 H   0  0  0  0  0  0
  -26.2920  -15.6307   20.1169 H   0  0  0  0  0  0
  -26.7104  -32.5531   23.1151 H   0  0  0  0  0  0
  -25.0062  -33.9782   25.0474 H   0  0  0  0  0  0
  -22.6930  -31.3073   21.4094 H   0  0  0  0  0  0
  -23.3795  -35.9572   23.3155 H   0  0  0  0  0  0
  -24.3621  -36.9053   22.2067 H   0  0  0  0  0  0
  -23.7135  -37.6431   23.6717 H   0  0  0  0  0  0
  -26.0472  -31.5974   20.5961 H   0  0  0  0  0  0
  -26.8197  -30.8817   21.9836 H   0  0  0  0  0  0
  -28.1042  -29.0997   21.1549 H   0  0  0  0  0  0
  -26.0477  -25.9761   18.9940 H   0  0  0  0  0  0
  -23.9786  -27.2986   19.0270 H   0  0  0  0  0  0
  -23.7169  -30.5956   19.4025 H   0  0  0  0  0  0
  -22.7373  -29.2384   19.8713 H   0  0  0  0  0  0
  -25.1246  -36.1944   25.0826 H   0  0  0  0  0  0
  -20.9960  -28.3208   24.1436 H   0  0  0  0  0  0
  -20.5640  -26.2262   23.3613 H   0  0  0  0  0  0
  -21.6629  -26.7419   22.1215 H   0  0  0  0  0  0
  -19.6889  -25.6286   21.1238 H   0  0  0  0  0  0
  -19.6684  -27.3190   20.6757 H   0  0  0  0  0  0
  -17.4197  -26.6703   21.4003 H   0  0  0  0  0  0
  -18.0287  -26.0046   22.8988 H   0  0  0  0  0  0
  -19.7934  -30.7264   24.2253 H   0  0  0  0  0  0
  -17.5014  -31.6265   24.5160 H   0  0  0  0  0  0
  -15.5345  -30.2990   23.7644 H   0  0  0  0  0  0
  -15.8665  -28.0829   22.7046 H   0  0  0  0  0  0
  -24.5853  -30.7154   25.7845 H   0  0  0  0  0  0
  -24.9005  -32.2936   26.4979 H   0  0  0  0  0  0
  -25.8085  -30.8879   27.0223 H   0  0  0  0  0  0
  -26.2792  -29.6800   24.1160 H   0  0  0  0  0  0
  -27.4028  -29.7258   25.4550 H   0  0  0  0  0  0
  -27.8640  -30.4324   23.9240 H   0  0  0  0  0  0
  -27.2708  -33.3613   26.2048 H   0  0  0  0  0  0
  -28.3854  -32.6853   25.0256 H   0  0  0  0  0  0
  -28.0739  -31.8419   26.5349 H   0  0  0  0  0  0
  -28.2460  -38.0218   24.7765 H   0  0  0  0  0  0
  -28.1294  -36.2794   24.5840 H   0  0  0  0  0  0
  -27.2414  -37.0893   25.8815 H   0  0  0  0  0  0
  -20.9285  -29.8794   21.7002 H   0  0  0  0  0  0
  -26.0133  -38.2852   24.1680 H   0  0  0  0  0  0
  -31.6096  -18.1346   19.5350 H   0  0  0  0  0  0
  -27.6678  -20.3283   21.6001 H   0  0  0  0  0  0
  -30.2018  -25.2835   21.3871 H   0  0  0  0  0  0
  -28.8575  -25.1456   22.5207 H   0  0  0  0  0  0
  -28.4070  -22.8687   21.8394 H   0  0  0  0  0  0
  -30.1663  -22.8815   21.8180 H   0  0  0  0  0  0
  -29.4681  -24.7690   18.6713 H   0  0  0  0  0  0
  -27.8383  -24.1175   18.6055 H   0  0  0  0  0  0
  -27.2659  -25.0156   20.7443 H   0  0  0  0  0  0
  -31.9652  -19.9363   18.0789 H   0  0  0  0  0  0
  -31.2781  -21.5060   18.4532 H   0  0  0  0  0  0
  -30.4228  -20.3966   17.3709 H   0  0  0  0  0  0
  -30.5816  -16.7917   22.7778 H   0  0  0  0  0  0
  -31.7717  -16.7213   21.5270 H   0  0  0  0  0  0
  -27.5147  -21.8562   19.7434 H   0  0  0  0  0  0
  -28.5884  -21.7513   18.3878 H   0  0  0  0  0  0
  -29.1758  -15.2294   21.6269 H   0  0  0  0  0  0
  -30.1943  -23.0118   19.5968 H   0  0  0  0  0  0
  1 25  1  0  0  0
  1 30  2  0  0  0
  1 84  1  0  0  0
  2  3  1  0  0  0
  2 25  1  0  0  0
  2 87  1  0  0  0
  2 88  1  0  0  0
  3  4  1  0  0  0
  3 89  1  0  0  0
  3 90  1  0  0  0
  4  5  1  0  0  0
  4 91  1  0  0  0
  4 92  1  0  0  0
  5  6  1  0  0  0
  5 26  1  0  0  0
  5 93  1  0  0  0
  6 25  1  0  0  0
  6 94  1  0  0  0
  6 95  1  0  0  0
  7  8  2  0  0  0
  7 26  1  0  0  0
  7 29  1  0  0  0
  8  9  1  0  0  0
  8 22  1  0  0  0
  9 10  1  0  0  0
  9 27  2  0  0  0
 10 11  2  0  0  0
 10 15  1  0  0  0
 11 12  1  0  0  0
 11 96  1  0  0  0
 12 13  2  0  0  0
 12 97  1  0  0  0
 13 14  1  0  0  0
 13 31  1  0  0  0
 14 15  2  0  0  0
 14 98  1  0  0  0
 15 99  1  0  0  0
 16 17  2  0  0  0
 16 21  1  0  0  0
 16 31  1  0  0  0
 17 18  1  0  0  0
 17100  1  0  0  0
 18 19  2  0  0  0
 18101  1  0  0  0
 19 20  1  0  0  0
 19 24  1  0  0  0
 20 21  2  0  0  0
 20102  1  0  0  0
 21 23  1  0  0  0
 22 28  1  0  0  0
 22 32  2  0  0  0
 26 27  1  0  0  0
 28103  1  0  0  0
 28104  1  0  0  0
 29105  1  0  0  0
 29106  1  0  0  0
 33 34  1  0  0  0
 33 66  1  0  0  0
 33 70  2  0  0  0
 34 36  1  0  0  0
 34 59  1  0  0  0
 34107  1  0  0  0
 35 44  2  0  0  0
 35 45  1  0  0  0
 35 68  1  0  0  0
 36 56  1  0  0  0
 36108  1  0  0  0
 37 39  1  0  0  0
 37 47  1  0  0  0
 37 66  1  0  0  0
 37109  1  0  0  0
 38 43  2  0  0  0
 38 46  1  0  0  0
 38 47  1  0  0  0
 39 64  1  0  0  0
 39 67  2  0  0  0
 40 52  1  0  0  0
 40 53  2  0  0  0
 40 58  1  0  0  0
 41110  1  0  0  0
 41111  1  0  0  0
 41112  1  0  0  0
 41 48  1  0  0  0
 42 43  1  0  0  0
 42 66  1  0  0  0
 42113  1  0  0  0
 42114  1  0  0  0
 43 44  1  0  0  0
 44115  1  0  0  0
 45 46  2  0  0  0
 45116  1  0  0  0
 46117  1  0  0  0
 47118  1  0  0  0
 47119  1  0  0  0
 48 56  1  0  0  0
 48 65  1  0  0  0
 48120  1  0  0  0
 49 50  1  0  0  0
 49 53  1  0  0  0
 49 64  1  0  0  0
 49121  1  0  0  0
 50 51  1  0  0  0
 50122  1  0  0  0
 50123  1  0  0  0
 51 52  1  0  0  0
 51124  1  0  0  0
 51125  1  0  0  0
 52126  1  0  0  0
 52127  1  0  0  0
 53 54  1  0  0  0
 54 55  2  0  0  0
 54128  1  0  0  0
 55 57  1  0  0  0
 55129  1  0  0  0
 56 69  2  0  0  0
 57 58  2  0  0  0
 57130  1  0  0  0
 58131  1  0  0  0
 59 60  1  0  0  0
 59 61  1  0  0  0
 59 62  1  0  0  0
 60132  1  0  0  0
 60133  1  0  0  0
 60134  1  0  0  0
 61135  1  0  0  0
 61136  1  0  0  0
 61137  1  0  0  0
 62138  1  0  0  0
 62139  1  0  0  0
 62140  1  0  0  0
 63 65  1  0  0  0
 63141  1  0  0  0
 63142  1  0  0  0
 63143  1  0  0  0
 64144  1  0  0  0
 65145  1  0  0  0
 68 80  1  0  0  0
 71 73  2  0  0  0
 71 74  1  0  0  0
 71146  1  0  0  0
 72 75  2  0  0  0
 72 76  1  0  0  0
 72147  1  0  0  0
 73 75  1  0  0  0
 73 81  1  0  0  0
 74 76  2  0  0  0
 74 82  1  0  0  0
 75 83  1  0  0  0
 76 86  1  0  0  0
 77 78  1  0  0  0
 77 80  1  0  0  0
 77148  1  0  0  0
 77149  1  0  0  0
 78 85  1  0  0  0
 78150  1  0  0  0
 78151  1  0  0  0
 79 80  1  0  0  0
 79 85  1  0  0  0
 79152  1  0  0  0
 79153  1  0  0  0
 80154  1  0  0  0
 81155  1  0  0  0
 81156  1  0  0  0
 81157  1  0  0  0
 82 84  1  0  0  0
 82158  1  0  0  0
 82159  1  0  0  0
 83160  1  0  0  0
 83161  1  0  0  0
 83 85  1  0  0  0
 84162  1  0  0  0
 85163  1  0  0  0
M  CHG  1  85   1
M  ISO  4   1 100  68 101  80 101  84 100
M  END
> <chiral flag>
0

> <version>
0

> <s_m_source_file>
/data/baiqing/PycharmProjects/Reinvent-master-3.2/result/LINK_invent/BTK/process_docking_weight1_custom_product_contain_oxygen_bond_distance_aromatic_linkinvent_7_9_3/rearranged_h_0031.sdf

> <i_m_source_file_index>
40

> <r_mmod_Potential_Energy-OPLS-2005>
-159.2109375

> <r_mmod_Stretch_Energy-OPLS-2005>
40.6339950561523

> <r_mmod_Bend_Energy-OPLS-2005>
123.399459838867

> <r_mmod_Torsional_Energy-OPLS-2005>
256.343200683594

> <r_mmod_Improper_Torsional_Energy-OPLS-2005>
2.52852416038513

> <r_mmod_Van_der_Waal_Energy-OPLS-2005>
144.296798706055

> <r_mmod_Electrostatic_Energy-OPLS-2005>
-311.254547119141

> <r_mmod_Solvation_Energy-OPLS-2005>
-428.100646972656

> <b_mmod_Minimization_Converged-OPLS-2005>
0

> <r_mmod_RMS_Derivative-OPLS-2005>
1.24931108951569

$$$$
40
                    3D
 Structure written by MMmdl.
176185  0  0  1  0            999 V2000
  -30.5844  -14.6641   20.4986 C   0  0  0  0  0  0
  -30.4446  -12.4057   19.4613 C   0  0  0  0  0  0
  -29.5112  -12.5090   18.2328 C   0  0  0  0  0  0
  -28.0320  -12.3518   18.6399 C   0  0  0  0  0  0
  -27.6544  -13.2179   19.8712 C   0  0  2  0  0  0
  -28.6962  -13.0591   21.0012 C   0  0  0  0  0  0
  -25.2561  -13.8191   20.5707 C   0  0  0  0  0  0
  -24.1835  -13.0431   20.9198 C   0  0  0  0  0  0
  -24.6420  -11.6911   20.8762 C   0  0  0  0  0  0
  -23.9092  -10.4277   21.0420 C   0  0  0  0  0  0
  -24.3640   -9.4183   21.9192 C   0  0  0  0  0  0
  -23.6306   -8.2227   22.0760 C   0  0  0  0  0  0
  -22.4286   -8.0286   21.3544 C   0  0  0  0  0  0
  -21.9926   -9.0261   20.4642 C   0  0  0  0  0  0
  -22.7267  -10.2131   20.3053 C   0  0  0  0  0  0
  -21.6854   -6.0740   22.5284 C   0  0  0  0  0  0
  -21.4006   -6.5647   23.8218 C   0  0  0  0  0  0
  -21.3660   -5.6804   24.9186 C   0  0  0  0  0  0
  -21.6050   -4.3066   24.7231 C   0  0  0  0  0  0
  -21.8825   -3.8145   23.4354 C   0  0  0  0  0  0
  -21.9191   -4.6963   22.3407 C   0  0  0  0  0  0
  -22.7849  -13.5199   21.1855 C   0  0  0  0  0  0
  -22.1660   -4.2154   21.0986 F   0  0  0  0  0  0
  -21.5624   -3.4547   25.7738 F   0  0  0  0  0  0
  -30.0092  -13.4203   20.4441 N   0  0  0  0  0  0
  -26.2998  -12.9369   20.3360 N   0  0  0  0  0  0
  -25.9345  -11.6518   20.5785 N   0  0  0  0  0  0
  -22.0513  -12.8163   22.0416 N   0  0  0  0  0  0
  -25.4276  -15.1909   20.4123 N   0  0  0  0  0  0
  -31.7452  -14.8445   20.1153 O   0  0  0  0  0  0
  -21.6635   -6.8895   21.4254 O   0  0  0  0  0  0
  -22.3515  -14.5502   20.6719 O   0  0  0  0  0  0
  -24.6243  -31.8598   23.2024 C   0  0  0  0  0  0
  -25.9075  -32.4778   23.8371 C   0  0  1  0  0  0
  -27.2269  -27.3078   20.1335 C   0  0  0  0  0  0
  -25.5898  -33.8578   24.2302 N   0  0  0  0  0  0
  -23.4203  -30.4790   21.5458 C   0  0  2  0  0  0
  -24.8693  -28.9207   20.1261 C   0  0  0  0  0  0
  -22.7476  -29.4603   22.4969 C   0  0  0  0  0  0
  -18.0286  -28.1365   22.8501 C   0  0  0  0  0  0
  -24.1495  -36.7291   23.2648 C   0  0  0  0  0  0
  -25.9606  -30.7829   21.3791 C   0  0  0  0  0  0
  -26.0358  -29.4031   20.7353 C   0  0  0  0  0  0
  -27.2203  -28.6065   20.7315 C   0  0  0  0  0  0
  -26.0474  -26.8825   19.4930 C   0  0  0  0  0  0
  -24.8757  -27.6640   19.4985 C   0  0  0  0  0  0
  -23.6387  -29.8047   20.1657 C   0  0  0  0  0  0
  -25.4115  -36.3087   24.0348 C   0  0  1  0  0  0
  -20.5887  -28.3668   23.1301 C   0  0  2  0  0  0
  -20.6768  -26.9393   22.5417 C   0  0  0  0  0  0
  -19.5745  -26.6373   21.5213 C   0  0  0  0  0  0
  -18.1926  -26.7918   22.1622 C   0  0  0  0  0  0
  -19.1536  -28.8836   23.2897 C   0  0  0  0  0  0
  -18.9456  -30.1447   23.8905 C   0  0  0  0  0  0
  -17.6453  -30.6581   24.0555 C   0  0  0  0  0  0
  -25.9038  -34.9444   23.5130 C   0  0  0  0  0  0
  -16.5347  -29.9077   23.6330 C   0  0  0  0  0  0
  -16.7272  -28.6483   23.0374 C   0  0  0  0  0  0
  -26.4458  -31.6576   25.0733 C   0  0  0  0  0  0
  -25.3688  -31.3690   26.1460 C   0  0  0  0  0  0
  -27.0319  -30.3018   24.6164 C   0  0  0  0  0  0
  -27.6044  -32.4300   25.7489 C   0  0  0  0  0  0
  -27.5592  -37.1803   24.8468 C   0  0  0  0  0  0
  -21.4185  -29.3026   22.3706 N   0  0  0  0  0  0
  -26.4303  -37.3772   23.9409 N   0  0  0  0  0  0
  -24.6869  -31.0584   22.0997 N   0  0  0  0  0  0
  -23.4191  -28.8152   23.3062 O   0  0  0  0  0  0
  -28.3603  -26.4887   20.0251 O   0  0  0  0  0  0
  -26.5622  -34.8907   22.4703 O   0  0  0  0  0  0
  -23.5398  -32.1402   23.7335 O   0  0  0  0  0  0
  -28.8823  -19.3822   21.3679 C   0  0  0  0  0  0
  -29.1287  -20.0203   20.1252 C   0  0  0  0  0  0
  -29.1578  -18.0005   21.6029 C   0  0  0  0  0  0
  -29.7105  -19.1799   19.1157 C   0  0  0  0  0  0
  -29.9241  -17.7630   19.3224 C   0  0  0  0  0  0
  -29.6801  -17.1409   20.5903 C   0  0  0  0  0  0
  -28.0256  -23.9657   20.7924 C   0  0  0  0  0  0
  -26.6885  -23.8563   20.9828 C   0  0  0  0  0  0
  -30.7776  -24.1775   20.0102 C   0  0  0  0  0  0
  -30.2648  -25.3571   20.8263 C   0  0  0  0  0  0
  -30.4044  -22.8939   20.7493 C   0  0  0  0  0  0
  -28.7211  -25.3993   20.9700 C   0  0  1  0  0  0
  -28.8173  -17.4305   22.9719 C   0  0  0  0  0  0
  -30.0554  -19.7950   17.7572 C   0  0  0  0  0  0
  -30.3242  -16.8894   18.1349 C   0  0  0  0  0  0
  -25.8220  -22.6172   21.1339 C   0  0  0  0  0  0
  -28.4239  -25.9306   22.3935 C   0  0  0  0  0  0
  -28.5976  -21.5010   19.8326 C   0  0  0  0  0  0
  -29.7405  -15.6900   20.8609 N   0  0  0  0  0  0
  -28.9385  -22.6659   20.7606 N   0  3  2  0  0  0
  -31.4842  -12.5484   19.1565 H   0  0  0  0  0  0
  -30.3968  -11.4085   19.9017 H   0  0  0  0  0  0
  -29.7745  -11.7494   17.4947 H   0  0  0  0  0  0
  -29.6567  -13.4723   17.7434 H   0  0  0  0  0  0
  -27.8598  -11.2981   18.8620 H   0  0  0  0  0  0
  -27.3831  -12.5914   17.7981 H   0  0  0  0  0  0
  -27.6731  -14.2556   19.5392 H   0  0  0  0  0  0
  -28.7116  -12.0294   21.3630 H   0  0  0  0  0  0
  -28.4375  -13.6701   21.8671 H   0  0  0  0  0  0
  -25.2796   -9.5636   22.4747 H   0  0  0  0  0  0
  -24.0012   -7.4609   22.7471 H   0  0  0  0  0  0
  -21.0868   -8.8795   19.8930 H   0  0  0  0  0  0
  -22.3765  -10.9678   19.6147 H   0  0  0  0  0  0
  -21.2005   -7.6159   23.9722 H   0  0  0  0  0  0
  -21.1475   -6.0538   25.9100 H   0  0  0  0  0  0
  -22.0604   -2.7605   23.2860 H   0  0  0  0  0  0
  -22.4166  -11.9830   22.4778 H   0  0  0  0  0  0
  -21.1121  -13.1151   22.2635 H   0  0  0  0  0  0
  -24.6608  -15.8459   20.5220 H   0  0  0  0  0  0
  -26.2816  -15.6327   20.0946 H   0  0  0  0  0  0
  -26.7140  -32.5457   23.1125 H   0  0  0  0  0  0
  -25.0034  -33.9729   25.0441 H   0  0  0  0  0  0
  -22.7130  -31.2980   21.3980 H   0  0  0  0  0  0
  -23.3763  -35.9616   23.3291 H   0  0  0  0  0  0
  -24.3596  -36.8921   22.2066 H   0  0  0  0  0  0
  -23.7228  -37.6483   23.6674 H   0  0  0  0  0  0
  -26.0906  -31.5389   20.6029 H   0  0  0  0  0  0
  -26.8419  -30.8405   22.0066 H   0  0  0  0  0  0
  -28.1248  -28.9805   21.1908 H   0  0  0  0  0  0
  -26.0367  -25.9313   18.9811 H   0  0  0  0  0  0
  -23.9846  -27.2936   19.0110 H   0  0  0  0  0  0
  -23.7609  -30.5763   19.4049 H   0  0  0  0  0  0
  -22.7589  -29.2328   19.8646 H   0  0  0  0  0  0
  -25.1289  -36.1961   25.0845 H   0  0  0  0  0  0
  -20.9967  -28.3229   24.1423 H   0  0  0  0  0  0
  -20.5666  -26.2270   23.3607 H   0  0  0  0  0  0
  -21.6644  -26.7423   22.1217 H   0  0  0  0  0  0
  -19.6908  -25.6284   21.1246 H   0  0  0  0  0  0
  -19.6686  -27.3183   20.6741 H   0  0  0  0  0  0
  -17.4200  -26.6693   21.4016 H   0  0  0  0  0  0
  -18.0311  -26.0042   22.8993 H   0  0  0  0  0  0
  -19.7924  -30.7269   24.2277 H   0  0  0  0  0  0
  -17.4998  -31.6264   24.5150 H   0  0  0  0  0  0
  -15.5349  -30.2979   23.7625 H   0  0  0  0  0  0
  -15.8673  -28.0785   22.7105 H   0  0  0  0  0  0
  -24.5879  -30.7031   25.7766 H   0  0  0  0  0  0
  -24.8852  -32.2841   26.4899 H   0  0  0  0  0  0
  -25.8009  -30.8856   27.0231 H   0  0  0  0  0  0
  -26.2907  -29.6773   24.1178 H   0  0  0  0  0  0
  -27.4030  -29.7266   25.4652 H   0  0  0  0  0  0
  -27.8758  -30.4343   23.9393 H   0  0  0  0  0  0
  -27.2690  -33.3604   26.2085 H   0  0  0  0  0  0
  -28.3831  -32.6848   25.0287 H   0  0  0  0  0  0
  -28.0734  -31.8406   26.5376 H   0  0  0  0  0  0
  -28.2596  -38.0111   24.7526 H   0  0  0  0  0  0
  -28.1101  -36.2644   24.6284 H   0  0  0  0  0  0
  -27.2316  -37.1440   25.8871 H   0  0  0  0  0  0
  -20.9362  -29.8744   21.6913 H   0  0  0  0  0  0
  -26.0194  -38.2856   24.1385 H   0  0  0  0  0  0
  -28.4235  -19.9534   22.1632 H   0  0  0  0  0  0
  -26.1255  -24.7709   21.0834 H   0  0  0  0  0  0
  -31.8628  -24.2422   19.9204 H   0  0  0  0  0  0
  -30.3760  -24.1902   18.9957 H   0  0  0  0  0  0
  -30.6373  -26.2888   20.3975 H   0  0  0  0  0  0
  -30.7374  -25.3055   21.8093 H   0  0  0  0  0  0
  -30.7440  -22.9448   21.7842 H   0  0  0  0  0  0
  -30.9413  -22.0498   20.3136 H   0  0  0  0  0  0
  -28.6096  -18.2214   23.6933 H   0  0  0  0  0  0
  -29.6457  -16.8419   23.3674 H   0  0  0  0  0  0
  -27.9351  -16.7920   22.9139 H   0  0  0  0  0  0
  -30.4544  -20.8036   17.8531 H   0  0  0  0  0  0
  -29.1716  -19.8305   17.1197 H   0  0  0  0  0  0
  -30.8375  -19.2525   17.2274 H   0  0  0  0  0  0
  -29.9339  -17.2667   17.1905 H   0  0  0  0  0  0
  -29.9102  -15.8871   18.2086 H   0  0  0  0  0  0
  -31.4088  -16.8131   18.0638 H   0  0  0  0  0  0
  -26.3598  -21.7564   21.5267 H   0  0  0  0  0  0
  -25.3520  -22.3546   20.1860 H   0  0  0  0  0  0
  -25.0227  -22.8242   21.8464 H   0  0  0  0  0  0
  -28.7543  -25.2230   23.1545 H   0  0  0  0  0  0
  -27.3624  -26.1086   22.5645 H   0  0  0  0  0  0
  -28.9439  -26.8713   22.5797 H   0  0  0  0  0  0
  -27.5245  -21.3916   19.7338 H   0  0  0  0  0  0
  -28.8758  -21.8297   18.8347 H   0  0  0  0  0  0
  -28.9225  -15.3400   21.3344 H   0  0  0  0  0  0
  -28.7987  -22.2384   21.6624 H   0  0  0  0  0  0
  1 25  1  0  0  0
  1 30  2  0  0  0
  1 89  1  0  0  0
  2  3  1  0  0  0
  2 25  1  0  0  0
  2 91  1  0  0  0
  2 92  1  0  0  0
  3  4  1  0  0  0
  3 93  1  0  0  0
  3 94  1  0  0  0
  4  5  1  0  0  0
  4 95  1  0  0  0
  4 96  1  0  0  0
  5  6  1  0  0  0
  5 26  1  0  0  0
  5 97  1  0  0  0
  6 25  1  0  0  0
  6 98  1  0  0  0
  6 99  1  0  0  0
  7  8  2  0  0  0
  7 26  1  0  0  0
  7 29  1  0  0  0
  8  9  1  0  0  0
  8 22  1  0  0  0
  9 10  1  0  0  0
  9 27  2  0  0  0
 10 11  2  0  0  0
 10 15  1  0  0  0
 11 12  1  0  0  0
 11100  1  0  0  0
 12 13  2  0  0  0
 12101  1  0  0  0
 13 14  1  0  0  0
 13 31  1  0  0  0
 14 15  2  0  0  0
 14102  1  0  0  0
 15103  1  0  0  0
 16 17  2  0  0  0
 16 21  1  0  0  0
 16 31  1  0  0  0
 17 18  1  0  0  0
 17104  1  0  0  0
 18 19  2  0  0  0
 18105  1  0  0  0
 19 20  1  0  0  0
 19 24  1  0  0  0
 20 21  2  0  0  0
 20106  1  0  0  0
 21 23  1  0  0  0
 22 28  1  0  0  0
 22 32  2  0  0  0
 26 27  1  0  0  0
 28107  1  0  0  0
 28108  1  0  0  0
 29109  1  0  0  0
 29110  1  0  0  0
 33 34  1  0  0  0
 33 66  1  0  0  0
 33 70  2  0  0  0
 34 36  1  0  0  0
 34 59  1  0  0  0
 34111  1  0  0  0
 35 44  2  0  0  0
 35 45  1  0  0  0
 35 68  1  0  0  0
 36 56  1  0  0  0
 36112  1  0  0  0
 37 39  1  0  0  0
 37 47  1  0  0  0
 37 66  1  0  0  0
 37113  1  0  0  0
 38 43  2  0  0  0
 38 46  1  0  0  0
 38 47  1  0  0  0
 39 64  1  0  0  0
 39 67  2  0  0  0
 40 52  1  0  0  0
 40 53  2  0  0  0
 40 58  1  0  0  0
 41114  1  0  0  0
 41115  1  0  0  0
 41116  1  0  0  0
 41 48  1  0  0  0
 42 43  1  0  0  0
 42 66  1  0  0  0
 42117  1  0  0  0
 42118  1  0  0  0
 43 44  1  0  0  0
 44119  1  0  0  0
 45 46  2  0  0  0
 45120  1  0  0  0
 46121  1  0  0  0
 47122  1  0  0  0
 47123  1  0  0  0
 48 56  1  0  0  0
 48 65  1  0  0  0
 48124  1  0  0  0
 49 50  1  0  0  0
 49 53  1  0  0  0
 49 64  1  0  0  0
 49125  1  0  0  0
 50 51  1  0  0  0
 50126  1  0  0  0
 50127  1  0  0  0
 51 52  1  0  0  0
 51128  1  0  0  0
 51129  1  0  0  0
 52130  1  0  0  0
 52131  1  0  0  0
 53 54  1  0  0  0
 54 55  2  0  0  0
 54132  1  0  0  0
 55 57  1  0  0  0
 55133  1  0  0  0
 56 69  2  0  0  0
 57 58  2  0  0  0
 57134  1  0  0  0
 58135  1  0  0  0
 59 60  1  0  0  0
 59 61  1  0  0  0
 59 62  1  0  0  0
 60136  1  0  0  0
 60137  1  0  0  0
 60138  1  0  0  0
 61139  1  0  0  0
 61140  1  0  0  0
 61141  1  0  0  0
 62142  1  0  0  0
 62143  1  0  0  0
 62144  1  0  0  0
 63 65  1  0  0  0
 63145  1  0  0  0
 63146  1  0  0  0
 63147  1  0  0  0
 64148  1  0  0  0
 65149  1  0  0  0
 68 82  1  0  0  0
 71 72  2  0  0  0
 71 73  1  0  0  0
 71150  1  0  0  0
 72 74  1  0  0  0
 72 88  1  0  0  0
 73 76  2  0  0  0
 73 83  1  0  0  0
 74 75  2  0  0  0
 74 84  1  0  0  0
 75 76  1  0  0  0
 75 85  1  0  0  0
 76 89  1  0  0  0
 77 78  2  0  0  0
 77 82  1  0  0  0
 77 90  1  0  0  0
 78 86  1  0  0  0
 78151  1  0  0  0
 79 80  1  0  0  0
 79 81  1  0  0  0
 79152  1  0  0  0
 79153  1  0  0  0
 80 82  1  0  0  0
 80154  1  0  0  0
 80155  1  0  0  0
 81 90  1  0  0  0
 81156  1  0  0  0
 81157  1  0  0  0
 82 87  1  0  0  0
 83158  1  0  0  0
 83159  1  0  0  0
 83160  1  0  0  0
 84161  1  0  0  0
 84162  1  0  0  0
 84163  1  0  0  0
 85164  1  0  0  0
 85165  1  0  0  0
 85166  1  0  0  0
 86167  1  0  0  0
 86168  1  0  0  0
 86169  1  0  0  0
 87170  1  0  0  0
 87171  1  0  0  0
 87172  1  0  0  0
 88173  1  0  0  0
 88174  1  0  0  0
 88 90  1  0  0  0
 89175  1  0  0  0
 90176  1  0  0  0
M  CHG  1  90   1
M  ISO  4   1 100  68 101  82 101  89 100
M  END
> <chiral flag>
0

> <version>
0

> <s_m_source_file>
/data/baiqing/PycharmProjects/Reinvent-master-3.2/result/LINK_invent/BTK/process_docking_weight1_custom_product_contain_oxygen_bond_distance_aromatic_linkinvent_7_9_3/rearranged_h_0031.sdf

> <i_m_source_file_index>
41

> <r_mmod_Potential_Energy-OPLS-2005>
49.331371307373

> <r_mmod_Stretch_Energy-OPLS-2005>
116.115257263184

> <r_mmod_Bend_Energy-OPLS-2005>
198.431304931641

> <r_mmod_Torsional_Energy-OPLS-2005>
287.988342285156

> <r_mmod_Improper_Torsional_Energy-OPLS-2005>
6.77604103088379

> <r_mmod_Van_der_Waal_Energy-OPLS-2005>
156.052429199219

> <r_mmod_Electrostatic_Energy-OPLS-2005>
-354.199554443359

> <r_mmod_Solvation_Energy-OPLS-2005>
-412.765350341797

> <b_mmod_Minimization_Converged-OPLS-2005>
0

> <r_mmod_RMS_Derivative-OPLS-2005>
2.27917957305908

$$$$
41
                    3D
 Structure written by MMmdl.
167176  0  0  1  0            999 V2000
  -30.6890  -14.5147   20.4885 C   0  0  0  0  0  0
  -30.4147  -12.3081   19.4528 C   0  0  0  0  0  0
  -29.5004  -12.4883   18.2236 C   0  0  0  0  0  0
  -28.0184  -12.3570   18.6221 C   0  0  0  0  0  0
  -27.6541  -13.2143   19.8643 C   0  0  2  0  0  0
  -28.6932  -13.0491   20.9978 C   0  0  0  0  0  0
  -25.2563  -13.8186   20.5668 C   0  0  0  0  0  0
  -24.1833  -13.0446   20.9159 C   0  0  0  0  0  0
  -24.6388  -11.6918   20.8712 C   0  0  0  0  0  0
  -23.9025  -10.4312   21.0381 C   0  0  0  0  0  0
  -24.3599   -9.4227   21.9169 C   0  0  0  0  0  0
  -23.6286   -8.2250   22.0741 C   0  0  0  0  0  0
  -22.4264   -8.0282   21.3529 C   0  0  0  0  0  0
  -21.9884   -9.0244   20.4621 C   0  0  0  0  0  0
  -22.7193  -10.2129   20.3030 C   0  0  0  0  0  0
  -21.6859   -6.0720   22.5270 C   0  0  0  0  0  0
  -21.4025   -6.5627   23.8204 C   0  0  0  0  0  0
  -21.3659   -5.6776   24.9174 C   0  0  0  0  0  0
  -21.6049   -4.3036   24.7213 C   0  0  0  0  0  0
  -21.8819   -3.8126   23.4327 C   0  0  0  0  0  0
  -21.9207   -4.6954   22.3390 C   0  0  0  0  0  0
  -22.7860  -13.5257   21.1815 C   0  0  0  0  0  0
  -22.1674   -4.2150   21.0960 F   0  0  0  0  0  0
  -21.5621   -3.4514   25.7715 F   0  0  0  0  0  0
  -30.0246  -13.3271   20.4426 N   0  0  0  0  0  0
  -26.2988  -12.9359   20.3321 N   0  0  0  0  0  0
  -25.9322  -11.6514   20.5728 N   0  0  0  0  0  0
  -22.0494  -12.8259   22.0380 N   0  0  0  0  0  0
  -25.4285  -15.1919   20.4096 N   0  0  0  0  0  0
  -31.8615  -14.6270   20.1272 O   0  0  0  0  0  0
  -21.6645   -6.8861   21.4226 O   0  0  0  0  0  0
  -22.3541  -14.5556   20.6647 O   0  0  0  0  0  0
  -24.6124  -31.8676   23.2080 C   0  0  0  0  0  0
  -25.9010  -32.4813   23.8359 C   0  0  1  0  0  0
  -27.2178  -27.4141   20.1064 C   0  0  0  0  0  0
  -25.5826  -33.8604   24.2262 N   0  0  0  0  0  0
  -23.3998  -30.4926   21.5508 C   0  0  2  0  0  0
  -24.8445  -28.9617   20.1099 C   0  0  0  0  0  0
  -22.7367  -29.4664   22.4992 C   0  0  0  0  0  0
  -18.0260  -28.1395   22.8495 C   0  0  0  0  0  0
  -24.1476  -36.7309   23.2643 C   0  0  0  0  0  0
  -25.9327  -30.8269   21.3685 C   0  0  0  0  0  0
  -26.0082  -29.4655   20.7068 C   0  0  0  0  0  0
  -27.2000  -28.7003   20.7005 C   0  0  0  0  0  0
  -26.0458  -26.9535   19.4636 C   0  0  0  0  0  0
  -24.8591  -27.7056   19.4836 C   0  0  0  0  0  0
  -23.6046  -29.8244   20.1657 C   0  0  0  0  0  0
  -25.4103  -36.3090   24.0318 C   0  0  1  0  0  0
  -20.5845  -28.3651   23.1331 C   0  0  2  0  0  0
  -20.6733  -26.9388   22.5419 C   0  0  0  0  0  0
  -19.5711  -26.6384   21.5209 C   0  0  0  0  0  0
  -18.1897  -26.7935   22.1642 C   0  0  0  0  0  0
  -19.1506  -28.8831   23.2922 C   0  0  0  0  0  0
  -18.9463  -30.1443   23.8925 C   0  0  0  0  0  0
  -17.6468  -30.6604   24.0565 C   0  0  0  0  0  0
  -25.9031  -34.9464   23.5090 C   0  0  0  0  0  0
  -16.5356  -29.9122   23.6322 C   0  0  0  0  0  0
  -16.7247  -28.6539   23.0340 C   0  0  0  0  0  0
  -26.4369  -31.6619   25.0732 C   0  0  0  0  0  0
  -25.3571  -31.3850   26.1443 C   0  0  0  0  0  0
  -27.0171  -30.3016   24.6216 C   0  0  0  0  0  0
  -27.5923  -32.4334   25.7520 C   0  0  0  0  0  0
  -27.5570  -37.1804   24.8448 C   0  0  0  0  0  0
  -21.4096  -29.3032   22.3735 N   0  0  0  0  0  0
  -26.4286  -37.3780   23.9386 N   0  0  0  0  0  0
  -24.6661  -31.0765   22.1000 N   0  0  0  0  0  0
  -23.4138  -28.8202   23.3039 O   0  0  0  0  0  0
  -28.3511  -26.6200   20.1647 O   0  0  0  0  0  0
  -26.5662  -34.8928   22.4710 O   0  0  0  0  0  0
  -23.5310  -32.1466   23.7446 O   0  0  0  0  0  0
  -29.1347  -20.4739   19.6539 C   0  0  0  0  0  0
  -30.3686  -21.0809   19.9778 C   0  0  0  0  0  0
  -31.3939  -20.2471   20.5272 C   0  0  0  0  0  0
  -31.2147  -18.8252   20.5776 C   0  0  0  0  0  0
  -30.0374  -18.2227   20.0571 C   0  0  0  0  0  0
  -28.9656  -19.0725   19.6806 C   0  0  0  0  0  0
  -29.8995  -23.8895   21.6035 C   0  0  0  0  0  0
  -30.7158  -23.3644   22.5309 C   0  0  0  0  0  0
  -28.7342  -24.8324   21.8542 C   0  0  0  0  0  0
  -28.7932  -24.2627   19.4916 C   0  0  0  0  0  0
  -28.1334  -25.2186   20.4960 C   0  0  2  0  0  0
  -32.7296  -20.8293   20.9992 C   0  0  0  0  0  0
  -32.3166  -17.9088   21.1069 C   0  0  0  0  0  0
  -30.0274  -16.7262   19.6374 C   0  0  0  0  0  0
  -30.6236  -22.5322   19.4704 C   0  0  0  0  0  0
  -29.9165  -15.6176   20.6154 N   0  0  0  0  0  0
  -30.0298  -23.7461   20.1259 N   0  3  2  0  0  0
  -27.4559  -18.4361   19.1267 Cl  0  0  0  0  0  0
  -31.4631  -12.3851   19.1608 H   0  0  0  0  0  0
  -30.2961  -11.3110   19.8779 H   0  0  0  0  0  0
  -29.7486  -11.7464   17.4639 H   0  0  0  0  0  0
  -29.6793  -13.4642   17.7700 H   0  0  0  0  0  0
  -27.8230  -11.3023   18.8248 H   0  0  0  0  0  0
  -27.3790  -12.6289   17.7798 H   0  0  0  0  0  0
  -27.6787  -14.2537   19.5381 H   0  0  0  0  0  0
  -28.6646  -12.0314   21.3930 H   0  0  0  0  0  0
  -28.4596  -13.7082   21.8364 H   0  0  0  0  0  0
  -25.2745   -9.5739   22.4726 H   0  0  0  0  0  0
  -24.0019   -7.4653   22.7459 H   0  0  0  0  0  0
  -21.0814   -8.8708   19.8937 H   0  0  0  0  0  0
  -22.3618  -10.9649   19.6122 H   0  0  0  0  0  0
  -21.2009   -7.6137   23.9707 H   0  0  0  0  0  0
  -21.1494   -6.0507   25.9080 H   0  0  0  0  0  0
  -22.0604   -2.7589   23.2820 H   0  0  0  0  0  0
  -22.4100  -11.9936   22.4826 H   0  0  0  0  0  0
  -21.1103  -13.1264   22.2517 H   0  0  0  0  0  0
  -24.6564  -15.8404   20.5004 H   0  0  0  0  0  0
  -26.2770  -15.6380   20.0842 H   0  0  0  0  0  0
  -26.7105  -32.5489   23.1136 H   0  0  0  0  0  0
  -24.9737  -33.9748   25.0229 H   0  0  0  0  0  0
  -22.6889  -31.3101   21.4093 H   0  0  0  0  0  0
  -23.3716  -35.9663   23.3307 H   0  0  0  0  0  0
  -24.3577  -36.8942   22.2063 H   0  0  0  0  0  0
  -23.7254  -37.6518   23.6675 H   0  0  0  0  0  0
  -26.0590  -31.6011   20.6116 H   0  0  0  0  0  0
  -26.8126  -30.8693   21.9974 H   0  0  0  0  0  0
  -28.0909  -29.0753   21.1869 H   0  0  0  0  0  0
  -26.0313  -26.0022   18.9506 H   0  0  0  0  0  0
  -23.9670  -27.3155   19.0114 H   0  0  0  0  0  0
  -23.6958  -30.5922   19.3976 H   0  0  0  0  0  0
  -22.7325  -29.2318   19.8829 H   0  0  0  0  0  0
  -25.1309  -36.1921   25.0814 H   0  0  0  0  0  0
  -20.9945  -28.3203   24.1446 H   0  0  0  0  0  0
  -20.5581  -26.2270   23.3611 H   0  0  0  0  0  0
  -21.6619  -26.7390   22.1245 H   0  0  0  0  0  0
  -19.6849  -25.6287   21.1249 H   0  0  0  0  0  0
  -19.6663  -27.3193   20.6742 H   0  0  0  0  0  0
  -17.4150  -26.6638   21.4072 H   0  0  0  0  0  0
  -18.0336  -26.0103   22.9078 H   0  0  0  0  0  0
  -19.7950  -30.7233   24.2307 H   0  0  0  0  0  0
  -17.5051  -31.6292   24.5164 H   0  0  0  0  0  0
  -15.5364  -30.3056   23.7642 H   0  0  0  0  0  0
  -15.8641  -28.0882   22.7043 H   0  0  0  0  0  0
  -24.5655  -30.7321   25.7747 H   0  0  0  0  0  0
  -24.8864  -32.3089   26.4821 H   0  0  0  0  0  0
  -25.7800  -30.8990   27.0242 H   0  0  0  0  0  0
  -26.2791  -29.6880   24.1039 H   0  0  0  0  0  0
  -27.3590  -29.7181   25.4777 H   0  0  0  0  0  0
  -27.8772  -30.4255   23.9633 H   0  0  0  0  0  0
  -27.2475  -33.3581   26.2154 H   0  0  0  0  0  0
  -28.3700  -32.6986   25.0349 H   0  0  0  0  0  0
  -28.0601  -31.8421   26.5400 H   0  0  0  0  0  0
  -28.2577  -38.0107   24.7474 H   0  0  0  0  0  0
  -28.1077  -36.2637   24.6288 H   0  0  0  0  0  0
  -27.2290  -37.1464   25.8853 H   0  0  0  0  0  0
  -20.9220  -29.8799   21.7015 H   0  0  0  0  0  0
  -26.0156  -38.2847   24.1405 H   0  0  0  0  0  0
  -28.3253  -21.0714   19.2604 H   0  0  0  0  0  0
  -30.5439  -23.5612   23.5788 H   0  0  0  0  0  0
  -31.5631  -22.7501   22.2879 H   0  0  0  0  0  0
  -29.0492  -25.7105   22.4195 H   0  0  0  0  0  0
  -27.9976  -24.3018   22.4593 H   0  0  0  0  0  0
  -28.9983  -24.7511   18.5397 H   0  0  0  0  0  0
  -28.1183  -23.4291   19.2967 H   0  0  0  0  0  0
  -27.0751  -24.9669   20.5590 H   0  0  0  0  0  0
  -32.9015  -21.8716   20.7499 H   0  0  0  0  0  0
  -33.5740  -20.2850   20.5771 H   0  0  0  0  0  0
  -32.7966  -20.7611   22.0867 H   0  0  0  0  0  0
  -33.0681  -18.4155   21.7095 H   0  0  0  0  0  0
  -32.8291  -17.3991   20.2907 H   0  0  0  0  0  0
  -31.8846  -17.1514   21.7591 H   0  0  0  0  0  0
  -30.9246  -16.6089   19.0262 H   0  0  0  0  0  0
  -29.2368  -16.5496   18.9101 H   0  0  0  0  0  0
  -30.2833  -22.5389   18.4335 H   0  0  0  0  0  0
  -31.6838  -22.7208   19.3406 H   0  0  0  0  0  0
  -28.9949  -15.4544   20.9872 H   0  0  0  0  0  0
  -30.6999  -24.4532   19.8567 H   0  0  0  0  0  0
  1 25  1  0  0  0
  1 30  2  0  0  0
  1 86  1  0  0  0
  2  3  1  0  0  0
  2 25  1  0  0  0
  2 89  1  0  0  0
  2 90  1  0  0  0
  3  4  1  0  0  0
  3 91  1  0  0  0
  3 92  1  0  0  0
  4  5  1  0  0  0
  4 93  1  0  0  0
  4 94  1  0  0  0
  5  6  1  0  0  0
  5 26  1  0  0  0
  5 95  1  0  0  0
  6 25  1  0  0  0
  6 96  1  0  0  0
  6 97  1  0  0  0
  7  8  2  0  0  0
  7 26  1  0  0  0
  7 29  1  0  0  0
  8  9  1  0  0  0
  8 22  1  0  0  0
  9 10  1  0  0  0
  9 27  2  0  0  0
 10 11  2  0  0  0
 10 15  1  0  0  0
 11 12  1  0  0  0
 11 98  1  0  0  0
 12 13  2  0  0  0
 12 99  1  0  0  0
 13 14  1  0  0  0
 13 31  1  0  0  0
 14 15  2  0  0  0
 14100  1  0  0  0
 15101  1  0  0  0
 16 17  2  0  0  0
 16 21  1  0  0  0
 16 31  1  0  0  0
 17 18  1  0  0  0
 17102  1  0  0  0
 18 19  2  0  0  0
 18103  1  0  0  0
 19 20  1  0  0  0
 19 24  1  0  0  0
 20 21  2  0  0  0
 20104  1  0  0  0
 21 23  1  0  0  0
 22 28  1  0  0  0
 22 32  2  0  0  0
 26 27  1  0  0  0
 28105  1  0  0  0
 28106  1  0  0  0
 29107  1  0  0  0
 29108  1  0  0  0
 33 34  1  0  0  0
 33 66  1  0  0  0
 33 70  2  0  0  0
 34 36  1  0  0  0
 34 59  1  0  0  0
 34109  1  0  0  0
 35 44  2  0  0  0
 35 45  1  0  0  0
 35 68  1  0  0  0
 36 56  1  0  0  0
 36110  1  0  0  0
 37 39  1  0  0  0
 37 47  1  0  0  0
 37 66  1  0  0  0
 37111  1  0  0  0
 38 43  2  0  0  0
 38 46  1  0  0  0
 38 47  1  0  0  0
 39 64  1  0  0  0
 39 67  2  0  0  0
 40 52  1  0  0  0
 40 53  2  0  0  0
 40 58  1  0  0  0
 41112  1  0  0  0
 41113  1  0  0  0
 41114  1  0  0  0
 41 48  1  0  0  0
 42 43  1  0  0  0
 42 66  1  0  0  0
 42115  1  0  0  0
 42116  1  0  0  0
 43 44  1  0  0  0
 44117  1  0  0  0
 45 46  2  0  0  0
 45118  1  0  0  0
 46119  1  0  0  0
 47120  1  0  0  0
 47121  1  0  0  0
 48 56  1  0  0  0
 48 65  1  0  0  0
 48122  1  0  0  0
 49 50  1  0  0  0
 49 53  1  0  0  0
 49 64  1  0  0  0
 49123  1  0  0  0
 50 51  1  0  0  0
 50124  1  0  0  0
 50125  1  0  0  0
 51 52  1  0  0  0
 51126  1  0  0  0
 51127  1  0  0  0
 52128  1  0  0  0
 52129  1  0  0  0
 53 54  1  0  0  0
 54 55  2  0  0  0
 54130  1  0  0  0
 55 57  1  0  0  0
 55131  1  0  0  0
 56 69  2  0  0  0
 57 58  2  0  0  0
 57132  1  0  0  0
 58133  1  0  0  0
 59 60  1  0  0  0
 59 61  1  0  0  0
 59 62  1  0  0  0
 60134  1  0  0  0
 60135  1  0  0  0
 60136  1  0  0  0
 61137  1  0  0  0
 61138  1  0  0  0
 61139  1  0  0  0
 62140  1  0  0  0
 62141  1  0  0  0
 62142  1  0  0  0
 63 65  1  0  0  0
 63143  1  0  0  0
 63144  1  0  0  0
 63145  1  0  0  0
 64146  1  0  0  0
 65147  1  0  0  0
 68 81  1  0  0  0
 71 72  2  0  0  0
 71 76  1  0  0  0
 71148  1  0  0  0
 72 73  1  0  0  0
 72 85  1  0  0  0
 73 74  2  0  0  0
 73 82  1  0  0  0
 74 75  1  0  0  0
 74 83  1  0  0  0
 75 76  2  0  0  0
 75 84  1  0  0  0
 76 88  1  0  0  0
 77 78  2  0  0  0
 77 79  1  0  0  0
 77 87  1  0  0  0
 78149  1  0  0  0
 78150  1  0  0  0
 79 81  1  0  0  0
 79151  1  0  0  0
 79152  1  0  0  0
 80 81  1  0  0  0
 80 87  1  0  0  0
 80153  1  0  0  0
 80154  1  0  0  0
 81155  1  0  0  0
 82156  1  0  0  0
 82157  1  0  0  0
 82158  1  0  0  0
 83159  1  0  0  0
 83160  1  0  0  0
 83161  1  0  0  0
 84 86  1  0  0  0
 84162  1  0  0  0
 84163  1  0  0  0
 85164  1  0  0  0
 85165  1  0  0  0
 85 87  1  0  0  0
 86166  1  0  0  0
 87167  1  0  0  0
M  CHG  1  87   1
M  ISO  4   1 100  68 101  81 101  86 100
M  END
> <chiral flag>
0

> <version>
0

> <s_m_source_file>
/data/baiqing/PycharmProjects/Reinvent-master-3.2/result/LINK_invent/BTK/process_docking_weight1_custom_product_contain_oxygen_bond_distance_aromatic_linkinvent_7_9_3/rearranged_h_0031.sdf

> <i_m_source_file_index>
42

> <r_mmod_Potential_Energy-OPLS-2005>
-29.2938861846924

> <r_mmod_Stretch_Energy-OPLS-2005>
50.7499809265137

> <r_mmod_Bend_Energy-OPLS-2005>
158.204025268555

> <r_mmod_Torsional_Energy-OPLS-2005>
308.613861083984

> <r_mmod_Improper_Torsional_Energy-OPLS-2005>
15.4460563659668

> <r_mmod_Van_der_Waal_Energy-OPLS-2005>
156.711151123047

> <r_mmod_Electrostatic_Energy-OPLS-2005>
-321.765747070312

> <r_mmod_Solvation_Energy-OPLS-2005>
-420.831787109375

> <b_mmod_Minimization_Converged-OPLS-2005>
0

> <r_mmod_RMS_Derivative-OPLS-2005>
3.64862608909607

$$$$
42
                    3D
 Structure written by MMmdl.
158166  0  0  1  0            999 V2000
  -30.6003  -14.8635   20.4200 C   0  0  0  0  0  0
  -30.4315  -12.5438   19.4663 C   0  0  0  0  0  0
  -29.4992  -12.5251   18.2399 C   0  0  0  0  0  0
  -28.0399  -12.3225   18.6696 C   0  0  0  0  0  0
  -27.6376  -13.2445   19.8498 C   0  0  2  0  0  0
  -28.6905  -13.2518   20.9816 C   0  0  0  0  0  0
  -25.2488  -13.8218   20.5703 C   0  0  0  0  0  0
  -24.1808  -13.0431   20.9174 C   0  0  0  0  0  0
  -24.6454  -11.6907   20.8758 C   0  0  0  0  0  0
  -23.9119  -10.4275   21.0379 C   0  0  0  0  0  0
  -24.3655   -9.4193   21.9155 C   0  0  0  0  0  0
  -23.6329   -8.2230   22.0749 C   0  0  0  0  0  0
  -22.4306   -8.0280   21.3550 C   0  0  0  0  0  0
  -21.9927   -9.0241   20.4636 C   0  0  0  0  0  0
  -22.7274  -10.2121   20.3037 C   0  0  0  0  0  0
  -21.6850   -6.0730   22.5253 C   0  0  0  0  0  0
  -21.4045   -6.5636   23.8192 C   0  0  0  0  0  0
  -21.3655   -5.6784   24.9146 C   0  0  0  0  0  0
  -21.6048   -4.3042   24.7210 C   0  0  0  0  0  0
  -21.8817   -3.8141   23.4327 C   0  0  0  0  0  0
  -21.9205   -4.6952   22.3390 C   0  0  0  0  0  0
  -22.7817  -13.5199   21.1794 C   0  0  0  0  0  0
  -22.1656   -4.2114   21.0959 F   0  0  0  0  0  0
  -21.5617   -3.4535   25.7730 F   0  0  0  0  0  0
  -29.9686  -13.6295   20.3714 N   0  0  0  0  0  0
  -26.2962  -12.9470   20.3353 N   0  0  0  0  0  0
  -25.9424  -11.6589   20.5857 N   0  0  0  0  0  0
  -22.0505  -12.8218   22.0378 N   0  0  0  0  0  0
  -25.4038  -15.1970   20.4118 N   0  0  0  0  0  0
  -31.7942  -14.9138   20.1174 O   0  0  0  0  0  0
  -21.6664   -6.8884   21.4240 O   0  0  0  0  0  0
  -22.3483  -14.5482   20.6613 O   0  0  0  0  0  0
  -24.6369  -31.8491   23.1998 C   0  0  0  0  0  0
  -25.9160  -32.4737   23.8345 C   0  0  1  0  0  0
  -27.1930  -27.1696   20.1518 C   0  0  0  0  0  0
  -25.5924  -33.8531   24.2246 N   0  0  0  0  0  0
  -23.4403  -30.4729   21.5391 C   0  0  2  0  0  0
  -24.8887  -28.9143   20.1051 C   0  0  0  0  0  0
  -22.7544  -29.4568   22.4863 C   0  0  0  0  0  0
  -18.0319  -28.1406   22.8473 C   0  0  0  0  0  0
  -24.1483  -36.7280   23.2636 C   0  0  0  0  0  0
  -25.9939  -30.7208   21.4087 C   0  0  0  0  0  0
  -26.0541  -29.3350   20.7568 C   0  0  0  0  0  0
  -27.2034  -28.4679   20.7899 C   0  0  0  0  0  0
  -26.0460  -26.8975   19.3760 C   0  0  0  0  0  0
  -24.8940  -27.7071   19.3971 C   0  0  0  0  0  0
  -23.6665  -29.8128   20.1511 C   0  0  0  0  0  0
  -25.4121  -36.3044   24.0315 C   0  0  1  0  0  0
  -20.5909  -28.3714   23.1235 C   0  0  2  0  0  0
  -20.6800  -26.9412   22.5396 C   0  0  0  0  0  0
  -19.5768  -26.6376   21.5217 C   0  0  0  0  0  0
  -18.1952  -26.7943   22.1627 C   0  0  0  0  0  0
  -19.1563  -28.8891   23.2856 C   0  0  0  0  0  0
  -18.9465  -30.1484   23.8879 C   0  0  0  0  0  0
  -17.6462  -30.6594   24.0565 C   0  0  0  0  0  0
  -25.9069  -34.9425   23.5109 C   0  0  0  0  0  0
  -16.5356  -29.9082   23.6335 C   0  0  0  0  0  0
  -16.7307  -28.6505   23.0351 C   0  0  0  0  0  0
  -26.4521  -31.6599   25.0770 C   0  0  0  0  0  0
  -25.3732  -31.3760   26.1486 C   0  0  0  0  0  0
  -27.0397  -30.2984   24.6381 C   0  0  0  0  0  0
  -27.6043  -32.4383   25.7561 C   0  0  0  0  0  0
  -27.5589  -37.1806   24.8478 C   0  0  0  0  0  0
  -21.4238  -29.3046   22.3604 N   0  0  0  0  0  0
  -26.4291  -37.3746   23.9423 N   0  0  0  0  0  0
  -24.7094  -31.0363   22.1036 N   0  0  0  0  0  0
  -23.4223  -28.8057   23.2951 O   0  0  0  0  0  0
  -28.2460  -26.1958   20.1622 O   0  0  0  0  0  0
  -26.5611  -34.8896   22.4664 O   0  0  0  0  0  0
  -23.5500  -32.1364   23.7240 O   0  0  0  0  0  0
  -29.3102  -19.7018   19.2349 C   0  0  0  0  0  0
  -29.3444  -21.2150   21.5476 C   0  0  0  0  0  0
  -28.9851  -21.1163   19.2049 C   0  0  0  0  0  0
  -29.6489  -19.7933   21.5751 C   0  0  0  0  0  0
  -29.6932  -18.9677   20.4028 C   0  0  0  0  0  0
  -29.0301  -21.9793   20.3626 C   0  0  0  0  0  0
  -28.6299  -21.6888   17.8377 C   0  0  0  0  0  0
  -30.0153  -19.1568   22.9012 C   0  0  0  0  0  0
  -26.5934  -24.3787   20.7763 C   0  0  0  0  0  0
  -30.4193  -17.4987   20.3198 C   0  0  0  0  0  0
  -28.9187  -23.6341   20.2722 C   0  0  0  0  0  0
  -29.8747  -16.0623   20.5774 N   0  0  0  0  0  0
  -28.0163  -24.7635   20.8296 N   0  0  0  0  0  0
  -31.4594  -12.6876   19.1299 H   0  0  0  0  0  0
  -30.4208  -11.5840   19.9835 H   0  0  0  0  0  0
  -29.7980  -11.7381   17.5472 H   0  0  0  0  0  0
  -29.5809  -13.4651   17.6932 H   0  0  0  0  0  0
  -27.9228  -11.2794   18.9645 H   0  0  0  0  0  0
  -27.3680  -12.4791   17.8236 H   0  0  0  0  0  0
  -27.6082  -14.2527   19.4387 H   0  0  0  0  0  0
  -28.7718  -12.2775   21.4639 H   0  0  0  0  0  0
  -28.4207  -13.9675   21.7606 H   0  0  0  0  0  0
  -25.2794   -9.5670   22.4732 H   0  0  0  0  0  0
  -23.9975   -7.4667   22.7547 H   0  0  0  0  0  0
  -21.0793   -8.8823   19.9002 H   0  0  0  0  0  0
  -22.3714  -10.9679   19.6160 H   0  0  0  0  0  0
  -21.2058   -7.6137   23.9680 H   0  0  0  0  0  0
  -21.1472   -6.0508   25.9035 H   0  0  0  0  0  0
  -22.0615   -2.7596   23.2842 H   0  0  0  0  0  0
  -22.4182  -11.9925   22.4779 H   0  0  0  0  0  0
  -21.1148  -13.1249   22.2645 H   0  0  0  0  0  0
  -24.6192  -15.8328   20.5197 H   0  0  0  0  0  0
  -26.2395  -15.6535   20.0721 H   0  0  0  0  0  0
  -26.7192  -32.5356   23.1055 H   0  0  0  0  0  0
  -25.0093  -33.9672   25.0403 H   0  0  0  0  0  0
  -22.7448  -31.3028   21.3923 H   0  0  0  0  0  0
  -23.3762  -35.9600   23.3279 H   0  0  0  0  0  0
  -24.3571  -36.8943   22.2060 H   0  0  0  0  0  0
  -23.7235  -37.6465   23.6694 H   0  0  0  0  0  0
  -26.1557  -31.4746   20.6365 H   0  0  0  0  0  0
  -26.8628  -30.7660   22.0546 H   0  0  0  0  0  0
  -28.0823  -28.7698   21.3377 H   0  0  0  0  0  0
  -26.0229  -26.0170   18.7508 H   0  0  0  0  0  0
  -24.0204  -27.4199   18.8294 H   0  0  0  0  0  0
  -23.8078  -30.5979   19.4047 H   0  0  0  0  0  0
  -22.7842  -29.2512   19.8331 H   0  0  0  0  0  0
  -25.1314  -36.1897   25.0795 H   0  0  0  0  0  0
  -21.0018  -28.3307   24.1358 H   0  0  0  0  0  0
  -20.5710  -26.2324   23.3613 H   0  0  0  0  0  0
  -21.6666  -26.7443   22.1174 H   0  0  0  0  0  0
  -19.6925  -25.6276   21.1274 H   0  0  0  0  0  0
  -19.6715  -27.3175   20.6725 H   0  0  0  0  0  0
  -17.4215  -26.6682   21.4034 H   0  0  0  0  0  0
  -18.0355  -26.0093   22.9022 H   0  0  0  0  0  0
  -19.7939  -30.7307   24.2234 H   0  0  0  0  0  0
  -17.5018  -31.6270   24.5168 H   0  0  0  0  0  0
  -15.5351  -30.2988   23.7692 H   0  0  0  0  0  0
  -15.8699  -28.0844   22.7077 H   0  0  0  0  0  0
  -24.5905  -30.7111   25.7830 H   0  0  0  0  0  0
  -24.8920  -32.2915   26.4919 H   0  0  0  0  0  0
  -25.8029  -30.8940   27.0274 H   0  0  0  0  0  0
  -26.2984  -29.6703   24.1405 H   0  0  0  0  0  0
  -27.4014  -29.7312   25.4981 H   0  0  0  0  0  0
  -27.8928  -30.4253   23.9705 H   0  0  0  0  0  0
  -27.2612  -33.3707   26.2086 H   0  0  0  0  0  0
  -28.3872  -32.6925   25.0393 H   0  0  0  0  0  0
  -28.0688  -31.8547   26.5542 H   0  0  0  0  0  0
  -28.2605  -38.0088   24.7474 H   0  0  0  0  0  0
  -28.1060  -36.2623   24.6352 H   0  0  0  0  0  0
  -27.2286  -37.1516   25.8860 H   0  0  0  0  0  0
  -20.9449  -29.8785   21.6802 H   0  0  0  0  0  0
  -26.0183  -38.2832   24.1356 H   0  0  0  0  0  0
  -29.3381  -19.1723   18.2908 H   0  0  0  0  0  0
  -29.4092  -21.7550   22.4837 H   0  0  0  0  0  0
  -28.4041  -20.8983   17.1203 H   0  0  0  0  0  0
  -29.4597  -22.2654   17.4284 H   0  0  0  0  0  0
  -27.7480  -22.3304   17.8800 H   0  0  0  0  0  0
  -31.1027  -19.0612   22.9838 H   0  0  0  0  0  0
  -29.5638  -18.1634   22.9811 H   0  0  0  0  0  0
  -29.6568  -19.7531   23.7414 H   0  0  0  0  0  0
  -26.4283  -23.4566   21.3359 H   0  0  0  0  0  0
  -26.2458  -24.1790   19.7598 H   0  0  0  0  0  0
  -25.9453  -25.1183   21.2437 H   0  0  0  0  0  0
  -31.3011  -17.5837   20.9596 H   0  0  0  0  0  0
  -30.8337  -17.4477   19.3102 H   0  0  0  0  0  0
  -28.6078  -23.3804   21.2803 H   0  0  0  0  0  0
  -28.3124  -23.6207   19.3775 H   0  0  0  0  0  0
  -28.8919  -15.9769   20.8016 H   0  0  0  0  0  0
  1 25  1  0  0  0
  1 30  2  0  0  0
  1 82  1  0  0  0
  2  3  1  0  0  0
  2 25  1  0  0  0
  2 84  1  0  0  0
  2 85  1  0  0  0
  3  4  1  0  0  0
  3 86  1  0  0  0
  3 87  1  0  0  0
  4  5  1  0  0  0
  4 88  1  0  0  0
  4 89  1  0  0  0
  5  6  1  0  0  0
  5 26  1  0  0  0
  5 90  1  0  0  0
  6 25  1  0  0  0
  6 91  1  0  0  0
  6 92  1  0  0  0
  7  8  2  0  0  0
  7 26  1  0  0  0
  7 29  1  0  0  0
  8  9  1  0  0  0
  8 22  1  0  0  0
  9 10  1  0  0  0
  9 27  2  0  0  0
 10 11  2  0  0  0
 10 15  1  0  0  0
 11 12  1  0  0  0
 11 93  1  0  0  0
 12 13  2  0  0  0
 12 94  1  0  0  0
 13 14  1  0  0  0
 13 31  1  0  0  0
 14 15  2  0  0  0
 14 95  1  0  0  0
 15 96  1  0  0  0
 16 17  2  0  0  0
 16 21  1  0  0  0
 16 31  1  0  0  0
 17 18  1  0  0  0
 17 97  1  0  0  0
 18 19  2  0  0  0
 18 98  1  0  0  0
 19 20  1  0  0  0
 19 24  1  0  0  0
 20 21  2  0  0  0
 20 99  1  0  0  0
 21 23  1  0  0  0
 22 28  1  0  0  0
 22 32  2  0  0  0
 26 27  1  0  0  0
 28100  1  0  0  0
 28101  1  0  0  0
 29102  1  0  0  0
 29103  1  0  0  0
 33 34  1  0  0  0
 33 66  1  0  0  0
 33 70  2  0  0  0
 34 36  1  0  0  0
 34 59  1  0  0  0
 34104  1  0  0  0
 35 44  2  0  0  0
 35 45  1  0  0  0
 35 68  1  0  0  0
 36 56  1  0  0  0
 36105  1  0  0  0
 37 39  1  0  0  0
 37 47  1  0  0  0
 37 66  1  0  0  0
 37106  1  0  0  0
 38 43  2  0  0  0
 38 46  1  0  0  0
 38 47  1  0  0  0
 39 64  1  0  0  0
 39 67  2  0  0  0
 40 52  1  0  0  0
 40 53  2  0  0  0
 40 58  1  0  0  0
 41107  1  0  0  0
 41108  1  0  0  0
 41109  1  0  0  0
 41 48  1  0  0  0
 42 43  1  0  0  0
 42 66  1  0  0  0
 42110  1  0  0  0
 42111  1  0  0  0
 43 44  1  0  0  0
 44112  1  0  0  0
 45 46  2  0  0  0
 45113  1  0  0  0
 46114  1  0  0  0
 47115  1  0  0  0
 47116  1  0  0  0
 48 56  1  0  0  0
 48 65  1  0  0  0
 48117  1  0  0  0
 49 50  1  0  0  0
 49 53  1  0  0  0
 49 64  1  0  0  0
 49118  1  0  0  0
 50 51  1  0  0  0
 50119  1  0  0  0
 50120  1  0  0  0
 51 52  1  0  0  0
 51121  1  0  0  0
 51122  1  0  0  0
 52123  1  0  0  0
 52124  1  0  0  0
 53 54  1  0  0  0
 54 55  2  0  0  0
 54125  1  0  0  0
 55 57  1  0  0  0
 55126  1  0  0  0
 56 69  2  0  0  0
 57 58  2  0  0  0
 57127  1  0  0  0
 58128  1  0  0  0
 59 60  1  0  0  0
 59 61  1  0  0  0
 59 62  1  0  0  0
 60129  1  0  0  0
 60130  1  0  0  0
 60131  1  0  0  0
 61132  1  0  0  0
 61133  1  0  0  0
 61134  1  0  0  0
 62135  1  0  0  0
 62136  1  0  0  0
 62137  1  0  0  0
 63 65  1  0  0  0
 63138  1  0  0  0
 63139  1  0  0  0
 63140  1  0  0  0
 64141  1  0  0  0
 65142  1  0  0  0
 68 83  1  0  0  0
 71 73  2  0  0  0
 71 75  1  0  0  0
 71143  1  0  0  0
 72 74  1  0  0  0
 72 76  2  0  0  0
 72144  1  0  0  0
 73 76  1  0  0  0
 73 77  1  0  0  0
 74 75  2  0  0  0
 74 78  1  0  0  0
 75 80  1  0  0  0
 76 81  1  0  0  0
 77145  1  0  0  0
 77146  1  0  0  0
 77147  1  0  0  0
 78148  1  0  0  0
 78149  1  0  0  0
 78150  1  0  0  0
 79 83  1  0  0  0
 79151  1  0  0  0
 79152  1  0  0  0
 79153  1  0  0  0
 80 82  1  0  0  0
 80154  1  0  0  0
 80155  1  0  0  0
 81 83  1  0  0  0
 81156  1  0  0  0
 81157  1  0  0  0
 82158  1  0  0  0
M  ISO  4   1 100  68 101  82 100  83 101
M  END
> <chiral flag>
0

> <version>
0

> <s_m_source_file>
/data/baiqing/PycharmProjects/Reinvent-master-3.2/result/LINK_invent/BTK/process_docking_weight1_custom_product_contain_oxygen_bond_distance_aromatic_linkinvent_7_9_3/rearranged_h_0031.sdf

> <i_m_source_file_index>
43

> <r_mmod_Potential_Energy-OPLS-2005>
604.958984375

> <r_mmod_Stretch_Energy-OPLS-2005>
207.410400390625

> <r_mmod_Bend_Energy-OPLS-2005>
448.972686767578

> <r_mmod_Torsional_Energy-OPLS-2005>
234.362487792969

> <r_mmod_Improper_Torsional_Energy-OPLS-2005>
8.34408473968506

> <r_mmod_Van_der_Waal_Energy-OPLS-2005>
162.926895141602

> <r_mmod_Electrostatic_Energy-OPLS-2005>
-399.885681152344

> <r_mmod_Solvation_Energy-OPLS-2005>
-210.431900024414

> <b_mmod_Minimization_Converged-OPLS-2005>
0

> <r_mmod_RMS_Derivative-OPLS-2005>
6.12458419799805

$$$$
43
                    3D
 Structure written by MMmdl.
160169  0  0  1  0            999 V2000
  -30.5967  -14.7232   20.4817 C   0  0  0  0  0  0
  -30.4477  -12.4419   19.4603 C   0  0  0  0  0  0
  -29.5157  -12.5133   18.2293 C   0  0  0  0  0  0
  -28.0388  -12.3442   18.6405 C   0  0  0  0  0  0
  -27.6512  -13.2247   19.8584 C   0  0  2  0  0  0
  -28.6984  -13.1143   20.9901 C   0  0  0  0  0  0
  -25.2522  -13.8149   20.5606 C   0  0  0  0  0  0
  -24.1823  -13.0421   20.9196 C   0  0  0  0  0  0
  -24.6417  -11.6899   20.8757 C   0  0  0  0  0  0
  -23.9084  -10.4279   21.0416 C   0  0  0  0  0  0
  -24.3628   -9.4193   21.9195 C   0  0  0  0  0  0
  -23.6296   -8.2229   22.0761 C   0  0  0  0  0  0
  -22.4280   -8.0273   21.3540 C   0  0  0  0  0  0
  -21.9923   -9.0253   20.4646 C   0  0  0  0  0  0
  -22.7259  -10.2127   20.3061 C   0  0  0  0  0  0
  -21.6853   -6.0738   22.5278 C   0  0  0  0  0  0
  -21.4009   -6.5643   23.8210 C   0  0  0  0  0  0
  -21.3652   -5.6794   24.9175 C   0  0  0  0  0  0
  -21.6041   -4.3056   24.7224 C   0  0  0  0  0  0
  -21.8817   -3.8154   23.4343 C   0  0  0  0  0  0
  -21.9187   -4.6969   22.3403 C   0  0  0  0  0  0
  -22.7842  -13.5214   21.1856 C   0  0  0  0  0  0
  -22.1664   -4.2155   21.0978 F   0  0  0  0  0  0
  -21.5624   -3.4539   25.7736 F   0  0  0  0  0  0
  -30.0071  -13.4792   20.4219 N   0  0  0  0  0  0
  -26.2984  -12.9365   20.3292 N   0  0  0  0  0  0
  -25.9349  -11.6517   20.5772 N   0  0  0  0  0  0
  -22.0484  -12.8210   22.0416 N   0  0  0  0  0  0
  -25.4152  -15.1847   20.3843 N   0  0  0  0  0  0
  -31.7620  -14.8834   20.1050 O   0  0  0  0  0  0
  -21.6635   -6.8882   21.4241 O   0  0  0  0  0  0
  -22.3516  -14.5513   20.6693 O   0  0  0  0  0  0
  -24.6268  -31.8562   23.1946 C   0  0  0  0  0  0
  -25.9100  -32.4763   23.8275 C   0  0  1  0  0  0
  -27.2390  -27.2698   20.1234 C   0  0  0  0  0  0
  -25.5905  -33.8561   24.2212 N   0  0  0  0  0  0
  -23.4248  -30.4762   21.5380 C   0  0  2  0  0  0
  -24.8756  -28.9176   20.1131 C   0  0  0  0  0  0
  -22.7490  -29.4609   22.4901 C   0  0  0  0  0  0
  -18.0310  -28.1404   22.8499 C   0  0  0  0  0  0
  -24.1488  -36.7252   23.2645 C   0  0  0  0  0  0
  -25.9697  -30.7678   21.3752 C   0  0  0  0  0  0
  -26.0461  -29.3905   20.7192 C   0  0  0  0  0  0
  -27.2264  -28.5810   20.7110 C   0  0  0  0  0  0
  -26.0351  -26.8543   19.5071 C   0  0  0  0  0  0
  -24.8752  -27.6554   19.4996 C   0  0  0  0  0  0
  -23.6447  -29.8032   20.1570 C   0  0  0  0  0  0
  -25.4131  -36.3064   24.0328 C   0  0  1  0  0  0
  -20.5909  -28.3689   23.1279 C   0  0  2  0  0  0
  -20.6810  -26.9416   22.5411 C   0  0  0  0  0  0
  -19.5784  -26.6396   21.5223 C   0  0  0  0  0  0
  -18.1959  -26.7952   22.1623 C   0  0  0  0  0  0
  -19.1567  -28.8873   23.2888 C   0  0  0  0  0  0
  -18.9490  -30.1477   23.8888 C   0  0  0  0  0  0
  -17.6493  -30.6613   24.0577 C   0  0  0  0  0  0
  -25.9073  -34.9442   23.5083 C   0  0  0  0  0  0
  -16.5383  -29.9096   23.6364 C   0  0  0  0  0  0
  -16.7301  -28.6525   23.0371 C   0  0  0  0  0  0
  -26.4472  -31.6598   25.0663 C   0  0  0  0  0  0
  -25.3676  -31.3776   26.1361 C   0  0  0  0  0  0
  -27.0320  -30.3021   24.6136 C   0  0  0  0  0  0
  -27.6016  -32.4324   25.7447 C   0  0  0  0  0  0
  -27.5589  -37.1789   24.8482 C   0  0  0  0  0  0
  -21.4199  -29.3034   22.3648 N   0  0  0  0  0  0
  -26.4298  -37.3770   23.9418 N   0  0  0  0  0  0
  -24.6923  -31.0527   22.0913 N   0  0  0  0  0  0
  -23.4196  -28.8179   23.3022 O   0  0  0  0  0  0
  -28.3748  -26.4238   20.1675 O   0  0  0  0  0  0
  -26.5658  -34.8921   22.4654 O   0  0  0  0  0  0
  -23.5424  -32.1360   23.7263 O   0  0  0  0  0  0
  -28.6863  -19.4554   21.2723 C   0  0  0  0  0  0
  -30.8224  -18.0562   20.1607 C   0  0  0  0  0  0
  -29.7063  -20.2620   20.6996 C   0  0  0  0  0  0
  -28.7207  -18.0210   21.3063 C   0  0  0  0  0  0
  -30.7843  -19.5001   20.1283 C   0  0  0  0  0  0
  -29.8028  -17.2590   20.7587 C   0  0  0  0  0  0
  -28.0289  -23.8516   20.8469 C   0  0  0  0  0  0
  -29.6450  -24.1457   19.6940 C   0  0  0  0  0  0
  -28.3189  -24.9667   19.7902 C   0  0  2  0  0  0
  -27.5470  -17.3323   21.9895 C   0  0  0  0  0  0
  -31.9749  -20.2130   19.5086 C   0  0  0  0  0  0
  -29.7355  -21.8548   20.9424 C   0  0  0  0  0  0
  -29.7667  -15.7733   20.8314 N   0  0  0  0  0  0
  -28.9419  -22.8992   20.1329 N   0  3  1  0  0  0
  -31.4857  -12.5812   19.1536 H   0  0  0  0  0  0
  -30.4014  -11.4531   19.9190 H   0  0  0  0  0  0
  -29.7889  -11.7474   17.5016 H   0  0  0  0  0  0
  -29.6497  -13.4716   17.7259 H   0  0  0  0  0  0
  -27.8824  -11.2927   18.8813 H   0  0  0  0  0  0
  -27.3848  -12.5606   17.7951 H   0  0  0  0  0  0
  -27.6574  -14.2553   19.5019 H   0  0  0  0  0  0
  -28.7283  -12.0997   21.3903 H   0  0  0  0  0  0
  -28.4322  -13.7573   21.8306 H   0  0  0  0  0  0
  -25.2775   -9.5667   22.4769 H   0  0  0  0  0  0
  -23.9990   -7.4627   22.7492 H   0  0  0  0  0  0
  -21.0846   -8.8779   19.8964 H   0  0  0  0  0  0
  -22.3721  -10.9665   19.6163 H   0  0  0  0  0  0
  -21.2004   -7.6150   23.9717 H   0  0  0  0  0  0
  -21.1476   -6.0524   25.9076 H   0  0  0  0  0  0
  -22.0603   -2.7615   23.2841 H   0  0  0  0  0  0
  -22.4096  -11.9859   22.4778 H   0  0  0  0  0  0
  -21.1105  -13.1235   22.2624 H   0  0  0  0  0  0
  -24.6236  -15.8166   20.4294 H   0  0  0  0  0  0
  -26.2295  -15.6036   19.9552 H   0  0  0  0  0  0
  -26.7149  -32.5434   23.1005 H   0  0  0  0  0  0
  -25.0038  -33.9695   25.0340 H   0  0  0  0  0  0
  -22.7215  -31.2983   21.3920 H   0  0  0  0  0  0
  -23.3779  -35.9556   23.3317 H   0  0  0  0  0  0
  -24.3572  -36.8857   22.2054 H   0  0  0  0  0  0
  -23.7200  -37.6441   23.6655 H   0  0  0  0  0  0
  -26.1154  -31.5284   20.6063 H   0  0  0  0  0  0
  -26.8434  -30.8124   22.0134 H   0  0  0  0  0  0
  -28.1219  -28.9449   21.1959 H   0  0  0  0  0  0
  -25.9510  -25.8879   19.0371 H   0  0  0  0  0  0
  -23.9764  -27.2832   19.0258 H   0  0  0  0  0  0
  -23.7630  -30.5732   19.3922 H   0  0  0  0  0  0
  -22.7626  -29.2321   19.8611 H   0  0  0  0  0  0
  -25.1322  -36.1901   25.0824 H   0  0  0  0  0  0
  -21.0028  -28.3258   24.1382 H   0  0  0  0  0  0
  -20.5736  -26.2286   23.3597 H   0  0  0  0  0  0
  -21.6682  -26.7465   22.1195 H   0  0  0  0  0  0
  -19.6925  -25.6304   21.1250 H   0  0  0  0  0  0
  -19.6733  -27.3217   20.6771 H   0  0  0  0  0  0
  -17.4239  -26.6730   21.4009 H   0  0  0  0  0  0
  -18.0350  -26.0099   22.9028 H   0  0  0  0  0  0
  -19.7968  -30.7327   24.2214 H   0  0  0  0  0  0
  -17.5052  -31.6291   24.5184 H   0  0  0  0  0  0
  -15.5383  -30.3002   23.7703 H   0  0  0  0  0  0
  -15.8708  -28.0850   22.7060 H   0  0  0  0  0  0
  -24.5853  -30.7133   25.7682 H   0  0  0  0  0  0
  -24.8860  -32.2964   26.4716 H   0  0  0  0  0  0
  -25.7949  -30.8991   27.0175 H   0  0  0  0  0  0
  -26.2901  -29.6767   24.1158 H   0  0  0  0  0  0
  -27.4040  -29.7283   25.4636 H   0  0  0  0  0  0
  -27.8757  -30.4342   23.9356 H   0  0  0  0  0  0
  -27.2639  -33.3651   26.1979 H   0  0  0  0  0  0
  -28.3856  -32.6830   25.0290 H   0  0  0  0  0  0
  -28.0626  -31.8455   26.5400 H   0  0  0  0  0  0
  -28.2623  -38.0078   24.7552 H   0  0  0  0  0  0
  -28.1070  -36.2612   24.6301 H   0  0  0  0  0  0
  -27.2302  -37.1434   25.8884 H   0  0  0  0  0  0
  -20.9374  -29.8675   21.6797 H   0  0  0  0  0  0
  -26.0178  -38.2837   24.1441 H   0  0  0  0  0  0
  -27.8584  -19.9554   21.7570 H   0  0  0  0  0  0
  -31.6766  -17.5534   19.7266 H   0  0  0  0  0  0
  -26.9887  -23.5254   20.8778 H   0  0  0  0  0  0
  -28.3862  -24.1172   21.8442 H   0  0  0  0  0  0
  -30.4056  -24.4824   20.4025 H   0  0  0  0  0  0
  -30.0571  -24.0748   18.6871 H   0  0  0  0  0  0
  -27.7640  -24.8121   18.8644 H   0  0  0  0  0  0
  -27.4055  -17.7364   22.9916 H   0  0  0  0  0  0
  -27.6547  -16.2538   22.0929 H   0  0  0  0  0  0
  -26.6341  -17.5178   21.4254 H   0  0  0  0  0  0
  -32.5843  -19.5322   18.9120 H   0  0  0  0  0  0
  -32.6180  -20.6331   20.2831 H   0  0  0  0  0  0
  -31.6521  -21.0201   18.8514 H   0  0  0  0  0  0
  -30.7812  -22.1624   20.9223 H   0  0  0  0  0  0
  -29.4556  -21.9956   21.9862 H   0  0  0  0  0  0
  -28.8829  -15.4201   21.1616 H   0  0  0  0  0  0
  -28.4761  -22.4688   19.3495 H   0  0  0  0  0  0
  1 25  1  0  0  0
  1 30  2  0  0  0
  1 83  1  0  0  0
  2  3  1  0  0  0
  2 25  1  0  0  0
  2 85  1  0  0  0
  2 86  1  0  0  0
  3  4  1  0  0  0
  3 87  1  0  0  0
  3 88  1  0  0  0
  4  5  1  0  0  0
  4 89  1  0  0  0
  4 90  1  0  0  0
  5  6  1  0  0  0
  5 26  1  0  0  0
  5 91  1  0  0  0
  6 25  1  0  0  0
  6 92  1  0  0  0
  6 93  1  0  0  0
  7  8  2  0  0  0
  7 26  1  0  0  0
  7 29  1  0  0  0
  8  9  1  0  0  0
  8 22  1  0  0  0
  9 10  1  0  0  0
  9 27  2  0  0  0
 10 11  2  0  0  0
 10 15  1  0  0  0
 11 12  1  0  0  0
 11 94  1  0  0  0
 12 13  2  0  0  0
 12 95  1  0  0  0
 13 14  1  0  0  0
 13 31  1  0  0  0
 14 15  2  0  0  0
 14 96  1  0  0  0
 15 97  1  0  0  0
 16 17  2  0  0  0
 16 21  1  0  0  0
 16 31  1  0  0  0
 17 18  1  0  0  0
 17 98  1  0  0  0
 18 19  2  0  0  0
 18 99  1  0  0  0
 19 20  1  0  0  0
 19 24  1  0  0  0
 20 21  2  0  0  0
 20100  1  0  0  0
 21 23  1  0  0  0
 22 28  1  0  0  0
 22 32  2  0  0  0
 26 27  1  0  0  0
 28101  1  0  0  0
 28102  1  0  0  0
 29103  1  0  0  0
 29104  1  0  0  0
 33 34  1  0  0  0
 33 66  1  0  0  0
 33 70  2  0  0  0
 34 36  1  0  0  0
 34 59  1  0  0  0
 34105  1  0  0  0
 35 44  2  0  0  0
 35 45  1  0  0  0
 35 68  1  0  0  0
 36 56  1  0  0  0
 36106  1  0  0  0
 37 39  1  0  0  0
 37 47  1  0  0  0
 37 66  1  0  0  0
 37107  1  0  0  0
 38 43  2  0  0  0
 38 46  1  0  0  0
 38 47  1  0  0  0
 39 64  1  0  0  0
 39 67  2  0  0  0
 40 52  1  0  0  0
 40 53  2  0  0  0
 40 58  1  0  0  0
 41108  1  0  0  0
 41109  1  0  0  0
 41110  1  0  0  0
 41 48  1  0  0  0
 42 43  1  0  0  0
 42 66  1  0  0  0
 42111  1  0  0  0
 42112  1  0  0  0
 43 44  1  0  0  0
 44113  1  0  0  0
 45 46  2  0  0  0
 45114  1  0  0  0
 46115  1  0  0  0
 47116  1  0  0  0
 47117  1  0  0  0
 48 56  1  0  0  0
 48 65  1  0  0  0
 48118  1  0  0  0
 49 50  1  0  0  0
 49 53  1  0  0  0
 49 64  1  0  0  0
 49119  1  0  0  0
 50 51  1  0  0  0
 50120  1  0  0  0
 50121  1  0  0  0
 51 52  1  0  0  0
 51122  1  0  0  0
 51123  1  0  0  0
 52124  1  0  0  0
 52125  1  0  0  0
 53 54  1  0  0  0
 54 55  2  0  0  0
 54126  1  0  0  0
 55 57  1  0  0  0
 55127  1  0  0  0
 56 69  2  0  0  0
 57 58  2  0  0  0
 57128  1  0  0  0
 58129  1  0  0  0
 59 60  1  0  0  0
 59 61  1  0  0  0
 59 62  1  0  0  0
 60130  1  0  0  0
 60131  1  0  0  0
 60132  1  0  0  0
 61133  1  0  0  0
 61134  1  0  0  0
 61135  1  0  0  0
 62136  1  0  0  0
 62137  1  0  0  0
 62138  1  0  0  0
 63 65  1  0  0  0
 63139  1  0  0  0
 63140  1  0  0  0
 63141  1  0  0  0
 64142  1  0  0  0
 65143  1  0  0  0
 68 79  1  0  0  0
 71 73  2  0  0  0
 71 74  1  0  0  0
 71144  1  0  0  0
 72 75  2  0  0  0
 72 76  1  0  0  0
 72145  1  0  0  0
 73 75  1  0  0  0
 73 82  1  0  0  0
 74 76  2  0  0  0
 74 80  1  0  0  0
 75 81  1  0  0  0
 76 83  1  0  0  0
 77 79  1  0  0  0
 77 84  1  0  0  0
 77146  1  0  0  0
 77147  1  0  0  0
 78 79  1  0  0  0
 78 84  1  0  0  0
 78148  1  0  0  0
 78149  1  0  0  0
 79150  1  0  0  0
 80151  1  0  0  0
 80152  1  0  0  0
 80153  1  0  0  0
 81154  1  0  0  0
 81155  1  0  0  0
 81156  1  0  0  0
 82157  1  0  0  0
 82158  1  0  0  0
 82 84  1  0  0  0
 83159  1  0  0  0
 84160  1  0  0  0
M  CHG  1  84   1
M  ISO  4   1 100  68 101  79 101  83 100
M  END
> <chiral flag>
0

> <version>
0

> <s_m_source_file>
/data/baiqing/PycharmProjects/Reinvent-master-3.2/result/LINK_invent/BTK/process_docking_weight1_custom_product_contain_oxygen_bond_distance_aromatic_linkinvent_7_9_3/rearranged_h_0031.sdf

> <i_m_source_file_index>
44

> <r_mmod_Potential_Energy-OPLS-2005>
-43.7966461181641

> <r_mmod_Stretch_Energy-OPLS-2005>
115.819694519043

> <r_mmod_Bend_Energy-OPLS-2005>
206.254547119141

> <r_mmod_Torsional_Energy-OPLS-2005>
220.535003662109

> <r_mmod_Improper_Torsional_Energy-OPLS-2005>
5.77067613601685

> <r_mmod_Van_der_Waal_Energy-OPLS-2005>
139.862716674805

> <r_mmod_Electrostatic_Energy-OPLS-2005>
-335.808013916016

> <r_mmod_Solvation_Energy-OPLS-2005>
-469.399993896484

> <b_mmod_Minimization_Converged-OPLS-2005>
0

> <r_mmod_RMS_Derivative-OPLS-2005>
2.37876057624817

$$$$
44
                    3D
 Structure written by MMmdl.
159168  0  0  1  0            999 V2000
  -30.4692  -15.0213   20.4090 C   0  0  0  0  0  0
  -30.4486  -12.6334   19.5062 C   0  0  0  0  0  0
  -29.5290  -12.5477   18.2635 C   0  0  0  0  0  0
  -28.0631  -12.3179   18.6792 C   0  0  0  0  0  0
  -27.6295  -13.2488   19.8410 C   0  0  2  0  0  0
  -28.6695  -13.2799   20.9810 C   0  0  0  0  0  0
  -25.2464  -13.8211   20.5712 C   0  0  0  0  0  0
  -24.1782  -13.0434   20.9228 C   0  0  0  0  0  0
  -24.6395  -11.6921   20.8746 C   0  0  0  0  0  0
  -23.9076  -10.4291   21.0404 C   0  0  0  0  0  0
  -24.3624   -9.4207   21.9187 C   0  0  0  0  0  0
  -23.6297   -8.2244   22.0756 C   0  0  0  0  0  0
  -22.4279   -8.0282   21.3542 C   0  0  0  0  0  0
  -21.9917   -9.0259   20.4647 C   0  0  0  0  0  0
  -22.7246  -10.2137   20.3057 C   0  0  0  0  0  0
  -21.6855   -6.0738   22.5280 C   0  0  0  0  0  0
  -21.4016   -6.5641   23.8215 C   0  0  0  0  0  0
  -21.3660   -5.6795   24.9175 C   0  0  0  0  0  0
  -21.6041   -4.3058   24.7227 C   0  0  0  0  0  0
  -21.8819   -3.8149   23.4348 C   0  0  0  0  0  0
  -21.9194   -4.6966   22.3404 C   0  0  0  0  0  0
  -22.7801  -13.5207   21.1883 C   0  0  0  0  0  0
  -22.1662   -4.2154   21.0980 F   0  0  0  0  0  0
  -21.5628   -3.4539   25.7735 F   0  0  0  0  0  0
  -29.9374  -13.7263   20.3881 N   0  0  0  0  0  0
  -26.2883  -12.9440   20.3241 N   0  0  0  0  0  0
  -25.9326  -11.6567   20.5725 N   0  0  0  0  0  0
  -22.0450  -12.8198   22.0440 N   0  0  0  0  0  0
  -25.4120  -15.1943   20.4140 N   0  0  0  0  0  0
  -31.6661  -15.1276   20.1117 O   0  0  0  0  0  0
  -21.6642   -6.8882   21.4241 O   0  0  0  0  0  0
  -22.3487  -14.5514   20.6728 O   0  0  0  0  0  0
  -24.6453  -31.8378   23.1789 C   0  0  0  0  0  0
  -25.9211  -32.4654   23.8205 C   0  0  1  0  0  0
  -27.2284  -27.0869   20.1726 C   0  0  0  0  0  0
  -25.5943  -33.8460   24.2129 N   0  0  0  0  0  0
  -23.4509  -30.4496   21.5255 C   0  0  2  0  0  0
  -24.9005  -28.8503   20.1149 C   0  0  0  0  0  0
  -22.7572  -29.4510   22.4855 C   0  0  0  0  0  0
  -18.0306  -28.1404   22.8479 C   0  0  0  0  0  0
  -24.1493  -36.7234   23.2647 C   0  0  0  0  0  0
  -26.0057  -30.6962   21.3809 C   0  0  0  0  0  0
  -26.0747  -29.2980   20.7309 C   0  0  0  0  0  0
  -27.2332  -28.4332   20.7342 C   0  0  0  0  0  0
  -26.0261  -26.7326   19.5277 C   0  0  0  0  0  0
  -24.8904  -27.5840   19.4987 C   0  0  0  0  0  0
  -23.6795  -29.7619   20.1496 C   0  0  0  0  0  0
  -25.4130  -36.3008   24.0312 C   0  0  1  0  0  0
  -20.5919  -28.3724   23.1246 C   0  0  2  0  0  0
  -20.6793  -26.9424   22.5420 C   0  0  0  0  0  0
  -19.5771  -26.6386   21.5223 C   0  0  0  0  0  0
  -18.1948  -26.7939   22.1624 C   0  0  0  0  0  0
  -19.1562  -28.8884   23.2851 C   0  0  0  0  0  0
  -18.9481  -30.1482   23.8870 C   0  0  0  0  0  0
  -17.6479  -30.6597   24.0568 C   0  0  0  0  0  0
  -25.9082  -34.9385   23.5036 C   0  0  0  0  0  0
  -16.5369  -29.9092   23.6345 C   0  0  0  0  0  0
  -16.7293  -28.6514   23.0359 C   0  0  0  0  0  0
  -26.4520  -31.6550   25.0674 C   0  0  0  0  0  0
  -25.3691  -31.3765   26.1363 C   0  0  0  0  0  0
  -27.0394  -30.2943   24.6279 C   0  0  0  0  0  0
  -27.6042  -32.4329   25.7462 C   0  0  0  0  0  0
  -27.5574  -37.1773   24.8466 C   0  0  0  0  0  0
  -21.4264  -29.3032   22.3605 N   0  0  0  0  0  0
  -26.4282  -37.3733   23.9409 N   0  0  0  0  0  0
  -24.7205  -31.0192   22.0830 N   0  0  0  0  0  0
  -23.4199  -28.8094   23.3042 O   0  0  0  0  0  0
  -28.3582  -26.1840   20.2185 O   0  0  0  0  0  0
  -26.5688  -34.8898   22.4626 O   0  0  0  0  0  0
  -23.5569  -32.1280   23.6992 O   0  0  0  0  0  0
  -29.1718  -19.9340   19.2845 C   0  0  0  0  0  0
  -29.4310  -18.4880   19.3206 C   0  0  0  0  0  0
  -29.1727  -20.0458   21.5941 C   0  0  0  0  0  0
  -29.4423  -18.5887   21.6611 C   0  0  0  0  0  0
  -29.0194  -20.8557   20.3920 C   0  0  0  0  0  0
  -29.5953  -17.7086   20.5216 C   0  0  0  0  0  0
  -28.0298  -23.3165   19.3501 C   0  0  0  0  0  0
  -28.8442  -23.5348   21.2813 C   0  0  0  0  0  0
  -28.5961  -24.6111   20.1234 C   0  0  0  0  0  0
  -29.4983  -17.7456   17.9989 C   0  0  0  0  0  0
  -28.9991  -20.8160   22.9012 C   0  0  0  0  0  0
  -29.5592  -17.9265   23.0315 C   0  0  0  0  0  0
  -28.8078  -22.4110   20.2809 N   0  0  0  0  0  0
  -29.6020  -16.1484   20.6084 N   0  0  0  0  0  0
  -31.4773  -12.8167   19.1939 H   0  0  0  0  0  0
  -30.4660  -11.6828   20.0409 H   0  0  0  0  0  0
  -29.8607  -11.7486   17.5990 H   0  0  0  0  0  0
  -29.6047  -13.4737   17.6904 H   0  0  0  0  0  0
  -27.9688  -11.2765   18.9898 H   0  0  0  0  0  0
  -27.3995  -12.4422   17.8226 H   0  0  0  0  0  0
  -27.5899  -14.2503   19.4118 H   0  0  0  0  0  0
  -28.7725  -12.2988   21.4472 H   0  0  0  0  0  0
  -28.3540  -13.9627   21.7715 H   0  0  0  0  0  0
  -25.2768   -9.5689   22.4765 H   0  0  0  0  0  0
  -24.0010   -7.4634   22.7476 H   0  0  0  0  0  0
  -21.0849   -8.8772   19.8954 H   0  0  0  0  0  0
  -22.3699  -10.9674   19.6170 H   0  0  0  0  0  0
  -21.2008   -7.6150   23.9718 H   0  0  0  0  0  0
  -21.1482   -6.0525   25.9079 H   0  0  0  0  0  0
  -22.0596   -2.7613   23.2842 H   0  0  0  0  0  0
  -22.4074  -11.9859   22.4823 H   0  0  0  0  0  0
  -21.1067  -13.1220   22.2648 H   0  0  0  0  0  0
  -24.6370  -15.8395   20.5232 H   0  0  0  0  0  0
  -26.2461  -15.6379   20.0530 H   0  0  0  0  0  0
  -26.7272  -32.5240   23.0924 H   0  0  0  0  0  0
  -25.0060  -33.9567   25.0256 H   0  0  0  0  0  0
  -22.7561  -31.2759   21.3619 H   0  0  0  0  0  0
  -23.3763  -35.9555   23.3291 H   0  0  0  0  0  0
  -24.3582  -36.8893   22.2066 H   0  0  0  0  0  0
  -23.7234  -37.6416   23.6702 H   0  0  0  0  0  0
  -26.1663  -31.4437   20.6031 H   0  0  0  0  0  0
  -26.8740  -30.7519   22.0253 H   0  0  0  0  0  0
  -28.1336  -28.7781   21.2232 H   0  0  0  0  0  0
  -25.9536  -25.7621   19.0574 H   0  0  0  0  0  0
  -23.9910  -27.2379   19.0070 H   0  0  0  0  0  0
  -23.8201  -30.5285   19.3864 H   0  0  0  0  0  0
  -22.7922  -29.2056   19.8426 H   0  0  0  0  0  0
  -25.1323  -36.1820   25.0805 H   0  0  0  0  0  0
  -21.0011  -28.3315   24.1369 H   0  0  0  0  0  0
  -20.5695  -26.2333   23.3644 H   0  0  0  0  0  0
  -21.6660  -26.7439   22.1217 H   0  0  0  0  0  0
  -19.6935  -25.6291   21.1272 H   0  0  0  0  0  0
  -19.6711  -27.3186   20.6746 H   0  0  0  0  0  0
  -17.4227  -26.6699   21.4017 H   0  0  0  0  0  0
  -18.0331  -26.0083   22.9022 H   0  0  0  0  0  0
  -19.7955  -30.7313   24.2216 H   0  0  0  0  0  0
  -17.5032  -31.6271   24.5182 H   0  0  0  0  0  0
  -15.5371  -30.2993   23.7674 H   0  0  0  0  0  0
  -15.8694  -28.0833   22.7079 H   0  0  0  0  0  0
  -24.5881  -30.7097   25.7690 H   0  0  0  0  0  0
  -24.8862  -32.2955   26.4691 H   0  0  0  0  0  0
  -25.7964  -30.9009   27.0197 H   0  0  0  0  0  0
  -26.3015  -29.6651   24.1287 H   0  0  0  0  0  0
  -27.4007  -29.7266   25.4862 H   0  0  0  0  0  0
  -27.8920  -30.4185   23.9600 H   0  0  0  0  0  0
  -27.2633  -33.3662   26.1952 H   0  0  0  0  0  0
  -28.3892  -32.6833   25.0316 H   0  0  0  0  0  0
  -28.0655  -31.8505   26.5447 H   0  0  0  0  0  0
  -28.2580  -38.0081   24.7521 H   0  0  0  0  0  0
  -28.1082  -36.2609   24.6279 H   0  0  0  0  0  0
  -27.2298  -37.1407   25.8872 H   0  0  0  0  0  0
  -20.9490  -29.8702   21.6739 H   0  0  0  0  0  0
  -26.0141  -38.2795   24.1420 H   0  0  0  0  0  0
  -29.0835  -20.3797   18.3037 H   0  0  0  0  0  0
  -28.3453  -23.2539   18.3077 H   0  0  0  0  0  0
  -26.9516  -23.1844   19.4511 H   0  0  0  0  0  0
  -28.0268  -23.4971   22.0022 H   0  0  0  0  0  0
  -29.8088  -23.6469   21.7773 H   0  0  0  0  0  0
  -29.5841  -24.7077   19.6690 H   0  0  0  0  0  0
  -29.4733  -18.4256   17.1472 H   0  0  0  0  0  0
  -28.6583  -17.0568   17.9068 H   0  0  0  0  0  0
  -30.4210  -17.1683   17.9359 H   0  0  0  0  0  0
  -28.8805  -20.2060   23.7926 H   0  0  0  0  0  0
  -28.0950  -21.4208   22.8519 H   0  0  0  0  0  0
  -29.8497  -21.4779   23.0633 H   0  0  0  0  0  0
  -30.2576  -18.4708   23.6673 H   0  0  0  0  0  0
  -29.9368  -16.9065   22.9873 H   0  0  0  0  0  0
  -28.5862  -17.8940   23.5222 H   0  0  0  0  0  0
  -28.7020  -15.8022   20.9038 H   0  0  0  0  0  0
  1 25  1  0  0  0
  1 30  2  0  0  0
  1 84  1  0  0  0
  2  3  1  0  0  0
  2 25  1  0  0  0
  2 85  1  0  0  0
  2 86  1  0  0  0
  3  4  1  0  0  0
  3 87  1  0  0  0
  3 88  1  0  0  0
  4  5  1  0  0  0
  4 89  1  0  0  0
  4 90  1  0  0  0
  5  6  1  0  0  0
  5 26  1  0  0  0
  5 91  1  0  0  0
  6 25  1  0  0  0
  6 92  1  0  0  0
  6 93  1  0  0  0
  7  8  2  0  0  0
  7 26  1  0  0  0
  7 29  1  0  0  0
  8  9  1  0  0  0
  8 22  1  0  0  0
  9 10  1  0  0  0
  9 27  2  0  0  0
 10 11  2  0  0  0
 10 15  1  0  0  0
 11 12  1  0  0  0
 11 94  1  0  0  0
 12 13  2  0  0  0
 12 95  1  0  0  0
 13 14  1  0  0  0
 13 31  1  0  0  0
 14 15  2  0  0  0
 14 96  1  0  0  0
 15 97  1  0  0  0
 16 17  2  0  0  0
 16 21  1  0  0  0
 16 31  1  0  0  0
 17 18  1  0  0  0
 17 98  1  0  0  0
 18 19  2  0  0  0
 18 99  1  0  0  0
 19 20  1  0  0  0
 19 24  1  0  0  0
 20 21  2  0  0  0
 20100  1  0  0  0
 21 23  1  0  0  0
 22 28  1  0  0  0
 22 32  2  0  0  0
 26 27  1  0  0  0
 28101  1  0  0  0
 28102  1  0  0  0
 29103  1  0  0  0
 29104  1  0  0  0
 33 34  1  0  0  0
 33 66  1  0  0  0
 33 70  2  0  0  0
 34 36  1  0  0  0
 34 59  1  0  0  0
 34105  1  0  0  0
 35 44  2  0  0  0
 35 45  1  0  0  0
 35 68  1  0  0  0
 36 56  1  0  0  0
 36106  1  0  0  0
 37 39  1  0  0  0
 37 47  1  0  0  0
 37 66  1  0  0  0
 37107  1  0  0  0
 38 43  2  0  0  0
 38 46  1  0  0  0
 38 47  1  0  0  0
 39 64  1  0  0  0
 39 67  2  0  0  0
 40 52  1  0  0  0
 40 53  2  0  0  0
 40 58  1  0  0  0
 41108  1  0  0  0
 41109  1  0  0  0
 41110  1  0  0  0
 41 48  1  0  0  0
 42 43  1  0  0  0
 42 66  1  0  0  0
 42111  1  0  0  0
 42112  1  0  0  0
 43 44  1  0  0  0
 44113  1  0  0  0
 45 46  2  0  0  0
 45114  1  0  0  0
 46115  1  0  0  0
 47116  1  0  0  0
 47117  1  0  0  0
 48 56  1  0  0  0
 48 65  1  0  0  0
 48118  1  0  0  0
 49 50  1  0  0  0
 49 53  1  0  0  0
 49 64  1  0  0  0
 49119  1  0  0  0
 50 51  1  0  0  0
 50120  1  0  0  0
 50121  1  0  0  0
 51 52  1  0  0  0
 51122  1  0  0  0
 51123  1  0  0  0
 52124  1  0  0  0
 52125  1  0  0  0
 53 54  1  0  0  0
 54 55  2  0  0  0
 54126  1  0  0  0
 55 57  1  0  0  0
 55127  1  0  0  0
 56 69  2  0  0  0
 57 58  2  0  0  0
 57128  1  0  0  0
 58129  1  0  0  0
 59 60  1  0  0  0
 59 61  1  0  0  0
 59 62  1  0  0  0
 60130  1  0  0  0
 60131  1  0  0  0
 60132  1  0  0  0
 61133  1  0  0  0
 61134  1  0  0  0
 61135  1  0  0  0
 62136  1  0  0  0
 62137  1  0  0  0
 62138  1  0  0  0
 63 65  1  0  0  0
 63139  1  0  0  0
 63140  1  0  0  0
 63141  1  0  0  0
 64142  1  0  0  0
 65143  1  0  0  0
 68 79  1  0  0  0
 71 72  2  0  0  0
 71 75  1  0  0  0
 71144  1  0  0  0
 72 76  1  0  0  0
 72 80  1  0  0  0
 73 74  1  0  0  0
 73 75  2  0  0  0
 73 81  1  0  0  0
 74 76  2  0  0  0
 74 82  1  0  0  0
 75 83  1  0  0  0
 76 84  1  0  0  0
 77 79  1  0  0  0
 77 83  1  0  0  0
 77145  1  0  0  0
 77146  1  0  0  0
 78 79  1  0  0  0
 78 83  1  0  0  0
 78147  1  0  0  0
 78148  1  0  0  0
 79149  1  0  0  0
 80150  1  0  0  0
 80151  1  0  0  0
 80152  1  0  0  0
 81153  1  0  0  0
 81154  1  0  0  0
 81155  1  0  0  0
 82156  1  0  0  0
 82157  1  0  0  0
 82158  1  0  0  0
 84159  1  0  0  0
M  ISO  4   1 100  68 101  79 101  84 100
M  END
> <chiral flag>
0

> <version>
0

> <s_m_source_file>
/data/baiqing/PycharmProjects/Reinvent-master-3.2/result/LINK_invent/BTK/process_docking_weight1_custom_product_contain_oxygen_bond_distance_aromatic_linkinvent_7_9_3/rearranged_h_0031.sdf

> <i_m_source_file_index>
45

> <r_mmod_Potential_Energy-OPLS-2005>
740.552429199219

> <r_mmod_Stretch_Energy-OPLS-2005>
282.343872070312

> <r_mmod_Bend_Energy-OPLS-2005>
481.989715576172

> <r_mmod_Torsional_Energy-OPLS-2005>
252.627868652344

> <r_mmod_Improper_Torsional_Energy-OPLS-2005>
7.65456914901733

> <r_mmod_Van_der_Waal_Energy-OPLS-2005>
134.612350463867

> <r_mmod_Electrostatic_Energy-OPLS-2005>
-421.098266601562

> <r_mmod_Solvation_Energy-OPLS-2005>
-229.386489868164

> <b_mmod_Minimization_Converged-OPLS-2005>
0

> <r_mmod_RMS_Derivative-OPLS-2005>
0.995318293571472

$$$$
45
                    3D
 Structure written by MMmdl.
164173  0  0  1  0            999 V2000
  -30.7608  -14.4872   20.5628 C   0  0  0  0  0  0
  -30.4083  -12.3222   19.4295 C   0  0  0  0  0  0
  -29.4878  -12.5008   18.2082 C   0  0  0  0  0  0
  -28.0143  -12.3360   18.6239 C   0  0  0  0  0  0
  -27.6471  -13.1971   19.8594 C   0  0  2  0  0  0
  -28.6990  -13.0613   20.9870 C   0  0  0  0  0  0
  -25.2564  -13.8116   20.5692 C   0  0  0  0  0  0
  -24.1821  -13.0406   20.9207 C   0  0  0  0  0  0
  -24.6370  -11.6874   20.8764 C   0  0  0  0  0  0
  -23.9036  -10.4273   21.0422 C   0  0  0  0  0  0
  -24.3599   -9.4188   21.9199 C   0  0  0  0  0  0
  -23.6279   -8.2219   22.0764 C   0  0  0  0  0  0
  -22.4257   -8.0263   21.3549 C   0  0  0  0  0  0
  -21.9891   -9.0238   20.4651 C   0  0  0  0  0  0
  -22.7218  -10.2118   20.3060 C   0  0  0  0  0  0
  -21.6848   -6.0722   22.5277 C   0  0  0  0  0  0
  -21.4011   -6.5633   23.8211 C   0  0  0  0  0  0
  -21.3657   -5.6788   24.9175 C   0  0  0  0  0  0
  -21.6042   -4.3052   24.7227 C   0  0  0  0  0  0
  -21.8820   -3.8144   23.4353 C   0  0  0  0  0  0
  -21.9193   -4.6950   22.3409 C   0  0  0  0  0  0
  -22.7854  -13.5222   21.1852 C   0  0  0  0  0  0
  -22.1664   -4.2144   21.0987 F   0  0  0  0  0  0
  -21.5625   -3.4537   25.7740 F   0  0  0  0  0  0
  -30.0273  -13.3440   20.4192 N   0  0  0  0  0  0
  -26.2966  -12.9248   20.3336 N   0  0  0  0  0  0
  -25.9289  -11.6426   20.5785 N   0  0  0  0  0  0
  -22.0476  -12.8230   22.0401 N   0  0  0  0  0  0
  -25.4271  -15.1835   20.4065 N   0  0  0  0  0  0
  -31.9118  -14.5784   20.1289 O   0  0  0  0  0  0
  -21.6626   -6.8863   21.4238 O   0  0  0  0  0  0
  -22.3554  -14.5529   20.6693 O   0  0  0  0  0  0
  -24.6133  -31.8691   23.2093 C   0  0  0  0  0  0
  -25.9013  -32.4836   23.8405 C   0  0  1  0  0  0
  -27.2294  -27.4440   20.1023 C   0  0  0  0  0  0
  -25.5882  -33.8633   24.2340 N   0  0  0  0  0  0
  -23.4004  -30.4940   21.5480 C   0  0  2  0  0  0
  -24.8479  -28.9583   20.1149 C   0  0  0  0  0  0
  -22.7393  -29.4690   22.4966 C   0  0  0  0  0  0
  -18.0279  -28.1403   22.8508 C   0  0  0  0  0  0
  -24.1475  -36.7298   23.2638 C   0  0  0  0  0  0
  -25.9286  -30.8410   21.3582 C   0  0  0  0  0  0
  -26.0062  -29.4741   20.7076 C   0  0  0  0  0  0
  -27.2041  -28.7250   20.6962 C   0  0  0  0  0  0
  -26.0551  -26.9404   19.5029 C   0  0  0  0  0  0
  -24.8639  -27.6901   19.5099 C   0  0  0  0  0  0
  -23.6080  -29.8220   20.1640 C   0  0  0  0  0  0
  -25.4095  -36.3121   24.0353 C   0  0  1  0  0  0
  -20.5864  -28.3673   23.1332 C   0  0  2  0  0  0
  -20.6745  -26.9411   22.5419 C   0  0  0  0  0  0
  -19.5725  -26.6431   21.5206 C   0  0  0  0  0  0
  -18.1907  -26.7964   22.1623 C   0  0  0  0  0  0
  -19.1527  -28.8844   23.2929 C   0  0  0  0  0  0
  -18.9462  -30.1448   23.8953 C   0  0  0  0  0  0
  -17.6474  -30.6614   24.0585 C   0  0  0  0  0  0
  -25.9024  -34.9483   23.5148 C   0  0  0  0  0  0
  -16.5357  -29.9125   23.6344 C   0  0  0  0  0  0
  -16.7273  -28.6533   23.0388 C   0  0  0  0  0  0
  -26.4441  -31.6619   25.0730 C   0  0  0  0  0  0
  -25.3718  -31.3758   26.1509 C   0  0  0  0  0  0
  -27.0228  -30.3058   24.6076 C   0  0  0  0  0  0
  -27.6038  -32.4316   25.7471 C   0  0  0  0  0  0
  -27.5580  -37.1797   24.8462 C   0  0  0  0  0  0
  -21.4119  -29.3056   22.3732 N   0  0  0  0  0  0
  -26.4275  -37.3808   23.9431 N   0  0  0  0  0  0
  -24.6653  -31.0824   22.0964 N   0  0  0  0  0  0
  -23.4173  -28.8234   23.3000 O   0  0  0  0  0  0
  -28.3874  -26.6991   20.1046 O   0  0  0  0  0  0
  -26.5588  -34.8933   22.4715 O   0  0  0  0  0  0
  -23.5332  -32.1415   23.7500 O   0  0  0  0  0  0
  -28.6222  -20.1500   20.6896 C   0  0  0  0  0  0
  -28.5533  -18.7757   21.0143 C   0  0  0  0  0  0
  -30.2603  -19.6462   18.9750 C   0  0  0  0  0  0
  -29.4857  -20.6017   19.6654 C   0  0  0  0  0  0
  -29.3168  -17.8162   20.3073 C   0  0  0  0  0  0
  -30.1716  -18.2707   19.2726 C   0  0  0  0  0  0
  -28.5542  -24.2639   19.7382 C   0  0  0  0  0  0
  -30.3309  -24.3776   21.9742 C   0  0  0  0  0  0
  -29.2182  -25.4317   21.9982 C   0  0  0  0  0  0
  -29.7518  -23.0377   21.5116 C   0  0  0  0  0  0
  -28.2918  -25.4130   20.7536 C   0  0  1  0  0  0
  -31.0345  -16.3046   22.1452 C   0  0  0  0  0  0
  -29.5771  -22.0676   19.2098 C   0  0  0  0  0  0
  -29.1041  -16.3164   20.5883 C   0  0  0  0  0  0
  -29.1978  -23.1386   20.1556 N   0  0  0  0  0  0
  -30.1997  -15.5395   21.2129 N   0  0  0  0  0  0
  -28.1716  -24.4124   18.5721 O   0  0  0  0  0  0
  -31.0755  -17.1689   18.2988 Cl  0  0  0  0  0  0
  -31.4545  -12.3914   19.1277 H   0  0  0  0  0  0
  -30.2907  -11.3262   19.8589 H   0  0  0  0  0  0
  -29.7430  -11.7775   17.4332 H   0  0  0  0  0  0
  -29.6420  -13.4877   17.7693 H   0  0  0  0  0  0
  -27.8482  -11.2812   18.8447 H   0  0  0  0  0  0
  -27.3578  -12.5788   17.7870 H   0  0  0  0  0  0
  -27.6413  -14.2193   19.5010 H   0  0  0  0  0  0
  -28.6863  -12.0515   21.3996 H   0  0  0  0  0  0
  -28.4572  -13.7242   21.8190 H   0  0  0  0  0  0
  -25.2739   -9.5665   22.4774 H   0  0  0  0  0  0
  -23.9989   -7.4608   22.7479 H   0  0  0  0  0  0
  -21.0824   -8.8754   19.8956 H   0  0  0  0  0  0
  -22.3682  -10.9654   19.6169 H   0  0  0  0  0  0
  -21.2005   -7.6135   23.9708 H   0  0  0  0  0  0
  -21.1478   -6.0521   25.9078 H   0  0  0  0  0  0
  -22.0602   -2.7604   23.2851 H   0  0  0  0  0  0
  -22.4068  -11.9873   22.4784 H   0  0  0  0  0  0
  -21.1103  -13.1285   22.2609 H   0  0  0  0  0  0
  -24.6551  -15.8341   20.5054 H   0  0  0  0  0  0
  -26.2670  -15.6181   20.0495 H   0  0  0  0  0  0
  -26.7088  -32.5562   23.1178 H   0  0  0  0  0  0
  -25.0034  -33.9792   25.0494 H   0  0  0  0  0  0
  -22.6908  -31.3117   21.4075 H   0  0  0  0  0  0
  -23.3744  -35.9624   23.3309 H   0  0  0  0  0  0
  -24.3573  -36.8892   22.2049 H   0  0  0  0  0  0
  -23.7196  -37.6500   23.6627 H   0  0  0  0  0  0
  -26.0357  -31.6050   20.5870 H   0  0  0  0  0  0
  -26.8171  -30.8992   21.9731 H   0  0  0  0  0  0
  -28.1010  -29.1160   21.1544 H   0  0  0  0  0  0
  -26.0575  -25.9689   19.0289 H   0  0  0  0  0  0
  -23.9704  -27.2881   19.0523 H   0  0  0  0  0  0
  -23.7147  -30.5903   19.3984 H   0  0  0  0  0  0
  -22.7329  -29.2369   19.8723 H   0  0  0  0  0  0
  -25.1268  -36.1984   25.0844 H   0  0  0  0  0  0
  -20.9993  -28.3229   24.1437 H   0  0  0  0  0  0
  -20.5617  -26.2279   23.3597 H   0  0  0  0  0  0
  -21.6621  -26.7439   22.1224 H   0  0  0  0  0  0
  -19.6860  -25.6352   21.1210 H   0  0  0  0  0  0
  -19.6664  -27.3257   20.6747 H   0  0  0  0  0  0
  -17.4176  -26.6737   21.4024 H   0  0  0  0  0  0
  -18.0297  -26.0101   22.9012 H   0  0  0  0  0  0
  -19.7944  -30.7230   24.2358 H   0  0  0  0  0  0
  -17.5050  -31.6292   24.5181 H   0  0  0  0  0  0
  -15.5369  -30.3061   23.7633 H   0  0  0  0  0  0
  -15.8664  -28.0858   22.7122 H   0  0  0  0  0  0
  -24.5920  -30.7037   25.7908 H   0  0  0  0  0  0
  -24.8867  -32.2924   26.4888 H   0  0  0  0  0  0
  -25.8128  -30.9035   27.0296 H   0  0  0  0  0  0
  -26.2740  -29.6873   24.1111 H   0  0  0  0  0  0
  -27.3962  -29.7266   25.4523 H   0  0  0  0  0  0
  -27.8611  -30.4367   23.9224 H   0  0  0  0  0  0
  -27.2699  -33.3639   26.2033 H   0  0  0  0  0  0
  -28.3865  -32.6828   25.0299 H   0  0  0  0  0  0
  -28.0670  -31.8431   26.5395 H   0  0  0  0  0  0
  -28.2619  -38.0078   24.7549 H   0  0  0  0  0  0
  -28.1072  -36.2629   24.6256 H   0  0  0  0  0  0
  -27.2323  -37.1418   25.8870 H   0  0  0  0  0  0
  -20.9240  -29.8836   21.7018 H   0  0  0  0  0  0
  -26.0177  -38.2889   24.1463 H   0  0  0  0  0  0
  -27.9900  -20.8469   21.2207 H   0  0  0  0  0  0
  -27.8702  -18.4550   21.7887 H   0  0  0  0  0  0
  -30.9070  -19.9664   18.1711 H   0  0  0  0  0  0
  -30.7840  -24.2802   22.9612 H   0  0  0  0  0  0
  -31.1272  -24.6877   21.2967 H   0  0  0  0  0  0
  -29.6597  -26.4193   22.1335 H   0  0  0  0  0  0
  -28.6055  -25.2631   22.8846 H   0  0  0  0  0  0
  -28.9584  -22.7212   22.1908 H   0  0  0  0  0  0
  -30.5283  -22.2728   21.5600 H   0  0  0  0  0  0
  -27.2794  -25.2414   21.1244 H   0  0  0  0  0  0
  -30.4295  -16.9428   22.7888 H   0  0  0  0  0  0
  -31.7432  -16.9358   21.6066 H   0  0  0  0  0  0
  -31.6095  -15.6419   22.7941 H   0  0  0  0  0  0
  -28.9878  -22.1260   18.2925 H   0  0  0  0  0  0
  -30.6038  -22.2695   18.9000 H   0  0  0  0  0  0
  -28.8651  -15.8967   19.6136 H   0  0  0  0  0  0
  -28.2147  -16.1848   21.2049 H   0  0  0  0  0  0
  1 25  1  0  0  0
  1 30  2  0  0  0
  1 86  1  0  0  0
  2  3  1  0  0  0
  2 25  1  0  0  0
  2 89  1  0  0  0
  2 90  1  0  0  0
  3  4  1  0  0  0
  3 91  1  0  0  0
  3 92  1  0  0  0
  4  5  1  0  0  0
  4 93  1  0  0  0
  4 94  1  0  0  0
  5  6  1  0  0  0
  5 26  1  0  0  0
  5 95  1  0  0  0
  6 25  1  0  0  0
  6 96  1  0  0  0
  6 97  1  0  0  0
  7  8  2  0  0  0
  7 26  1  0  0  0
  7 29  1  0  0  0
  8  9  1  0  0  0
  8 22  1  0  0  0
  9 10  1  0  0  0
  9 27  2  0  0  0
 10 11  2  0  0  0
 10 15  1  0  0  0
 11 12  1  0  0  0
 11 98  1  0  0  0
 12 13  2  0  0  0
 12 99  1  0  0  0
 13 14  1  0  0  0
 13 31  1  0  0  0
 14 15  2  0  0  0
 14100  1  0  0  0
 15101  1  0  0  0
 16 17  2  0  0  0
 16 21  1  0  0  0
 16 31  1  0  0  0
 17 18  1  0  0  0
 17102  1  0  0  0
 18 19  2  0  0  0
 18103  1  0  0  0
 19 20  1  0  0  0
 19 24  1  0  0  0
 20 21  2  0  0  0
 20104  1  0  0  0
 21 23  1  0  0  0
 22 28  1  0  0  0
 22 32  2  0  0  0
 26 27  1  0  0  0
 28105  1  0  0  0
 28106  1  0  0  0
 29107  1  0  0  0
 29108  1  0  0  0
 33 34  1  0  0  0
 33 66  1  0  0  0
 33 70  2  0  0  0
 34 36  1  0  0  0
 34 59  1  0  0  0
 34109  1  0  0  0
 35 44  2  0  0  0
 35 45  1  0  0  0
 35 68  1  0  0  0
 36 56  1  0  0  0
 36110  1  0  0  0
 37 39  1  0  0  0
 37 47  1  0  0  0
 37 66  1  0  0  0
 37111  1  0  0  0
 38 43  2  0  0  0
 38 46  1  0  0  0
 38 47  1  0  0  0
 39 64  1  0  0  0
 39 67  2  0  0  0
 40 52  1  0  0  0
 40 53  2  0  0  0
 40 58  1  0  0  0
 41112  1  0  0  0
 41113  1  0  0  0
 41114  1  0  0  0
 41 48  1  0  0  0
 42 43  1  0  0  0
 42 66  1  0  0  0
 42115  1  0  0  0
 42116  1  0  0  0
 43 44  1  0  0  0
 44117  1  0  0  0
 45 46  2  0  0  0
 45118  1  0  0  0
 46119  1  0  0  0
 47120  1  0  0  0
 47121  1  0  0  0
 48 56  1  0  0  0
 48 65  1  0  0  0
 48122  1  0  0  0
 49 50  1  0  0  0
 49 53  1  0  0  0
 49 64  1  0  0  0
 49123  1  0  0  0
 50 51  1  0  0  0
 50124  1  0  0  0
 50125  1  0  0  0
 51 52  1  0  0  0
 51126  1  0  0  0
 51127  1  0  0  0
 52128  1  0  0  0
 52129  1  0  0  0
 53 54  1  0  0  0
 54 55  2  0  0  0
 54130  1  0  0  0
 55 57  1  0  0  0
 55131  1  0  0  0
 56 69  2  0  0  0
 57 58  2  0  0  0
 57132  1  0  0  0
 58133  1  0  0  0
 59 60  1  0  0  0
 59 61  1  0  0  0
 59 62  1  0  0  0
 60134  1  0  0  0
 60135  1  0  0  0
 60136  1  0  0  0
 61137  1  0  0  0
 61138  1  0  0  0
 61139  1  0  0  0
 62140  1  0  0  0
 62141  1  0  0  0
 62142  1  0  0  0
 63 65  1  0  0  0
 63143  1  0  0  0
 63144  1  0  0  0
 63145  1  0  0  0
 64146  1  0  0  0
 65147  1  0  0  0
 68 81  1  0  0  0
 71 72  2  0  0  0
 71 74  1  0  0  0
 71148  1  0  0  0
 72 75  1  0  0  0
 72149  1  0  0  0
 73 74  2  0  0  0
 73 76  1  0  0  0
 73150  1  0  0  0
 74 83  1  0  0  0
 75 76  2  0  0  0
 75 84  1  0  0  0
 76 88  1  0  0  0
 77 81  1  0  0  0
 77 85  1  0  0  0
 77 87  2  0  0  0
 78 79  1  0  0  0
 78 80  1  0  0  0
 78151  1  0  0  0
 78152  1  0  0  0
 79 81  1  0  0  0
 79153  1  0  0  0
 79154  1  0  0  0
 80 85  1  0  0  0
 80155  1  0  0  0
 80156  1  0  0  0
 81157  1  0  0  0
 82 86  1  0  0  0
 82158  1  0  0  0
 82159  1  0  0  0
 82160  1  0  0  0
 83 85  1  0  0  0
 83161  1  0  0  0
 83162  1  0  0  0
 84 86  1  0  0  0
 84163  1  0  0  0
 84164  1  0  0  0
M  ISO  4   1 100  68 101  81 101  86 100
M  END
> <chiral flag>
0

> <version>
0

> <s_m_source_file>
/data/baiqing/PycharmProjects/Reinvent-master-3.2/result/LINK_invent/BTK/process_docking_weight1_custom_product_contain_oxygen_bond_distance_aromatic_linkinvent_7_9_3/rearranged_h_0031.sdf

> <i_m_source_file_index>
46

> <r_mmod_Potential_Energy-OPLS-2005>
170.490112304688

> <r_mmod_Stretch_Energy-OPLS-2005>
43.8098907470703

> <r_mmod_Bend_Energy-OPLS-2005>
109.294815063477

> <r_mmod_Torsional_Energy-OPLS-2005>
313.910614013672

> <r_mmod_Improper_Torsional_Energy-OPLS-2005>
4.64869117736816

> <r_mmod_Van_der_Waal_Energy-OPLS-2005>
164.501190185547

> <r_mmod_Electrostatic_Energy-OPLS-2005>
-264.518707275391

> <r_mmod_Solvation_Energy-OPLS-2005>
-219.278945922852

> <b_mmod_Minimization_Converged-OPLS-2005>
0

> <r_mmod_RMS_Derivative-OPLS-2005>
2.5801694393158

$$$$
46
                    3D
 Structure written by MMmdl.
160169  0  0  1  0            999 V2000
  -30.4886  -15.1772   20.4484 C   0  0  0  0  0  0
  -30.4414  -12.7521   19.5314 C   0  0  0  0  0  0
  -29.5391  -12.5652   18.2848 C   0  0  0  0  0  0
  -28.0779  -12.3082   18.6952 C   0  0  0  0  0  0
  -27.6187  -13.2621   19.8245 C   0  0  2  0  0  0
  -28.6486  -13.3571   20.9646 C   0  0  0  0  0  0
  -25.2435  -13.8229   20.5702 C   0  0  0  0  0  0
  -24.1768  -13.0437   20.9222 C   0  0  0  0  0  0
  -24.6394  -11.6924   20.8736 C   0  0  0  0  0  0
  -23.9081  -10.4292   21.0394 C   0  0  0  0  0  0
  -24.3626   -9.4210   21.9175 C   0  0  0  0  0  0
  -23.6294   -8.2245   22.0746 C   0  0  0  0  0  0
  -22.4276   -8.0282   21.3533 C   0  0  0  0  0  0
  -21.9922   -9.0255   20.4631 C   0  0  0  0  0  0
  -22.7258  -10.2131   20.3037 C   0  0  0  0  0  0
  -21.6862   -6.0732   22.5269 C   0  0  0  0  0  0
  -21.4023   -6.5633   23.8206 C   0  0  0  0  0  0
  -21.3657   -5.6783   24.9164 C   0  0  0  0  0  0
  -21.6041   -4.3047   24.7215 C   0  0  0  0  0  0
  -21.8819   -3.8139   23.4337 C   0  0  0  0  0  0
  -21.9196   -4.6956   22.3393 C   0  0  0  0  0  0
  -22.7788  -13.5200   21.1888 C   0  0  0  0  0  0
  -22.1663   -4.2138   21.0969 F   0  0  0  0  0  0
  -21.5625   -3.4530   25.7727 F   0  0  0  0  0  0
  -29.8984  -13.8810   20.3761 N   0  0  0  0  0  0
  -26.2835  -12.9471   20.3161 N   0  0  0  0  0  0
  -25.9326  -11.6592   20.5676 N   0  0  0  0  0  0
  -22.0436  -12.8181   22.0440 N   0  0  0  0  0  0
  -25.4133  -15.1960   20.4191 N   0  0  0  0  0  0
  -31.6761  -15.1831   20.0898 O   0  0  0  0  0  0
  -21.6645   -6.8875   21.4226 O   0  0  0  0  0  0
  -22.3463  -14.5507   20.6741 O   0  0  0  0  0  0
  -24.6595  -31.8289   23.1730 C   0  0  0  0  0  0
  -25.9293  -32.4621   23.8181 C   0  0  1  0  0  0
  -27.2044  -26.9607   20.1737 C   0  0  0  0  0  0
  -25.5988  -33.8440   24.2085 N   0  0  0  0  0  0
  -23.4716  -30.4465   21.5227 C   0  0  2  0  0  0
  -24.9229  -28.8472   20.1052 C   0  0  0  0  0  0
  -22.7652  -29.4481   22.4777 C   0  0  0  0  0  0
  -18.0310  -28.1421   22.8455 C   0  0  0  0  0  0
  -24.1488  -36.7217   23.2658 C   0  0  0  0  0  0
  -26.0408  -30.6458   21.4001 C   0  0  0  0  0  0
  -26.1073  -29.2409   20.7402 C   0  0  0  0  0  0
  -27.2437  -28.3186   20.7522 C   0  0  0  0  0  0
  -25.9932  -26.7183   19.4836 C   0  0  0  0  0  0
  -24.8916  -27.6055   19.4548 C   0  0  0  0  0  0
  -23.7096  -29.7731   20.1443 C   0  0  0  0  0  0
  -25.4126  -36.2991   24.0307 C   0  0  1  0  0  0
  -20.5934  -28.3763   23.1202 C   0  0  2  0  0  0
  -20.6807  -26.9456   22.5404 C   0  0  0  0  0  0
  -19.5780  -26.6378   21.5224 C   0  0  0  0  0  0
  -18.1950  -26.7955   22.1603 C   0  0  0  0  0  0
  -19.1578  -28.8904   23.2815 C   0  0  0  0  0  0
  -18.9504  -30.1488   23.8859 C   0  0  0  0  0  0
  -17.6512  -30.6613   24.0557 C   0  0  0  0  0  0
  -25.9103  -34.9385   23.5006 C   0  0  0  0  0  0
  -16.5394  -29.9118   23.6360 C   0  0  0  0  0  0
  -16.7294  -28.6536   23.0372 C   0  0  0  0  0  0
  -26.4551  -31.6562   25.0691 C   0  0  0  0  0  0
  -25.3663  -31.3805   26.1331 C   0  0  0  0  0  0
  -27.0460  -30.2949   24.6378 C   0  0  0  0  0  0
  -27.6041  -32.4380   25.7490 C   0  0  0  0  0  0
  -27.5551  -37.1767   24.8470 C   0  0  0  0  0  0
  -21.4323  -29.3065   22.3551 N   0  0  0  0  0  0
  -26.4258  -37.3729   23.9419 N   0  0  0  0  0  0
  -24.7462  -30.9989   22.0855 N   0  0  0  0  0  0
  -23.4230  -28.8037   23.2984 O   0  0  0  0  0  0
  -28.1817  -25.8445   20.2617 O   0  0  0  0  0  0
  -26.5703  -34.8910   22.4596 O   0  0  0  0  0  0
  -23.5677  -32.1258   23.6835 O   0  0  0  0  0  0
  -28.2069  -20.0893   20.7175 C   0  0  0  0  0  0
  -29.7942  -22.2118   19.9569 C   0  0  0  0  0  0
  -29.5304  -19.6046   20.3940 C   0  0  0  0  0  0
  -27.7167  -21.4934   20.6626 C   0  0  0  0  0  0
  -30.2840  -20.8068   20.0147 C   0  0  0  0  0  0
  -28.4722  -22.7034   20.2951 C   0  0  0  0  0  0
  -29.7626  -17.6001   22.8766 C   0  0  0  0  0  0
  -30.8699  -18.1596   21.9966 C   0  0  0  0  0  0
  -29.1446  -16.4567   22.0600 C   0  0  0  0  0  0
  -30.2576  -18.0324   20.6011 C   0  0  1  0  0  0
  -26.2499  -21.6650   21.0228 C   0  0  0  0  0  0
  -31.7471  -20.6057   19.6534 C   0  0  0  0  0  0
  -27.7556  -24.2823   20.0953 C   0  0  0  0  0  0
  -29.7856  -16.4550   20.7328 N   0  0  0  0  0  0
  -31.4653  -12.9404   19.2058 H   0  0  0  0  0  0
  -30.4952  -11.8274   20.1081 H   0  0  0  0  0  0
  -29.9050  -11.7382   17.6747 H   0  0  0  0  0  0
  -29.5939  -13.4562   17.6575 H   0  0  0  0  0  0
  -28.0106  -11.2773   19.0435 H   0  0  0  0  0  0
  -27.4183  -12.3839   17.8295 H   0  0  0  0  0  0
  -27.5604  -14.2495   19.3650 H   0  0  0  0  0  0
  -28.8025  -12.3851   21.4369 H   0  0  0  0  0  0
  -28.2491  -13.9987   21.7439 H   0  0  0  0  0  0
  -25.2761   -9.5682   22.4765 H   0  0  0  0  0  0
  -23.9988   -7.4633   22.7477 H   0  0  0  0  0  0
  -21.0850   -8.8782   19.8936 H   0  0  0  0  0  0
  -22.3719  -10.9669   19.6147 H   0  0  0  0  0  0
  -21.2025   -7.6139   23.9704 H   0  0  0  0  0  0
  -21.1476   -6.0512   25.9063 H   0  0  0  0  0  0
  -22.0602   -2.7599   23.2839 H   0  0  0  0  0  0
  -22.4077  -11.9855   22.4839 H   0  0  0  0  0  0
  -21.1035  -13.1177   22.2611 H   0  0  0  0  0  0
  -24.6527  -15.8539   20.5449 H   0  0  0  0  0  0
  -26.2695  -15.6349   20.1047 H   0  0  0  0  0  0
  -26.7348  -32.5170   23.0885 H   0  0  0  0  0  0
  -25.0152  -33.9525   25.0247 H   0  0  0  0  0  0
  -22.7831  -31.2789   21.3569 H   0  0  0  0  0  0
  -23.3770  -35.9534   23.3303 H   0  0  0  0  0  0
  -24.3579  -36.8875   22.2080 H   0  0  0  0  0  0
  -23.7218  -37.6391   23.6717 H   0  0  0  0  0  0
  -26.2189  -31.3900   20.6226 H   0  0  0  0  0  0
  -26.9025  -30.6987   22.0528 H   0  0  0  0  0  0
  -28.1375  -28.6139   21.2833 H   0  0  0  0  0  0
  -25.8506  -25.7767   18.9775 H   0  0  0  0  0  0
  -23.9948  -27.3015   18.9327 H   0  0  0  0  0  0
  -23.8654  -30.5486   19.3935 H   0  0  0  0  0  0
  -22.8171  -29.2330   19.8223 H   0  0  0  0  0  0
  -25.1318  -36.1793   25.0797 H   0  0  0  0  0  0
  -20.9993  -28.3349   24.1338 H   0  0  0  0  0  0
  -20.5737  -26.2368   23.3629 H   0  0  0  0  0  0
  -21.6664  -26.7485   22.1179 H   0  0  0  0  0  0
  -19.6974  -25.6284   21.1287 H   0  0  0  0  0  0
  -19.6729  -27.3159   20.6740 H   0  0  0  0  0  0
  -17.4230  -26.6711   21.3990 H   0  0  0  0  0  0
  -18.0312  -26.0109   22.9007 H   0  0  0  0  0  0
  -19.7998  -30.7289   24.2209 H   0  0  0  0  0  0
  -17.5093  -31.6302   24.5163 H   0  0  0  0  0  0
  -15.5402  -30.3029   23.7717 H   0  0  0  0  0  0
  -15.8677  -28.0851   22.7129 H   0  0  0  0  0  0
  -24.5884  -30.7106   25.7621 H   0  0  0  0  0  0
  -24.8804  -32.3008   26.4591 H   0  0  0  0  0  0
  -25.7884  -30.9085   27.0207 H   0  0  0  0  0  0
  -26.3132  -29.6619   24.1357 H   0  0  0  0  0  0
  -27.4026  -29.7297   25.4997 H   0  0  0  0  0  0
  -27.9039  -30.4192   23.9765 H   0  0  0  0  0  0
  -27.2615  -33.3761   26.1870 H   0  0  0  0  0  0
  -28.3936  -32.6811   25.0361 H   0  0  0  0  0  0
  -28.0584  -31.8620   26.5555 H   0  0  0  0  0  0
  -28.2553  -38.0079   24.7519 H   0  0  0  0  0  0
  -28.1054  -36.2605   24.6287 H   0  0  0  0  0  0
  -27.2270  -37.1382   25.8875 H   0  0  0  0  0  0
  -20.9555  -29.8815   21.6745 H   0  0  0  0  0  0
  -26.0110  -38.2784   24.1454 H   0  0  0  0  0  0
  -27.5137  -19.3309   21.0550 H   0  0  0  0  0  0
  -30.4901  -22.9656   19.6167 H   0  0  0  0  0  0
  -29.0119  -18.3677   23.0701 H   0  0  0  0  0  0
  -30.1464  -17.2675   23.8413 H   0  0  0  0  0  0
  -31.7605  -17.5340   22.0799 H   0  0  0  0  0  0
  -31.1610  -19.1716   22.2839 H   0  0  0  0  0  0
  -28.0638  -16.5632   21.9624 H   0  0  0  0  0  0
  -29.3353  -15.5461   22.6316 H   0  0  0  0  0  0
  -31.0620  -18.0018   19.8662 H   0  0  0  0  0  0
  -25.7597  -20.7057   21.1943 H   0  0  0  0  0  0
  -25.7061  -22.1624   20.2192 H   0  0  0  0  0  0
  -26.1436  -22.2508   21.9361 H   0  0  0  0  0  0
  -32.2423  -21.5463   19.4134 H   0  0  0  0  0  0
  -31.8401  -19.9482   18.7892 H   0  0  0  0  0  0
  -32.2909  -20.1557   20.4848 H   0  0  0  0  0  0
  -26.8696  -24.2323   20.7268 H   0  0  0  0  0  0
  -27.3690  -24.2198   19.0794 H   0  0  0  0  0  0
  1 25  1  0  0  0
  1 30  2  0  0  0
  1 84  1  0  0  0
  2  3  1  0  0  0
  2 25  1  0  0  0
  2 85  1  0  0  0
  2 86  1  0  0  0
  3  4  1  0  0  0
  3 87  1  0  0  0
  3 88  1  0  0  0
  4  5  1  0  0  0
  4 89  1  0  0  0
  4 90  1  0  0  0
  5  6  1  0  0  0
  5 26  1  0  0  0
  5 91  1  0  0  0
  6 25  1  0  0  0
  6 92  1  0  0  0
  6 93  1  0  0  0
  7  8  2  0  0  0
  7 26  1  0  0  0
  7 29  1  0  0  0
  8  9  1  0  0  0
  8 22  1  0  0  0
  9 10  1  0  0  0
  9 27  2  0  0  0
 10 11  2  0  0  0
 10 15  1  0  0  0
 11 12  1  0  0  0
 11 94  1  0  0  0
 12 13  2  0  0  0
 12 95  1  0  0  0
 13 14  1  0  0  0
 13 31  1  0  0  0
 14 15  2  0  0  0
 14 96  1  0  0  0
 15 97  1  0  0  0
 16 17  2  0  0  0
 16 21  1  0  0  0
 16 31  1  0  0  0
 17 18  1  0  0  0
 17 98  1  0  0  0
 18 19  2  0  0  0
 18 99  1  0  0  0
 19 20  1  0  0  0
 19 24  1  0  0  0
 20 21  2  0  0  0
 20100  1  0  0  0
 21 23  1  0  0  0
 22 28  1  0  0  0
 22 32  2  0  0  0
 26 27  1  0  0  0
 28101  1  0  0  0
 28102  1  0  0  0
 29103  1  0  0  0
 29104  1  0  0  0
 33 34  1  0  0  0
 33 66  1  0  0  0
 33 70  2  0  0  0
 34 36  1  0  0  0
 34 59  1  0  0  0
 34105  1  0  0  0
 35 44  2  0  0  0
 35 45  1  0  0  0
 35 68  1  0  0  0
 36 56  1  0  0  0
 36106  1  0  0  0
 37 39  1  0  0  0
 37 47  1  0  0  0
 37 66  1  0  0  0
 37107  1  0  0  0
 38 43  2  0  0  0
 38 46  1  0  0  0
 38 47  1  0  0  0
 39 64  1  0  0  0
 39 67  2  0  0  0
 40 52  1  0  0  0
 40 53  2  0  0  0
 40 58  1  0  0  0
 41108  1  0  0  0
 41109  1  0  0  0
 41110  1  0  0  0
 41 48  1  0  0  0
 42 43  1  0  0  0
 42 66  1  0  0  0
 42111  1  0  0  0
 42112  1  0  0  0
 43 44  1  0  0  0
 44113  1  0  0  0
 45 46  2  0  0  0
 45114  1  0  0  0
 46115  1  0  0  0
 47116  1  0  0  0
 47117  1  0  0  0
 48 56  1  0  0  0
 48 65  1  0  0  0
 48118  1  0  0  0
 49 50  1  0  0  0
 49 53  1  0  0  0
 49 64  1  0  0  0
 49119  1  0  0  0
 50 51  1  0  0  0
 50120  1  0  0  0
 50121  1  0  0  0
 51 52  1  0  0  0
 51122  1  0  0  0
 51123  1  0  0  0
 52124  1  0  0  0
 52125  1  0  0  0
 53 54  1  0  0  0
 54 55  2  0  0  0
 54126  1  0  0  0
 55 57  1  0  0  0
 55127  1  0  0  0
 56 69  2  0  0  0
 57 58  2  0  0  0
 57128  1  0  0  0
 58129  1  0  0  0
 59 60  1  0  0  0
 59 61  1  0  0  0
 59 62  1  0  0  0
 60130  1  0  0  0
 60131  1  0  0  0
 60132  1  0  0  0
 61133  1  0  0  0
 61134  1  0  0  0
 61135  1  0  0  0
 62136  1  0  0  0
 62137  1  0  0  0
 62138  1  0  0  0
 63 65  1  0  0  0
 63139  1  0  0  0
 63140  1  0  0  0
 63141  1  0  0  0
 64142  1  0  0  0
 65143  1  0  0  0
 68 83  1  0  0  0
 71 73  2  0  0  0
 71 74  1  0  0  0
 71144  1  0  0  0
 72 75  2  0  0  0
 72 76  1  0  0  0
 72145  1  0  0  0
 73 75  1  0  0  0
 73 80  1  0  0  0
 74 76  2  0  0  0
 74 81  1  0  0  0
 75 82  1  0  0  0
 76 83  1  0  0  0
 77 78  1  0  0  0
 77 79  1  0  0  0
 77146  1  0  0  0
 77147  1  0  0  0
 78 80  1  0  0  0
 78148  1  0  0  0
 78149  1  0  0  0
 79 84  1  0  0  0
 79150  1  0  0  0
 79151  1  0  0  0
 80 84  1  0  0  0
 80152  1  0  0  0
 81153  1  0  0  0
 81154  1  0  0  0
 81155  1  0  0  0
 82156  1  0  0  0
 82157  1  0  0  0
 82158  1  0  0  0
 83159  1  0  0  0
 83160  1  0  0  0
M  ISO  4   1 100  68 101  83 101  84 100
M  END
> <chiral flag>
0

> <version>
0

> <s_m_source_file>
/data/baiqing/PycharmProjects/Reinvent-master-3.2/result/LINK_invent/BTK/process_docking_weight1_custom_product_contain_oxygen_bond_distance_aromatic_linkinvent_7_9_3/rearranged_h_0031.sdf

> <i_m_source_file_index>
47

> <r_mmod_Potential_Energy-OPLS-2005>
1346.25610351562

> <r_mmod_Stretch_Energy-OPLS-2005>
480.8115234375

> <r_mmod_Bend_Energy-OPLS-2005>
486.233947753906

> <r_mmod_Torsional_Energy-OPLS-2005>
321.331115722656

> <r_mmod_Improper_Torsional_Energy-OPLS-2005>
10.454155921936

> <r_mmod_Van_der_Waal_Energy-OPLS-2005>
139.276672363281

> <r_mmod_Electrostatic_Energy-OPLS-2005>
-279.096313476562

> <r_mmod_Solvation_Energy-OPLS-2005>
-195.688690185547

> <b_mmod_Minimization_Converged-OPLS-2005>
0

> <r_mmod_RMS_Derivative-OPLS-2005>
2.46316409111023

$$$$
47
                    3D
 Structure written by MMmdl.
158167  0  0  1  0            999 V2000
  -30.5738  -14.6697   20.4882 C   0  0  0  0  0  0
  -30.4489  -12.4063   19.4626 C   0  0  0  0  0  0
  -29.5187  -12.5070   18.2338 C   0  0  0  0  0  0
  -28.0381  -12.3572   18.6392 C   0  0  0  0  0  0
  -27.6594  -13.2192   19.8748 C   0  0  2  0  0  0
  -28.7020  -13.0453   21.0014 C   0  0  0  0  0  0
  -25.2589  -13.8187   20.5749 C   0  0  0  0  0  0
  -24.1836  -13.0467   20.9238 C   0  0  0  0  0  0
  -24.6380  -11.6939   20.8753 C   0  0  0  0  0  0
  -23.9026  -10.4326   21.0409 C   0  0  0  0  0  0
  -24.3575   -9.4256   21.9186 C   0  0  0  0  0  0
  -23.6277   -8.2288   22.0740 C   0  0  0  0  0  0
  -22.4276   -8.0307   21.3524 C   0  0  0  0  0  0
  -21.9873   -9.0286   20.4650 C   0  0  0  0  0  0
  -22.7190  -10.2172   20.3076 C   0  0  0  0  0  0
  -21.6858   -6.0729   22.5282 C   0  0  0  0  0  0
  -21.4021   -6.5622   23.8206 C   0  0  0  0  0  0
  -21.3647   -5.6776   24.9167 C   0  0  0  0  0  0
  -21.6063   -4.3037   24.7218 C   0  0  0  0  0  0
  -21.8807   -3.8138   23.4332 C   0  0  0  0  0  0
  -21.9178   -4.6955   22.3396 C   0  0  0  0  0  0
  -22.7863  -13.5296   21.1836 C   0  0  0  0  0  0
  -22.1660   -4.2159   21.0959 F   0  0  0  0  0  0
  -21.5600   -3.4497   25.7707 F   0  0  0  0  0  0
  -30.0127  -13.4184   20.4446 N   0  0  0  0  0  0
  -26.3006  -12.9368   20.3391 N   0  0  0  0  0  0
  -25.9322  -11.6513   20.5810 N   0  0  0  0  0  0
  -22.0386  -12.8416   22.0385 N   0  0  0  0  0  0
  -25.4365  -15.1913   20.4174 N   0  0  0  0  0  0
  -31.7144  -14.8734   20.0620 O   0  0  0  0  0  0
  -21.6654   -6.8908   21.4264 O   0  0  0  0  0  0
  -22.3599  -14.5549   20.6557 O   0  0  0  0  0  0
  -24.6181  -31.8652   23.2041 C   0  0  0  0  0  0
  -25.9056  -32.4813   23.8343 C   0  0  1  0  0  0
  -27.2095  -27.3315   20.1433 C   0  0  0  0  0  0
  -25.5810  -33.8603   24.2229 N   0  0  0  0  0  0
  -23.4140  -30.4943   21.5386 C   0  0  2  0  0  0
  -24.8646  -28.9537   20.1070 C   0  0  0  0  0  0
  -22.7420  -29.4676   22.4828 C   0  0  0  0  0  0
  -18.0277  -28.1386   22.8495 C   0  0  0  0  0  0
  -24.1441  -36.7363   23.2647 C   0  0  0  0  0  0
  -25.9554  -30.8060   21.3770 C   0  0  0  0  0  0
  -26.0331  -29.4363   20.7097 C   0  0  0  0  0  0
  -27.2143  -28.6416   20.7136 C   0  0  0  0  0  0
  -26.0278  -26.8990   19.5068 C   0  0  0  0  0  0
  -24.8657  -27.6902   19.4959 C   0  0  0  0  0  0
  -23.6339  -29.8368   20.1525 C   0  0  0  0  0  0
  -25.4072  -36.3093   24.0310 C   0  0  1  0  0  0
  -20.5876  -28.3698   23.1263 C   0  0  2  0  0  0
  -20.6758  -26.9411   22.5418 C   0  0  0  0  0  0
  -19.5727  -26.6377   21.5218 C   0  0  0  0  0  0
  -18.1910  -26.7930   22.1625 C   0  0  0  0  0  0
  -19.1539  -28.8847   23.2891 C   0  0  0  0  0  0
  -18.9468  -30.1443   23.8918 C   0  0  0  0  0  0
  -17.6485  -30.6591   24.0576 C   0  0  0  0  0  0
  -25.9019  -34.9482   23.5078 C   0  0  0  0  0  0
  -16.5366  -29.9108   23.6306 C   0  0  0  0  0  0
  -16.7280  -28.6513   23.0346 C   0  0  0  0  0  0
  -26.4450  -31.6627   25.0722 C   0  0  0  0  0  0
  -25.3692  -31.3807   26.1461 C   0  0  0  0  0  0
  -27.0291  -30.3010   24.6255 C   0  0  0  0  0  0
  -27.5978  -32.4386   25.7493 C   0  0  0  0  0  0
  -27.5551  -37.1823   24.8430 C   0  0  0  0  0  0
  -21.4140  -29.3071   22.3636 N   0  0  0  0  0  0
  -26.4249  -37.3795   23.9401 N   0  0  0  0  0  0
  -24.6796  -31.0701   22.0958 N   0  0  0  0  0  0
  -23.4176  -28.8190   23.2884 O   0  0  0  0  0  0
  -28.2940  -26.4547   20.2216 O   0  0  0  0  0  0
  -26.5649  -34.8956   22.4693 O   0  0  0  0  0  0
  -23.5358  -32.1439   23.7384 O   0  0  0  0  0  0
  -29.9065  -19.1883   19.3286 C   0  0  0  0  0  0
  -30.2242  -17.8175   19.5954 C   0  0  0  0  0  0
  -28.6858  -17.8636   21.4324 C   0  0  0  0  0  0
  -28.9645  -19.9405   20.0891 C   0  0  0  0  0  0
  -28.3597  -19.2322   21.1665 C   0  0  0  0  0  0
  -29.6060  -17.1053   20.6574 C   0  0  0  0  0  0
  -29.1033  -23.0183   21.4482 C   0  0  0  0  0  0
  -28.9664  -24.5232   21.7507 C   0  0  0  0  0  0
  -27.9400  -23.8942   19.6542 C   0  0  0  0  0  0
  -27.9981  -25.0745   20.6861 C   0  0  2  0  0  0
  -27.2734  -19.8640   22.0204 C   0  0  0  0  0  0
  -28.4601  -21.3476   19.5572 C   0  0  0  0  0  0
  -28.5371  -22.6779   20.2794 N   0  0  0  0  0  0
  -29.7525  -15.6696   20.9472 N   0  0  0  0  0  0
  -29.6706  -22.2478   22.2273 O   0  0  0  0  0  0
  -31.4899  -12.5450   19.1624 H   0  0  0  0  0  0
  -30.3959  -11.4101   19.9054 H   0  0  0  0  0  0
  -29.7897  -11.7422   17.5030 H   0  0  0  0  0  0
  -29.6652  -13.4703   17.7413 H   0  0  0  0  0  0
  -27.8671  -11.3052   18.8644 H   0  0  0  0  0  0
  -27.3931  -12.6004   17.7963 H   0  0  0  0  0  0
  -27.6821  -14.2633   19.5550 H   0  0  0  0  0  0
  -28.7236  -12.0114   21.3498 H   0  0  0  0  0  0
  -28.4397  -13.6441   21.8733 H   0  0  0  0  0  0
  -25.2688   -9.5727   22.4805 H   0  0  0  0  0  0
  -23.9954   -7.4662   22.7445 H   0  0  0  0  0  0
  -21.0781   -8.8788   19.8995 H   0  0  0  0  0  0
  -22.3593  -10.9700   19.6203 H   0  0  0  0  0  0
  -21.2058   -7.6127   23.9708 H   0  0  0  0  0  0
  -21.1471   -6.0500   25.9059 H   0  0  0  0  0  0
  -22.0601   -2.7610   23.2804 H   0  0  0  0  0  0
  -22.3868  -12.0186   22.5042 H   0  0  0  0  0  0
  -21.0989  -13.1554   22.2381 H   0  0  0  0  0  0
  -24.6776  -15.8530   20.5358 H   0  0  0  0  0  0
  -26.2939  -15.6187   20.0898 H   0  0  0  0  0  0
  -26.7105  -32.5513   23.1097 H   0  0  0  0  0  0
  -24.9763  -33.9728   25.0225 H   0  0  0  0  0  0
  -22.7052  -31.3155   21.3969 H   0  0  0  0  0  0
  -23.3663  -35.9723   23.3262 H   0  0  0  0  0  0
  -24.3554  -36.9064   22.2073 H   0  0  0  0  0  0
  -23.7249  -37.6564   23.6738 H   0  0  0  0  0  0
  -26.1106  -31.5831   20.6282 H   0  0  0  0  0  0
  -26.8234  -30.8286   22.0229 H   0  0  0  0  0  0
  -28.1070  -29.0087   21.1991 H   0  0  0  0  0  0
  -25.9908  -25.9247   19.0408 H   0  0  0  0  0  0
  -23.9703  -27.3149   19.0213 H   0  0  0  0  0  0
  -23.7679  -30.6197   19.4028 H   0  0  0  0  0  0
  -22.7531  -29.2764   19.8347 H   0  0  0  0  0  0
  -25.1260  -36.1899   25.0797 H   0  0  0  0  0  0
  -21.0038  -28.3312   24.1358 H   0  0  0  0  0  0
  -20.5606  -26.2337   23.3648 H   0  0  0  0  0  0
  -21.6642  -26.7403   22.1255 H   0  0  0  0  0  0
  -19.6885  -25.6276   21.1264 H   0  0  0  0  0  0
  -19.6676  -27.3174   20.6730 H   0  0  0  0  0  0
  -17.4197  -26.6695   21.4008 H   0  0  0  0  0  0
  -18.0303  -26.0069   22.9011 H   0  0  0  0  0  0
  -19.7964  -30.7238   24.2308 H   0  0  0  0  0  0
  -17.5055  -31.6283   24.5180 H   0  0  0  0  0  0
  -15.5370  -30.3038   23.7619 H   0  0  0  0  0  0
  -15.8670  -28.0860   22.7033 H   0  0  0  0  0  0
  -24.5783  -30.7265   25.7770 H   0  0  0  0  0  0
  -24.9041  -32.3014   26.4962 H   0  0  0  0  0  0
  -25.8016  -30.8854   27.0167 H   0  0  0  0  0  0
  -26.2880  -29.6773   24.1252 H   0  0  0  0  0  0
  -27.3865  -29.7285   25.4827 H   0  0  0  0  0  0
  -27.8788  -30.4216   23.9535 H   0  0  0  0  0  0
  -27.2496  -33.3639   26.2105 H   0  0  0  0  0  0
  -28.3737  -32.7085   25.0326 H   0  0  0  0  0  0
  -28.0684  -31.8518   26.5393 H   0  0  0  0  0  0
  -28.2528  -38.0159   24.7486 H   0  0  0  0  0  0
  -28.1072  -36.2693   24.6155 H   0  0  0  0  0  0
  -27.2320  -37.1357   25.8852 H   0  0  0  0  0  0
  -20.9249  -29.8892   21.6971 H   0  0  0  0  0  0
  -26.0089  -38.2823   24.1493 H   0  0  0  0  0  0
  -30.3558  -19.6521   18.4615 H   0  0  0  0  0  0
  -30.9048  -17.2996   18.9351 H   0  0  0  0  0  0
  -28.1682  -17.3712   22.2428 H   0  0  0  0  0  0
  -29.9458  -24.9971   21.7007 H   0  0  0  0  0  0
  -28.5663  -24.6775   22.7559 H   0  0  0  0  0  0
  -28.4668  -24.1481   18.7335 H   0  0  0  0  0  0
  -26.9012  -23.6888   19.3983 H   0  0  0  0  0  0
  -27.0297  -25.1004   21.1923 H   0  0  0  0  0  0
  -27.4273  -19.6023   23.0668 H   0  0  0  0  0  0
  -26.2946  -19.4936   21.7184 H   0  0  0  0  0  0
  -27.2506  -20.9484   21.9617 H   0  0  0  0  0  0
  -27.4027  -21.1996   19.3286 H   0  0  0  0  0  0
  -28.9252  -21.5072   18.5829 H   0  0  0  0  0  0
  -28.9898  -15.2865   21.4867 H   0  0  0  0  0  0
  1 25  1  0  0  0
  1 30  2  0  0  0
  1 84  1  0  0  0
  2  3  1  0  0  0
  2 25  1  0  0  0
  2 86  1  0  0  0
  2 87  1  0  0  0
  3  4  1  0  0  0
  3 88  1  0  0  0
  3 89  1  0  0  0
  4  5  1  0  0  0
  4 90  1  0  0  0
  4 91  1  0  0  0
  5  6  1  0  0  0
  5 26  1  0  0  0
  5 92  1  0  0  0
  6 25  1  0  0  0
  6 93  1  0  0  0
  6 94  1  0  0  0
  7  8  2  0  0  0
  7 26  1  0  0  0
  7 29  1  0  0  0
  8  9  1  0  0  0
  8 22  1  0  0  0
  9 10  1  0  0  0
  9 27  2  0  0  0
 10 11  2  0  0  0
 10 15  1  0  0  0
 11 12  1  0  0  0
 11 95  1  0  0  0
 12 13  2  0  0  0
 12 96  1  0  0  0
 13 14  1  0  0  0
 13 31  1  0  0  0
 14 15  2  0  0  0
 14 97  1  0  0  0
 15 98  1  0  0  0
 16 17  2  0  0  0
 16 21  1  0  0  0
 16 31  1  0  0  0
 17 18  1  0  0  0
 17 99  1  0  0  0
 18 19  2  0  0  0
 18100  1  0  0  0
 19 20  1  0  0  0
 19 24  1  0  0  0
 20 21  2  0  0  0
 20101  1  0  0  0
 21 23  1  0  0  0
 22 28  1  0  0  0
 22 32  2  0  0  0
 26 27  1  0  0  0
 28102  1  0  0  0
 28103  1  0  0  0
 29104  1  0  0  0
 29105  1  0  0  0
 33 34  1  0  0  0
 33 66  1  0  0  0
 33 70  2  0  0  0
 34 36  1  0  0  0
 34 59  1  0  0  0
 34106  1  0  0  0
 35 44  2  0  0  0
 35 45  1  0  0  0
 35 68  1  0  0  0
 36 56  1  0  0  0
 36107  1  0  0  0
 37 39  1  0  0  0
 37 47  1  0  0  0
 37 66  1  0  0  0
 37108  1  0  0  0
 38 43  2  0  0  0
 38 46  1  0  0  0
 38 47  1  0  0  0
 39 64  1  0  0  0
 39 67  2  0  0  0
 40 52  1  0  0  0
 40 53  2  0  0  0
 40 58  1  0  0  0
 41109  1  0  0  0
 41110  1  0  0  0
 41111  1  0  0  0
 41 48  1  0  0  0
 42 43  1  0  0  0
 42 66  1  0  0  0
 42112  1  0  0  0
 42113  1  0  0  0
 43 44  1  0  0  0
 44114  1  0  0  0
 45 46  2  0  0  0
 45115  1  0  0  0
 46116  1  0  0  0
 47117  1  0  0  0
 47118  1  0  0  0
 48 56  1  0  0  0
 48 65  1  0  0  0
 48119  1  0  0  0
 49 50  1  0  0  0
 49 53  1  0  0  0
 49 64  1  0  0  0
 49120  1  0  0  0
 50 51  1  0  0  0
 50121  1  0  0  0
 50122  1  0  0  0
 51 52  1  0  0  0
 51123  1  0  0  0
 51124  1  0  0  0
 52125  1  0  0  0
 52126  1  0  0  0
 53 54  1  0  0  0
 54 55  2  0  0  0
 54127  1  0  0  0
 55 57  1  0  0  0
 55128  1  0  0  0
 56 69  2  0  0  0
 57 58  2  0  0  0
 57129  1  0  0  0
 58130  1  0  0  0
 59 60  1  0  0  0
 59 61  1  0  0  0
 59 62  1  0  0  0
 60131  1  0  0  0
 60132  1  0  0  0
 60133  1  0  0  0
 61134  1  0  0  0
 61135  1  0  0  0
 61136  1  0  0  0
 62137  1  0  0  0
 62138  1  0  0  0
 62139  1  0  0  0
 63 65  1  0  0  0
 63140  1  0  0  0
 63141  1  0  0  0
 63142  1  0  0  0
 64143  1  0  0  0
 65144  1  0  0  0
 68 80  1  0  0  0
 71 72  2  0  0  0
 71 74  1  0  0  0
 71145  1  0  0  0
 72 76  1  0  0  0
 72146  1  0  0  0
 73 75  1  0  0  0
 73 76  2  0  0  0
 73147  1  0  0  0
 74 75  2  0  0  0
 74 82  1  0  0  0
 75 81  1  0  0  0
 76 84  1  0  0  0
 77 78  1  0  0  0
 77 83  1  0  0  0
 77 85  2  0  0  0
 78 80  1  0  0  0
 78148  1  0  0  0
 78149  1  0  0  0
 79 80  1  0  0  0
 79 83  1  0  0  0
 79150  1  0  0  0
 79151  1  0  0  0
 80152  1  0  0  0
 81153  1  0  0  0
 81154  1  0  0  0
 81155  1  0  0  0
 82 83  1  0  0  0
 82156  1  0  0  0
 82157  1  0  0  0
 84158  1  0  0  0
M  ISO  4   1 100  68 101  80 101  84 100
M  END
> <chiral flag>
0

> <version>
0

> <s_m_source_file>
/data/baiqing/PycharmProjects/Reinvent-master-3.2/result/LINK_invent/BTK/process_docking_weight1_custom_product_contain_oxygen_bond_distance_aromatic_linkinvent_7_9_3/rearranged_h_0031.sdf

> <i_m_source_file_index>
48

> <r_mmod_Potential_Energy-OPLS-2005>
97.0269470214844

> <r_mmod_Stretch_Energy-OPLS-2005>
81.2045288085938

> <r_mmod_Bend_Energy-OPLS-2005>
183.32112121582

> <r_mmod_Torsional_Energy-OPLS-2005>
263.810791015625

> <r_mmod_Improper_Torsional_Energy-OPLS-2005>
5.26049566268921

> <r_mmod_Van_der_Waal_Energy-OPLS-2005>
133.308639526367

> <r_mmod_Electrostatic_Energy-OPLS-2005>
-389.602447509766

> <r_mmod_Solvation_Energy-OPLS-2005>
-237.757568359375

> <b_mmod_Minimization_Converged-OPLS-2005>
0

> <r_mmod_RMS_Derivative-OPLS-2005>
5.83966064453125

$$$$
48
                    3D
 Structure written by MMmdl.
161170  0  0  1  0            999 V2000
  -30.5972  -14.7163   20.4883 C   0  0  0  0  0  0
  -30.4282  -12.4354   19.4865 C   0  0  0  0  0  0
  -29.5104  -12.5133   18.2454 C   0  0  0  0  0  0
  -28.0357  -12.3375   18.6543 C   0  0  0  0  0  0
  -27.6454  -13.2272   19.8637 C   0  0  2  0  0  0
  -28.6822  -13.1296   21.0047 C   0  0  0  0  0  0
  -25.2510  -13.8192   20.5691 C   0  0  0  0  0  0
  -24.1794  -13.0444   20.9177 C   0  0  0  0  0  0
  -24.6379  -11.6913   20.8733 C   0  0  0  0  0  0
  -23.9062  -10.4287   21.0384 C   0  0  0  0  0  0
  -24.3607   -9.4209   21.9177 C   0  0  0  0  0  0
  -23.6275   -8.2248   22.0761 C   0  0  0  0  0  0
  -22.4266   -8.0272   21.3538 C   0  0  0  0  0  0
  -21.9907   -9.0242   20.4639 C   0  0  0  0  0  0
  -22.7231  -10.2119   20.3037 C   0  0  0  0  0  0
  -21.6854   -6.0724   22.5261 C   0  0  0  0  0  0
  -21.4019   -6.5632   23.8194 C   0  0  0  0  0  0
  -21.3662   -5.6789   24.9162 C   0  0  0  0  0  0
  -21.6036   -4.3046   24.7212 C   0  0  0  0  0  0
  -21.8824   -3.8136   23.4337 C   0  0  0  0  0  0
  -21.9195   -4.6954   22.3391 C   0  0  0  0  0  0
  -22.7819  -13.5219   21.1843 C   0  0  0  0  0  0
  -22.1660   -4.2138   21.0969 F   0  0  0  0  0  0
  -21.5632   -3.4538   25.7733 F   0  0  0  0  0  0
  -29.9929  -13.4811   20.4449 N   0  0  0  0  0  0
  -26.2940  -12.9390   20.3316 N   0  0  0  0  0  0
  -25.9310  -11.6538   20.5760 N   0  0  0  0  0  0
  -22.0467  -12.8190   22.0390 N   0  0  0  0  0  0
  -25.4243  -15.1911   20.4132 N   0  0  0  0  0  0
  -31.7545  -14.8473   20.0764 O   0  0  0  0  0  0
  -21.6638   -6.8858   21.4222 O   0  0  0  0  0  0
  -22.3504  -14.5531   20.6702 O   0  0  0  0  0  0
  -24.6312  -31.8571   23.2022 C   0  0  0  0  0  0
  -25.9147  -32.4760   23.8346 C   0  0  1  0  0  0
  -27.1869  -27.2317   20.1495 C   0  0  0  0  0  0
  -25.5960  -33.8570   24.2283 N   0  0  0  0  0  0
  -23.4274  -30.4848   21.5477 C   0  0  2  0  0  0
  -24.8683  -28.9362   20.1157 C   0  0  0  0  0  0
  -22.7485  -29.4636   22.4932 C   0  0  0  0  0  0
  -18.0281  -28.1393   22.8494 C   0  0  0  0  0  0
  -24.1494  -36.7262   23.2645 C   0  0  0  0  0  0
  -25.9762  -30.7620   21.3879 C   0  0  0  0  0  0
  -26.0431  -29.3811   20.7366 C   0  0  0  0  0  0
  -27.2051  -28.5394   20.7513 C   0  0  0  0  0  0
  -26.0069  -26.8972   19.4497 C   0  0  0  0  0  0
  -24.8566  -27.7007   19.4628 C   0  0  0  0  0  0
  -23.6428  -29.8254   20.1625 C   0  0  0  0  0  0
  -25.4125  -36.3062   24.0327 C   0  0  1  0  0  0
  -20.5885  -28.3714   23.1274 C   0  0  2  0  0  0
  -20.6788  -26.9445   22.5397 C   0  0  0  0  0  0
  -19.5750  -26.6406   21.5218 C   0  0  0  0  0  0
  -18.1919  -26.7937   22.1630 C   0  0  0  0  0  0
  -19.1539  -28.8869   23.2867 C   0  0  0  0  0  0
  -18.9466  -30.1464   23.8899 C   0  0  0  0  0  0
  -17.6469  -30.6600   24.0581 C   0  0  0  0  0  0
  -25.9082  -34.9449   23.5111 C   0  0  0  0  0  0
  -16.5359  -29.9107   23.6358 C   0  0  0  0  0  0
  -16.7272  -28.6520   23.0379 C   0  0  0  0  0  0
  -26.4518  -31.6578   25.0731 C   0  0  0  0  0  0
  -25.3730  -31.3648   26.1423 C   0  0  0  0  0  0
  -27.0417  -30.3032   24.6178 C   0  0  0  0  0  0
  -27.6071  -32.4331   25.7497 C   0  0  0  0  0  0
  -27.5575  -37.1775   24.8468 C   0  0  0  0  0  0
  -21.4198  -29.3061   22.3658 N   0  0  0  0  0  0
  -26.4290  -37.3778   23.9424 N   0  0  0  0  0  0
  -24.6984  -31.0517   22.1026 N   0  0  0  0  0  0
  -23.4179  -28.8158   23.3022 O   0  0  0  0  0  0
  -28.2495  -26.2920   20.1928 O   0  0  0  0  0  0
  -26.5634  -34.8902   22.4667 O   0  0  0  0  0  0
  -23.5470  -32.1440   23.7287 O   0  0  0  0  0  0
  -29.4875  -18.4184   21.0144 C   0  0  0  0  0  0
  -30.0697  -17.3371   18.9169 C   0  0  0  0  0  0
  -29.4256  -19.7318   20.3779 C   0  0  0  0  0  0
  -29.8291  -17.1916   20.3021 C   0  0  0  0  0  0
  -29.9863  -18.5890   18.2752 C   0  0  0  0  0  0
  -29.6797  -19.7635   18.9899 C   0  0  0  0  0  0
  -27.1195  -22.5320   20.2238 C   0  0  0  0  0  0
  -26.1288  -21.6161   20.3153 C   0  0  0  0  0  0
  -26.9019  -24.0164   19.9317 C   0  0  0  0  0  0
  -29.1519  -23.7413   20.6583 C   0  0  0  0  0  0
  -27.9968  -24.8493   20.6303 C   0  0  1  0  0  0
  -26.2181  -20.1236   20.5712 C   0  0  0  0  0  0
  -29.1703  -21.1230   21.1269 C   0  0  0  0  0  0
  -29.8480  -15.8202   20.8752 N   0  0  0  0  0  0
  -28.6018  -22.3417   20.3630 N   0  3  1  0  0  0
  -30.2060  -18.6632   16.9408 F   0  0  0  0  0  0
  -29.6330  -20.9436   18.3249 F   0  0  0  0  0  0
  -31.4719  -12.5501   19.1923 H   0  0  0  0  0  0
  -30.3598  -11.4492   19.9488 H   0  0  0  0  0  0
  -29.7889  -11.7480   17.5192 H   0  0  0  0  0  0
  -29.6408  -13.4733   17.7429 H   0  0  0  0  0  0
  -27.8913  -11.2876   18.9101 H   0  0  0  0  0  0
  -27.3783  -12.5344   17.8075 H   0  0  0  0  0  0
  -27.6520  -14.2550   19.4998 H   0  0  0  0  0  0
  -28.7053  -12.1212   21.4209 H   0  0  0  0  0  0
  -28.4144  -13.7894   21.8318 H   0  0  0  0  0  0
  -25.2745   -9.5698   22.4759 H   0  0  0  0  0  0
  -23.9977   -7.4654   22.7501 H   0  0  0  0  0  0
  -21.0841   -8.8739   19.8945 H   0  0  0  0  0  0
  -22.3672  -10.9650   19.6141 H   0  0  0  0  0  0
  -21.2013   -7.6139   23.9689 H   0  0  0  0  0  0
  -21.1482   -6.0524   25.9060 H   0  0  0  0  0  0
  -22.0603   -2.7600   23.2838 H   0  0  0  0  0  0
  -22.4094  -11.9832   22.4729 H   0  0  0  0  0  0
  -21.1087  -13.1197   22.2608 H   0  0  0  0  0  0
  -24.6609  -15.8486   20.5223 H   0  0  0  0  0  0
  -26.2789  -15.6269   20.0906 H   0  0  0  0  0  0
  -26.7200  -32.5401   23.1066 H   0  0  0  0  0  0
  -25.0130  -33.9737   25.0444 H   0  0  0  0  0  0
  -22.7282  -31.3115   21.4038 H   0  0  0  0  0  0
  -23.3779  -35.9571   23.3314 H   0  0  0  0  0  0
  -24.3585  -36.8903   22.2061 H   0  0  0  0  0  0
  -23.7233  -37.6457   23.6678 H   0  0  0  0  0  0
  -26.1162  -31.5146   20.6111 H   0  0  0  0  0  0
  -26.8578  -30.8161   22.0140 H   0  0  0  0  0  0
  -28.0984  -28.8681   21.2648 H   0  0  0  0  0  0
  -25.9336  -26.0028   18.8607 H   0  0  0  0  0  0
  -23.9678  -27.3670   18.9451 H   0  0  0  0  0  0
  -23.7668  -30.6076   19.4128 H   0  0  0  0  0  0
  -22.7584  -29.2624   19.8568 H   0  0  0  0  0  0
  -25.1293  -36.1917   25.0813 H   0  0  0  0  0  0
  -20.9972  -28.3305   24.1399 H   0  0  0  0  0  0
  -20.5786  -26.2311   23.3590 H   0  0  0  0  0  0
  -21.6637  -26.7530   22.1116 H   0  0  0  0  0  0
  -19.6959  -25.6332   21.1231 H   0  0  0  0  0  0
  -19.6695  -27.3227   20.6756 H   0  0  0  0  0  0
  -17.4204  -26.6704   21.4010 H   0  0  0  0  0  0
  -18.0305  -26.0057   22.8999 H   0  0  0  0  0  0
  -19.7944  -30.7263   24.2272 H   0  0  0  0  0  0
  -17.5036  -31.6283   24.5163 H   0  0  0  0  0  0
  -15.5369  -30.3021   23.7683 H   0  0  0  0  0  0
  -15.8654  -28.0853   22.7124 H   0  0  0  0  0  0
  -24.5961  -30.6965   25.7707 H   0  0  0  0  0  0
  -24.8839  -32.2765   26.4856 H   0  0  0  0  0  0
  -25.8015  -30.8819   27.0213 H   0  0  0  0  0  0
  -26.3018  -29.6735   24.1224 H   0  0  0  0  0  0
  -27.4214  -29.7311   25.4660 H   0  0  0  0  0  0
  -27.8828  -30.4404   23.9373 H   0  0  0  0  0  0
  -27.2729  -33.3706   26.1955 H   0  0  0  0  0  0
  -28.3913  -32.6781   25.0320 H   0  0  0  0  0  0
  -28.0682  -31.8521   26.5498 H   0  0  0  0  0  0
  -28.2532  -38.0124   24.7582 H   0  0  0  0  0  0
  -28.1114  -36.2658   24.6210 H   0  0  0  0  0  0
  -27.2267  -37.1314   25.8854 H   0  0  0  0  0  0
  -20.9391  -29.8784   21.6862 H   0  0  0  0  0  0
  -26.0159  -38.2841   24.1458 H   0  0  0  0  0  0
  -29.2887  -18.3567   22.0761 H   0  0  0  0  0  0
  -30.2993  -16.4763   18.3065 H   0  0  0  0  0  0
  -25.1195  -21.9722   20.1607 H   0  0  0  0  0  0
  -25.9005  -24.3056   20.2535 H   0  0  0  0  0  0
  -26.9664  -24.1351   18.8510 H   0  0  0  0  0  0
  -29.6680  -23.7601   21.6182 H   0  0  0  0  0  0
  -29.8998  -23.9674   19.8982 H   0  0  0  0  0  0
  -27.6692  -24.9456   21.6671 H   0  0  0  0  0  0
  -26.7266  -19.6164   19.7512 H   0  0  0  0  0  0
  -25.2126  -19.7074   20.6373 H   0  0  0  0  0  0
  -26.7114  -19.8898   21.5137 H   0  0  0  0  0  0
  -30.1530  -21.4187   21.4929 H   0  0  0  0  0  0
  -28.5843  -20.9581   22.0306 H   0  0  0  0  0  0
  -29.0568  -15.5949   21.4608 H   0  0  0  0  0  0
  -28.9446  -22.1519   19.4292 H   0  0  0  0  0  0
  1 25  1  0  0  0
  1 30  2  0  0  0
  1 84  1  0  0  0
  2  3  1  0  0  0
  2 25  1  0  0  0
  2 88  1  0  0  0
  2 89  1  0  0  0
  3  4  1  0  0  0
  3 90  1  0  0  0
  3 91  1  0  0  0
  4  5  1  0  0  0
  4 92  1  0  0  0
  4 93  1  0  0  0
  5  6  1  0  0  0
  5 26  1  0  0  0
  5 94  1  0  0  0
  6 25  1  0  0  0
  6 95  1  0  0  0
  6 96  1  0  0  0
  7  8  2  0  0  0
  7 26  1  0  0  0
  7 29  1  0  0  0
  8  9  1  0  0  0
  8 22  1  0  0  0
  9 10  1  0  0  0
  9 27  2  0  0  0
 10 11  2  0  0  0
 10 15  1  0  0  0
 11 12  1  0  0  0
 11 97  1  0  0  0
 12 13  2  0  0  0
 12 98  1  0  0  0
 13 14  1  0  0  0
 13 31  1  0  0  0
 14 15  2  0  0  0
 14 99  1  0  0  0
 15100  1  0  0  0
 16 17  2  0  0  0
 16 21  1  0  0  0
 16 31  1  0  0  0
 17 18  1  0  0  0
 17101  1  0  0  0
 18 19  2  0  0  0
 18102  1  0  0  0
 19 20  1  0  0  0
 19 24  1  0  0  0
 20 21  2  0  0  0
 20103  1  0  0  0
 21 23  1  0  0  0
 22 28  1  0  0  0
 22 32  2  0  0  0
 26 27  1  0  0  0
 28104  1  0  0  0
 28105  1  0  0  0
 29106  1  0  0  0
 29107  1  0  0  0
 33 34  1  0  0  0
 33 66  1  0  0  0
 33 70  2  0  0  0
 34 36  1  0  0  0
 34 59  1  0  0  0
 34108  1  0  0  0
 35 44  2  0  0  0
 35 45  1  0  0  0
 35 68  1  0  0  0
 36 56  1  0  0  0
 36109  1  0  0  0
 37 39  1  0  0  0
 37 47  1  0  0  0
 37 66  1  0  0  0
 37110  1  0  0  0
 38 43  2  0  0  0
 38 46  1  0  0  0
 38 47  1  0  0  0
 39 64  1  0  0  0
 39 67  2  0  0  0
 40 52  1  0  0  0
 40 53  2  0  0  0
 40 58  1  0  0  0
 41111  1  0  0  0
 41112  1  0  0  0
 41113  1  0  0  0
 41 48  1  0  0  0
 42 43  1  0  0  0
 42 66  1  0  0  0
 42114  1  0  0  0
 42115  1  0  0  0
 43 44  1  0  0  0
 44116  1  0  0  0
 45 46  2  0  0  0
 45117  1  0  0  0
 46118  1  0  0  0
 47119  1  0  0  0
 47120  1  0  0  0
 48 56  1  0  0  0
 48 65  1  0  0  0
 48121  1  0  0  0
 49 50  1  0  0  0
 49 53  1  0  0  0
 49 64  1  0  0  0
 49122  1  0  0  0
 50 51  1  0  0  0
 50123  1  0  0  0
 50124  1  0  0  0
 51 52  1  0  0  0
 51125  1  0  0  0
 51126  1  0  0  0
 52127  1  0  0  0
 52128  1  0  0  0
 53 54  1  0  0  0
 54 55  2  0  0  0
 54129  1  0  0  0
 55 57  1  0  0  0
 55130  1  0  0  0
 56 69  2  0  0  0
 57 58  2  0  0  0
 57131  1  0  0  0
 58132  1  0  0  0
 59 60  1  0  0  0
 59 61  1  0  0  0
 59 62  1  0  0  0
 60133  1  0  0  0
 60134  1  0  0  0
 60135  1  0  0  0
 61136  1  0  0  0
 61137  1  0  0  0
 61138  1  0  0  0
 62139  1  0  0  0
 62140  1  0  0  0
 62141  1  0  0  0
 63 65  1  0  0  0
 63142  1  0  0  0
 63143  1  0  0  0
 63144  1  0  0  0
 64145  1  0  0  0
 65146  1  0  0  0
 68 81  1  0  0  0
 71 73  2  0  0  0
 71 74  1  0  0  0
 71147  1  0  0  0
 72 74  2  0  0  0
 72 75  1  0  0  0
 72148  1  0  0  0
 73 76  1  0  0  0
 73 83  1  0  0  0
 74 84  1  0  0  0
 75 76  2  0  0  0
 75 86  1  0  0  0
 76 87  1  0  0  0
 77 78  2  0  0  0
 77 79  1  0  0  0
 77 85  1  0  0  0
 78 82  1  0  0  0
 78149  1  0  0  0
 79 81  1  0  0  0
 79150  1  0  0  0
 79151  1  0  0  0
 80 81  1  0  0  0
 80 85  1  0  0  0
 80152  1  0  0  0
 80153  1  0  0  0
 81154  1  0  0  0
 82155  1  0  0  0
 82156  1  0  0  0
 82157  1  0  0  0
 83158  1  0  0  0
 83159  1  0  0  0
 83 85  1  0  0  0
 84160  1  0  0  0
 85161  1  0  0  0
M  CHG  1  85   1
M  ISO  4   1 100  68 101  81 101  84 100
M  END
> <chiral flag>
0

> <version>
0

> <s_m_source_file>
/data/baiqing/PycharmProjects/Reinvent-master-3.2/result/LINK_invent/BTK/process_docking_weight1_custom_product_contain_oxygen_bond_distance_aromatic_linkinvent_7_9_3/rearranged_h_0031.sdf

> <i_m_source_file_index>
49

> <r_mmod_Potential_Energy-OPLS-2005>
131.646820068359

> <r_mmod_Stretch_Energy-OPLS-2005>
127.185211181641

> <r_mmod_Bend_Energy-OPLS-2005>
205.600036621094

> <r_mmod_Torsional_Energy-OPLS-2005>
289.37451171875

> <r_mmod_Improper_Torsional_Energy-OPLS-2005>
4.10472202301025

> <r_mmod_Van_der_Waal_Energy-OPLS-2005>
141.623397827148

> <r_mmod_Electrostatic_Energy-OPLS-2005>
-297.424713134766

> <r_mmod_Solvation_Energy-OPLS-2005>
-428.028442382812

> <b_mmod_Minimization_Converged-OPLS-2005>
0

> <r_mmod_RMS_Derivative-OPLS-2005>
2.81285095214844

$$$$
49
                    3D
 Structure written by MMmdl.
160168  0  0  1  0            999 V2000
  -30.5936  -14.7522   20.4483 C   0  0  0  0  0  0
  -30.4282  -12.4582   19.4701 C   0  0  0  0  0  0
  -29.5058  -12.5061   18.2327 C   0  0  0  0  0  0
  -28.0303  -12.3326   18.6441 C   0  0  0  0  0  0
  -27.6356  -13.2309   19.8470 C   0  0  2  0  0  0
  -28.6802  -13.1671   20.9821 C   0  0  0  0  0  0
  -25.2475  -13.8173   20.5695 C   0  0  0  0  0  0
  -24.1781  -13.0413   20.9210 C   0  0  0  0  0  0
  -24.6379  -11.6899   20.8748 C   0  0  0  0  0  0
  -23.9057  -10.4272   21.0410 C   0  0  0  0  0  0
  -24.3615   -9.4198   21.9191 C   0  0  0  0  0  0
  -23.6286   -8.2240   22.0759 C   0  0  0  0  0  0
  -22.4268   -8.0276   21.3546 C   0  0  0  0  0  0
  -21.9908   -9.0247   20.4642 C   0  0  0  0  0  0
  -22.7234  -10.2120   20.3050 C   0  0  0  0  0  0
  -21.6858   -6.0735   22.5271 C   0  0  0  0  0  0
  -21.4023   -6.5644   23.8207 C   0  0  0  0  0  0
  -21.3648   -5.6791   24.9164 C   0  0  0  0  0  0
  -21.6046   -4.3052   24.7219 C   0  0  0  0  0  0
  -21.8815   -3.8145   23.4341 C   0  0  0  0  0  0
  -21.9197   -4.6961   22.3397 C   0  0  0  0  0  0
  -22.7804  -13.5213   21.1861 C   0  0  0  0  0  0
  -22.1661   -4.2153   21.0972 F   0  0  0  0  0  0
  -21.5620   -3.4530   25.7732 F   0  0  0  0  0  0
  -29.9774  -13.5224   20.3948 N   0  0  0  0  0  0
  -26.2891  -12.9392   20.3258 N   0  0  0  0  0  0
  -25.9309  -11.6528   20.5750 N   0  0  0  0  0  0
  -22.0452  -12.8189   22.0403 N   0  0  0  0  0  0
  -25.4109  -15.1902   20.4114 N   0  0  0  0  0  0
  -31.7898  -14.8348   20.1537 O   0  0  0  0  0  0
  -21.6638   -6.8877   21.4234 O   0  0  0  0  0  0
  -22.3483  -14.5521   20.6706 O   0  0  0  0  0  0
  -24.6290  -31.8536   23.1981 C   0  0  0  0  0  0
  -25.9112  -32.4750   23.8335 C   0  0  1  0  0  0
  -27.2236  -27.2577   20.1260 C   0  0  0  0  0  0
  -25.5917  -33.8568   24.2241 N   0  0  0  0  0  0
  -23.4282  -30.4732   21.5390 C   0  0  2  0  0  0
  -24.8777  -28.9189   20.1063 C   0  0  0  0  0  0
  -22.7498  -29.4558   22.4891 C   0  0  0  0  0  0
  -18.0304  -28.1373   22.8485 C   0  0  0  0  0  0
  -24.1496  -36.7266   23.2644 C   0  0  0  0  0  0
  -25.9738  -30.7668   21.3777 C   0  0  0  0  0  0
  -26.0452  -29.3898   20.7171 C   0  0  0  0  0  0
  -27.2154  -28.5669   20.7188 C   0  0  0  0  0  0
  -26.0250  -26.8435   19.5043 C   0  0  0  0  0  0
  -24.8722  -27.6569   19.4945 C   0  0  0  0  0  0
  -23.6477  -29.8052   20.1547 C   0  0  0  0  0  0
  -25.4123  -36.3063   24.0314 C   0  0  1  0  0  0
  -20.5906  -28.3660   23.1284 C   0  0  2  0  0  0
  -20.6780  -26.9374   22.5425 C   0  0  0  0  0  0
  -19.5766  -26.6357   21.5228 C   0  0  0  0  0  0
  -18.1935  -26.7912   22.1613 C   0  0  0  0  0  0
  -19.1554  -28.8828   23.2882 C   0  0  0  0  0  0
  -18.9479  -30.1433   23.8899 C   0  0  0  0  0  0
  -17.6484  -30.6577   24.0554 C   0  0  0  0  0  0
  -25.9060  -34.9433   23.5074 C   0  0  0  0  0  0
  -16.5373  -29.9063   23.6346 C   0  0  0  0  0  0
  -16.7291  -28.6487   23.0360 C   0  0  0  0  0  0
  -26.4502  -31.6608   25.0738 C   0  0  0  0  0  0
  -25.3712  -31.3766   26.1454 C   0  0  0  0  0  0
  -27.0360  -30.3030   24.6215 C   0  0  0  0  0  0
  -27.6042  -32.4368   25.7521 C   0  0  0  0  0  0
  -27.5581  -37.1784   24.8459 C   0  0  0  0  0  0
  -21.4199  -29.3013   22.3652 N   0  0  0  0  0  0
  -26.4288  -37.3761   23.9406 N   0  0  0  0  0  0
  -24.6959  -31.0483   22.0970 N   0  0  0  0  0  0
  -23.4199  -28.8093   23.2980 O   0  0  0  0  0  0
  -28.3426  -26.3995   20.2197 O   0  0  0  0  0  0
  -26.5643  -34.8903   22.4657 O   0  0  0  0  0  0
  -23.5422  -32.1385   23.7244 O   0  0  0  0  0  0
  -30.8182  -20.1451   20.8476 C   0  0  0  0  0  0
  -31.4142  -17.7629   20.9440 C   0  0  0  0  0  0
  -31.7689  -19.1235   21.0539 C   0  0  0  0  0  0
  -29.4748  -19.8481   20.5451 C   0  0  0  0  0  0
  -29.1298  -18.4278   20.4338 C   0  0  0  0  0  0
  -30.0992  -17.3460   20.6301 C   0  0  0  0  0  0
  -28.3455  -23.7041   20.4019 C   0  0  0  0  0  0
  -33.1914  -19.4855   21.4405 C   0  0  0  0  0  0
  -27.6879  -18.0740   20.1038 C   0  0  0  0  0  0
  -29.4029  -22.3870   18.5944 C   0  0  0  0  0  0
  -28.4416  -21.0746   20.4886 C   0  0  0  0  0  0
  -28.4652  -25.0618   19.5402 C   0  0  0  0  0  0
  -29.7899  -15.8836   20.5943 N   0  0  0  0  0  0
  -28.7748  -22.4611   19.9134 N   0  0  0  0  0  0
  -27.8098  -23.7838   21.5116 O   0  0  0  0  0  0
  -31.4682  -12.5848   19.1676 H   0  0  0  0  0  0
  -30.3741  -11.4833   19.9570 H   0  0  0  0  0  0
  -29.7878  -11.7303   17.5188 H   0  0  0  0  0  0
  -29.6296  -13.4588   17.7153 H   0  0  0  0  0  0
  -27.8795  -11.2828   18.8991 H   0  0  0  0  0  0
  -27.3764  -12.5345   17.7936 H   0  0  0  0  0  0
  -27.6248  -14.2521   19.4648 H   0  0  0  0  0  0
  -28.7184  -12.1694   21.4231 H   0  0  0  0  0  0
  -28.4153  -13.8503   21.7912 H   0  0  0  0  0  0
  -25.2762   -9.5688   22.4756 H   0  0  0  0  0  0
  -23.9996   -7.4642   22.7486 H   0  0  0  0  0  0
  -21.0844   -8.8763   19.8947 H   0  0  0  0  0  0
  -22.3702  -10.9661   19.6151 H   0  0  0  0  0  0
  -21.2019   -7.6151   23.9714 H   0  0  0  0  0  0
  -21.1469   -6.0517   25.9068 H   0  0  0  0  0  0
  -22.0607   -2.7607   23.2832 H   0  0  0  0  0  0
  -22.4079  -11.9848   22.4776 H   0  0  0  0  0  0
  -21.1068  -13.1198   22.2631 H   0  0  0  0  0  0
  -24.6352  -15.8340   20.5207 H   0  0  0  0  0  0
  -26.2408  -15.6305   20.0418 H   0  0  0  0  0  0
  -26.7158  -32.5406   23.1049 H   0  0  0  0  0  0
  -25.0069  -33.9752   25.0383 H   0  0  0  0  0  0
  -22.7250  -31.2947   21.3832 H   0  0  0  0  0  0
  -23.3769  -35.9585   23.3285 H   0  0  0  0  0  0
  -24.3576  -36.8938   22.2066 H   0  0  0  0  0  0
  -23.7247  -37.6450   23.6701 H   0  0  0  0  0  0
  -26.1129  -31.5299   20.6111 H   0  0  0  0  0  0
  -26.8517  -30.8165   22.0119 H   0  0  0  0  0  0
  -28.1096  -28.9171   21.2140 H   0  0  0  0  0  0
  -25.9386  -25.8668   19.0561 H   0  0  0  0  0  0
  -23.9695  -27.2863   19.0285 H   0  0  0  0  0  0
  -23.7677  -30.5832   19.3997 H   0  0  0  0  0  0
  -22.7687  -29.2342   19.8508 H   0  0  0  0  0  0
  -25.1299  -36.1897   25.0799 H   0  0  0  0  0  0
  -20.9997  -28.3225   24.1405 H   0  0  0  0  0  0
  -20.5685  -26.2258   23.3618 H   0  0  0  0  0  0
  -21.6636  -26.7384   22.1209 H   0  0  0  0  0  0
  -19.6950  -25.6278   21.1243 H   0  0  0  0  0  0
  -19.6740  -27.3161   20.6765 H   0  0  0  0  0  0
  -17.4219  -26.6716   21.3996 H   0  0  0  0  0  0
  -18.0284  -26.0047   22.8989 H   0  0  0  0  0  0
  -19.7974  -30.7235   24.2258 H   0  0  0  0  0  0
  -17.5054  -31.6270   24.5127 H   0  0  0  0  0  0
  -15.5379  -30.2957   23.7680 H   0  0  0  0  0  0
  -15.8696  -28.0795   22.7075 H   0  0  0  0  0  0
  -24.5903  -30.7077   25.7795 H   0  0  0  0  0  0
  -24.8865  -32.2939   26.4824 H   0  0  0  0  0  0
  -25.8025  -30.9013   27.0273 H   0  0  0  0  0  0
  -26.2948  -29.6778   24.1215 H   0  0  0  0  0  0
  -27.4045  -29.7290   25.4731 H   0  0  0  0  0  0
  -27.8811  -30.4312   23.9441 H   0  0  0  0  0  0
  -27.2650  -33.3699   26.2016 H   0  0  0  0  0  0
  -28.3912  -32.6898   25.0405 H   0  0  0  0  0  0
  -28.0627  -31.8556   26.5533 H   0  0  0  0  0  0
  -28.2551  -38.0125   24.7515 H   0  0  0  0  0  0
  -28.1139  -36.2654   24.6257 H   0  0  0  0  0  0
  -27.2296  -37.1356   25.8862 H   0  0  0  0  0  0
  -20.9353  -29.8763   21.6903 H   0  0  0  0  0  0
  -26.0169  -38.2823   24.1455 H   0  0  0  0  0  0
  -31.1185  -21.1784   20.9621 H   0  0  0  0  0  0
  -32.1828  -17.0304   21.1380 H   0  0  0  0  0  0
  -33.2338  -20.4636   21.9201 H   0  0  0  0  0  0
  -33.8386  -19.5045   20.5630 H   0  0  0  0  0  0
  -33.5937  -18.7601   22.1490 H   0  0  0  0  0  0
  -27.0339  -18.3358   20.9366 H   0  0  0  0  0  0
  -27.5568  -17.0167   19.8843 H   0  0  0  0  0  0
  -27.3540  -18.6193   19.2201 H   0  0  0  0  0  0
  -28.8259  -22.9264   17.8414 H   0  0  0  0  0  0
  -29.4856  -21.3602   18.2369 H   0  0  0  0  0  0
  -30.4102  -22.8043   18.6257 H   0  0  0  0  0  0
  -28.1039  -21.2133   21.5156 H   0  0  0  0  0  0
  -27.5521  -20.7534   19.9481 H   0  0  0  0  0  0
  -27.8244  -24.9910   18.6633 H   0  0  0  0  0  0
  -29.4753  -25.0653   19.1309 H   0  0  0  0  0  0
  -28.8111  -15.6596   20.6725 H   0  0  0  0  0  0
  1 25  1  0  0  0
  1 30  2  0  0  0
  1 83  1  0  0  0
  2  3  1  0  0  0
  2 25  1  0  0  0
  2 86  1  0  0  0
  2 87  1  0  0  0
  3  4  1  0  0  0
  3 88  1  0  0  0
  3 89  1  0  0  0
  4  5  1  0  0  0
  4 90  1  0  0  0
  4 91  1  0  0  0
  5  6  1  0  0  0
  5 26  1  0  0  0
  5 92  1  0  0  0
  6 25  1  0  0  0
  6 93  1  0  0  0
  6 94  1  0  0  0
  7  8  2  0  0  0
  7 26  1  0  0  0
  7 29  1  0  0  0
  8  9  1  0  0  0
  8 22  1  0  0  0
  9 10  1  0  0  0
  9 27  2  0  0  0
 10 11  2  0  0  0
 10 15  1  0  0  0
 11 12  1  0  0  0
 11 95  1  0  0  0
 12 13  2  0  0  0
 12 96  1  0  0  0
 13 14  1  0  0  0
 13 31  1  0  0  0
 14 15  2  0  0  0
 14 97  1  0  0  0
 15 98  1  0  0  0
 16 17  2  0  0  0
 16 21  1  0  0  0
 16 31  1  0  0  0
 17 18  1  0  0  0
 17 99  1  0  0  0
 18 19  2  0  0  0
 18100  1  0  0  0
 19 20  1  0  0  0
 19 24  1  0  0  0
 20 21  2  0  0  0
 20101  1  0  0  0
 21 23  1  0  0  0
 22 28  1  0  0  0
 22 32  2  0  0  0
 26 27  1  0  0  0
 28102  1  0  0  0
 28103  1  0  0  0
 29104  1  0  0  0
 29105  1  0  0  0
 33 34  1  0  0  0
 33 66  1  0  0  0
 33 70  2  0  0  0
 34 36  1  0  0  0
 34 59  1  0  0  0
 34106  1  0  0  0
 35 44  2  0  0  0
 35 45  1  0  0  0
 35 68  1  0  0  0
 36 56  1  0  0  0
 36107  1  0  0  0
 37 39  1  0  0  0
 37 47  1  0  0  0
 37 66  1  0  0  0
 37108  1  0  0  0
 38 43  2  0  0  0
 38 46  1  0  0  0
 38 47  1  0  0  0
 39 64  1  0  0  0
 39 67  2  0  0  0
 40 52  1  0  0  0
 40 53  2  0  0  0
 40 58  1  0  0  0
 41109  1  0  0  0
 41110  1  0  0  0
 41111  1  0  0  0
 41 48  1  0  0  0
 42 43  1  0  0  0
 42 66  1  0  0  0
 42112  1  0  0  0
 42113  1  0  0  0
 43 44  1  0  0  0
 44114  1  0  0  0
 45 46  2  0  0  0
 45115  1  0  0  0
 46116  1  0  0  0
 47117  1  0  0  0
 47118  1  0  0  0
 48 56  1  0  0  0
 48 65  1  0  0  0
 48119  1  0  0  0
 49 50  1  0  0  0
 49 53  1  0  0  0
 49 64  1  0  0  0
 49120  1  0  0  0
 50 51  1  0  0  0
 50121  1  0  0  0
 50122  1  0  0  0
 51 52  1  0  0  0
 51123  1  0  0  0
 51124  1  0  0  0
 52125  1  0  0  0
 52126  1  0  0  0
 53 54  1  0  0  0
 54 55  2  0  0  0
 54127  1  0  0  0
 55 57  1  0  0  0
 55128  1  0  0  0
 56 69  2  0  0  0
 57 58  2  0  0  0
 57129  1  0  0  0
 58130  1  0  0  0
 59 60  1  0  0  0
 59 61  1  0  0  0
 59 62  1  0  0  0
 60131  1  0  0  0
 60132  1  0  0  0
 60133  1  0  0  0
 61134  1  0  0  0
 61135  1  0  0  0
 61136  1  0  0  0
 62137  1  0  0  0
 62138  1  0  0  0
 62139  1  0  0  0
 63 65  1  0  0  0
 63140  1  0  0  0
 63141  1  0  0  0
 63142  1  0  0  0
 64143  1  0  0  0
 65144  1  0  0  0
 68 82  1  0  0  0
 71 73  2  0  0  0
 71 74  1  0  0  0
 71145  1  0  0  0
 72 73  1  0  0  0
 72 76  2  0  0  0
 72146  1  0  0  0
 73 78  1  0  0  0
 74 75  2  0  0  0
 74 81  1  0  0  0
 75 76  1  0  0  0
 75 79  1  0  0  0
 76 83  1  0  0  0
 77 82  1  0  0  0
 77 84  1  0  0  0
 77 85  2  0  0  0
 78147  1  0  0  0
 78148  1  0  0  0
 78149  1  0  0  0
 79150  1  0  0  0
 79151  1  0  0  0
 79152  1  0  0  0
 80 84  1  0  0  0
 80153  1  0  0  0
 80154  1  0  0  0
 80155  1  0  0  0
 81 84  1  0  0  0
 81156  1  0  0  0
 81157  1  0  0  0
 82158  1  0  0  0
 82159  1  0  0  0
 83160  1  0  0  0
M  ISO  4   1 100  68 101  82 101  83 100
M  END
> <chiral flag>
0

> <version>
0

> <s_m_source_file>
/data/baiqing/PycharmProjects/Reinvent-master-3.2/result/LINK_invent/BTK/process_docking_weight1_custom_product_contain_oxygen_bond_distance_aromatic_linkinvent_7_9_3/rearranged_h_0031.sdf

> <i_m_source_file_index>
50

> <r_mmod_Potential_Energy-OPLS-2005>
170.436096191406

> <r_mmod_Stretch_Energy-OPLS-2005>
136.640914916992

> <r_mmod_Bend_Energy-OPLS-2005>
173.801849365234

> <r_mmod_Torsional_Energy-OPLS-2005>
222.400207519531

> <r_mmod_Improper_Torsional_Energy-OPLS-2005>
6.8219518661499

> <r_mmod_Van_der_Waal_Energy-OPLS-2005>
140.965286254883

> <r_mmod_Electrostatic_Energy-OPLS-2005>
-358.496185302734

> <r_mmod_Solvation_Energy-OPLS-2005>
-238.911605834961

> <b_mmod_Minimization_Converged-OPLS-2005>
0

> <r_mmod_RMS_Derivative-OPLS-2005>
2.81194067001343

$$$$
50
                    3D
 Structure written by MMmdl.
156164  0  0  1  0            999 V2000
  -30.3919  -15.3541   20.3171 C   0  0  0  0  0  0
  -30.4445  -12.8717   19.4861 C   0  0  0  0  0  0
  -29.5338  -12.5477   18.2717 C   0  0  0  0  0  0
  -28.0936  -12.2503   18.7299 C   0  0  0  0  0  0
  -27.6074  -13.2596   19.7989 C   0  0  2  0  0  0
  -28.6517  -13.4966   20.9136 C   0  0  0  0  0  0
  -25.2489  -13.8206   20.5762 C   0  0  0  0  0  0
  -24.1802  -13.0435   20.9256 C   0  0  0  0  0  0
  -24.6427  -11.6929   20.8773 C   0  0  0  0  0  0
  -23.9085  -10.4322   21.0400 C   0  0  0  0  0  0
  -24.3644   -9.4235   21.9169 C   0  0  0  0  0  0
  -23.6321   -8.2268   22.0745 C   0  0  0  0  0  0
  -22.4292   -8.0312   21.3538 C   0  0  0  0  0  0
  -21.9937   -9.0277   20.4634 C   0  0  0  0  0  0
  -22.7255  -10.2158   20.3038 C   0  0  0  0  0  0
  -21.6886   -6.0769   22.5278 C   0  0  0  0  0  0
  -21.4029   -6.5652   23.8217 C   0  0  0  0  0  0
  -21.3652   -5.6790   24.9168 C   0  0  0  0  0  0
  -21.6046   -4.3057   24.7204 C   0  0  0  0  0  0
  -21.8816   -3.8165   23.4323 C   0  0  0  0  0  0
  -21.9202   -4.6994   22.3399 C   0  0  0  0  0  0
  -22.7818  -13.5225   21.1890 C   0  0  0  0  0  0
  -22.1670   -4.2168   21.0980 F   0  0  0  0  0  0
  -21.5611   -3.4547   25.7724 F   0  0  0  0  0  0
  -29.8461  -14.0347   20.2399 N   0  0  0  0  0  0
  -26.2850  -12.9436   20.3175 N   0  0  0  0  0  0
  -25.9363  -11.6541   20.5737 N   0  0  0  0  0  0
  -22.0455  -12.8199   22.0430 N   0  0  0  0  0  0
  -25.4205  -15.1919   20.4297 N   0  0  0  0  0  0
  -31.6366  -15.3255   20.3198 O   0  0  0  0  0  0
  -21.6660   -6.8903   21.4236 O   0  0  0  0  0  0
  -22.3511  -14.5514   20.6705 O   0  0  0  0  0  0
  -24.6672  -31.8205   23.1668 C   0  0  0  0  0  0
  -25.9320  -32.4580   23.8150 C   0  0  1  0  0  0
  -27.2116  -26.8867   20.1758 C   0  0  0  0  0  0
  -25.5979  -33.8392   24.2066 N   0  0  0  0  0  0
  -23.4846  -30.4312   21.5192 C   0  0  2  0  0  0
  -24.9319  -28.8103   20.1170 C   0  0  0  0  0  0
  -22.7688  -29.4423   22.4785 C   0  0  0  0  0  0
  -18.0323  -28.1419   22.8468 C   0  0  0  0  0  0
  -24.1494  -36.7215   23.2649 C   0  0  0  0  0  0
  -26.0559  -30.6113   21.4005 C   0  0  0  0  0  0
  -26.1227  -29.1988   20.7453 C   0  0  0  0  0  0
  -27.2566  -28.2593   20.7476 C   0  0  0  0  0  0
  -25.9905  -26.6643   19.4961 C   0  0  0  0  0  0
  -24.8941  -27.5664   19.4683 C   0  0  0  0  0  0
  -23.7219  -29.7457   20.1481 C   0  0  0  0  0  0
  -25.4130  -36.2966   24.0294 C   0  0  1  0  0  0
  -20.5957  -28.3758   23.1179 C   0  0  2  0  0  0
  -20.6798  -26.9432   22.5398 C   0  0  0  0  0  0
  -19.5773  -26.6376   21.5211 C   0  0  0  0  0  0
  -18.1957  -26.7947   22.1624 C   0  0  0  0  0  0
  -19.1587  -28.8908   23.2803 C   0  0  0  0  0  0
  -18.9497  -30.1491   23.8835 C   0  0  0  0  0  0
  -17.6492  -30.6600   24.0561 C   0  0  0  0  0  0
  -25.9092  -34.9345   23.5004 C   0  0  0  0  0  0
  -16.5376  -29.9089   23.6348 C   0  0  0  0  0  0
  -16.7303  -28.6514   23.0351 C   0  0  0  0  0  0
  -26.4545  -31.6540   25.0697 C   0  0  0  0  0  0
  -25.3663  -31.3803   26.1353 C   0  0  0  0  0  0
  -27.0444  -30.2908   24.6457 C   0  0  0  0  0  0
  -27.6040  -32.4350   25.7506 C   0  0  0  0  0  0
  -27.5561  -37.1771   24.8457 C   0  0  0  0  0  0
  -21.4356  -29.3048   22.3539 N   0  0  0  0  0  0
  -26.4289  -37.3696   23.9396 N   0  0  0  0  0  0
  -24.7574  -30.9804   22.0837 N   0  0  0  0  0  0
  -23.4212  -28.7997   23.3032 O   0  0  0  0  0  0
  -28.2045  -25.7589   20.2182 O   0  0  0  0  0  0
  -26.5715  -34.8890   22.4600 O   0  0  0  0  0  0
  -23.5729  -32.1196   23.6741 O   0  0  0  0  0  0
  -30.6685  -20.2974   19.6875 C   0  0  0  0  0  0
  -30.1622  -22.7685   19.6742 C   0  0  0  0  0  0
  -31.0333  -21.6588   19.4635 C   0  0  0  0  0  0
  -29.4299  -19.8866   20.2154 C   0  0  0  0  0  0
  -28.8331  -22.6458   20.1373 C   0  0  0  0  0  0
  -28.5214  -21.1392   20.3940 C   0  0  0  0  0  0
  -32.4532  -21.9477   19.0084 C   0  0  0  0  0  0
  -27.1124  -20.8573   20.8797 C   0  0  0  0  0  0
  -28.8452  -16.6090   18.8476 C   0  0  0  0  0  0
  -29.3650  -18.1880   20.7288 C   0  0  0  0  0  0
  -27.8719  -24.1252   20.2445 C   0  0  0  0  0  0
  -29.6268  -16.6380   20.0878 N   0  0  0  0  0  0
  -31.4507  -13.1093   19.1323 H   0  0  0  0  0  0
  -30.5599  -12.0026   20.1351 H   0  0  0  0  0  0
  -29.9356  -11.6951   17.7154 H   0  0  0  0  0  0
  -29.5245  -13.3861   17.5756 H   0  0  0  0  0  0
  -28.0910  -11.2440   19.1558 H   0  0  0  0  0  0
  -27.4153  -12.2220   17.8782 H   0  0  0  0  0  0
  -27.4976  -14.1938   19.2502 H   0  0  0  0  0  0
  -28.8796  -12.5904   21.4750 H   0  0  0  0  0  0
  -28.2888  -14.2371   21.6284 H   0  0  0  0  0  0
  -25.2799   -9.5740   22.4729 H   0  0  0  0  0  0
  -24.0046   -7.4685   22.7489 H   0  0  0  0  0  0
  -21.0851   -8.8792   19.8980 H   0  0  0  0  0  0
  -22.3698  -10.9690   19.6151 H   0  0  0  0  0  0
  -21.2047   -7.6171   23.9708 H   0  0  0  0  0  0
  -21.1455   -6.0537   25.9055 H   0  0  0  0  0  0
  -22.0612   -2.7631   23.2817 H   0  0  0  0  0  0
  -22.4099  -11.9880   22.4816 H   0  0  0  0  0  0
  -21.1055  -13.1233   22.2569 H   0  0  0  0  0  0
  -24.6643  -15.8537   20.5694 H   0  0  0  0  0  0
  -26.2840  -15.6363   20.1444 H   0  0  0  0  0  0
  -26.7405  -32.5100   23.0871 H   0  0  0  0  0  0
  -25.0057  -33.9475   25.0178 H   0  0  0  0  0  0
  -22.7997  -31.2636   21.3475 H   0  0  0  0  0  0
  -23.3761  -35.9547   23.3293 H   0  0  0  0  0  0
  -24.3565  -36.8882   22.2065 H   0  0  0  0  0  0
  -23.7250  -37.6402   23.6715 H   0  0  0  0  0  0
  -26.2346  -31.3494   20.6177 H   0  0  0  0  0  0
  -26.9171  -30.6747   22.0547 H   0  0  0  0  0  0
  -28.1626  -28.5554   21.2587 H   0  0  0  0  0  0
  -25.8489  -25.7211   18.9889 H   0  0  0  0  0  0
  -23.9948  -27.2673   18.9510 H   0  0  0  0  0  0
  -23.8833  -30.5131   19.3893 H   0  0  0  0  0  0
  -22.8299  -29.2042   19.8294 H   0  0  0  0  0  0
  -25.1335  -36.1777   25.0792 H   0  0  0  0  0  0
  -21.0033  -28.3367   24.1310 H   0  0  0  0  0  0
  -20.5683  -26.2378   23.3642 H   0  0  0  0  0  0
  -21.6664  -26.7416   22.1203 H   0  0  0  0  0  0
  -19.6934  -25.6269   21.1281 H   0  0  0  0  0  0
  -19.6716  -27.3154   20.6713 H   0  0  0  0  0  0
  -17.4225  -26.6679   21.4025 H   0  0  0  0  0  0
  -18.0357  -26.0102   22.9037 H   0  0  0  0  0  0
  -19.7961  -30.7326   24.2192 H   0  0  0  0  0  0
  -17.5030  -31.6268   24.5167 H   0  0  0  0  0  0
  -15.5374  -30.2962   23.7696 H   0  0  0  0  0  0
  -15.8707  -28.0807   22.7091 H   0  0  0  0  0  0
  -24.5844  -30.7164   25.7643 H   0  0  0  0  0  0
  -24.8855  -32.3015   26.4660 H   0  0  0  0  0  0
  -25.7875  -30.9028   27.0213 H   0  0  0  0  0  0
  -26.3117  -29.6575   24.1456 H   0  0  0  0  0  0
  -27.3952  -29.7280   25.5112 H   0  0  0  0  0  0
  -27.9058  -30.4069   23.9886 H   0  0  0  0  0  0
  -27.2604  -33.3688   26.1974 H   0  0  0  0  0  0
  -28.3909  -32.6865   25.0379 H   0  0  0  0  0  0
  -28.0654  -31.8559   26.5519 H   0  0  0  0  0  0
  -28.2580  -38.0070   24.7491 H   0  0  0  0  0  0
  -28.1074  -36.2594   24.6319 H   0  0  0  0  0  0
  -27.2280  -37.1443   25.8867 H   0  0  0  0  0  0
  -20.9617  -29.8743   21.6656 H   0  0  0  0  0  0
  -26.0136  -38.2773   24.1391 H   0  0  0  0  0  0
  -31.4030  -19.5217   19.5102 H   0  0  0  0  0  0
  -30.5232  -23.7632   19.4469 H   0  0  0  0  0  0
  -33.1075  -21.0900   19.1814 H   0  0  0  0  0  0
  -32.8721  -22.7829   19.5695 H   0  0  0  0  0  0
  -32.4932  -22.1961   17.9473 H   0  0  0  0  0  0
  -27.1217  -20.2648   21.7938 H   0  0  0  0  0  0
  -26.5666  -20.2996   20.1192 H   0  0  0  0  0  0
  -26.5516  -21.7715   21.0748 H   0  0  0  0  0  0
  -27.7835  -16.4932   19.0742 H   0  0  0  0  0  0
  -29.1250  -15.7951   18.1712 H   0  0  0  0  0  0
  -28.9715  -17.5404   18.2958 H   0  0  0  0  0  0
  -29.9665  -18.1956   21.6437 H   0  0  0  0  0  0
  -28.3546  -18.1042   21.1174 H   0  0  0  0  0  0
  -27.3120  -24.0001   21.1700 H   0  0  0  0  0  0
  -27.1270  -23.9820   19.4642 H   0  0  0  0  0  0
  1 25  1  0  0  0
  1 30  2  0  0  0
  1 82  1  0  0  0
  2  3  1  0  0  0
  2 25  1  0  0  0
  2 83  1  0  0  0
  2 84  1  0  0  0
  3  4  1  0  0  0
  3 85  1  0  0  0
  3 86  1  0  0  0
  4  5  1  0  0  0
  4 87  1  0  0  0
  4 88  1  0  0  0
  5  6  1  0  0  0
  5 26  1  0  0  0
  5 89  1  0  0  0
  6 25  1  0  0  0
  6 90  1  0  0  0
  6 91  1  0  0  0
  7  8  2  0  0  0
  7 26  1  0  0  0
  7 29  1  0  0  0
  8  9  1  0  0  0
  8 22  1  0  0  0
  9 10  1  0  0  0
  9 27  2  0  0  0
 10 11  2  0  0  0
 10 15  1  0  0  0
 11 12  1  0  0  0
 11 92  1  0  0  0
 12 13  2  0  0  0
 12 93  1  0  0  0
 13 14  1  0  0  0
 13 31  1  0  0  0
 14 15  2  0  0  0
 14 94  1  0  0  0
 15 95  1  0  0  0
 16 17  2  0  0  0
 16 21  1  0  0  0
 16 31  1  0  0  0
 17 18  1  0  0  0
 17 96  1  0  0  0
 18 19  2  0  0  0
 18 97  1  0  0  0
 19 20  1  0  0  0
 19 24  1  0  0  0
 20 21  2  0  0  0
 20 98  1  0  0  0
 21 23  1  0  0  0
 22 28  1  0  0  0
 22 32  2  0  0  0
 26 27  1  0  0  0
 28 99  1  0  0  0
 28100  1  0  0  0
 29101  1  0  0  0
 29102  1  0  0  0
 33 34  1  0  0  0
 33 66  1  0  0  0
 33 70  2  0  0  0
 34 36  1  0  0  0
 34 59  1  0  0  0
 34103  1  0  0  0
 35 44  2  0  0  0
 35 45  1  0  0  0
 35 68  1  0  0  0
 36 56  1  0  0  0
 36104  1  0  0  0
 37 39  1  0  0  0
 37 47  1  0  0  0
 37 66  1  0  0  0
 37105  1  0  0  0
 38 43  2  0  0  0
 38 46  1  0  0  0
 38 47  1  0  0  0
 39 64  1  0  0  0
 39 67  2  0  0  0
 40 52  1  0  0  0
 40 53  2  0  0  0
 40 58  1  0  0  0
 41106  1  0  0  0
 41107  1  0  0  0
 41108  1  0  0  0
 41 48  1  0  0  0
 42 43  1  0  0  0
 42 66  1  0  0  0
 42109  1  0  0  0
 42110  1  0  0  0
 43 44  1  0  0  0
 44111  1  0  0  0
 45 46  2  0  0  0
 45112  1  0  0  0
 46113  1  0  0  0
 47114  1  0  0  0
 47115  1  0  0  0
 48 56  1  0  0  0
 48 65  1  0  0  0
 48116  1  0  0  0
 49 50  1  0  0  0
 49 53  1  0  0  0
 49 64  1  0  0  0
 49117  1  0  0  0
 50 51  1  0  0  0
 50118  1  0  0  0
 50119  1  0  0  0
 51 52  1  0  0  0
 51120  1  0  0  0
 51121  1  0  0  0
 52122  1  0  0  0
 52123  1  0  0  0
 53 54  1  0  0  0
 54 55  2  0  0  0
 54124  1  0  0  0
 55 57  1  0  0  0
 55125  1  0  0  0
 56 69  2  0  0  0
 57 58  2  0  0  0
 57126  1  0  0  0
 58127  1  0  0  0
 59 60  1  0  0  0
 59 61  1  0  0  0
 59 62  1  0  0  0
 60128  1  0  0  0
 60129  1  0  0  0
 60130  1  0  0  0
 61131  1  0  0  0
 61132  1  0  0  0
 61133  1  0  0  0
 62134  1  0  0  0
 62135  1  0  0  0
 62136  1  0  0  0
 63 65  1  0  0  0
 63137  1  0  0  0
 63138  1  0  0  0
 63139  1  0  0  0
 64140  1  0  0  0
 65141  1  0  0  0
 68 81  1  0  0  0
 71 73  2  0  0  0
 71 74  1  0  0  0
 71142  1  0  0  0
 72 73  1  0  0  0
 72 75  2  0  0  0
 72143  1  0  0  0
 73 77  1  0  0  0
 74 76  2  0  0  0
 74 80  1  0  0  0
 75 76  1  0  0  0
 75 81  1  0  0  0
 76 78  1  0  0  0
 77144  1  0  0  0
 77145  1  0  0  0
 77146  1  0  0  0
 78147  1  0  0  0
 78148  1  0  0  0
 78149  1  0  0  0
 79 82  1  0  0  0
 79150  1  0  0  0
 79151  1  0  0  0
 79152  1  0  0  0
 80 82  1  0  0  0
 80153  1  0  0  0
 80154  1  0  0  0
 81155  1  0  0  0
 81156  1  0  0  0
M  ISO  4   1 100  68 101  81 101  82 100
M  END
> <chiral flag>
0

> <version>
0

> <s_m_source_file>
/data/baiqing/PycharmProjects/Reinvent-master-3.2/result/LINK_invent/BTK/process_docking_weight1_custom_product_contain_oxygen_bond_distance_aromatic_linkinvent_7_9_3/rearranged_h_0031.sdf

> <i_m_source_file_index>
51

> <r_mmod_Potential_Energy-OPLS-2005>
1587.18103027344

> <r_mmod_Stretch_Energy-OPLS-2005>
648.194580078125

> <r_mmod_Bend_Energy-OPLS-2005>
453.279907226562

> <r_mmod_Torsional_Energy-OPLS-2005>
310.575531005859

> <r_mmod_Improper_Torsional_Energy-OPLS-2005>
9.08243179321289

> <r_mmod_Van_der_Waal_Energy-OPLS-2005>
118.318412780762

> <r_mmod_Electrostatic_Energy-OPLS-2005>
-299.795745849609

> <r_mmod_Solvation_Energy-OPLS-2005>
-202.608123779297

> <b_mmod_Minimization_Converged-OPLS-2005>
0

> <r_mmod_RMS_Derivative-OPLS-2005>
6.62909650802612

$$$$
51
                    3D
 Structure written by MMmdl.
161170  0  0  1  0            999 V2000
  -30.5920  -14.6597   20.4897 C   0  0  0  0  0  0
  -30.4403  -12.4020   19.4572 C   0  0  0  0  0  0
  -29.5107  -12.5122   18.2274 C   0  0  0  0  0  0
  -28.0326  -12.3476   18.6367 C   0  0  0  0  0  0
  -27.6540  -13.2161   19.8660 C   0  0  2  0  0  0
  -28.6951  -13.0657   20.9973 C   0  0  0  0  0  0
  -25.2564  -13.8166   20.5660 C   0  0  0  0  0  0
  -24.1832  -13.0426   20.9175 C   0  0  0  0  0  0
  -24.6400  -11.6898   20.8729 C   0  0  0  0  0  0
  -23.9079  -10.4283   21.0408 C   0  0  0  0  0  0
  -24.3630   -9.4195   21.9177 C   0  0  0  0  0  0
  -23.6299   -8.2241   22.0756 C   0  0  0  0  0  0
  -22.4276   -8.0284   21.3558 C   0  0  0  0  0  0
  -21.9917   -9.0252   20.4651 C   0  0  0  0  0  0
  -22.7256  -10.2126   20.3055 C   0  0  0  0  0  0
  -21.6842   -6.0735   22.5281 C   0  0  0  0  0  0
  -21.4013   -6.5642   23.8214 C   0  0  0  0  0  0
  -21.3664   -5.6797   24.9176 C   0  0  0  0  0  0
  -21.6038   -4.3060   24.7223 C   0  0  0  0  0  0
  -21.8822   -3.8152   23.4347 C   0  0  0  0  0  0
  -21.9197   -4.6967   22.3402 C   0  0  0  0  0  0
  -22.7864  -13.5225   21.1848 C   0  0  0  0  0  0
  -22.1661   -4.2151   21.0978 F   0  0  0  0  0  0
  -21.5631   -3.4543   25.7735 F   0  0  0  0  0  0
  -30.0096  -13.4189   20.4376 N   0  0  0  0  0  0
  -26.2992  -12.9344   20.3321 N   0  0  0  0  0  0
  -25.9331  -11.6497   20.5758 N   0  0  0  0  0  0
  -22.0519  -12.8197   22.0404 N   0  0  0  0  0  0
  -25.4259  -15.1878   20.4036 N   0  0  0  0  0  0
  -31.7504  -14.8383   20.0954 O   0  0  0  0  0  0
  -21.6647   -6.8880   21.4244 O   0  0  0  0  0  0
  -22.3539  -14.5527   20.6703 O   0  0  0  0  0  0
  -24.6244  -31.8575   23.1987 C   0  0  0  0  0  0
  -25.9112  -32.4754   23.8301 C   0  0  1  0  0  0
  -27.2393  -27.3184   20.1224 C   0  0  0  0  0  0
  -25.5943  -33.8560   24.2239 N   0  0  0  0  0  0
  -23.4183  -30.4733   21.5441 C   0  0  2  0  0  0
  -24.8635  -28.9082   20.1223 C   0  0  0  0  0  0
  -22.7453  -29.4586   22.4978 C   0  0  0  0  0  0
  -18.0279  -28.1336   22.8456 C   0  0  0  0  0  0
  -24.1513  -36.7288   23.2628 C   0  0  0  0  0  0
  -25.9527  -30.7824   21.3685 C   0  0  0  0  0  0
  -26.0273  -29.4044   20.7209 C   0  0  0  0  0  0
  -27.2152  -28.6209   20.7053 C   0  0  0  0  0  0
  -26.0535  -26.8543   19.5206 C   0  0  0  0  0  0
  -24.8762  -27.6366   19.5163 C   0  0  0  0  0  0
  -23.6335  -29.7962   20.1620 C   0  0  0  0  0  0
  -25.4120  -36.3062   24.0314 C   0  0  1  0  0  0
  -20.5880  -28.3646   23.1303 C   0  0  2  0  0  0
  -20.6794  -26.9391   22.5401 C   0  0  0  0  0  0
  -19.5789  -26.6362   21.5181 C   0  0  0  0  0  0
  -18.1957  -26.7878   22.1582 C   0  0  0  0  0  0
  -19.1526  -28.8805   23.2870 C   0  0  0  0  0  0
  -18.9458  -30.1418   23.8863 C   0  0  0  0  0  0
  -17.6465  -30.6557   24.0552 C   0  0  0  0  0  0
  -25.9068  -34.9449   23.5076 C   0  0  0  0  0  0
  -16.5355  -29.9053   23.6325 C   0  0  0  0  0  0
  -16.7272  -28.6477   23.0320 C   0  0  0  0  0  0
  -26.4486  -31.6550   25.0675 C   0  0  0  0  0  0
  -25.3700  -31.3711   26.1399 C   0  0  0  0  0  0
  -27.0296  -30.2963   24.6106 C   0  0  0  0  0  0
  -27.6066  -32.4243   25.7448 C   0  0  0  0  0  0
  -27.5589  -37.1794   24.8461 C   0  0  0  0  0  0
  -21.4172  -29.3005   22.3717 N   0  0  0  0  0  0
  -26.4298  -37.3763   23.9402 N   0  0  0  0  0  0
  -24.6838  -31.0560   22.0951 N   0  0  0  0  0  0
  -23.4172  -28.8132   23.3079 O   0  0  0  0  0  0
  -28.4432  -26.6137   20.0362 O   0  0  0  0  0  0
  -26.5651  -34.8912   22.4651 O   0  0  0  0  0  0
  -23.5414  -32.1389   23.7319 O   0  0  0  0  0  0
  -29.5128  -19.0805   19.0575 C   0  0  0  0  0  0
  -28.9226  -19.3905   21.3530 C   0  0  0  0  0  0
  -29.0098  -19.9590   20.0571 C   0  0  0  0  0  0
  -29.8214  -17.7027   19.2953 C   0  0  0  0  0  0
  -29.2754  -18.0288   21.6236 C   0  0  0  0  0  0
  -29.7027  -17.1287   20.5984 C   0  0  0  0  0  0
  -28.8278  -23.0958   21.4725 C   0  0  0  0  0  0
  -28.6931  -24.6197   21.6710 C   0  0  0  0  0  0
  -28.1535  -23.9351   19.4307 C   0  0  0  0  0  0
  -28.6848  -25.1642   20.2430 C   0  0  1  0  0  0
  -30.1698  -16.8430   18.0929 C   0  0  0  0  0  0
  -29.1369  -17.5255   23.0512 C   0  0  0  0  0  0
  -28.3423  -21.3340   19.6263 C   0  0  0  0  0  0
  -28.5630  -22.7158   20.2053 N   0  0  0  0  0  0
  -29.7716  -15.6870   20.8896 N   0  0  0  0  0  0
  -29.1270  -22.3519   22.4084 O   0  0  0  0  0  0
  -31.4811  -12.5352   19.1577 H   0  0  0  0  0  0
  -30.3813  -11.4051   19.8950 H   0  0  0  0  0  0
  -29.7767  -11.7602   17.4836 H   0  0  0  0  0  0
  -29.6523  -13.4807   17.7441 H   0  0  0  0  0  0
  -27.8713  -11.2932   18.8656 H   0  0  0  0  0  0
  -27.3789  -12.5803   17.7962 H   0  0  0  0  0  0
  -27.6737  -14.2534   19.5285 H   0  0  0  0  0  0
  -28.7117  -12.0413   21.3730 H   0  0  0  0  0  0
  -28.4360  -13.6904   21.8537 H   0  0  0  0  0  0
  -25.2768   -9.5663   22.4754 H   0  0  0  0  0  0
  -23.9999   -7.4633   22.7473 H   0  0  0  0  0  0
  -21.0854   -8.8773   19.8954 H   0  0  0  0  0  0
  -22.3716  -10.9664   19.6170 H   0  0  0  0  0  0
  -21.2007   -7.6148   23.9713 H   0  0  0  0  0  0
  -21.1480   -6.0528   25.9076 H   0  0  0  0  0  0
  -22.0600   -2.7614   23.2845 H   0  0  0  0  0  0
  -22.4159  -11.9845   22.4751 H   0  0  0  0  0  0
  -21.1152  -13.1219   22.2660 H   0  0  0  0  0  0
  -24.6529  -15.8371   20.4986 H   0  0  0  0  0  0
  -26.2698  -15.6269   20.0569 H   0  0  0  0  0  0
  -26.7169  -32.5412   23.1032 H   0  0  0  0  0  0
  -25.0118  -33.9676   25.0408 H   0  0  0  0  0  0
  -22.7128  -31.2934   21.3953 H   0  0  0  0  0  0
  -23.3776  -35.9627   23.3255 H   0  0  0  0  0  0
  -24.3646  -36.8954   22.2062 H   0  0  0  0  0  0
  -23.7272  -37.6472   23.6677 H   0  0  0  0  0  0
  -26.0837  -31.5426   20.5973 H   0  0  0  0  0  0
  -26.8345  -30.8361   21.9940 H   0  0  0  0  0  0
  -28.1226  -29.0125   21.1441 H   0  0  0  0  0  0
  -26.0436  -25.9003   19.0174 H   0  0  0  0  0  0
  -23.9847  -27.2524   19.0375 H   0  0  0  0  0  0
  -23.7617  -30.5717   19.4041 H   0  0  0  0  0  0
  -22.7515  -29.2299   19.8598 H   0  0  0  0  0  0
  -25.1306  -36.1893   25.0803 H   0  0  0  0  0  0
  -20.9939  -28.3207   24.1435 H   0  0  0  0  0  0
  -20.5707  -26.2262   23.3585 H   0  0  0  0  0  0
  -21.6673  -26.7438   22.1216 H   0  0  0  0  0  0
  -19.6998  -25.6268   21.1228 H   0  0  0  0  0  0
  -19.6743  -27.3162   20.6703 H   0  0  0  0  0  0
  -17.4245  -26.6608   21.3964 H   0  0  0  0  0  0
  -18.0364  -25.9979   22.8935 H   0  0  0  0  0  0
  -19.7947  -30.7226   24.2216 H   0  0  0  0  0  0
  -17.5031  -31.6241   24.5146 H   0  0  0  0  0  0
  -15.5359  -30.2951   23.7652 H   0  0  0  0  0  0
  -15.8675  -28.0818   22.6995 H   0  0  0  0  0  0
  -24.5926  -30.6981   25.7754 H   0  0  0  0  0  0
  -24.8808  -32.2882   26.4706 H   0  0  0  0  0  0
  -25.8010  -30.8997   27.0239 H   0  0  0  0  0  0
  -26.2829  -29.6743   24.1166 H   0  0  0  0  0  0
  -27.4033  -29.7205   25.4579 H   0  0  0  0  0  0
  -27.8693  -30.4253   23.9280 H   0  0  0  0  0  0
  -27.2754  -33.3645   26.1876 H   0  0  0  0  0  0
  -28.3965  -32.6620   25.0308 H   0  0  0  0  0  0
  -28.0600  -31.8415   26.5474 H   0  0  0  0  0  0
  -28.2568  -38.0141   24.7545 H   0  0  0  0  0  0
  -28.1121  -36.2658   24.6217 H   0  0  0  0  0  0
  -27.2329  -37.1370   25.8879 H   0  0  0  0  0  0
  -20.9347  -29.8709   21.6913 H   0  0  0  0  0  0
  -26.0168  -38.2818   24.1415 H   0  0  0  0  0  0
  -29.5715  -19.4491   18.0426 H   0  0  0  0  0  0
  -28.5049  -19.9856   22.1503 H   0  0  0  0  0  0
  -29.5208  -25.0222   22.2541 H   0  0  0  0  0  0
  -27.7604  -24.8409   22.1896 H   0  0  0  0  0  0
  -27.0660  -23.9474   19.3618 H   0  0  0  0  0  0
  -28.5523  -23.9213   18.4157 H   0  0  0  0  0  0
  -29.7446  -25.1628   19.9750 H   0  0  0  0  0  0
  -30.0698  -17.3986   17.1605 H   0  0  0  0  0  0
  -29.5003  -15.9840   18.0349 H   0  0  0  0  0  0
  -31.1975  -16.4885   18.1555 H   0  0  0  0  0  0
  -28.9857  -18.3463   23.7542 H   0  0  0  0  0  0
  -30.0436  -17.0013   23.3553 H   0  0  0  0  0  0
  -28.2913  -16.8427   23.1385 H   0  0  0  0  0  0
  -27.2699  -21.1635   19.7182 H   0  0  0  0  0  0
  -28.5070  -21.4336   18.5526 H   0  0  0  0  0  0
  -28.9582  -15.3430   21.3754 H   0  0  0  0  0  0
  1 25  1  0  0  0
  1 30  2  0  0  0
  1 85  1  0  0  0
  2  3  1  0  0  0
  2 25  1  0  0  0
  2 87  1  0  0  0
  2 88  1  0  0  0
  3  4  1  0  0  0
  3 89  1  0  0  0
  3 90  1  0  0  0
  4  5  1  0  0  0
  4 91  1  0  0  0
  4 92  1  0  0  0
  5  6  1  0  0  0
  5 26  1  0  0  0
  5 93  1  0  0  0
  6 25  1  0  0  0
  6 94  1  0  0  0
  6 95  1  0  0  0
  7  8  2  0  0  0
  7 26  1  0  0  0
  7 29  1  0  0  0
  8  9  1  0  0  0
  8 22  1  0  0  0
  9 10  1  0  0  0
  9 27  2  0  0  0
 10 11  2  0  0  0
 10 15  1  0  0  0
 11 12  1  0  0  0
 11 96  1  0  0  0
 12 13  2  0  0  0
 12 97  1  0  0  0
 13 14  1  0  0  0
 13 31  1  0  0  0
 14 15  2  0  0  0
 14 98  1  0  0  0
 15 99  1  0  0  0
 16 17  2  0  0  0
 16 21  1  0  0  0
 16 31  1  0  0  0
 17 18  1  0  0  0
 17100  1  0  0  0
 18 19  2  0  0  0
 18101  1  0  0  0
 19 20  1  0  0  0
 19 24  1  0  0  0
 20 21  2  0  0  0
 20102  1  0  0  0
 21 23  1  0  0  0
 22 28  1  0  0  0
 22 32  2  0  0  0
 26 27  1  0  0  0
 28103  1  0  0  0
 28104  1  0  0  0
 29105  1  0  0  0
 29106  1  0  0  0
 33 34  1  0  0  0
 33 66  1  0  0  0
 33 70  2  0  0  0
 34 36  1  0  0  0
 34 59  1  0  0  0
 34107  1  0  0  0
 35 44  2  0  0  0
 35 45  1  0  0  0
 35 68  1  0  0  0
 36 56  1  0  0  0
 36108  1  0  0  0
 37 39  1  0  0  0
 37 47  1  0  0  0
 37 66  1  0  0  0
 37109  1  0  0  0
 38 43  2  0  0  0
 38 46  1  0  0  0
 38 47  1  0  0  0
 39 64  1  0  0  0
 39 67  2  0  0  0
 40 52  1  0  0  0
 40 53  2  0  0  0
 40 58  1  0  0  0
 41110  1  0  0  0
 41111  1  0  0  0
 41112  1  0  0  0
 41 48  1  0  0  0
 42 43  1  0  0  0
 42 66  1  0  0  0
 42113  1  0  0  0
 42114  1  0  0  0
 43 44  1  0  0  0
 44115  1  0  0  0
 45 46  2  0  0  0
 45116  1  0  0  0
 46117  1  0  0  0
 47118  1  0  0  0
 47119  1  0  0  0
 48 56  1  0  0  0
 48 65  1  0  0  0
 48120  1  0  0  0
 49 50  1  0  0  0
 49 53  1  0  0  0
 49 64  1  0  0  0
 49121  1  0  0  0
 50 51  1  0  0  0
 50122  1  0  0  0
 50123  1  0  0  0
 51 52  1  0  0  0
 51124  1  0  0  0
 51125  1  0  0  0
 52126  1  0  0  0
 52127  1  0  0  0
 53 54  1  0  0  0
 54 55  2  0  0  0
 54128  1  0  0  0
 55 57  1  0  0  0
 55129  1  0  0  0
 56 69  2  0  0  0
 57 58  2  0  0  0
 57130  1  0  0  0
 58131  1  0  0  0
 59 60  1  0  0  0
 59 61  1  0  0  0
 59 62  1  0  0  0
 60132  1  0  0  0
 60133  1  0  0  0
 60134  1  0  0  0
 61135  1  0  0  0
 61136  1  0  0  0
 61137  1  0  0  0
 62138  1  0  0  0
 62139  1  0  0  0
 62140  1  0  0  0
 63 65  1  0  0  0
 63141  1  0  0  0
 63142  1  0  0  0
 63143  1  0  0  0
 64144  1  0  0  0
 65145  1  0  0  0
 68 80  1  0  0  0
 71 73  2  0  0  0
 71 74  1  0  0  0
 71146  1  0  0  0
 72 73  1  0  0  0
 72 75  2  0  0  0
 72147  1  0  0  0
 73 83  1  0  0  0
 74 76  2  0  0  0
 74 81  1  0  0  0
 75 76  1  0  0  0
 75 82  1  0  0  0
 76 85  1  0  0  0
 77 78  1  0  0  0
 77 84  1  0  0  0
 77 86  2  0  0  0
 78 80  1  0  0  0
 78148  1  0  0  0
 78149  1  0  0  0
 79 80  1  0  0  0
 79 84  1  0  0  0
 79150  1  0  0  0
 79151  1  0  0  0
 80152  1  0  0  0
 81153  1  0  0  0
 81154  1  0  0  0
 81155  1  0  0  0
 82156  1  0  0  0
 82157  1  0  0  0
 82158  1  0  0  0
 83 84  1  0  0  0
 83159  1  0  0  0
 83160  1  0  0  0
 85161  1  0  0  0
M  ISO  4   1 100  68 101  80 101  85 100
M  END
> <chiral flag>
0

> <version>
0

> <s_m_source_file>
/data/baiqing/PycharmProjects/Reinvent-master-3.2/result/LINK_invent/BTK/process_docking_weight1_custom_product_contain_oxygen_bond_distance_aromatic_linkinvent_7_9_3/rearranged_h_0031.sdf

> <i_m_source_file_index>
52

> <r_mmod_Potential_Energy-OPLS-2005>
106.33699798584

> <r_mmod_Stretch_Energy-OPLS-2005>
83.5683670043945

> <r_mmod_Bend_Energy-OPLS-2005>
250.314697265625

> <r_mmod_Torsional_Energy-OPLS-2005>
260.665344238281

> <r_mmod_Improper_Torsional_Energy-OPLS-2005>
7.78518342971802

> <r_mmod_Van_der_Waal_Energy-OPLS-2005>
129.375106811523

> <r_mmod_Electrostatic_Energy-OPLS-2005>
-433.764068603516

> <r_mmod_Solvation_Energy-OPLS-2005>
-237.065689086914

> <b_mmod_Minimization_Converged-OPLS-2005>
0

> <r_mmod_RMS_Derivative-OPLS-2005>
2.89392447471619

$$$$
52
                    3D
 Structure written by MMmdl.
164173  0  0  1  0            999 V2000
  -30.6930  -14.5332   20.4889 C   0  0  0  0  0  0
  -30.4285  -12.3217   19.4232 C   0  0  0  0  0  0
  -29.4887  -12.4584   18.2054 C   0  0  0  0  0  0
  -28.0192  -12.3053   18.6415 C   0  0  0  0  0  0
  -27.6538  -13.2000   19.8526 C   0  0  2  0  0  0
  -28.7064  -13.0499   20.9760 C   0  0  0  0  0  0
  -25.2609  -13.8141   20.5676 C   0  0  0  0  0  0
  -24.1844  -13.0418   20.9204 C   0  0  0  0  0  0
  -24.6401  -11.6886   20.8778 C   0  0  0  0  0  0
  -23.9041  -10.4245   21.0418 C   0  0  0  0  0  0
  -24.3586   -9.4143   21.9188 C   0  0  0  0  0  0
  -23.6245   -8.2186   22.0748 C   0  0  0  0  0  0
  -22.4247   -8.0236   21.3531 C   0  0  0  0  0  0
  -21.9878   -9.0211   20.4655 C   0  0  0  0  0  0
  -22.7210  -10.2084   20.3059 C   0  0  0  0  0  0
  -21.6815   -6.0698   22.5278 C   0  0  0  0  0  0
  -21.3984   -6.5609   23.8214 C   0  0  0  0  0  0
  -21.3675   -5.6773   24.9192 C   0  0  0  0  0  0
  -21.6032   -4.3031   24.7243 C   0  0  0  0  0  0
  -21.8822   -3.8117   23.4377 C   0  0  0  0  0  0
  -21.9171   -4.6922   22.3421 C   0  0  0  0  0  0
  -22.7878  -13.5238   21.1848 C   0  0  0  0  0  0
  -22.1641   -4.2113   21.0999 F   0  0  0  0  0  0
  -21.5651   -3.4531   25.7763 F   0  0  0  0  0  0
  -30.0186  -13.3515   20.3950 N   0  0  0  0  0  0
  -26.3000  -12.9266   20.3306 N   0  0  0  0  0  0
  -25.9318  -11.6436   20.5760 N   0  0  0  0  0  0
  -22.0482  -12.8263   22.0443 N   0  0  0  0  0  0
  -25.4396  -15.1822   20.4005 N   0  0  0  0  0  0
  -31.8678  -14.6438   20.1452 O   0  0  0  0  0  0
  -21.6594   -6.8853   21.4244 O   0  0  0  0  0  0
  -22.3582  -14.5531   20.6674 O   0  0  0  0  0  0
  -24.6183  -31.8637   23.2108 C   0  0  0  0  0  0
  -25.9079  -32.4774   23.8395 C   0  0  1  0  0  0
  -27.2036  -27.3480   20.0888 C   0  0  0  0  0  0
  -25.5933  -33.8572   24.2271 N   0  0  0  0  0  0
  -23.4066  -30.4953   21.5539 C   0  0  2  0  0  0
  -24.8503  -28.9654   20.1142 C   0  0  0  0  0  0
  -22.7378  -29.4590   22.4908 C   0  0  0  0  0  0
  -18.0138  -28.1302   22.8502 C   0  0  0  0  0  0
  -24.1483  -36.7274   23.2658 C   0  0  0  0  0  0
  -25.9532  -30.8012   21.3888 C   0  0  0  0  0  0
  -26.0178  -29.4345   20.7232 C   0  0  0  0  0  0
  -27.1962  -28.6347   20.7068 C   0  0  0  0  0  0
  -26.0053  -26.9400   19.4555 C   0  0  0  0  0  0
  -24.8434  -27.7227   19.4754 C   0  0  0  0  0  0
  -23.6246  -29.8487   20.1618 C   0  0  0  0  0  0
  -25.4112  -36.3061   24.0334 C   0  0  1  0  0  0
  -20.5775  -28.3585   23.1248 C   0  0  2  0  0  0
  -20.6576  -26.9241   22.5395 C   0  0  0  0  0  0
  -19.5559  -26.6143   21.5169 C   0  0  0  0  0  0
  -18.1717  -26.7871   22.1502 C   0  0  0  0  0  0
  -19.1423  -28.8733   23.2858 C   0  0  0  0  0  0
  -18.9380  -30.1310   23.8896 C   0  0  0  0  0  0
  -17.6409  -30.6514   24.0534 C   0  0  0  0  0  0
  -25.9025  -34.9455   23.5074 C   0  0  0  0  0  0
  -16.5259  -29.9002   23.6327 C   0  0  0  0  0  0
  -16.7147  -28.6429   23.0353 C   0  0  0  0  0  0
  -26.4491  -31.6608   25.0757 C   0  0  0  0  0  0
  -25.3740  -31.3818   26.1495 C   0  0  0  0  0  0
  -27.0367  -30.3029   24.6273 C   0  0  0  0  0  0
  -27.6001  -32.4407   25.7494 C   0  0  0  0  0  0
  -27.5560  -37.1790   24.8460 C   0  0  0  0  0  0
  -21.4106  -29.2885   22.3601 N   0  0  0  0  0  0
  -26.4274  -37.3766   23.9413 N   0  0  0  0  0  0
  -24.6767  -31.0688   22.1064 N   0  0  0  0  0  0
  -23.4148  -28.8162   23.3001 O   0  0  0  0  0  0
  -28.3453  -26.5396   20.0886 O   0  0  0  0  0  0
  -26.5606  -34.8899   22.4647 O   0  0  0  0  0  0
  -23.5342  -32.1469   23.7443 O   0  0  0  0  0  0
  -30.3381  -20.6548   22.1461 C   0  0  0  0  0  0
  -31.2003  -19.6396   22.6007 C   0  0  0  0  0  0
  -29.1545  -20.3449   21.4423 C   0  0  0  0  0  0
  -28.8639  -18.9489   21.2044 C   0  0  0  0  0  0
  -29.7142  -17.8973   21.7178 C   0  0  0  0  0  0
  -30.8960  -18.2833   22.4087 C   0  0  0  0  0  0
  -29.3068  -22.9958   19.2751 C   0  0  0  0  0  0
  -29.3975  -21.9911   18.3817 C   0  0  0  0  0  0
  -29.4288  -24.4974   19.0388 C   0  0  0  0  0  0
  -28.0693  -24.1048   20.9957 C   0  0  0  0  0  0
  -28.2407  -25.0935   19.8022 C   0  0  1  0  0  0
  -27.6221  -18.5820   20.3982 C   0  0  0  0  0  0
  -29.3979  -16.3666   21.6314 C   0  0  0  0  0  0
  -28.1891  -21.5372   21.0802 C   0  0  0  0  0  0
  -29.9413  -15.6570   20.4613 N   0  0  0  0  0  0
  -28.8319  -22.8450   20.6757 N   0  3  2  0  0  0
  -32.0039  -17.1195   23.0608 Cl  0  0  0  0  0  0
  -31.4712  -12.4194   19.1112 H   0  0  0  0  0  0
  -30.3456  -11.3267   19.8700 H   0  0  0  0  0  0
  -29.7327  -11.7060   17.4533 H   0  0  0  0  0  0
  -29.6376  -13.4277   17.7228 H   0  0  0  0  0  0
  -27.8807  -11.2628   18.9215 H   0  0  0  0  0  0
  -27.3487  -12.4867   17.8032 H   0  0  0  0  0  0
  -27.6745  -14.2278   19.4875 H   0  0  0  0  0  0
  -28.7053  -12.0304   21.3695 H   0  0  0  0  0  0
  -28.4931  -13.7108   21.8148 H   0  0  0  0  0  0
  -25.2720   -9.5584   22.4807 H   0  0  0  0  0  0
  -23.9910   -7.4565   22.7475 H   0  0  0  0  0  0
  -21.0802   -8.8749   19.8979 H   0  0  0  0  0  0
  -22.3662  -10.9632   19.6183 H   0  0  0  0  0  0
  -21.1963   -7.6121   23.9717 H   0  0  0  0  0  0
  -21.1500   -6.0512   25.9101 H   0  0  0  0  0  0
  -22.0589   -2.7581   23.2889 H   0  0  0  0  0  0
  -22.3999  -11.9912   22.4866 H   0  0  0  0  0  0
  -21.1096  -13.1341   22.2586 H   0  0  0  0  0  0
  -24.6806  -15.8483   20.4813 H   0  0  0  0  0  0
  -26.2973  -15.5937   20.0589 H   0  0  0  0  0  0
  -26.7110  -32.5390   23.1102 H   0  0  0  0  0  0
  -25.0076  -33.9753   25.0414 H   0  0  0  0  0  0
  -22.6945  -31.3152   21.4193 H   0  0  0  0  0  0
  -23.3729  -35.9614   23.3343 H   0  0  0  0  0  0
  -24.3582  -36.8865   22.2060 H   0  0  0  0  0  0
  -23.7251  -37.6491   23.6665 H   0  0  0  0  0  0
  -26.1003  -31.5830   20.6413 H   0  0  0  0  0  0
  -26.8327  -30.8276   22.0227 H   0  0  0  0  0  0
  -28.0962  -28.9945   21.1869 H   0  0  0  0  0  0
  -25.9019  -26.0329   18.8911 H   0  0  0  0  0  0
  -23.9458  -27.3740   18.9812 H   0  0  0  0  0  0
  -23.7596  -30.6452   19.4316 H   0  0  0  0  0  0
  -22.7454  -29.2948   19.8243 H   0  0  0  0  0  0
  -25.1286  -36.1912   25.0827 H   0  0  0  0  0  0
  -20.9935  -28.3178   24.1348 H   0  0  0  0  0  0
  -20.5329  -26.2177   23.3619 H   0  0  0  0  0  0
  -21.6436  -26.7053   22.1257 H   0  0  0  0  0  0
  -19.6548  -25.5976   21.1440 H   0  0  0  0  0  0
  -19.6527  -27.2800   20.6554 H   0  0  0  0  0  0
  -17.4013  -26.6654   21.3895 H   0  0  0  0  0  0
  -17.9944  -26.0009   22.8845 H   0  0  0  0  0  0
  -19.7910  -30.7021   24.2212 H   0  0  0  0  0  0
  -17.4910  -31.6225   24.5072 H   0  0  0  0  0  0
  -15.5244  -30.2843   23.7605 H   0  0  0  0  0  0
  -15.8530  -28.0802   22.7003 H   0  0  0  0  0  0
  -24.5841  -30.7245   25.7871 H   0  0  0  0  0  0
  -24.9052  -32.3033   26.4922 H   0  0  0  0  0  0
  -25.8067  -30.8991   27.0264 H   0  0  0  0  0  0
  -26.2949  -29.6659   24.1447 H   0  0  0  0  0  0
  -27.4202  -29.7401   25.4796 H   0  0  0  0  0  0
  -27.8742  -30.4291   23.9422 H   0  0  0  0  0  0
  -27.2530  -33.3649   26.2114 H   0  0  0  0  0  0
  -28.3748  -32.7084   25.0308 H   0  0  0  0  0  0
  -28.0749  -31.8576   26.5373 H   0  0  0  0  0  0
  -28.2551  -38.0097   24.7475 H   0  0  0  0  0  0
  -28.1065  -36.2625   24.6307 H   0  0  0  0  0  0
  -27.2287  -37.1466   25.8864 H   0  0  0  0  0  0
  -20.9287  -29.8617   21.6811 H   0  0  0  0  0  0
  -26.0127  -38.2808   24.1492 H   0  0  0  0  0  0
  -30.5957  -21.6713   22.3816 H   0  0  0  0  0  0
  -32.1031  -19.9152   23.1289 H   0  0  0  0  0  0
  -29.6451  -22.1778   17.3473 H   0  0  0  0  0  0
  -29.1958  -20.9664   18.6498 H   0  0  0  0  0  0
  -29.3969  -24.7360   17.9738 H   0  0  0  0  0  0
  -30.3737  -24.8568   19.4412 H   0  0  0  0  0  0
  -28.4625  -24.5289   21.9175 H   0  0  0  0  0  0
  -27.0125  -23.9031   21.1651 H   0  0  0  0  0  0
  -27.4406  -24.8588   19.1092 H   0  0  0  0  0  0
  -27.8837  -18.5661   19.3393 H   0  0  0  0  0  0
  -26.7990  -19.2811   20.5352 H   0  0  0  0  0  0
  -27.2101  -17.6174   20.6720 H   0  0  0  0  0  0
  -28.3280  -16.1763   21.6903 H   0  0  0  0  0  0
  -29.7901  -15.8748   22.5218 H   0  0  0  0  0  0
  -27.6167  -21.7209   21.9867 H   0  0  0  0  0  0
  -27.4572  -21.2908   20.3124 H   0  0  0  0  0  0
  -30.3575  -16.3257   19.8365 H   0  0  0  0  0  0
  -29.6491  -22.8821   21.2647 H   0  0  0  0  0  0
  1 25  1  0  0  0
  1 30  2  0  0  0
  1 85  1  0  0  0
  2  3  1  0  0  0
  2 25  1  0  0  0
  2 88  1  0  0  0
  2 89  1  0  0  0
  3  4  1  0  0  0
  3 90  1  0  0  0
  3 91  1  0  0  0
  4  5  1  0  0  0
  4 92  1  0  0  0
  4 93  1  0  0  0
  5  6  1  0  0  0
  5 26  1  0  0  0
  5 94  1  0  0  0
  6 25  1  0  0  0
  6 95  1  0  0  0
  6 96  1  0  0  0
  7  8  2  0  0  0
  7 26  1  0  0  0
  7 29  1  0  0  0
  8  9  1  0  0  0
  8 22  1  0  0  0
  9 10  1  0  0  0
  9 27  2  0  0  0
 10 11  2  0  0  0
 10 15  1  0  0  0
 11 12  1  0  0  0
 11 97  1  0  0  0
 12 13  2  0  0  0
 12 98  1  0  0  0
 13 14  1  0  0  0
 13 31  1  0  0  0
 14 15  2  0  0  0
 14 99  1  0  0  0
 15100  1  0  0  0
 16 17  2  0  0  0
 16 21  1  0  0  0
 16 31  1  0  0  0
 17 18  1  0  0  0
 17101  1  0  0  0
 18 19  2  0  0  0
 18102  1  0  0  0
 19 20  1  0  0  0
 19 24  1  0  0  0
 20 21  2  0  0  0
 20103  1  0  0  0
 21 23  1  0  0  0
 22 28  1  0  0  0
 22 32  2  0  0  0
 26 27  1  0  0  0
 28104  1  0  0  0
 28105  1  0  0  0
 29106  1  0  0  0
 29107  1  0  0  0
 33 34  1  0  0  0
 33 66  1  0  0  0
 33 70  2  0  0  0
 34 36  1  0  0  0
 34 59  1  0  0  0
 34108  1  0  0  0
 35 44  2  0  0  0
 35 45  1  0  0  0
 35 68  1  0  0  0
 36 56  1  0  0  0
 36109  1  0  0  0
 37 39  1  0  0  0
 37 47  1  0  0  0
 37 66  1  0  0  0
 37110  1  0  0  0
 38 43  2  0  0  0
 38 46  1  0  0  0
 38 47  1  0  0  0
 39 64  1  0  0  0
 39 67  2  0  0  0
 40 52  1  0  0  0
 40 53  2  0  0  0
 40 58  1  0  0  0
 41111  1  0  0  0
 41112  1  0  0  0
 41113  1  0  0  0
 41 48  1  0  0  0
 42 43  1  0  0  0
 42 66  1  0  0  0
 42114  1  0  0  0
 42115  1  0  0  0
 43 44  1  0  0  0
 44116  1  0  0  0
 45 46  2  0  0  0
 45117  1  0  0  0
 46118  1  0  0  0
 47119  1  0  0  0
 47120  1  0  0  0
 48 56  1  0  0  0
 48 65  1  0  0  0
 48121  1  0  0  0
 49 50  1  0  0  0
 49 53  1  0  0  0
 49 64  1  0  0  0
 49122  1  0  0  0
 50 51  1  0  0  0
 50123  1  0  0  0
 50124  1  0  0  0
 51 52  1  0  0  0
 51125  1  0  0  0
 51126  1  0  0  0
 52127  1  0  0  0
 52128  1  0  0  0
 53 54  1  0  0  0
 54 55  2  0  0  0
 54129  1  0  0  0
 55 57  1  0  0  0
 55130  1  0  0  0
 56 69  2  0  0  0
 57 58  2  0  0  0
 57131  1  0  0  0
 58132  1  0  0  0
 59 60  1  0  0  0
 59 61  1  0  0  0
 59 62  1  0  0  0
 60133  1  0  0  0
 60134  1  0  0  0
 60135  1  0  0  0
 61136  1  0  0  0
 61137  1  0  0  0
 61138  1  0  0  0
 62139  1  0  0  0
 62140  1  0  0  0
 62141  1  0  0  0
 63 65  1  0  0  0
 63142  1  0  0  0
 63143  1  0  0  0
 63144  1  0  0  0
 64145  1  0  0  0
 65146  1  0  0  0
 68 81  1  0  0  0
 71 72  2  0  0  0
 71 73  1  0  0  0
 71147  1  0  0  0
 72 76  1  0  0  0
 72148  1  0  0  0
 73 74  2  0  0  0
 73 84  1  0  0  0
 74 75  1  0  0  0
 74 82  1  0  0  0
 75 76  2  0  0  0
 75 83  1  0  0  0
 76 87  1  0  0  0
 77 78  2  0  0  0
 77 79  1  0  0  0
 77 86  1  0  0  0
 78149  1  0  0  0
 78150  1  0  0  0
 79 81  1  0  0  0
 79151  1  0  0  0
 79152  1  0  0  0
 80 81  1  0  0  0
 80 86  1  0  0  0
 80153  1  0  0  0
 80154  1  0  0  0
 81155  1  0  0  0
 82156  1  0  0  0
 82157  1  0  0  0
 82158  1  0  0  0
 83 85  1  0  0  0
 83159  1  0  0  0
 83160  1  0  0  0
 84161  1  0  0  0
 84162  1  0  0  0
 84 86  1  0  0  0
 85163  1  0  0  0
 86164  1  0  0  0
M  CHG  1  86   1
M  ISO  4   1 100  68 101  81 101  85 100
M  END
> <chiral flag>
0

> <version>
0

> <s_m_source_file>
/data/baiqing/PycharmProjects/Reinvent-master-3.2/result/LINK_invent/BTK/process_docking_weight1_custom_product_contain_oxygen_bond_distance_aromatic_linkinvent_7_9_3/rearranged_h_0031.sdf

> <i_m_source_file_index>
53

> <r_mmod_Potential_Energy-OPLS-2005>
28.0132541656494

> <r_mmod_Stretch_Energy-OPLS-2005>
68.4072647094727

> <r_mmod_Bend_Energy-OPLS-2005>
173.598693847656

> <r_mmod_Torsional_Energy-OPLS-2005>
294.803009033203

> <r_mmod_Improper_Torsional_Energy-OPLS-2005>
21.28662109375

> <r_mmod_Van_der_Waal_Energy-OPLS-2005>
147.78141784668

> <r_mmod_Electrostatic_Energy-OPLS-2005>
-271.795318603516

> <r_mmod_Solvation_Energy-OPLS-2005>
-439.089385986328

> <b_mmod_Minimization_Converged-OPLS-2005>
0

> <r_mmod_RMS_Derivative-OPLS-2005>
8.61465454101562

$$$$
53
                    3D
 Structure written by MMmdl.
158167  0  0  1  0            999 V2000
  -30.6285  -14.7493   20.4749 C   0  0  0  0  0  0
  -30.4319  -12.4551   19.5046 C   0  0  0  0  0  0
  -29.5161  -12.5077   18.2609 C   0  0  0  0  0  0
  -28.0456  -12.3220   18.6734 C   0  0  0  0  0  0
  -27.6460  -13.2343   19.8625 C   0  0  2  0  0  0
  -28.6847  -13.1826   21.0073 C   0  0  0  0  0  0
  -25.2517  -13.8211   20.5708 C   0  0  0  0  0  0
  -24.1798  -13.0456   20.9212 C   0  0  0  0  0  0
  -24.6396  -11.6933   20.8757 C   0  0  0  0  0  0
  -23.9086  -10.4299   21.0414 C   0  0  0  0  0  0
  -24.3625   -9.4212   21.9193 C   0  0  0  0  0  0
  -23.6291   -8.2251   22.0758 C   0  0  0  0  0  0
  -22.4284   -8.0283   21.3538 C   0  0  0  0  0  0
  -21.9927   -9.0261   20.4647 C   0  0  0  0  0  0
  -22.7261  -10.2141   20.3056 C   0  0  0  0  0  0
  -21.6848   -6.0739   22.5272 C   0  0  0  0  0  0
  -21.4018   -6.5644   23.8208 C   0  0  0  0  0  0
  -21.3661   -5.6794   24.9166 C   0  0  0  0  0  0
  -21.6041   -4.3055   24.7214 C   0  0  0  0  0  0
  -21.8821   -3.8152   23.4335 C   0  0  0  0  0  0
  -21.9195   -4.6968   22.3394 C   0  0  0  0  0  0
  -22.7821  -13.5229   21.1857 C   0  0  0  0  0  0
  -22.1658   -4.2158   21.0971 F   0  0  0  0  0  0
  -21.5632   -3.4535   25.7730 F   0  0  0  0  0  0
  -29.9962  -13.5230   20.4389 N   0  0  0  0  0  0
  -26.2952  -12.9422   20.3342 N   0  0  0  0  0  0
  -25.9334  -11.6570   20.5803 N   0  0  0  0  0  0
  -22.0470  -12.8201   22.0403 N   0  0  0  0  0  0
  -25.4254  -15.1921   20.4123 N   0  0  0  0  0  0
  -31.7953  -14.8372   20.0799 O   0  0  0  0  0  0
  -21.6636   -6.8882   21.4236 O   0  0  0  0  0  0
  -22.3510  -14.5536   20.6717 O   0  0  0  0  0  0
  -24.6325  -31.8509   23.2001 C   0  0  0  0  0  0
  -25.9141  -32.4720   23.8345 C   0  0  1  0  0  0
  -27.2205  -27.2530   20.1192 C   0  0  0  0  0  0
  -25.5936  -33.8533   24.2259 N   0  0  0  0  0  0
  -23.4306  -30.4743   21.5435 C   0  0  2  0  0  0
  -24.8771  -28.9230   20.1037 C   0  0  0  0  0  0
  -22.7512  -29.4568   22.4916 C   0  0  0  0  0  0
  -18.0288  -28.1367   22.8482 C   0  0  0  0  0  0
  -24.1479  -36.7297   23.2640 C   0  0  0  0  0  0
  -25.9769  -30.7544   21.3867 C   0  0  0  0  0  0
  -26.0446  -29.3770   20.7297 C   0  0  0  0  0  0
  -27.2141  -28.5486   20.7374 C   0  0  0  0  0  0
  -26.0481  -26.8988   19.4141 C   0  0  0  0  0  0
  -24.8842  -27.6911   19.4334 C   0  0  0  0  0  0
  -23.6462  -29.8090   20.1584 C   0  0  0  0  0  0
  -25.4095  -36.3054   24.0330 C   0  0  1  0  0  0
  -20.5894  -28.3679   23.1263 C   0  0  2  0  0  0
  -20.6774  -26.9396   22.5396 C   0  0  0  0  0  0
  -19.5739  -26.6366   21.5202 C   0  0  0  0  0  0
  -18.1918  -26.7912   22.1617 C   0  0  0  0  0  0
  -19.1544  -28.8836   23.2860 C   0  0  0  0  0  0
  -18.9468  -30.1444   23.8876 C   0  0  0  0  0  0
  -17.6463  -30.6576   24.0555 C   0  0  0  0  0  0
  -25.9046  -34.9425   23.5096 C   0  0  0  0  0  0
  -16.5357  -29.9075   23.6341 C   0  0  0  0  0  0
  -16.7279  -28.6496   23.0366 C   0  0  0  0  0  0
  -26.4522  -31.6569   25.0761 C   0  0  0  0  0  0
  -25.3749  -31.3727   26.1493 C   0  0  0  0  0  0
  -27.0410  -30.2986   24.6278 C   0  0  0  0  0  0
  -27.6056  -32.4352   25.7549 C   0  0  0  0  0  0
  -27.5572  -37.1781   24.8457 C   0  0  0  0  0  0
  -21.4216  -29.3031   22.3674 N   0  0  0  0  0  0
  -26.4273  -37.3753   23.9409 N   0  0  0  0  0  0
  -24.6986  -31.0464   22.0998 N   0  0  0  0  0  0
  -23.4199  -28.8099   23.3013 O   0  0  0  0  0  0
  -28.3102  -26.3510   20.2259 O   0  0  0  0  0  0
  -26.5625  -34.8906   22.4678 O   0  0  0  0  0  0
  -23.5477  -32.1354   23.7283 O   0  0  0  0  0  0
  -30.1223  -19.8860   19.0280 C   0  0  0  0  0  0
  -30.4630  -17.4534   18.9654 C   0  0  0  0  0  0
  -29.6958  -19.8418   20.3689 C   0  0  0  0  0  0
  -29.6425  -18.5168   20.9960 C   0  0  0  0  0  0
  -30.0217  -17.2845   20.2981 C   0  0  0  0  0  0
  -30.5132  -18.7179   18.3459 C   0  0  0  0  0  0
  -27.4535  -22.6131   20.5265 C   0  0  0  0  0  0
  -26.9923  -24.0774   20.4079 C   0  0  0  0  0  0
  -29.3565  -23.8591   20.3531 C   0  0  0  0  0  0
  -28.2086  -24.8768   19.8943 C   0  0  2  0  0  0
  -29.2053  -18.4350   22.4509 C   0  0  0  0  0  0
  -29.4812  -21.2457   21.1020 C   0  0  0  0  0  0
  -28.7876  -22.4650   20.4810 N   0  0  0  0  0  0
  -29.9147  -15.8911   20.8268 N   0  0  0  0  0  0
  -26.6491  -21.6964   20.7192 O   0  0  0  0  0  0
  -31.0917  -18.8416   16.7255 Cl  0  0  0  0  0  0
  -31.4759  -12.5630   19.2061 H   0  0  0  0  0  0
  -30.3657  -11.4806   19.9920 H   0  0  0  0  0  0
  -29.8038  -11.7359   17.5468 H   0  0  0  0  0  0
  -29.6374  -13.4628   17.7491 H   0  0  0  0  0  0
  -27.9183  -11.2764   18.9563 H   0  0  0  0  0  0
  -27.3835  -12.4884   17.8234 H   0  0  0  0  0  0
  -27.6416  -14.2521   19.4723 H   0  0  0  0  0  0
  -28.7126  -12.1930   21.4666 H   0  0  0  0  0  0
  -28.4112  -13.8788   21.8028 H   0  0  0  0  0  0
  -25.2764   -9.5684   22.4777 H   0  0  0  0  0  0
  -23.9994   -7.4644   22.7476 H   0  0  0  0  0  0
  -21.0864   -8.8784   19.8937 H   0  0  0  0  0  0
  -22.3721  -10.9686   19.6157 H   0  0  0  0  0  0
  -21.2011   -7.6150   23.9711 H   0  0  0  0  0  0
  -21.1481   -6.0522   25.9069 H   0  0  0  0  0  0
  -22.0602   -2.7615   23.2829 H   0  0  0  0  0  0
  -22.4093  -11.9838   22.4750 H   0  0  0  0  0  0
  -21.1086  -13.1214   22.2626 H   0  0  0  0  0  0
  -24.6647  -15.8542   20.5187 H   0  0  0  0  0  0
  -26.2813  -15.6250   20.0908 H   0  0  0  0  0  0
  -26.7218  -32.5341   23.1097 H   0  0  0  0  0  0
  -25.0066  -33.9668   25.0397 H   0  0  0  0  0  0
  -22.7282  -31.2973   21.3975 H   0  0  0  0  0  0
  -23.3723  -35.9649   23.3277 H   0  0  0  0  0  0
  -24.3556  -36.8968   22.2059 H   0  0  0  0  0  0
  -23.7264  -37.6503   23.6698 H   0  0  0  0  0  0
  -26.1147  -31.5068   20.6101 H   0  0  0  0  0  0
  -26.8579  -30.8066   22.0155 H   0  0  0  0  0  0
  -28.1015  -28.8767   21.2601 H   0  0  0  0  0  0
  -26.0069  -25.9929   18.8328 H   0  0  0  0  0  0
  -24.0036  -27.3501   18.9072 H   0  0  0  0  0  0
  -23.7661  -30.5861   19.4030 H   0  0  0  0  0  0
  -22.7640  -29.2412   19.8579 H   0  0  0  0  0  0
  -25.1261  -36.1908   25.0821 H   0  0  0  0  0  0
  -20.9972  -28.3256   24.1389 H   0  0  0  0  0  0
  -20.5666  -26.2284   23.3602 H   0  0  0  0  0  0
  -21.6630  -26.7421   22.1169 H   0  0  0  0  0  0
  -19.6897  -25.6276   21.1229 H   0  0  0  0  0  0
  -19.6668  -27.3190   20.6738 H   0  0  0  0  0  0
  -17.4186  -26.6677   21.4023 H   0  0  0  0  0  0
  -18.0294  -26.0052   22.9003 H   0  0  0  0  0  0
  -19.7952  -30.7250   24.2231 H   0  0  0  0  0  0
  -17.5036  -31.6252   24.5156 H   0  0  0  0  0  0
  -15.5354  -30.2961   23.7684 H   0  0  0  0  0  0
  -15.8680  -28.0806   22.7087 H   0  0  0  0  0  0
  -24.5925  -30.7067   25.7842 H   0  0  0  0  0  0
  -24.8924  -32.2883   26.4914 H   0  0  0  0  0  0
  -25.8057  -30.8927   27.0287 H   0  0  0  0  0  0
  -26.3031  -29.6676   24.1304 H   0  0  0  0  0  0
  -27.4096  -29.7305   25.4832 H   0  0  0  0  0  0
  -27.8899  -30.4269   23.9560 H   0  0  0  0  0  0
  -27.2662  -33.3685   26.2062 H   0  0  0  0  0  0
  -28.3912  -32.6848   25.0408 H   0  0  0  0  0  0
  -28.0677  -31.8515   26.5528 H   0  0  0  0  0  0
  -28.2538  -38.0116   24.7515 H   0  0  0  0  0  0
  -28.1110  -36.2639   24.6261 H   0  0  0  0  0  0
  -27.2287  -37.1434   25.8857 H   0  0  0  0  0  0
  -20.9410  -29.8826   21.6941 H   0  0  0  0  0  0
  -26.0145  -38.2823   24.1417 H   0  0  0  0  0  0
  -30.1973  -20.8383   18.5222 H   0  0  0  0  0  0
  -30.7629  -16.5973   18.3795 H   0  0  0  0  0  0
  -26.6869  -24.4271   21.3945 H   0  0  0  0  0  0
  -26.1309  -24.1179   19.7434 H   0  0  0  0  0  0
  -29.7493  -24.1564   21.3269 H   0  0  0  0  0  0
  -30.1930  -23.8714   19.6531 H   0  0  0  0  0  0
  -28.1726  -24.8314   18.8043 H   0  0  0  0  0  0
  -29.8980  -18.9917   23.0836 H   0  0  0  0  0  0
  -29.1687  -17.4135   22.8264 H   0  0  0  0  0  0
  -28.2125  -18.8691   22.5742 H   0  0  0  0  0  0
  -30.4796  -21.5806   21.3809 H   0  0  0  0  0  0
  -28.9900  -21.0635   22.0585 H   0  0  0  0  0  0
  -29.0902  -15.7088   21.3797 H   0  0  0  0  0  0
  1 25  1  0  0  0
  1 30  2  0  0  0
  1 84  1  0  0  0
  2  3  1  0  0  0
  2 25  1  0  0  0
  2 87  1  0  0  0
  2 88  1  0  0  0
  3  4  1  0  0  0
  3 89  1  0  0  0
  3 90  1  0  0  0
  4  5  1  0  0  0
  4 91  1  0  0  0
  4 92  1  0  0  0
  5  6  1  0  0  0
  5 26  1  0  0  0
  5 93  1  0  0  0
  6 25  1  0  0  0
  6 94  1  0  0  0
  6 95  1  0  0  0
  7  8  2  0  0  0
  7 26  1  0  0  0
  7 29  1  0  0  0
  8  9  1  0  0  0
  8 22  1  0  0  0
  9 10  1  0  0  0
  9 27  2  0  0  0
 10 11  2  0  0  0
 10 15  1  0  0  0
 11 12  1  0  0  0
 11 96  1  0  0  0
 12 13  2  0  0  0
 12 97  1  0  0  0
 13 14  1  0  0  0
 13 31  1  0  0  0
 14 15  2  0  0  0
 14 98  1  0  0  0
 15 99  1  0  0  0
 16 17  2  0  0  0
 16 21  1  0  0  0
 16 31  1  0  0  0
 17 18  1  0  0  0
 17100  1  0  0  0
 18 19  2  0  0  0
 18101  1  0  0  0
 19 20  1  0  0  0
 19 24  1  0  0  0
 20 21  2  0  0  0
 20102  1  0  0  0
 21 23  1  0  0  0
 22 28  1  0  0  0
 22 32  2  0  0  0
 26 27  1  0  0  0
 28103  1  0  0  0
 28104  1  0  0  0
 29105  1  0  0  0
 29106  1  0  0  0
 33 34  1  0  0  0
 33 66  1  0  0  0
 33 70  2  0  0  0
 34 36  1  0  0  0
 34 59  1  0  0  0
 34107  1  0  0  0
 35 44  2  0  0  0
 35 45  1  0  0  0
 35 68  1  0  0  0
 36 56  1  0  0  0
 36108  1  0  0  0
 37 39  1  0  0  0
 37 47  1  0  0  0
 37 66  1  0  0  0
 37109  1  0  0  0
 38 43  2  0  0  0
 38 46  1  0  0  0
 38 47  1  0  0  0
 39 64  1  0  0  0
 39 67  2  0  0  0
 40 52  1  0  0  0
 40 53  2  0  0  0
 40 58  1  0  0  0
 41110  1  0  0  0
 41111  1  0  0  0
 41112  1  0  0  0
 41 48  1  0  0  0
 42 43  1  0  0  0
 42 66  1  0  0  0
 42113  1  0  0  0
 42114  1  0  0  0
 43 44  1  0  0  0
 44115  1  0  0  0
 45 46  2  0  0  0
 45116  1  0  0  0
 46117  1  0  0  0
 47118  1  0  0  0
 47119  1  0  0  0
 48 56  1  0  0  0
 48 65  1  0  0  0
 48120  1  0  0  0
 49 50  1  0  0  0
 49 53  1  0  0  0
 49 64  1  0  0  0
 49121  1  0  0  0
 50 51  1  0  0  0
 50122  1  0  0  0
 50123  1  0  0  0
 51 52  1  0  0  0
 51124  1  0  0  0
 51125  1  0  0  0
 52126  1  0  0  0
 52127  1  0  0  0
 53 54  1  0  0  0
 54 55  2  0  0  0
 54128  1  0  0  0
 55 57  1  0  0  0
 55129  1  0  0  0
 56 69  2  0  0  0
 57 58  2  0  0  0
 57130  1  0  0  0
 58131  1  0  0  0
 59 60  1  0  0  0
 59 61  1  0  0  0
 59 62  1  0  0  0
 60132  1  0  0  0
 60133  1  0  0  0
 60134  1  0  0  0
 61135  1  0  0  0
 61136  1  0  0  0
 61137  1  0  0  0
 62138  1  0  0  0
 62139  1  0  0  0
 62140  1  0  0  0
 63 65  1  0  0  0
 63141  1  0  0  0
 63142  1  0  0  0
 63143  1  0  0  0
 64144  1  0  0  0
 65145  1  0  0  0
 68 80  1  0  0  0
 71 73  2  0  0  0
 71 76  1  0  0  0
 71146  1  0  0  0
 72 75  1  0  0  0
 72 76  2  0  0  0
 72147  1  0  0  0
 73 74  1  0  0  0
 73 82  1  0  0  0
 74 75  2  0  0  0
 74 81  1  0  0  0
 75 84  1  0  0  0
 76 86  1  0  0  0
 77 78  1  0  0  0
 77 83  1  0  0  0
 77 85  2  0  0  0
 78 80  1  0  0  0
 78148  1  0  0  0
 78149  1  0  0  0
 79 80  1  0  0  0
 79 83  1  0  0  0
 79150  1  0  0  0
 79151  1  0  0  0
 80152  1  0  0  0
 81153  1  0  0  0
 81154  1  0  0  0
 81155  1  0  0  0
 82 83  1  0  0  0
 82156  1  0  0  0
 82157  1  0  0  0
 84158  1  0  0  0
M  ISO  4   1 100  68 101  80 101  84 100
M  END
> <chiral flag>
0

> <version>
0

> <s_m_source_file>
/data/baiqing/PycharmProjects/Reinvent-master-3.2/result/LINK_invent/BTK/process_docking_weight1_custom_product_contain_oxygen_bond_distance_aromatic_linkinvent_7_9_3/rearranged_h_0031.sdf

> <i_m_source_file_index>
54

> <r_mmod_Potential_Energy-OPLS-2005>
179.669570922852

> <r_mmod_Stretch_Energy-OPLS-2005>
128.826431274414

> <r_mmod_Bend_Energy-OPLS-2005>
202.963363647461

> <r_mmod_Torsional_Energy-OPLS-2005>
253.258178710938

> <r_mmod_Improper_Torsional_Energy-OPLS-2005>
6.12294387817383

> <r_mmod_Van_der_Waal_Energy-OPLS-2005>
133.569885253906

> <r_mmod_Electrostatic_Energy-OPLS-2005>
-403.643432617188

> <r_mmod_Solvation_Energy-OPLS-2005>
-232.838897705078

> <b_mmod_Minimization_Converged-OPLS-2005>
0

> <r_mmod_RMS_Derivative-OPLS-2005>
2.85890054702759

$$$$
54
                    3D
 Structure written by MMmdl.
170179  0  0  1  0            999 V2000
  -30.5263  -14.7083   20.4326 C   0  0  0  0  0  0
  -30.4496  -12.4455   19.3958 C   0  0  0  0  0  0
  -29.5021  -12.5586   18.1771 C   0  0  0  0  0  0
  -28.0146  -12.4475   18.5801 C   0  0  0  0  0  0
  -27.6605  -13.2137   19.8833 C   0  0  2  0  0  0
  -28.7315  -13.0156   20.9762 C   0  0  0  0  0  0
  -25.2676  -13.8035   20.5705 C   0  0  0  0  0  0
  -24.1979  -13.0353   20.9073 C   0  0  0  0  0  0
  -24.6553  -11.6803   20.8754 C   0  0  0  0  0  0
  -23.9184  -10.4249   21.0423 C   0  0  0  0  0  0
  -24.3686   -9.4158   21.9216 C   0  0  0  0  0  0
  -23.6307   -8.2241   22.0873 C   0  0  0  0  0  0
  -22.4342   -8.0289   21.3595 C   0  0  0  0  0  0
  -21.9946   -9.0254   20.4740 C   0  0  0  0  0  0
  -22.7326  -10.2093   20.3121 C   0  0  0  0  0  0
  -21.6869   -6.0710   22.5212 C   0  0  0  0  0  0
  -21.4006   -6.5615   23.8134 C   0  0  0  0  0  0
  -21.3680   -5.6800   24.9099 C   0  0  0  0  0  0
  -21.6100   -4.3059   24.7209 C   0  0  0  0  0  0
  -21.8845   -3.8142   23.4328 C   0  0  0  0  0  0
  -21.9215   -4.6924   22.3382 C   0  0  0  0  0  0
  -22.7976  -13.5139   21.1620 C   0  0  0  0  0  0
  -22.1709   -4.2122   21.0949 F   0  0  0  0  0  0
  -21.5643   -3.4567   25.7712 F   0  0  0  0  0  0
  -30.0080  -13.4375   20.3903 N   0  0  0  0  0  0
  -26.3122  -12.9229   20.3482 N   0  0  0  0  0  0
  -25.9483  -11.6386   20.5825 N   0  0  0  0  0  0
  -22.0641  -12.8236   22.0201 N   0  0  0  0  0  0
  -25.4317  -15.1790   20.4077 N   0  0  0  0  0  0
  -31.6891  -14.9227   20.0798 O   0  0  0  0  0  0
  -21.6705   -6.8878   21.4235 O   0  0  0  0  0  0
  -22.3694  -14.5462   20.6409 O   0  0  0  0  0  0
  -24.6233  -31.8649   23.2116 C   0  0  0  0  0  0
  -25.9143  -32.4794   23.8342 C   0  0  1  0  0  0
  -27.2011  -27.3228   20.1010 C   0  0  0  0  0  0
  -25.5984  -33.8606   24.2221 N   0  0  0  0  0  0
  -23.4074  -30.4936   21.5634 C   0  0  2  0  0  0
  -24.8502  -28.9404   20.1400 C   0  0  0  0  0  0
  -22.7376  -29.4690   22.5069 C   0  0  0  0  0  0
  -18.0250  -28.1343   22.8506 C   0  0  0  0  0  0
  -24.1517  -36.7259   23.2623 C   0  0  0  0  0  0
  -25.9564  -30.7819   21.3975 C   0  0  0  0  0  0
  -26.0263  -29.4113   20.7398 C   0  0  0  0  0  0
  -27.2135  -28.6135   20.7114 C   0  0  0  0  0  0
  -26.0056  -26.9024   19.4842 C   0  0  0  0  0  0
  -24.8348  -27.6803   19.5279 C   0  0  0  0  0  0
  -23.6191  -29.8295   20.1813 C   0  0  0  0  0  0
  -25.4177  -36.3085   24.0277 C   0  0  1  0  0  0
  -20.5834  -28.3625   23.1319 C   0  0  2  0  0  0
  -20.6783  -26.9372   22.5395 C   0  0  0  0  0  0
  -19.5767  -26.6354   21.5206 C   0  0  0  0  0  0
  -18.1931  -26.7899   22.1607 C   0  0  0  0  0  0
  -19.1498  -28.8807   23.2893 C   0  0  0  0  0  0
  -18.9444  -30.1442   23.8849 C   0  0  0  0  0  0
  -17.6445  -30.6568   24.0541 C   0  0  0  0  0  0
  -25.9125  -34.9464   23.5040 C   0  0  0  0  0  0
  -16.5331  -29.9049   23.6355 C   0  0  0  0  0  0
  -16.7251  -28.6472   23.0383 C   0  0  0  0  0  0
  -26.4489  -31.6608   25.0723 C   0  0  0  0  0  0
  -25.3632  -31.3783   26.1355 C   0  0  0  0  0  0
  -27.0414  -30.3024   24.6300 C   0  0  0  0  0  0
  -27.5972  -32.4372   25.7585 C   0  0  0  0  0  0
  -27.5586  -37.1819   24.8437 C   0  0  0  0  0  0
  -21.4095  -29.3030   22.3739 N   0  0  0  0  0  0
  -26.4320  -37.3790   23.9363 N   0  0  0  0  0  0
  -24.6796  -31.0629   22.1104 N   0  0  0  0  0  0
  -23.4127  -28.8250   23.3162 O   0  0  0  0  0  0
  -28.3149  -26.5318   19.8185 O   0  0  0  0  0  0
  -26.5658  -34.8913   22.4609 O   0  0  0  0  0  0
  -23.5419  -32.1519   23.7455 O   0  0  0  0  0  0
  -30.2507  -19.3119   21.7570 C   0  0  0  0  0  0
  -28.6430  -19.3825   19.9852 C   0  0  0  0  0  0
  -29.3713  -20.1076   20.9605 C   0  0  0  0  0  0
  -30.4141  -17.8991   21.6091 C   0  0  0  0  0  0
  -28.7358  -17.9585   19.8546 C   0  0  0  0  0  0
  -29.6449  -17.1727   20.6541 C   0  0  0  0  0  0
  -30.5365  -23.1493   19.7194 C   0  0  0  0  0  0
  -31.7199  -22.4877   19.7037 C   0  0  0  0  0  0
  -30.3830  -24.4214   18.9211 C   0  0  0  0  0  0
  -30.3841  -25.5970   19.9098 C   0  0  0  0  0  0
  -28.6317  -24.1499   21.1620 C   0  0  0  0  0  0
  -29.0746  -25.6540   20.7133 C   0  0  2  0  0  0
  -31.3777  -17.1775   22.5543 C   0  0  0  0  0  0
  -27.7735  -17.3387   18.8513 C   0  0  0  0  0  0
  -32.1653  -21.2870   20.4819 C   0  0  0  0  0  0
  -29.0802  -21.6257   21.3535 C   0  0  0  0  0  0
  -29.5987  -15.7056   20.6612 N   0  0  0  0  0  0
  -29.2357  -22.8840   20.4813 N   0  3  2  0  0  0
  -31.4850  -12.6047   19.0846 H   0  0  0  0  0  0
  -30.3867  -11.4469   19.8252 H   0  0  0  0  0  0
  -29.7343  -11.7798   17.4490 H   0  0  0  0  0  0
  -29.6626  -13.5094   17.6569 H   0  0  0  0  0  0
  -27.7610  -11.3909   18.6554 H   0  0  0  0  0  0
  -27.3940  -12.8443   17.7776 H   0  0  0  0  0  0
  -27.6705  -14.2671   19.6128 H   0  0  0  0  0  0
  -28.7926  -11.9614   21.2521 H   0  0  0  0  0  0
  -28.5032  -13.5521   21.8969 H   0  0  0  0  0  0
  -25.2866   -9.5540   22.4739 H   0  0  0  0  0  0
  -23.9953   -7.4714   22.7681 H   0  0  0  0  0  0
  -21.0845   -8.8787   19.9132 H   0  0  0  0  0  0
  -22.3816  -10.9601   19.6230 H   0  0  0  0  0  0
  -21.1969   -7.6123   23.9533 H   0  0  0  0  0  0
  -21.1512   -6.0595   25.8970 H   0  0  0  0  0  0
  -22.0634   -2.7601   23.2827 H   0  0  0  0  0  0
  -22.4270  -11.9848   22.4492 H   0  0  0  0  0  0
  -21.1312  -13.1358   22.2455 H   0  0  0  0  0  0
  -24.6535  -15.8188   20.5228 H   0  0  0  0  0  0
  -26.2524  -15.6160   20.0185 H   0  0  0  0  0  0
  -26.7144  -32.5410   23.1013 H   0  0  0  0  0  0
  -25.0128  -33.9768   25.0351 H   0  0  0  0  0  0
  -22.7008  -31.3174   21.4256 H   0  0  0  0  0  0
  -23.3824  -35.9535   23.3286 H   0  0  0  0  0  0
  -24.3565  -36.8926   22.2029 H   0  0  0  0  0  0
  -23.7233  -37.6428   23.6695 H   0  0  0  0  0  0
  -26.1072  -31.5645   20.6525 H   0  0  0  0  0  0
  -26.8238  -30.8004   22.0442 H   0  0  0  0  0  0
  -28.1358  -29.0084   21.1110 H   0  0  0  0  0  0
  -25.9740  -25.9792   18.9225 H   0  0  0  0  0  0
  -23.9215  -27.3170   19.0730 H   0  0  0  0  0  0
  -23.7384  -30.6114   19.4304 H   0  0  0  0  0  0
  -22.7300  -29.2723   19.8756 H   0  0  0  0  0  0
  -25.1400  -36.1920   25.0765 H   0  0  0  0  0  0
  -20.9880  -28.3210   24.1466 H   0  0  0  0  0  0
  -20.5759  -26.2216   23.3576 H   0  0  0  0  0  0
  -21.6662  -26.7491   22.1182 H   0  0  0  0  0  0
  -19.6957  -25.6279   21.1251 H   0  0  0  0  0  0
  -19.6745  -27.3166   20.6754 H   0  0  0  0  0  0
  -17.4227  -26.6630   21.3991 H   0  0  0  0  0  0
  -18.0336  -25.9987   22.8948 H   0  0  0  0  0  0
  -19.7926  -30.7276   24.2174 H   0  0  0  0  0  0
  -17.5015  -31.6281   24.5112 H   0  0  0  0  0  0
  -15.5350  -30.2952   23.7733 H   0  0  0  0  0  0
  -15.8638  -28.0802   22.7129 H   0  0  0  0  0  0
  -24.5796  -30.7203   25.7574 H   0  0  0  0  0  0
  -24.8853  -32.2989   26.4710 H   0  0  0  0  0  0
  -25.7844  -30.8914   27.0150 H   0  0  0  0  0  0
  -26.3115  -29.6716   24.1209 H   0  0  0  0  0  0
  -27.3919  -29.7341   25.4922 H   0  0  0  0  0  0
  -27.9023  -30.4259   23.9722 H   0  0  0  0  0  0
  -27.2503  -33.3642   26.2154 H   0  0  0  0  0  0
  -28.3860  -32.6985   25.0522 H   0  0  0  0  0  0
  -28.0525  -31.8487   26.5547 H   0  0  0  0  0  0
  -28.2581  -38.0133   24.7567 H   0  0  0  0  0  0
  -28.1117  -36.2684   24.6258 H   0  0  0  0  0  0
  -27.2236  -37.1427   25.8801 H   0  0  0  0  0  0
  -20.9267  -29.8670   21.6881 H   0  0  0  0  0  0
  -26.0191  -38.2840   24.1423 H   0  0  0  0  0  0
  -30.8211  -19.8111   22.5237 H   0  0  0  0  0  0
  -27.9388  -19.9181   19.3634 H   0  0  0  0  0  0
  -32.4875  -22.8422   19.0284 H   0  0  0  0  0  0
  -29.4876  -24.3760   18.2941 H   0  0  0  0  0  0
  -31.2361  -24.5079   18.2453 H   0  0  0  0  0  0
  -30.5317  -26.5293   19.3610 H   0  0  0  0  0  0
  -31.2412  -25.5229   20.5852 H   0  0  0  0  0  0
  -27.5413  -24.0621   21.2522 H   0  0  0  0  0  0
  -28.9687  -24.0901   22.2057 H   0  0  0  0  0  0
  -29.2640  -26.2525   21.6108 H   0  0  0  0  0  0
  -31.7526  -17.8120   23.3603 H   0  0  0  0  0  0
  -32.2473  -16.8228   22.0049 H   0  0  0  0  0  0
  -30.8990  -16.3100   23.0180 H   0  0  0  0  0  0
  -27.5709  -18.0648   18.0650 H   0  0  0  0  0  0
  -26.8028  -17.1121   19.2993 H   0  0  0  0  0  0
  -28.1684  -16.4387   18.3818 H   0  0  0  0  0  0
  -31.9274  -21.4189   21.5406 H   0  0  0  0  0  0
  -33.2358  -21.0977   20.4041 H   0  0  0  0  0  0
  -31.6869  -20.4183   20.0349 H   0  0  0  0  0  0
  -29.5831  -21.8284   22.2987 H   0  0  0  0  0  0
  -28.0245  -21.6088   21.6088 H   0  0  0  0  0  0
  -28.6795  -15.3470   20.8653 H   0  0  0  0  0  0
  -28.5663  -22.6769   19.7517 H   0  0  0  0  0  0
  1 25  1  0  0  0
  1 30  2  0  0  0
  1 87  1  0  0  0
  2  3  1  0  0  0
  2 25  1  0  0  0
  2 89  1  0  0  0
  2 90  1  0  0  0
  3  4  1  0  0  0
  3 91  1  0  0  0
  3 92  1  0  0  0
  4  5  1  0  0  0
  4 93  1  0  0  0
  4 94  1  0  0  0
  5  6  1  0  0  0
  5 26  1  0  0  0
  5 95  1  0  0  0
  6 25  1  0  0  0
  6 96  1  0  0  0
  6 97  1  0  0  0
  7  8  2  0  0  0
  7 26  1  0  0  0
  7 29  1  0  0  0
  8  9  1  0  0  0
  8 22  1  0  0  0
  9 10  1  0  0  0
  9 27  2  0  0  0
 10 11  2  0  0  0
 10 15  1  0  0  0
 11 12  1  0  0  0
 11 98  1  0  0  0
 12 13  2  0  0  0
 12 99  1  0  0  0
 13 14  1  0  0  0
 13 31  1  0  0  0
 14 15  2  0  0  0
 14100  1  0  0  0
 15101  1  0  0  0
 16 17  2  0  0  0
 16 21  1  0  0  0
 16 31  1  0  0  0
 17 18  1  0  0  0
 17102  1  0  0  0
 18 19  2  0  0  0
 18103  1  0  0  0
 19 20  1  0  0  0
 19 24  1  0  0  0
 20 21  2  0  0  0
 20104  1  0  0  0
 21 23  1  0  0  0
 22 28  1  0  0  0
 22 32  2  0  0  0
 26 27  1  0  0  0
 28105  1  0  0  0
 28106  1  0  0  0
 29107  1  0  0  0
 29108  1  0  0  0
 33 34  1  0  0  0
 33 66  1  0  0  0
 33 70  2  0  0  0
 34 36  1  0  0  0
 34 59  1  0  0  0
 34109  1  0  0  0
 35 44  2  0  0  0
 35 45  1  0  0  0
 35 68  1  0  0  0
 36 56  1  0  0  0
 36110  1  0  0  0
 37 39  1  0  0  0
 37 47  1  0  0  0
 37 66  1  0  0  0
 37111  1  0  0  0
 38 43  2  0  0  0
 38 46  1  0  0  0
 38 47  1  0  0  0
 39 64  1  0  0  0
 39 67  2  0  0  0
 40 52  1  0  0  0
 40 53  2  0  0  0
 40 58  1  0  0  0
 41112  1  0  0  0
 41113  1  0  0  0
 41114  1  0  0  0
 41 48  1  0  0  0
 42 43  1  0  0  0
 42 66  1  0  0  0
 42115  1  0  0  0
 42116  1  0  0  0
 43 44  1  0  0  0
 44117  1  0  0  0
 45 46  2  0  0  0
 45118  1  0  0  0
 46119  1  0  0  0
 47120  1  0  0  0
 47121  1  0  0  0
 48 56  1  0  0  0
 48 65  1  0  0  0
 48122  1  0  0  0
 49 50  1  0  0  0
 49 53  1  0  0  0
 49 64  1  0  0  0
 49123  1  0  0  0
 50 51  1  0  0  0
 50124  1  0  0  0
 50125  1  0  0  0
 51 52  1  0  0  0
 51126  1  0  0  0
 51127  1  0  0  0
 52128  1  0  0  0
 52129  1  0  0  0
 53 54  1  0  0  0
 54 55  2  0  0  0
 54130  1  0  0  0
 55 57  1  0  0  0
 55131  1  0  0  0
 56 69  2  0  0  0
 57 58  2  0  0  0
 57132  1  0  0  0
 58133  1  0  0  0
 59 60  1  0  0  0
 59 61  1  0  0  0
 59 62  1  0  0  0
 60134  1  0  0  0
 60135  1  0  0  0
 60136  1  0  0  0
 61137  1  0  0  0
 61138  1  0  0  0
 61139  1  0  0  0
 62140  1  0  0  0
 62141  1  0  0  0
 62142  1  0  0  0
 63 65  1  0  0  0
 63143  1  0  0  0
 63144  1  0  0  0
 63145  1  0  0  0
 64146  1  0  0  0
 65147  1  0  0  0
 68 82  1  0  0  0
 71 73  2  0  0  0
 71 74  1  0  0  0
 71148  1  0  0  0
 72 73  1  0  0  0
 72 75  2  0  0  0
 72149  1  0  0  0
 73 86  1  0  0  0
 74 76  2  0  0  0
 74 83  1  0  0  0
 75 76  1  0  0  0
 75 84  1  0  0  0
 76 87  1  0  0  0
 77 78  2  0  0  0
 77 79  1  0  0  0
 77 88  1  0  0  0
 78 85  1  0  0  0
 78150  1  0  0  0
 79 80  1  0  0  0
 79151  1  0  0  0
 79152  1  0  0  0
 80 82  1  0  0  0
 80153  1  0  0  0
 80154  1  0  0  0
 81 82  1  0  0  0
 81 88  1  0  0  0
 81155  1  0  0  0
 81156  1  0  0  0
 82157  1  0  0  0
 83158  1  0  0  0
 83159  1  0  0  0
 83160  1  0  0  0
 84161  1  0  0  0
 84162  1  0  0  0
 84163  1  0  0  0
 85164  1  0  0  0
 85165  1  0  0  0
 85166  1  0  0  0
 86167  1  0  0  0
 86168  1  0  0  0
 86 88  1  0  0  0
 87169  1  0  0  0
 88170  1  0  0  0
M  CHG  1  88   1
M  ISO  4   1 100  68 101  82 101  87 100
M  END
> <chiral flag>
0

> <version>
0

> <s_m_source_file>
/data/baiqing/PycharmProjects/Reinvent-master-3.2/result/LINK_invent/BTK/process_docking_weight1_custom_product_contain_oxygen_bond_distance_aromatic_linkinvent_7_9_3/rearranged_h_0031.sdf

> <i_m_source_file_index>
55

> <r_mmod_Potential_Energy-OPLS-2005>
177.604232788086

> <r_mmod_Stretch_Energy-OPLS-2005>
106.675361633301

> <r_mmod_Bend_Energy-OPLS-2005>
262.006500244141

> <r_mmod_Torsional_Energy-OPLS-2005>
311.060455322266

> <r_mmod_Improper_Torsional_Energy-OPLS-2005>
10.4214401245117

> <r_mmod_Van_der_Waal_Energy-OPLS-2005>
155.451995849609

> <r_mmod_Electrostatic_Energy-OPLS-2005>
-321.361999511719

> <r_mmod_Solvation_Energy-OPLS-2005>
-412.987731933594

> <b_mmod_Minimization_Converged-OPLS-2005>
0

> <r_mmod_RMS_Derivative-OPLS-2005>
12.4474296569824

$$$$
55
                    3D
 Structure written by MMmdl.
160169  0  0  1  0            999 V2000
  -30.5712  -14.8271   20.4257 C   0  0  0  0  0  0
  -30.4327  -12.5041   19.4867 C   0  0  0  0  0  0
  -29.5113  -12.5164   18.2460 C   0  0  0  0  0  0
  -28.0394  -12.3281   18.6601 C   0  0  0  0  0  0
  -27.6359  -13.2394   19.8491 C   0  0  2  0  0  0
  -28.6789  -13.2046   20.9866 C   0  0  0  0  0  0
  -25.2479  -13.8215   20.5713 C   0  0  0  0  0  0
  -24.1784  -13.0447   20.9230 C   0  0  0  0  0  0
  -24.6392  -11.6927   20.8760 C   0  0  0  0  0  0
  -23.9076  -10.4295   21.0412 C   0  0  0  0  0  0
  -24.3623   -9.4209   21.9190 C   0  0  0  0  0  0
  -23.6299   -8.2244   22.0753 C   0  0  0  0  0  0
  -22.4281   -8.0280   21.3547 C   0  0  0  0  0  0
  -21.9925   -9.0252   20.4643 C   0  0  0  0  0  0
  -22.7252  -10.2132   20.3057 C   0  0  0  0  0  0
  -21.6854   -6.0736   22.5277 C   0  0  0  0  0  0
  -21.4008   -6.5638   23.8209 C   0  0  0  0  0  0
  -21.3657   -5.6790   24.9171 C   0  0  0  0  0  0
  -21.6047   -4.3054   24.7221 C   0  0  0  0  0  0
  -21.8816   -3.8151   23.4341 C   0  0  0  0  0  0
  -21.9193   -4.6967   22.3402 C   0  0  0  0  0  0
  -22.7802  -13.5219   21.1881 C   0  0  0  0  0  0
  -22.1660   -4.2152   21.0980 F   0  0  0  0  0  0
  -21.5632   -3.4536   25.7737 F   0  0  0  0  0  0
  -29.9708  -13.5808   20.4015 N   0  0  0  0  0  0
  -26.2908  -12.9432   20.3292 N   0  0  0  0  0  0
  -25.9323  -11.6571   20.5770 N   0  0  0  0  0  0
  -22.0448  -12.8184   22.0418 N   0  0  0  0  0  0
  -25.4171  -15.1938   20.4115 N   0  0  0  0  0  0
  -31.7679  -14.8985   20.1297 O   0  0  0  0  0  0
  -21.6641   -6.8879   21.4244 O   0  0  0  0  0  0
  -22.3485  -14.5531   20.6739 O   0  0  0  0  0  0
  -24.6375  -31.8492   23.1912 C   0  0  0  0  0  0
  -25.9166  -32.4726   23.8291 C   0  0  1  0  0  0
  -27.2133  -27.2038   20.1437 C   0  0  0  0  0  0
  -25.5947  -33.8528   24.2232 N   0  0  0  0  0  0
  -23.4358  -30.4701   21.5352 C   0  0  2  0  0  0
  -24.8821  -28.9058   20.1073 C   0  0  0  0  0  0
  -22.7542  -29.4557   22.4874 C   0  0  0  0  0  0
  -18.0308  -28.1378   22.8492 C   0  0  0  0  0  0
  -24.1483  -36.7244   23.2646 C   0  0  0  0  0  0
  -25.9839  -30.7495   21.3721 C   0  0  0  0  0  0
  -26.0551  -29.3635   20.7204 C   0  0  0  0  0  0
  -27.2204  -28.5239   20.7263 C   0  0  0  0  0  0
  -26.0167  -26.8246   19.4987 C   0  0  0  0  0  0
  -24.8717  -27.6484   19.4838 C   0  0  0  0  0  0
  -23.6559  -29.7999   20.1525 C   0  0  0  0  0  0
  -25.4105  -36.3041   24.0338 C   0  0  1  0  0  0
  -20.5921  -28.3682   23.1262 C   0  0  2  0  0  0
  -20.6783  -26.9397   22.5401 C   0  0  0  0  0  0
  -19.5748  -26.6385   21.5213 C   0  0  0  0  0  0
  -18.1932  -26.7924   22.1624 C   0  0  0  0  0  0
  -19.1567  -28.8852   23.2877 C   0  0  0  0  0  0
  -18.9484  -30.1456   23.8889 C   0  0  0  0  0  0
  -17.6476  -30.6576   24.0566 C   0  0  0  0  0  0
  -25.9062  -34.9422   23.5084 C   0  0  0  0  0  0
  -16.5367  -29.9071   23.6341 C   0  0  0  0  0  0
  -16.7298  -28.6492   23.0360 C   0  0  0  0  0  0
  -26.4534  -31.6556   25.0685 C   0  0  0  0  0  0
  -25.3766  -31.3641   26.1402 C   0  0  0  0  0  0
  -27.0415  -30.3002   24.6124 C   0  0  0  0  0  0
  -27.6089  -32.4295   25.7458 C   0  0  0  0  0  0
  -27.5564  -37.1766   24.8468 C   0  0  0  0  0  0
  -21.4239  -29.3026   22.3641 N   0  0  0  0  0  0
  -26.4257  -37.3761   23.9443 N   0  0  0  0  0  0
  -24.7058  -31.0425   22.0899 N   0  0  0  0  0  0
  -23.4226  -28.8116   23.2998 O   0  0  0  0  0  0
  -28.2973  -26.2841   20.2364 O   0  0  0  0  0  0
  -26.5639  -34.8908   22.4657 O   0  0  0  0  0  0
  -23.5504  -32.1323   23.7177 O   0  0  0  0  0  0
  -30.4476  -20.1606   19.3306 C   0  0  0  0  0  0
  -30.9654  -17.7504   19.2776 C   0  0  0  0  0  0
  -31.1936  -19.0709   18.8333 C   0  0  0  0  0  0
  -29.4234  -19.9868   20.2840 C   0  0  0  0  0  0
  -29.2036  -18.5894   20.7273 C   0  0  0  0  0  0
  -29.9813  -17.4318   20.2421 C   0  0  0  0  0  0
  -27.4738  -23.6682   20.5366 C   0  0  0  0  0  0
  -29.4075  -23.8173   20.0579 C   0  0  0  0  0  0
  -28.2208  -24.8264   19.7796 C   0  0  2  0  0  0
  -32.2690  -19.3155   17.7914 C   0  0  0  0  0  0
  -28.1160  -18.3202   21.7557 C   0  0  0  0  0  0
  -28.6897  -21.3292   20.8426 C   0  0  0  0  0  0
  -29.7843  -15.9789   20.6214 N   0  0  0  0  0  0
  -28.4642  -22.6487   20.0309 N   0  3  1  0  0  0
  -31.4708  -12.6393   19.1799 H   0  0  0  0  0  0
  -30.3961  -11.5351   19.9871 H   0  0  0  0  0  0
  -29.8054  -11.7327   17.5466 H   0  0  0  0  0  0
  -29.6238  -13.4615   17.7127 H   0  0  0  0  0  0
  -27.9091  -11.2815   18.9377 H   0  0  0  0  0  0
  -27.3790  -12.5011   17.8096 H   0  0  0  0  0  0
  -27.6196  -14.2552   19.4542 H   0  0  0  0  0  0
  -28.7326  -12.2117   21.4359 H   0  0  0  0  0  0
  -28.4017  -13.8898   21.7897 H   0  0  0  0  0  0
  -25.2762   -9.5682   22.4768 H   0  0  0  0  0  0
  -24.0005   -7.4632   22.7470 H   0  0  0  0  0  0
  -21.0862   -8.8772   19.8940 H   0  0  0  0  0  0
  -22.3718  -10.9671   19.6162 H   0  0  0  0  0  0
  -21.1992   -7.6140   23.9717 H   0  0  0  0  0  0
  -21.1482   -6.0515   25.9072 H   0  0  0  0  0  0
  -22.0598   -2.7613   23.2842 H   0  0  0  0  0  0
  -22.4062  -11.9831   22.4779 H   0  0  0  0  0  0
  -21.1060  -13.1186   22.2619 H   0  0  0  0  0  0
  -24.6451  -15.8442   20.5078 H   0  0  0  0  0  0
  -26.2538  -15.6277   20.0440 H   0  0  0  0  0  0
  -26.7223  -32.5372   23.1019 H   0  0  0  0  0  0
  -25.0124  -33.9663   25.0399 H   0  0  0  0  0  0
  -22.7346  -31.2939   21.3835 H   0  0  0  0  0  0
  -23.3780  -35.9540   23.3267 H   0  0  0  0  0  0
  -24.3587  -36.8909   22.2069 H   0  0  0  0  0  0
  -23.7192  -37.6413   23.6700 H   0  0  0  0  0  0
  -26.1181  -31.5023   20.5946 H   0  0  0  0  0  0
  -26.8649  -30.8103   21.9984 H   0  0  0  0  0  0
  -28.1154  -28.8669   21.2268 H   0  0  0  0  0  0
  -25.9321  -25.8567   19.0279 H   0  0  0  0  0  0
  -23.9730  -27.2942   18.9989 H   0  0  0  0  0  0
  -23.7818  -30.5741   19.3945 H   0  0  0  0  0  0
  -22.7741  -29.2343   19.8466 H   0  0  0  0  0  0
  -25.1280  -36.1867   25.0827 H   0  0  0  0  0  0
  -21.0031  -28.3254   24.1374 H   0  0  0  0  0  0
  -20.5683  -26.2290   23.3606 H   0  0  0  0  0  0
  -21.6640  -26.7398   22.1186 H   0  0  0  0  0  0
  -19.6904  -25.6310   21.1207 H   0  0  0  0  0  0
  -19.6683  -27.3226   20.6771 H   0  0  0  0  0  0
  -17.4205  -26.6730   21.4008 H   0  0  0  0  0  0
  -18.0296  -26.0049   22.8995 H   0  0  0  0  0  0
  -19.7962  -30.7290   24.2230 H   0  0  0  0  0  0
  -17.5025  -31.6249   24.5176 H   0  0  0  0  0  0
  -15.5363  -30.2961   23.7665 H   0  0  0  0  0  0
  -15.8704  -28.0805   22.7067 H   0  0  0  0  0  0
  -24.6007  -30.6916   25.7715 H   0  0  0  0  0  0
  -24.8889  -32.2777   26.4813 H   0  0  0  0  0  0
  -25.8125  -30.8848   27.0183 H   0  0  0  0  0  0
  -26.2989  -29.6706   24.1209 H   0  0  0  0  0  0
  -27.4236  -29.7277   25.4591 H   0  0  0  0  0  0
  -27.8795  -30.4338   23.9279 H   0  0  0  0  0  0
  -27.2732  -33.3652   26.1932 H   0  0  0  0  0  0
  -28.3953  -32.6747   25.0306 H   0  0  0  0  0  0
  -28.0688  -31.8469   26.5448 H   0  0  0  0  0  0
  -28.2536  -38.0109   24.7583 H   0  0  0  0  0  0
  -28.1107  -36.2643   24.6207 H   0  0  0  0  0  0
  -27.2298  -37.1292   25.8873 H   0  0  0  0  0  0
  -20.9427  -29.8762   21.6860 H   0  0  0  0  0  0
  -26.0126  -38.2817   24.1508 H   0  0  0  0  0  0
  -30.6803  -21.1549   18.9731 H   0  0  0  0  0  0
  -31.5666  -16.9697   18.8361 H   0  0  0  0  0  0
  -26.4556  -23.4894   20.1892 H   0  0  0  0  0  0
  -27.4938  -23.7749   21.6243 H   0  0  0  0  0  0
  -29.8783  -23.9591   21.0331 H   0  0  0  0  0  0
  -30.1606  -23.7854   19.2703 H   0  0  0  0  0  0
  -27.9766  -24.8075   18.7155 H   0  0  0  0  0  0
  -32.4628  -20.3796   17.6525 H   0  0  0  0  0  0
  -31.9641  -18.9006   16.8308 H   0  0  0  0  0  0
  -33.2040  -18.8393   18.0870 H   0  0  0  0  0  0
  -28.0509  -19.1232   22.4895 H   0  0  0  0  0  0
  -28.3048  -17.4025   22.3134 H   0  0  0  0  0  0
  -27.1472  -18.2210   21.2640 H   0  0  0  0  0  0
  -29.1618  -21.5940   21.7884 H   0  0  0  0  0  0
  -27.6836  -21.0081   21.1102 H   0  0  0  0  0  0
  -28.8698  -15.7676   20.9893 H   0  0  0  0  0  0
  -28.2205  -22.4141   19.0813 H   0  0  0  0  0  0
  1 25  1  0  0  0
  1 30  2  0  0  0
  1 83  1  0  0  0
  2  3  1  0  0  0
  2 25  1  0  0  0
  2 85  1  0  0  0
  2 86  1  0  0  0
  3  4  1  0  0  0
  3 87  1  0  0  0
  3 88  1  0  0  0
  4  5  1  0  0  0
  4 89  1  0  0  0
  4 90  1  0  0  0
  5  6  1  0  0  0
  5 26  1  0  0  0
  5 91  1  0  0  0
  6 25  1  0  0  0
  6 92  1  0  0  0
  6 93  1  0  0  0
  7  8  2  0  0  0
  7 26  1  0  0  0
  7 29  1  0  0  0
  8  9  1  0  0  0
  8 22  1  0  0  0
  9 10  1  0  0  0
  9 27  2  0  0  0
 10 11  2  0  0  0
 10 15  1  0  0  0
 11 12  1  0  0  0
 11 94  1  0  0  0
 12 13  2  0  0  0
 12 95  1  0  0  0
 13 14  1  0  0  0
 13 31  1  0  0  0
 14 15  2  0  0  0
 14 96  1  0  0  0
 15 97  1  0  0  0
 16 17  2  0  0  0
 16 21  1  0  0  0
 16 31  1  0  0  0
 17 18  1  0  0  0
 17 98  1  0  0  0
 18 19  2  0  0  0
 18 99  1  0  0  0
 19 20  1  0  0  0
 19 24  1  0  0  0
 20 21  2  0  0  0
 20100  1  0  0  0
 21 23  1  0  0  0
 22 28  1  0  0  0
 22 32  2  0  0  0
 26 27  1  0  0  0
 28101  1  0  0  0
 28102  1  0  0  0
 29103  1  0  0  0
 29104  1  0  0  0
 33 34  1  0  0  0
 33 66  1  0  0  0
 33 70  2  0  0  0
 34 36  1  0  0  0
 34 59  1  0  0  0
 34105  1  0  0  0
 35 44  2  0  0  0
 35 45  1  0  0  0
 35 68  1  0  0  0
 36 56  1  0  0  0
 36106  1  0  0  0
 37 39  1  0  0  0
 37 47  1  0  0  0
 37 66  1  0  0  0
 37107  1  0  0  0
 38 43  2  0  0  0
 38 46  1  0  0  0
 38 47  1  0  0  0
 39 64  1  0  0  0
 39 67  2  0  0  0
 40 52  1  0  0  0
 40 53  2  0  0  0
 40 58  1  0  0  0
 41108  1  0  0  0
 41109  1  0  0  0
 41110  1  0  0  0
 41 48  1  0  0  0
 42 43  1  0  0  0
 42 66  1  0  0  0
 42111  1  0  0  0
 42112  1  0  0  0
 43 44  1  0  0  0
 44113  1  0  0  0
 45 46  2  0  0  0
 45114  1  0  0  0
 46115  1  0  0  0
 47116  1  0  0  0
 47117  1  0  0  0
 48 56  1  0  0  0
 48 65  1  0  0  0
 48118  1  0  0  0
 49 50  1  0  0  0
 49 53  1  0  0  0
 49 64  1  0  0  0
 49119  1  0  0  0
 50 51  1  0  0  0
 50120  1  0  0  0
 50121  1  0  0  0
 51 52  1  0  0  0
 51122  1  0  0  0
 51123  1  0  0  0
 52124  1  0  0  0
 52125  1  0  0  0
 53 54  1  0  0  0
 54 55  2  0  0  0
 54126  1  0  0  0
 55 57  1  0  0  0
 55127  1  0  0  0
 56 69  2  0  0  0
 57 58  2  0  0  0
 57128  1  0  0  0
 58129  1  0  0  0
 59 60  1  0  0  0
 59 61  1  0  0  0
 59 62  1  0  0  0
 60130  1  0  0  0
 60131  1  0  0  0
 60132  1  0  0  0
 61133  1  0  0  0
 61134  1  0  0  0
 61135  1  0  0  0
 62136  1  0  0  0
 62137  1  0  0  0
 62138  1  0  0  0
 63 65  1  0  0  0
 63139  1  0  0  0
 63140  1  0  0  0
 63141  1  0  0  0
 64142  1  0  0  0
 65143  1  0  0  0
 68 79  1  0  0  0
 71 73  2  0  0  0
 71 74  1  0  0  0
 71144  1  0  0  0
 72 73  1  0  0  0
 72 76  2  0  0  0
 72145  1  0  0  0
 73 80  1  0  0  0
 74 75  2  0  0  0
 74 82  1  0  0  0
 75 76  1  0  0  0
 75 81  1  0  0  0
 76 83  1  0  0  0
 77 79  1  0  0  0
 77 84  1  0  0  0
 77146  1  0  0  0
 77147  1  0  0  0
 78 79  1  0  0  0
 78 84  1  0  0  0
 78148  1  0  0  0
 78149  1  0  0  0
 79150  1  0  0  0
 80151  1  0  0  0
 80152  1  0  0  0
 80153  1  0  0  0
 81154  1  0  0  0
 81155  1  0  0  0
 81156  1  0  0  0
 82157  1  0  0  0
 82158  1  0  0  0
 82 84  1  0  0  0
 83159  1  0  0  0
 84160  1  0  0  0
M  CHG  1  84   1
M  ISO  4   1 100  68 101  79 101  83 100
M  END
> <chiral flag>
0

> <version>
0

> <s_m_source_file>
/data/baiqing/PycharmProjects/Reinvent-master-3.2/result/LINK_invent/BTK/process_docking_weight1_custom_product_contain_oxygen_bond_distance_aromatic_linkinvent_7_9_3/rearranged_h_0031.sdf

> <i_m_source_file_index>
56

> <r_mmod_Potential_Energy-OPLS-2005>
76.3287200927734

> <r_mmod_Stretch_Energy-OPLS-2005>
170.240524291992

> <r_mmod_Bend_Energy-OPLS-2005>
228.117309570312

> <r_mmod_Torsional_Energy-OPLS-2005>
221.015869140625

> <r_mmod_Improper_Torsional_Energy-OPLS-2005>
4.19877576828003

> <r_mmod_Van_der_Waal_Energy-OPLS-2005>
134.291137695312

> <r_mmod_Electrostatic_Energy-OPLS-2005>
-327.134307861328

> <r_mmod_Solvation_Energy-OPLS-2005>
-478.908599853516

> <b_mmod_Minimization_Converged-OPLS-2005>
0

> <r_mmod_RMS_Derivative-OPLS-2005>
1.59203088283539

$$$$
56
                    3D
 Structure written by MMmdl.
160169  0  0  1  0            999 V2000
  -30.8479  -14.5702   20.3534 C   0  0  0  0  0  0
  -30.4823  -12.4251   19.1604 C   0  0  0  0  0  0
  -29.4052  -12.1115   18.0836 C   0  0  0  0  0  0
  -28.0776  -12.8522   18.2099 C   0  0  0  0  0  0
  -27.6875  -13.3631   19.6592 C   0  0  2  0  0  0
  -28.7752  -13.0878   20.7640 C   0  0  0  0  0  0
  -25.2996  -13.8639   20.5277 C   0  0  0  0  0  0
  -24.2376  -13.0898   20.9002 C   0  0  0  0  0  0
  -24.7173  -11.7438   20.8275 C   0  0  0  0  0  0
  -23.9931  -10.4669   21.0380 C   0  0  0  0  0  0
  -24.4396   -9.4377   21.9186 C   0  0  0  0  0  0
  -23.6648   -8.2704   22.0883 C   0  0  0  0  0  0
  -22.4471   -8.0860   21.3799 C   0  0  0  0  0  0
  -22.0546   -9.0772   20.4900 C   0  0  0  0  0  0
  -22.8236  -10.2522   20.3107 C   0  0  0  0  0  0
  -21.7010   -6.1012   22.5234 C   0  0  0  0  0  0
  -21.3964   -6.5742   23.8222 C   0  0  0  0  0  0
  -21.3563   -5.6799   24.9180 C   0  0  0  0  0  0
  -21.6125   -4.3057   24.7152 C   0  0  0  0  0  0
  -21.8813   -3.8290   23.4191 C   0  0  0  0  0  0
  -21.9257   -4.7262   22.3366 C   0  0  0  0  0  0
  -22.8373  -13.5537   21.1992 C   0  0  0  0  0  0
  -22.1717   -4.2357   21.0956 F   0  0  0  0  0  0
  -21.5686   -3.4552   25.7677 F   0  0  0  0  0  0
  -30.0268  -13.5004   20.0732 N   0  0  0  0  0  0
  -26.3524  -13.0169   20.1863 N   0  0  0  0  0  0
  -25.9813  -11.7383   20.3969 N   0  0  0  0  0  0
  -22.0999  -12.8438   22.0419 N   0  0  0  0  0  0
  -25.4718  -15.2621   20.4016 N   0  0  0  0  0  0
  -31.6957  -14.4741   21.2248 O   0  0  0  0  0  0
  -21.6892   -6.9362   21.4247 O   0  0  0  0  0  0
  -22.3787  -14.5511   20.6627 O   0  0  0  0  0  0
  -24.6385  -31.8649   23.2193 C   0  0  0  0  0  0
  -25.9188  -32.4879   23.8519 C   0  0  1  0  0  0
  -27.1953  -27.2357   19.9650 C   0  0  0  0  0  0
  -25.5926  -33.8681   24.2374 N   0  0  0  0  0  0
  -23.4291  -30.5022   21.5696 C   0  0  2  0  0  0
  -24.8627  -28.9611   20.1019 C   0  0  0  0  0  0
  -22.7492  -29.4641   22.4961 C   0  0  0  0  0  0
  -18.0301  -28.1385   22.8493 C   0  0  0  0  0  0
  -24.1466  -36.7289   23.2633 C   0  0  0  0  0  0
  -25.9956  -30.7464   21.4093 C   0  0  0  0  0  0
  -26.0593  -29.3850   20.6920 C   0  0  0  0  0  0
  -27.2319  -28.5389   20.6052 C   0  0  0  0  0  0
  -25.9478  -26.8885   19.4116 C   0  0  0  0  0  0
  -24.8109  -27.7264   19.4606 C   0  0  0  0  0  0
  -23.6478  -29.8797   20.1743 C   0  0  0  0  0  0
  -25.4114  -36.3153   24.0341 C   0  0  1  0  0  0
  -20.5932  -28.3743   23.1248 C   0  0  2  0  0  0
  -20.6817  -26.9451   22.5413 C   0  0  0  0  0  0
  -19.5769  -26.6374   21.5238 C   0  0  0  0  0  0
  -18.1951  -26.7930   22.1627 C   0  0  0  0  0  0
  -19.1572  -28.8866   23.2870 C   0  0  0  0  0  0
  -18.9460  -30.1478   23.8882 C   0  0  0  0  0  0
  -17.6450  -30.6591   24.0567 C   0  0  0  0  0  0
  -25.9074  -34.9513   23.5152 C   0  0  0  0  0  0
  -16.5347  -29.9077   23.6350 C   0  0  0  0  0  0
  -16.7281  -28.6496   23.0378 C   0  0  0  0  0  0
  -26.4476  -31.6701   25.0904 C   0  0  0  0  0  0
  -25.3627  -31.3899   26.1574 C   0  0  0  0  0  0
  -27.0340  -30.3074   24.6536 C   0  0  0  0  0  0
  -27.6030  -32.4463   25.7632 C   0  0  0  0  0  0
  -27.5607  -37.1803   24.8443 C   0  0  0  0  0  0
  -21.4245  -29.3075   22.3683 N   0  0  0  0  0  0
  -26.4297  -37.3862   23.9431 N   0  0  0  0  0  0
  -24.7081  -31.0510   22.1178 N   0  0  0  0  0  0
  -23.4181  -28.8152   23.3085 O   0  0  0  0  0  0
  -28.3044  -26.2987   19.8491 O   0  0  0  0  0  0
  -26.5619  -34.8963   22.4710 O   0  0  0  0  0  0
  -23.5522  -32.1497   23.7386 O   0  0  0  0  0  0
  -29.9410  -17.6751   16.5905 C   0  0  0  0  0  0
  -29.2321  -18.7313   16.0182 C   0  0  0  0  0  0
  -29.9421  -18.7949   18.7253 C   0  0  0  0  0  0
  -30.2511  -17.5859   17.9525 C   0  0  0  0  0  0
  -28.5279  -19.5655   16.9162 C   0  0  0  0  0  0
  -29.1775  -19.9171   18.1593 C   0  0  0  0  0  0
  -27.8258  -23.6125   19.7770 C   0  0  0  0  0  0
  -29.2935  -23.9696   18.4891 C   0  0  0  0  0  0
  -28.1666  -24.9691   19.0455 C   0  0  2  0  0  0
  -27.0672  -19.1058   16.9107 C   0  0  0  0  0  0
  -31.1820  -16.3466   18.2256 C   0  0  0  0  0  0
  -28.8654  -21.2742   19.0780 C   0  0  0  0  0  0
  -31.3244  -15.5099   19.4827 N   0  0  0  0  0  0
  -28.4020  -22.7329   18.6743 N   0  3  1  0  0  0
  -31.4294  -12.8214   18.6888 H   0  0  0  0  0  0
  -30.6953  -11.5423   19.7453 H   0  0  0  0  0  0
  -28.9886  -11.0996   18.0979 H   0  0  0  0  0  0
  -29.8297  -12.2535   17.0618 H   0  0  0  0  0  0
  -27.3460  -12.3058   17.6241 H   0  0  0  0  0  0
  -28.3161  -13.7751   17.6507 H   0  0  0  0  0  0
  -27.6632  -14.4370   19.4124 H   0  0  0  0  0  0
  -28.7161  -11.9926   20.8643 H   0  0  0  0  0  0
  -28.7038  -13.4736   21.8069 H   0  0  0  0  0  0
  -25.3661   -9.5408   22.4764 H   0  0  0  0  0  0
  -24.0242   -7.4822   22.7496 H   0  0  0  0  0  0
  -21.1785   -8.9739   19.8886 H   0  0  0  0  0  0
  -22.5128  -11.0232   19.6155 H   0  0  0  0  0  0
  -21.1747   -7.6197   23.9802 H   0  0  0  0  0  0
  -21.1375   -6.0495   25.9103 H   0  0  0  0  0  0
  -22.0640   -2.7758   23.2739 H   0  0  0  0  0  0
  -22.4327  -11.9839   22.4500 H   0  0  0  0  0  0
  -21.1556  -13.1282   22.2270 H   0  0  0  0  0  0
  -24.7171  -15.9322   20.2122 H   0  0  0  0  0  0
  -26.2475  -15.4516   19.7862 H   0  0  0  0  0  0
  -26.7229  -32.5484   23.1270 H   0  0  0  0  0  0
  -25.0079  -33.9907   25.0499 H   0  0  0  0  0  0
  -22.7308  -31.3346   21.4539 H   0  0  0  0  0  0
  -23.3867  -35.9474   23.3155 H   0  0  0  0  0  0
  -24.3587  -36.9067   22.2084 H   0  0  0  0  0  0
  -23.7043  -37.6359   23.6754 H   0  0  0  0  0  0
  -26.1689  -31.5544   20.6994 H   0  0  0  0  0  0
  -26.8489  -30.7552   22.0737 H   0  0  0  0  0  0
  -28.1505  -28.8796   21.0435 H   0  0  0  0  0  0
  -25.7784  -25.9394   18.9227 H   0  0  0  0  0  0
  -23.8850  -27.4242   18.9929 H   0  0  0  0  0  0
  -23.7872  -30.6942   19.4594 H   0  0  0  0  0  0
  -22.7483  -29.3611   19.8440 H   0  0  0  0  0  0
  -25.1283  -36.2041   25.0838 H   0  0  0  0  0  0
  -21.0001  -28.3329   24.1375 H   0  0  0  0  0  0
  -20.5764  -26.2340   23.3644 H   0  0  0  0  0  0
  -21.6689  -26.7506   22.1200 H   0  0  0  0  0  0
  -19.6958  -25.6275   21.1318 H   0  0  0  0  0  0
  -19.6733  -27.3154   20.6757 H   0  0  0  0  0  0
  -17.4255  -26.6717   21.4012 H   0  0  0  0  0  0
  -18.0314  -26.0076   22.9006 H   0  0  0  0  0  0
  -19.7938  -30.7323   24.2232 H   0  0  0  0  0  0
  -17.5001  -31.6277   24.5157 H   0  0  0  0  0  0
  -15.5358  -30.2950   23.7692 H   0  0  0  0  0  0
  -15.8696  -28.0796   22.7098 H   0  0  0  0  0  0
  -24.5917  -30.7121   25.7922 H   0  0  0  0  0  0
  -24.8678  -32.3060   26.4792 H   0  0  0  0  0  0
  -25.7876  -30.9281   27.0495 H   0  0  0  0  0  0
  -26.2997  -29.6828   24.1476 H   0  0  0  0  0  0
  -27.3795  -29.7398   25.5187 H   0  0  0  0  0  0
  -27.8979  -30.4277   24.0014 H   0  0  0  0  0  0
  -27.2725  -33.3911   26.1967 H   0  0  0  0  0  0
  -28.3944  -32.6784   25.0492 H   0  0  0  0  0  0
  -28.0568  -31.8751   26.5743 H   0  0  0  0  0  0
  -28.2548  -38.0176   24.7675 H   0  0  0  0  0  0
  -28.1178  -36.2735   24.6052 H   0  0  0  0  0  0
  -27.2339  -37.1191   25.8835 H   0  0  0  0  0  0
  -20.9413  -29.8799   21.6911 H   0  0  0  0  0  0
  -26.0182  -38.2917   24.1537 H   0  0  0  0  0  0
  -30.2947  -16.8762   15.9662 H   0  0  0  0  0  0
  -28.9214  -18.6393   14.9895 H   0  0  0  0  0  0
  -30.3597  -18.8778   19.7478 H   0  0  0  0  0  0
  -26.7690  -23.4427   19.9850 H   0  0  0  0  0  0
  -28.3754  -23.5199   20.7006 H   0  0  0  0  0  0
  -30.2011  -23.9622   19.0870 H   0  0  0  0  0  0
  -29.5409  -24.1576   17.4417 H   0  0  0  0  0  0
  -27.5481  -25.1526   18.1465 H   0  0  0  0  0  0
  -26.8643  -18.4427   16.0866 H   0  0  0  0  0  0
  -26.2370  -19.8017   16.8695 H   0  0  0  0  0  0
  -26.9169  -18.4927   17.8066 H   0  0  0  0  0  0
  -31.4311  -15.7576   17.3453 H   0  0  0  0  0  0
  -32.1555  -16.8934   18.2988 H   0  0  0  0  0  0
  -29.5752  -21.3336   19.9497 H   0  0  0  0  0  0
  -27.9441  -20.9338   19.5112 H   0  0  0  0  0  0
  -32.1361  -15.8866   19.9339 H   0  0  0  0  0  0
  -27.6965  -22.6231   17.9395 H   0  0  0  0  0  0
  1 25  1  0  0  0
  1 30  2  0  0  0
  1 83  1  0  0  0
  2  3  1  0  0  0
  2 25  1  0  0  0
  2 85  1  0  0  0
  2 86  1  0  0  0
  3  4  1  0  0  0
  3 87  1  0  0  0
  3 88  1  0  0  0
  4  5  1  0  0  0
  4 89  1  0  0  0
  4 90  1  0  0  0
  5  6  1  0  0  0
  5 26  1  0  0  0
  5 91  1  0  0  0
  6 25  1  0  0  0
  6 92  1  0  0  0
  6 93  1  0  0  0
  7  8  2  0  0  0
  7 26  1  0  0  0
  7 29  1  0  0  0
  8  9  1  0  0  0
  8 22  1  0  0  0
  9 10  1  0  0  0
  9 27  2  0  0  0
 10 11  2  0  0  0
 10 15  1  0  0  0
 11 12  1  0  0  0
 11 94  1  0  0  0
 12 13  2  0  0  0
 12 95  1  0  0  0
 13 14  1  0  0  0
 13 31  1  0  0  0
 14 15  2  0  0  0
 14 96  1  0  0  0
 15 97  1  0  0  0
 16 17  2  0  0  0
 16 21  1  0  0  0
 16 31  1  0  0  0
 17 18  1  0  0  0
 17 98  1  0  0  0
 18 19  2  0  0  0
 18 99  1  0  0  0
 19 20  1  0  0  0
 19 24  1  0  0  0
 20 21  2  0  0  0
 20100  1  0  0  0
 21 23  1  0  0  0
 22 28  1  0  0  0
 22 32  2  0  0  0
 26 27  1  0  0  0
 28101  1  0  0  0
 28102  1  0  0  0
 29103  1  0  0  0
 29104  1  0  0  0
 33 34  1  0  0  0
 33 66  1  0  0  0
 33 70  2  0  0  0
 34 36  1  0  0  0
 34 59  1  0  0  0
 34105  1  0  0  0
 35 44  2  0  0  0
 35 45  1  0  0  0
 35 68  1  0  0  0
 36 56  1  0  0  0
 36106  1  0  0  0
 37 39  1  0  0  0
 37 47  1  0  0  0
 37 66  1  0  0  0
 37107  1  0  0  0
 38 43  2  0  0  0
 38 46  1  0  0  0
 38 47  1  0  0  0
 39 64  1  0  0  0
 39 67  2  0  0  0
 40 52  1  0  0  0
 40 53  2  0  0  0
 40 58  1  0  0  0
 41108  1  0  0  0
 41109  1  0  0  0
 41110  1  0  0  0
 41 48  1  0  0  0
 42 43  1  0  0  0
 42 66  1  0  0  0
 42111  1  0  0  0
 42112  1  0  0  0
 43 44  1  0  0  0
 44113  1  0  0  0
 45 46  2  0  0  0
 45114  1  0  0  0
 46115  1  0  0  0
 47116  1  0  0  0
 47117  1  0  0  0
 48 56  1  0  0  0
 48 65  1  0  0  0
 48118  1  0  0  0
 49 50  1  0  0  0
 49 53  1  0  0  0
 49 64  1  0  0  0
 49119  1  0  0  0
 50 51  1  0  0  0
 50120  1  0  0  0
 50121  1  0  0  0
 51 52  1  0  0  0
 51122  1  0  0  0
 51123  1  0  0  0
 52124  1  0  0  0
 52125  1  0  0  0
 53 54  1  0  0  0
 54 55  2  0  0  0
 54126  1  0  0  0
 55 57  1  0  0  0
 55127  1  0  0  0
 56 69  2  0  0  0
 57 58  2  0  0  0
 57128  1  0  0  0
 58129  1  0  0  0
 59 60  1  0  0  0
 59 61  1  0  0  0
 59 62  1  0  0  0
 60130  1  0  0  0
 60131  1  0  0  0
 60132  1  0  0  0
 61133  1  0  0  0
 61134  1  0  0  0
 61135  1  0  0  0
 62136  1  0  0  0
 62137  1  0  0  0
 62138  1  0  0  0
 63 65  1  0  0  0
 63139  1  0  0  0
 63140  1  0  0  0
 63141  1  0  0  0
 64142  1  0  0  0
 65143  1  0  0  0
 68 79  1  0  0  0
 71 72  2  0  0  0
 71 74  1  0  0  0
 71144  1  0  0  0
 72 75  1  0  0  0
 72145  1  0  0  0
 73 74  2  0  0  0
 73 76  1  0  0  0
 73146  1  0  0  0
 74 81  1  0  0  0
 75 76  2  0  0  0
 75 80  1  0  0  0
 76 82  1  0  0  0
 77 79  1  0  0  0
 77 84  1  0  0  0
 77147  1  0  0  0
 77148  1  0  0  0
 78 79  1  0  0  0
 78 84  1  0  0  0
 78149  1  0  0  0
 78150  1  0  0  0
 79151  1  0  0  0
 80152  1  0  0  0
 80153  1  0  0  0
 80154  1  0  0  0
 81 83  1  0  0  0
 81155  1  0  0  0
 81156  1  0  0  0
 82157  1  0  0  0
 82158  1  0  0  0
 82 84  1  0  0  0
 83159  1  0  0  0
 84160  1  0  0  0
M  CHG  1  84   1
M  ISO  4   1 100  68 101  79 101  83 100
M  END
> <chiral flag>
0

> <version>
0

> <s_m_source_file>
/data/baiqing/PycharmProjects/Reinvent-master-3.2/result/LINK_invent/BTK/process_docking_weight1_custom_product_contain_oxygen_bond_distance_aromatic_linkinvent_7_9_3/rearranged_h_0031.sdf

> <i_m_source_file_index>
57

> <r_mmod_Potential_Energy-OPLS-2005>
933.640869140625

> <r_mmod_Stretch_Energy-OPLS-2005>
235.468765258789

> <r_mmod_Bend_Energy-OPLS-2005>
551.236389160156

> <r_mmod_Torsional_Energy-OPLS-2005>
471.228332519531

> <r_mmod_Improper_Torsional_Energy-OPLS-2005>
50.3339385986328

> <r_mmod_Van_der_Waal_Energy-OPLS-2005>
140.099456787109

> <r_mmod_Electrostatic_Energy-OPLS-2005>
-375.420623779297

> <r_mmod_Solvation_Energy-OPLS-2005>
-473.770385742188

> <b_mmod_Minimization_Converged-OPLS-2005>
0

> <r_mmod_RMS_Derivative-OPLS-2005>
58.3105926513672

$$$$
57
                    3D
 Structure written by MMmdl.
164173  0  0  1  0            999 V2000
  -30.6781  -14.5021   20.5908 C   0  0  0  0  0  0
  -30.4256  -12.3292   19.4298 C   0  0  0  0  0  0
  -29.4944  -12.5143   18.2126 C   0  0  0  0  0  0
  -28.0160  -12.3645   18.6244 C   0  0  0  0  0  0
  -27.6586  -13.2065   19.8769 C   0  0  2  0  0  0
  -28.6987  -12.9938   20.9988 C   0  0  0  0  0  0
  -25.2572  -13.8159   20.5692 C   0  0  0  0  0  0
  -24.1829  -13.0442   20.9178 C   0  0  0  0  0  0
  -24.6378  -11.6905   20.8746 C   0  0  0  0  0  0
  -23.9052  -10.4291   21.0418 C   0  0  0  0  0  0
  -24.3608   -9.4203   21.9192 C   0  0  0  0  0  0
  -23.6289   -8.2238   22.0755 C   0  0  0  0  0  0
  -22.4272   -8.0277   21.3546 C   0  0  0  0  0  0
  -21.9901   -9.0252   20.4649 C   0  0  0  0  0  0
  -22.7228  -10.2130   20.3064 C   0  0  0  0  0  0
  -21.6841   -6.0734   22.5283 C   0  0  0  0  0  0
  -21.4014   -6.5644   23.8219 C   0  0  0  0  0  0
  -21.3663   -5.6795   24.9181 C   0  0  0  0  0  0
  -21.6043   -4.3059   24.7226 C   0  0  0  0  0  0
  -21.8820   -3.8152   23.4350 C   0  0  0  0  0  0
  -21.9194   -4.6966   22.3406 C   0  0  0  0  0  0
  -22.7850  -13.5229   21.1850 C   0  0  0  0  0  0
  -22.1662   -4.2155   21.0981 F   0  0  0  0  0  0
  -21.5627   -3.4542   25.7738 F   0  0  0  0  0  0
  -30.0246  -13.3150   20.4474 N   0  0  0  0  0  0
  -26.3007  -12.9328   20.3383 N   0  0  0  0  0  0
  -25.9302  -11.6494   20.5795 N   0  0  0  0  0  0
  -22.0502  -12.8221   22.0410 N   0  0  0  0  0  0
  -25.4294  -15.1881   20.4104 N   0  0  0  0  0  0
  -31.8029  -14.6995   20.1220 O   0  0  0  0  0  0
  -21.6634   -6.8876   21.4245 O   0  0  0  0  0  0
  -22.3539  -14.5543   20.6702 O   0  0  0  0  0  0
  -24.6157  -31.8658   23.2034 C   0  0  0  0  0  0
  -25.9061  -32.4779   23.8343 C   0  0  1  0  0  0
  -27.2314  -27.4040   20.1206 C   0  0  0  0  0  0
  -25.5935  -33.8581   24.2283 N   0  0  0  0  0  0
  -23.4045  -30.4875   21.5443 C   0  0  2  0  0  0
  -24.8515  -28.9435   20.1154 C   0  0  0  0  0  0
  -22.7408  -29.4657   22.4965 C   0  0  0  0  0  0
  -18.0261  -28.1359   22.8495 C   0  0  0  0  0  0
  -24.1495  -36.7308   23.2635 C   0  0  0  0  0  0
  -25.9336  -30.8236   21.3606 C   0  0  0  0  0  0
  -26.0102  -29.4550   20.7110 C   0  0  0  0  0  0
  -27.2040  -28.6954   20.7031 C   0  0  0  0  0  0
  -26.0599  -26.9188   19.5018 C   0  0  0  0  0  0
  -24.8728  -27.6768   19.5049 C   0  0  0  0  0  0
  -23.6144  -29.8125   20.1614 C   0  0  0  0  0  0
  -25.4102  -36.3082   24.0336 C   0  0  1  0  0  0
  -20.5849  -28.3673   23.1295 C   0  0  2  0  0  0
  -20.6745  -26.9407   22.5409 C   0  0  0  0  0  0
  -19.5729  -26.6381   21.5203 C   0  0  0  0  0  0
  -18.1910  -26.7913   22.1618 C   0  0  0  0  0  0
  -19.1511  -28.8828   23.2893 C   0  0  0  0  0  0
  -18.9458  -30.1431   23.8908 C   0  0  0  0  0  0
  -17.6465  -30.6583   24.0564 C   0  0  0  0  0  0
  -25.9029  -34.9457   23.5095 C   0  0  0  0  0  0
  -16.5352  -29.9087   23.6329 C   0  0  0  0  0  0
  -16.7251  -28.6489   23.0369 C   0  0  0  0  0  0
  -26.4474  -31.6544   25.0683 C   0  0  0  0  0  0
  -25.3726  -31.3673   26.1430 C   0  0  0  0  0  0
  -27.0280  -30.2959   24.6072 C   0  0  0  0  0  0
  -27.6052  -32.4254   25.7464 C   0  0  0  0  0  0
  -27.5571  -37.1804   24.8464 C   0  0  0  0  0  0
  -21.4133  -29.3042   22.3705 N   0  0  0  0  0  0
  -26.4282  -37.3772   23.9407 N   0  0  0  0  0  0
  -24.6695  -31.0734   22.0951 N   0  0  0  0  0  0
  -23.4171  -28.8221   23.3033 O   0  0  0  0  0  0
  -28.4066  -26.6738   20.1212 O   0  0  0  0  0  0
  -26.5576  -34.8936   22.4648 O   0  0  0  0  0  0
  -23.5343  -32.1440   23.7407 O   0  0  0  0  0  0
  -27.8850  -18.7368   19.1563 C   0  0  0  0  0  0
  -28.6103  -17.7195   19.8020 C   0  0  0  0  0  0
  -28.1089  -20.0894   19.4722 C   0  0  0  0  0  0
  -29.5831  -18.0320   20.7749 C   0  0  0  0  0  0
  -29.0611  -20.4599   20.4490 C   0  0  0  0  0  0
  -29.8092  -19.4156   21.0939 C   0  0  0  0  0  0
  -27.4751  -23.3708   21.7430 C   0  0  0  0  0  0
  -26.9780  -22.5497   22.6836 C   0  0  0  0  0  0
  -27.4449  -24.8946   21.7328 C   0  0  0  0  0  0
  -28.4707  -24.1361   19.6931 C   0  0  0  0  0  0
  -28.4631  -25.3252   20.6714 C   0  0  1  0  0  0
  -30.8874  -19.7926   22.1061 C   0  0  0  0  0  0
  -30.3969  -16.8847   21.4324 C   0  0  0  0  0  0
  -29.3336  -21.9717   20.7066 C   0  0  0  0  0  0
  -29.9680  -15.4905   21.1768 N   0  0  0  0  0  0
  -28.1748  -22.9095   20.4998 N   0  3  2  0  0  0
  -31.4694  -12.4382   19.1297 H   0  0  0  0  0  0
  -30.3347  -11.3193   19.8347 H   0  0  0  0  0  0
  -29.7408  -11.7945   17.4311 H   0  0  0  0  0  0
  -29.6512  -13.5026   17.7799 H   0  0  0  0  0  0
  -27.8318  -11.3080   18.8250 H   0  0  0  0  0  0
  -27.3631  -12.6355   17.7945 H   0  0  0  0  0  0
  -27.6998  -14.2531   19.5744 H   0  0  0  0  0  0
  -28.6862  -11.9567   21.3379 H   0  0  0  0  0  0
  -28.4491  -13.5873   21.8790 H   0  0  0  0  0  0
  -25.2761   -9.5677   22.4758 H   0  0  0  0  0  0
  -24.0002   -7.4629   22.7468 H   0  0  0  0  0  0
  -21.0832   -8.8771   19.8954 H   0  0  0  0  0  0
  -22.3696  -10.9667   19.6170 H   0  0  0  0  0  0
  -21.2005   -7.6155   23.9720 H   0  0  0  0  0  0
  -21.1484   -6.0529   25.9081 H   0  0  0  0  0  0
  -22.0593   -2.7614   23.2851 H   0  0  0  0  0  0
  -22.4116  -11.9861   22.4772 H   0  0  0  0  0  0
  -21.1136  -13.1262   22.2644 H   0  0  0  0  0  0
  -24.6618  -15.8426   20.5170 H   0  0  0  0  0  0
  -26.2829  -15.6319   20.0999 H   0  0  0  0  0  0
  -26.7136  -32.5484   23.1107 H   0  0  0  0  0  0
  -25.0177  -33.9719   25.0492 H   0  0  0  0  0  0
  -22.6924  -31.3044   21.4007 H   0  0  0  0  0  0
  -23.3738  -35.9662   23.3286 H   0  0  0  0  0  0
  -24.3580  -36.8916   22.2045 H   0  0  0  0  0  0
  -23.7281  -37.6526   23.6656 H   0  0  0  0  0  0
  -26.0413  -31.5874   20.5889 H   0  0  0  0  0  0
  -26.8227  -30.8796   21.9758 H   0  0  0  0  0  0
  -28.1020  -29.0909   21.1575 H   0  0  0  0  0  0
  -26.0570  -25.9546   19.0176 H   0  0  0  0  0  0
  -23.9838  -27.2791   19.0345 H   0  0  0  0  0  0
  -23.7246  -30.5838   19.3993 H   0  0  0  0  0  0
  -22.7376  -29.2331   19.8647 H   0  0  0  0  0  0
  -25.1270  -36.1939   25.0827 H   0  0  0  0  0  0
  -20.9927  -28.3278   24.1412 H   0  0  0  0  0  0
  -20.5624  -26.2300   23.3610 H   0  0  0  0  0  0
  -21.6623  -26.7426   22.1212 H   0  0  0  0  0  0
  -19.6906  -25.6294   21.1232 H   0  0  0  0  0  0
  -19.6664  -27.3180   20.6723 H   0  0  0  0  0  0
  -17.4174  -26.6650   21.4018 H   0  0  0  0  0  0
  -18.0323  -26.0035   22.8987 H   0  0  0  0  0  0
  -19.7950  -30.7236   24.2264 H   0  0  0  0  0  0
  -17.5047  -31.6265   24.5178 H   0  0  0  0  0  0
  -15.5360  -30.3007   23.7646 H   0  0  0  0  0  0
  -15.8644  -28.0810   22.7079 H   0  0  0  0  0  0
  -24.5899  -30.7011   25.7784 H   0  0  0  0  0  0
  -24.8915  -32.2818   26.4895 H   0  0  0  0  0  0
  -25.8075  -30.8845   27.0187 H   0  0  0  0  0  0
  -26.2831  -29.6756   24.1079 H   0  0  0  0  0  0
  -27.3943  -29.7162   25.4555 H   0  0  0  0  0  0
  -27.8709  -30.4210   23.9271 H   0  0  0  0  0  0
  -27.2663  -33.3536   26.2089 H   0  0  0  0  0  0
  -28.3858  -32.6833   25.0292 H   0  0  0  0  0  0
  -28.0735  -31.8352   26.5345 H   0  0  0  0  0  0
  -28.2579  -38.0108   24.7479 H   0  0  0  0  0  0
  -28.1072  -36.2628   24.6313 H   0  0  0  0  0  0
  -27.2283  -37.1473   25.8867 H   0  0  0  0  0  0
  -20.9306  -29.8800   21.6942 H   0  0  0  0  0  0
  -26.0163  -38.2851   24.1396 H   0  0  0  0  0  0
  -27.1593  -18.4740   18.3986 H   0  0  0  0  0  0
  -28.4203  -16.6946   19.5183 H   0  0  0  0  0  0
  -27.5496  -20.8346   18.9258 H   0  0  0  0  0  0
  -26.4888  -22.9454   23.5629 H   0  0  0  0  0  0
  -27.0469  -21.4747   22.5972 H   0  0  0  0  0  0
  -27.6846  -25.3141   22.7101 H   0  0  0  0  0  0
  -26.4291  -25.1947   21.4830 H   0  0  0  0  0  0
  -29.3987  -24.0754   19.1256 H   0  0  0  0  0  0
  -27.6681  -24.2615   18.9684 H   0  0  0  0  0  0
  -29.4324  -25.2971   21.1732 H   0  0  0  0  0  0
  -31.5924  -18.9901   22.3130 H   0  0  0  0  0  0
  -30.4324  -20.0812   23.0534 H   0  0  0  0  0  0
  -31.4900  -20.6239   21.7411 H   0  0  0  0  0  0
  -30.3661  -17.0175   22.5145 H   0  0  0  0  0  0
  -31.4418  -17.0049   21.1420 H   0  0  0  0  0  0
  -30.1628  -22.2432   20.0535 H   0  0  0  0  0  0
  -29.7011  -22.1260   21.7212 H   0  0  0  0  0  0
  -29.0563  -15.2307   21.5205 H   0  0  0  0  0  0
  -27.5269  -22.3688   19.9482 H   0  0  0  0  0  0
  1 25  1  0  0  0
  1 30  2  0  0  0
  1 85  1  0  0  0
  2  3  1  0  0  0
  2 25  1  0  0  0
  2 87  1  0  0  0
  2 88  1  0  0  0
  3  4  1  0  0  0
  3 89  1  0  0  0
  3 90  1  0  0  0
  4  5  1  0  0  0
  4 91  1  0  0  0
  4 92  1  0  0  0
  5  6  1  0  0  0
  5 26  1  0  0  0
  5 93  1  0  0  0
  6 25  1  0  0  0
  6 94  1  0  0  0
  6 95  1  0  0  0
  7  8  2  0  0  0
  7 26  1  0  0  0
  7 29  1  0  0  0
  8  9  1  0  0  0
  8 22  1  0  0  0
  9 10  1  0  0  0
  9 27  2  0  0  0
 10 11  2  0  0  0
 10 15  1  0  0  0
 11 12  1  0  0  0
 11 96  1  0  0  0
 12 13  2  0  0  0
 12 97  1  0  0  0
 13 14  1  0  0  0
 13 31  1  0  0  0
 14 15  2  0  0  0
 14 98  1  0  0  0
 15 99  1  0  0  0
 16 17  2  0  0  0
 16 21  1  0  0  0
 16 31  1  0  0  0
 17 18  1  0  0  0
 17100  1  0  0  0
 18 19  2  0  0  0
 18101  1  0  0  0
 19 20  1  0  0  0
 19 24  1  0  0  0
 20 21  2  0  0  0
 20102  1  0  0  0
 21 23  1  0  0  0
 22 28  1  0  0  0
 22 32  2  0  0  0
 26 27  1  0  0  0
 28103  1  0  0  0
 28104  1  0  0  0
 29105  1  0  0  0
 29106  1  0  0  0
 33 34  1  0  0  0
 33 66  1  0  0  0
 33 70  2  0  0  0
 34 36  1  0  0  0
 34 59  1  0  0  0
 34107  1  0  0  0
 35 44  2  0  0  0
 35 45  1  0  0  0
 35 68  1  0  0  0
 36 56  1  0  0  0
 36108  1  0  0  0
 37 39  1  0  0  0
 37 47  1  0  0  0
 37 66  1  0  0  0
 37109  1  0  0  0
 38 43  2  0  0  0
 38 46  1  0  0  0
 38 47  1  0  0  0
 39 64  1  0  0  0
 39 67  2  0  0  0
 40 52  1  0  0  0
 40 53  2  0  0  0
 40 58  1  0  0  0
 41110  1  0  0  0
 41111  1  0  0  0
 41112  1  0  0  0
 41 48  1  0  0  0
 42 43  1  0  0  0
 42 66  1  0  0  0
 42113  1  0  0  0
 42114  1  0  0  0
 43 44  1  0  0  0
 44115  1  0  0  0
 45 46  2  0  0  0
 45116  1  0  0  0
 46117  1  0  0  0
 47118  1  0  0  0
 47119  1  0  0  0
 48 56  1  0  0  0
 48 65  1  0  0  0
 48120  1  0  0  0
 49 50  1  0  0  0
 49 53  1  0  0  0
 49 64  1  0  0  0
 49121  1  0  0  0
 50 51  1  0  0  0
 50122  1  0  0  0
 50123  1  0  0  0
 51 52  1  0  0  0
 51124  1  0  0  0
 51125  1  0  0  0
 52126  1  0  0  0
 52127  1  0  0  0
 53 54  1  0  0  0
 54 55  2  0  0  0
 54128  1  0  0  0
 55 57  1  0  0  0
 55129  1  0  0  0
 56 69  2  0  0  0
 57 58  2  0  0  0
 57130  1  0  0  0
 58131  1  0  0  0
 59 60  1  0  0  0
 59 61  1  0  0  0
 59 62  1  0  0  0
 60132  1  0  0  0
 60133  1  0  0  0
 60134  1  0  0  0
 61135  1  0  0  0
 61136  1  0  0  0
 61137  1  0  0  0
 62138  1  0  0  0
 62139  1  0  0  0
 62140  1  0  0  0
 63 65  1  0  0  0
 63141  1  0  0  0
 63142  1  0  0  0
 63143  1  0  0  0
 64144  1  0  0  0
 65145  1  0  0  0
 68 81  1  0  0  0
 71 72  2  0  0  0
 71 73  1  0  0  0
 71146  1  0  0  0
 72 74  1  0  0  0
 72147  1  0  0  0
 73 75  2  0  0  0
 73148  1  0  0  0
 74 76  2  0  0  0
 74 83  1  0  0  0
 75 76  1  0  0  0
 75 84  1  0  0  0
 76 82  1  0  0  0
 77 78  2  0  0  0
 77 79  1  0  0  0
 77 86  1  0  0  0
 78149  1  0  0  0
 78150  1  0  0  0
 79 81  1  0  0  0
 79151  1  0  0  0
 79152  1  0  0  0
 80 81  1  0  0  0
 80 86  1  0  0  0
 80153  1  0  0  0
 80154  1  0  0  0
 81155  1  0  0  0
 82156  1  0  0  0
 82157  1  0  0  0
 82158  1  0  0  0
 83 85  1  0  0  0
 83159  1  0  0  0
 83160  1  0  0  0
 84161  1  0  0  0
 84162  1  0  0  0
 84 86  1  0  0  0
 85163  1  0  0  0
 86164  1  0  0  0
M  CHG  1  86   1
M  ISO  4   1 100  68 101  81 101  85 100
M  END
> <chiral flag>
0

> <version>
0

> <s_m_source_file>
/data/baiqing/PycharmProjects/Reinvent-master-3.2/result/LINK_invent/BTK/process_docking_weight1_custom_product_contain_oxygen_bond_distance_aromatic_linkinvent_7_9_3/rearranged_h_0031.sdf

> <i_m_source_file_index>
58

> <r_mmod_Potential_Energy-OPLS-2005>
-135.078475952148

> <r_mmod_Stretch_Energy-OPLS-2005>
51.7630195617676

> <r_mmod_Bend_Energy-OPLS-2005>
146.716384887695

> <r_mmod_Torsional_Energy-OPLS-2005>
235.728225708008

> <r_mmod_Improper_Torsional_Energy-OPLS-2005>
3.01217532157898

> <r_mmod_Van_der_Waal_Energy-OPLS-2005>
145.5927734375

> <r_mmod_Electrostatic_Energy-OPLS-2005>
-307.816375732422

> <r_mmod_Solvation_Energy-OPLS-2005>
-426.052276611328

> <b_mmod_Minimization_Converged-OPLS-2005>
0

> <r_mmod_RMS_Derivative-OPLS-2005>
2.57269072532654

$$$$
58
                    3D
 Structure written by MMmdl.
170179  0  0  1  0            999 V2000
  -30.5350  -15.0549   20.3810 C   0  0  0  0  0  0
  -30.4146  -12.6598   19.5036 C   0  0  0  0  0  0
  -29.5119  -12.5321   18.2557 C   0  0  0  0  0  0
  -28.0485  -12.3119   18.6777 C   0  0  0  0  0  0
  -27.6135  -13.2600   19.8257 C   0  0  2  0  0  0
  -28.6524  -13.3593   20.9628 C   0  0  0  0  0  0
  -25.2426  -13.8248   20.5735 C   0  0  0  0  0  0
  -24.1754  -13.0469   20.9258 C   0  0  0  0  0  0
  -24.6382  -11.6957   20.8796 C   0  0  0  0  0  0
  -23.9099  -10.4313   21.0442 C   0  0  0  0  0  0
  -24.3647   -9.4217   21.9207 C   0  0  0  0  0  0
  -23.6323   -8.2242   22.0748 C   0  0  0  0  0  0
  -22.4298   -8.0296   21.3544 C   0  0  0  0  0  0
  -21.9945   -9.0268   20.4639 C   0  0  0  0  0  0
  -22.7284  -10.2152   20.3063 C   0  0  0  0  0  0
  -21.6849   -6.0774   22.5282 C   0  0  0  0  0  0
  -21.4017   -6.5682   23.8224 C   0  0  0  0  0  0
  -21.3642   -5.6820   24.9184 C   0  0  0  0  0  0
  -21.6025   -4.3074   24.7230 C   0  0  0  0  0  0
  -21.8816   -3.8183   23.4347 C   0  0  0  0  0  0
  -21.9198   -4.7002   22.3419 C   0  0  0  0  0  0
  -22.7779  -13.5230   21.1936 C   0  0  0  0  0  0
  -22.1658   -4.2188   21.0992 F   0  0  0  0  0  0
  -21.5621   -3.4562   25.7745 F   0  0  0  0  0  0
  -29.9065  -13.7991   20.3383 N   0  0  0  0  0  0
  -26.2812  -12.9474   20.3210 N   0  0  0  0  0  0
  -25.9299  -11.6610   20.5740 N   0  0  0  0  0  0
  -22.0441  -12.8161   22.0457 N   0  0  0  0  0  0
  -25.4198  -15.1964   20.4164 N   0  0  0  0  0  0
  -31.7508  -14.9804   20.1672 O   0  0  0  0  0  0
  -21.6642   -6.8905   21.4240 O   0  0  0  0  0  0
  -22.3479  -14.5564   20.6835 O   0  0  0  0  0  0
  -24.6518  -31.8366   23.1789 C   0  0  0  0  0  0
  -25.9248  -32.4672   23.8215 C   0  0  1  0  0  0
  -27.2042  -27.0461   20.1956 C   0  0  0  0  0  0
  -25.6013  -33.8488   24.2169 N   0  0  0  0  0  0
  -23.4605  -30.4532   21.5248 C   0  0  2  0  0  0
  -24.9080  -28.8524   20.1200 C   0  0  0  0  0  0
  -22.7620  -29.4541   22.4815 C   0  0  0  0  0  0
  -18.0328  -28.1426   22.8509 C   0  0  0  0  0  0
  -24.1471  -36.7217   23.2660 C   0  0  0  0  0  0
  -26.0210  -30.6858   21.3833 C   0  0  0  0  0  0
  -26.0869  -29.2805   20.7440 C   0  0  0  0  0  0
  -27.2404  -28.3972   20.7514 C   0  0  0  0  0  0
  -26.0000  -26.7306   19.5355 C   0  0  0  0  0  0
  -24.8829  -27.5939   19.4940 C   0  0  0  0  0  0
  -23.6908  -29.7687   20.1507 C   0  0  0  0  0  0
  -25.4095  -36.3005   24.0349 C   0  0  1  0  0  0
  -20.5949  -28.3770   23.1230 C   0  0  2  0  0  0
  -20.6812  -26.9465   22.5405 C   0  0  0  0  0  0
  -19.5774  -26.6388   21.5237 C   0  0  0  0  0  0
  -18.1944  -26.7964   22.1615 C   0  0  0  0  0  0
  -19.1590  -28.8907   23.2871 C   0  0  0  0  0  0
  -18.9496  -30.1495   23.8880 C   0  0  0  0  0  0
  -17.6506  -30.6612   24.0563 C   0  0  0  0  0  0
  -25.9065  -34.9414   23.5042 C   0  0  0  0  0  0
  -16.5399  -29.9120   23.6359 C   0  0  0  0  0  0
  -16.7314  -28.6546   23.0376 C   0  0  0  0  0  0
  -26.4564  -31.6588   25.0693 C   0  0  0  0  0  0
  -25.3717  -31.3826   26.1367 C   0  0  0  0  0  0
  -27.0471  -30.2991   24.6308 C   0  0  0  0  0  0
  -27.6091  -32.4368   25.7448 C   0  0  0  0  0  0
  -27.5549  -37.1765   24.8497 C   0  0  0  0  0  0
  -21.4308  -29.3087   22.3591 N   0  0  0  0  0  0
  -26.4242  -37.3732   23.9458 N   0  0  0  0  0  0
  -24.7329  -31.0163   22.0843 N   0  0  0  0  0  0
  -23.4229  -28.8077   23.2979 O   0  0  0  0  0  0
  -28.2541  -26.0385   20.1508 O   0  0  0  0  0  0
  -26.5611  -34.8944   22.4592 O   0  0  0  0  0  0
  -23.5617  -32.1257   23.6966 O   0  0  0  0  0  0
  -32.2041  -18.5325   18.7203 C   0  0  0  0  0  0
  -31.3410  -19.2918   17.9293 C   0  0  0  0  0  0
  -31.6882  -17.8312   19.8150 C   0  0  0  0  0  0
  -30.0558  -19.6020   18.4049 C   0  0  0  0  0  0
  -29.6190  -19.1274   19.6821 C   0  0  0  0  0  0
  -30.3012  -17.8097   20.1089 C   0  0  0  0  0  0
  -28.2357  -23.0737   20.1383 C   0  0  0  0  0  0
  -26.9633  -17.7731   15.9662 C   0  0  0  0  0  0
  -27.1096  -18.7653   14.8093 C   0  0  0  0  0  0
  -27.9753  -18.2510   17.0068 C   0  0  0  0  0  0
  -27.8287  -19.9932   15.4003 C   0  0  0  0  0  0
  -30.0965  -22.0348   21.4416 C   0  0  0  0  0  0
  -28.6499  -20.2734   20.4207 C   0  0  0  0  0  0
  -29.1808  -20.4548   17.4726 C   0  0  0  0  0  0
  -28.2337  -24.6137   20.8548 C   0  0  0  0  0  0
  -29.8435  -16.3426   20.4581 N   0  0  0  0  0  0
  -28.9373  -21.8682   20.5595 N   0  0  0  0  0  0
  -28.0382  -19.7229   16.8444 N   0  3  0  0  0  0
  -27.4277  -22.9495   19.2123 O   0  0  0  0  0  0
  -31.4500  -12.7961   19.1903 H   0  0  0  0  0  0
  -30.4038  -11.7317   20.0780 H   0  0  0  0  0  0
  -29.8454  -11.7000   17.6340 H   0  0  0  0  0  0
  -29.5867  -13.4289   17.6354 H   0  0  0  0  0  0
  -27.9573  -11.2750   19.0007 H   0  0  0  0  0  0
  -27.3813  -12.4199   17.8227 H   0  0  0  0  0  0
  -27.5534  -14.2480   19.3688 H   0  0  0  0  0  0
  -28.7706  -12.4026   21.4748 H   0  0  0  0  0  0
  -28.3336  -14.0833   21.7166 H   0  0  0  0  0  0
  -25.2794   -9.5686   22.4794 H   0  0  0  0  0  0
  -24.0040   -7.4625   22.7452 H   0  0  0  0  0  0
  -21.0884   -8.8802   19.8925 H   0  0  0  0  0  0
  -22.3766  -10.9700   19.6173 H   0  0  0  0  0  0
  -21.2001   -7.6196   23.9745 H   0  0  0  0  0  0
  -21.1448   -6.0552   25.9086 H   0  0  0  0  0  0
  -22.0602   -2.7645   23.2847 H   0  0  0  0  0  0
  -22.4076  -11.9791   22.4746 H   0  0  0  0  0  0
  -21.1043  -13.1138   22.2713 H   0  0  0  0  0  0
  -24.6704  -15.8677   20.5381 H   0  0  0  0  0  0
  -26.2858  -15.6168   20.1073 H   0  0  0  0  0  0
  -26.7317  -32.5250   23.0945 H   0  0  0  0  0  0
  -25.0339  -33.9625   25.0432 H   0  0  0  0  0  0
  -22.7714  -31.2828   21.3570 H   0  0  0  0  0  0
  -23.3769  -35.9515   23.3261 H   0  0  0  0  0  0
  -24.3552  -36.8858   22.2085 H   0  0  0  0  0  0
  -23.7186  -37.6393   23.6692 H   0  0  0  0  0  0
  -26.1728  -31.4221   20.5936 H   0  0  0  0  0  0
  -26.8961  -30.7541   22.0179 H   0  0  0  0  0  0
  -28.1502  -28.7250   21.2322 H   0  0  0  0  0  0
  -25.9177  -25.7659   19.0524 H   0  0  0  0  0  0
  -23.9841  -27.2597   18.9949 H   0  0  0  0  0  0
  -23.8459  -30.5332   19.3894 H   0  0  0  0  0  0
  -22.8050  -29.2167   19.8308 H   0  0  0  0  0  0
  -25.1279  -36.1791   25.0841 H   0  0  0  0  0  0
  -21.0067  -28.3315   24.1339 H   0  0  0  0  0  0
  -20.5749  -26.2377   23.3637 H   0  0  0  0  0  0
  -21.6674  -26.7491   22.1159 H   0  0  0  0  0  0
  -19.6953  -25.6282   21.1295 H   0  0  0  0  0  0
  -19.6691  -27.3190   20.6752 H   0  0  0  0  0  0
  -17.4236  -26.6778   21.3989 H   0  0  0  0  0  0
  -18.0272  -26.0117   22.8994 H   0  0  0  0  0  0
  -19.7979  -30.7313   24.2228 H   0  0  0  0  0  0
  -17.5066  -31.6300   24.5138 H   0  0  0  0  0  0
  -15.5387  -30.3008   23.7724 H   0  0  0  0  0  0
  -15.8700  -28.0848   22.7119 H   0  0  0  0  0  0
  -24.5891  -30.7213   25.7658 H   0  0  0  0  0  0
  -24.8957  -32.3056   26.4700 H   0  0  0  0  0  0
  -25.7955  -30.9032   27.0195 H   0  0  0  0  0  0
  -26.3144  -29.6678   24.1301 H   0  0  0  0  0  0
  -27.4099  -29.7339   25.4897 H   0  0  0  0  0  0
  -27.8998  -30.4271   23.9638 H   0  0  0  0  0  0
  -27.2735  -33.3752   26.1864 H   0  0  0  0  0  0
  -28.3955  -32.6780   25.0290 H   0  0  0  0  0  0
  -28.0693  -31.8593   26.5472 H   0  0  0  0  0  0
  -28.2572  -38.0060   24.7505 H   0  0  0  0  0  0
  -28.1014  -36.2587   24.6297 H   0  0  0  0  0  0
  -27.2288  -37.1370   25.8909 H   0  0  0  0  0  0
  -20.9515  -29.8817   21.6784 H   0  0  0  0  0  0
  -26.0091  -38.2783   24.1458 H   0  0  0  0  0  0
  -33.2339  -18.3894   18.4175 H   0  0  0  0  0  0
  -31.7042  -19.7008   16.9961 H   0  0  0  0  0  0
  -32.3817  -17.1585   20.2924 H   0  0  0  0  0  0
  -27.1302  -16.7405   15.6563 H   0  0  0  0  0  0
  -25.9556  -17.8334   16.3808 H   0  0  0  0  0  0
  -26.1358  -19.0249   14.3942 H   0  0  0  0  0  0
  -27.6996  -18.3335   13.9989 H   0  0  0  0  0  0
  -28.9448  -17.7954   16.7954 H   0  0  0  0  0  0
  -27.6834  -17.9608   18.0174 H   0  0  0  0  0  0
  -27.2558  -20.9108   15.2616 H   0  0  0  0  0  0
  -28.7783  -20.1253   14.8784 H   0  0  0  0  0  0
  -29.8029  -21.9330   22.4881 H   0  0  0  0  0  0
  -30.6048  -22.9910   21.3112 H   0  0  0  0  0  0
  -30.8496  -21.2697   21.2392 H   0  0  0  0  0  0
  -28.4904  -19.9027   21.4354 H   0  0  0  0  0  0
  -27.6635  -20.1860   19.9620 H   0  0  0  0  0  0
  -29.8203  -20.8637   16.6902 H   0  0  0  0  0  0
  -28.8130  -21.3428   17.9659 H   0  0  0  0  0  0
  -29.0741  -24.6321   21.5471 H   0  0  0  0  0  0
  -27.3607  -24.6192   21.5100 H   0  0  0  0  0  0
  -28.8560  -16.2461   20.6434 H   0  0  0  0  0  0
  -27.2095  -20.0783   17.2979 H   0  0  0  0  0  0
  1 25  1  0  0  0
  1 30  2  0  0  0
  1 86  1  0  0  0
  2  3  1  0  0  0
  2 25  1  0  0  0
  2 90  1  0  0  0
  2 91  1  0  0  0
  3  4  1  0  0  0
  3 92  1  0  0  0
  3 93  1  0  0  0
  4  5  1  0  0  0
  4 94  1  0  0  0
  4 95  1  0  0  0
  5  6  1  0  0  0
  5 26  1  0  0  0
  5 96  1  0  0  0
  6 25  1  0  0  0
  6 97  1  0  0  0
  6 98  1  0  0  0
  7  8  2  0  0  0
  7 26  1  0  0  0
  7 29  1  0  0  0
  8  9  1  0  0  0
  8 22  1  0  0  0
  9 10  1  0  0  0
  9 27  2  0  0  0
 10 11  2  0  0  0
 10 15  1  0  0  0
 11 12  1  0  0  0
 11 99  1  0  0  0
 12 13  2  0  0  0
 12100  1  0  0  0
 13 14  1  0  0  0
 13 31  1  0  0  0
 14 15  2  0  0  0
 14101  1  0  0  0
 15102  1  0  0  0
 16 17  2  0  0  0
 16 21  1  0  0  0
 16 31  1  0  0  0
 17 18  1  0  0  0
 17103  1  0  0  0
 18 19  2  0  0  0
 18104  1  0  0  0
 19 20  1  0  0  0
 19 24  1  0  0  0
 20 21  2  0  0  0
 20105  1  0  0  0
 21 23  1  0  0  0
 22 28  1  0  0  0
 22 32  2  0  0  0
 26 27  1  0  0  0
 28106  1  0  0  0
 28107  1  0  0  0
 29108  1  0  0  0
 29109  1  0  0  0
 33 34  1  0  0  0
 33 66  1  0  0  0
 33 70  2  0  0  0
 34 36  1  0  0  0
 34 59  1  0  0  0
 34110  1  0  0  0
 35 44  2  0  0  0
 35 45  1  0  0  0
 35 68  1  0  0  0
 36 56  1  0  0  0
 36111  1  0  0  0
 37 39  1  0  0  0
 37 47  1  0  0  0
 37 66  1  0  0  0
 37112  1  0  0  0
 38 43  2  0  0  0
 38 46  1  0  0  0
 38 47  1  0  0  0
 39 64  1  0  0  0
 39 67  2  0  0  0
 40 52  1  0  0  0
 40 53  2  0  0  0
 40 58  1  0  0  0
 41113  1  0  0  0
 41114  1  0  0  0
 41115  1  0  0  0
 41 48  1  0  0  0
 42 43  1  0  0  0
 42 66  1  0  0  0
 42116  1  0  0  0
 42117  1  0  0  0
 43 44  1  0  0  0
 44118  1  0  0  0
 45 46  2  0  0  0
 45119  1  0  0  0
 46120  1  0  0  0
 47121  1  0  0  0
 47122  1  0  0  0
 48 56  1  0  0  0
 48 65  1  0  0  0
 48123  1  0  0  0
 49 50  1  0  0  0
 49 53  1  0  0  0
 49 64  1  0  0  0
 49124  1  0  0  0
 50 51  1  0  0  0
 50125  1  0  0  0
 50126  1  0  0  0
 51 52  1  0  0  0
 51127  1  0  0  0
 51128  1  0  0  0
 52129  1  0  0  0
 52130  1  0  0  0
 53 54  1  0  0  0
 54 55  2  0  0  0
 54131  1  0  0  0
 55 57  1  0  0  0
 55132  1  0  0  0
 56 69  2  0  0  0
 57 58  2  0  0  0
 57133  1  0  0  0
 58134  1  0  0  0
 59 60  1  0  0  0
 59 61  1  0  0  0
 59 62  1  0  0  0
 60135  1  0  0  0
 60136  1  0  0  0
 60137  1  0  0  0
 61138  1  0  0  0
 61139  1  0  0  0
 61140  1  0  0  0
 62141  1  0  0  0
 62142  1  0  0  0
 62143  1  0  0  0
 63 65  1  0  0  0
 63144  1  0  0  0
 63145  1  0  0  0
 63146  1  0  0  0
 64147  1  0  0  0
 65148  1  0  0  0
 68 85  1  0  0  0
 71 72  2  0  0  0
 71 73  1  0  0  0
 71149  1  0  0  0
 72 74  1  0  0  0
 72150  1  0  0  0
 73 76  2  0  0  0
 73151  1  0  0  0
 74 75  2  0  0  0
 74 84  1  0  0  0
 75 76  1  0  0  0
 75 83  1  0  0  0
 76 86  1  0  0  0
 77 85  1  0  0  0
 77 87  1  0  0  0
 77 89  2  0  0  0
 78 79  1  0  0  0
 78 80  1  0  0  0
 78152  1  0  0  0
 78153  1  0  0  0
 79 81  1  0  0  0
 79154  1  0  0  0
 79155  1  0  0  0
 80 88  1  0  0  0
 80156  1  0  0  0
 80157  1  0  0  0
 81 88  1  0  0  0
 81158  1  0  0  0
 81159  1  0  0  0
 82 87  1  0  0  0
 82160  1  0  0  0
 82161  1  0  0  0
 82162  1  0  0  0
 83 87  1  0  0  0
 83163  1  0  0  0
 83164  1  0  0  0
 84165  1  0  0  0
 84166  1  0  0  0
 84 88  1  0  0  0
 85167  1  0  0  0
 85168  1  0  0  0
 86169  1  0  0  0
 88170  1  0  0  0
M  CHG  1  88   1
M  ISO  4   1 100  68 101  85 101  86 100
M  END
> <chiral flag>
0

> <version>
0

> <s_m_source_file>
/data/baiqing/PycharmProjects/Reinvent-master-3.2/result/LINK_invent/BTK/process_docking_weight1_custom_product_contain_oxygen_bond_distance_aromatic_linkinvent_7_9_3/rearranged_h_0031.sdf

> <i_m_source_file_index>
59

> <r_mmod_Potential_Energy-OPLS-2005>
972.922302246094

> <r_mmod_Stretch_Energy-OPLS-2005>
394.177795410156

> <r_mmod_Bend_Energy-OPLS-2005>
393.354644775391

> <r_mmod_Torsional_Energy-OPLS-2005>
488.043426513672

> <r_mmod_Improper_Torsional_Energy-OPLS-2005>
11.0311832427979

> <r_mmod_Van_der_Waal_Energy-OPLS-2005>
141.396194458008

> <r_mmod_Electrostatic_Energy-OPLS-2005>
-271.892181396484

> <r_mmod_Solvation_Energy-OPLS-2005>
-451.36962890625

> <b_mmod_Minimization_Converged-OPLS-2005>
0

> <r_mmod_RMS_Derivative-OPLS-2005>
4.68412446975708

$$$$
59
                    3D
 Structure written by MMmdl.
157166  0  0  1  0            999 V2000
  -30.5929  -14.8368   20.4496 C   0  0  0  0  0  0
  -30.4289  -12.5110   19.4955 C   0  0  0  0  0  0
  -29.5142  -12.5195   18.2508 C   0  0  0  0  0  0
  -28.0431  -12.3289   18.6634 C   0  0  0  0  0  0
  -27.6360  -13.2429   19.8497 C   0  0  2  0  0  0
  -28.6784  -13.2230   20.9899 C   0  0  0  0  0  0
  -25.2472  -13.8209   20.5712 C   0  0  0  0  0  0
  -24.1783  -13.0438   20.9229 C   0  0  0  0  0  0
  -24.6393  -11.6923   20.8760 C   0  0  0  0  0  0
  -23.9077  -10.4293   21.0410 C   0  0  0  0  0  0
  -24.3626   -9.4206   21.9185 C   0  0  0  0  0  0
  -23.6299   -8.2243   22.0753 C   0  0  0  0  0  0
  -22.4280   -8.0282   21.3545 C   0  0  0  0  0  0
  -21.9919   -9.0256   20.4646 C   0  0  0  0  0  0
  -22.7250  -10.2134   20.3057 C   0  0  0  0  0  0
  -21.6854   -6.0737   22.5279 C   0  0  0  0  0  0
  -21.4015   -6.5640   23.8213 C   0  0  0  0  0  0
  -21.3659   -5.6793   24.9175 C   0  0  0  0  0  0
  -21.6044   -4.3055   24.7225 C   0  0  0  0  0  0
  -21.8819   -3.8147   23.4346 C   0  0  0  0  0  0
  -21.9193   -4.6965   22.3402 C   0  0  0  0  0  0
  -22.7803  -13.5212   21.1880 C   0  0  0  0  0  0
  -22.1662   -4.2150   21.0980 F   0  0  0  0  0  0
  -21.5628   -3.4539   25.7737 F   0  0  0  0  0  0
  -29.9707  -13.5980   20.4033 N   0  0  0  0  0  0
  -26.2908  -12.9440   20.3286 N   0  0  0  0  0  0
  -25.9328  -11.6573   20.5763 N   0  0  0  0  0  0
  -22.0453  -12.8197   22.0432 N   0  0  0  0  0  0
  -25.4126  -15.1932   20.4106 N   0  0  0  0  0  0
  -31.7634  -14.8917   20.0662 O   0  0  0  0  0  0
  -21.6643   -6.8880   21.4241 O   0  0  0  0  0  0
  -22.3488  -14.5518   20.6725 O   0  0  0  0  0  0
  -24.6356  -31.8483   23.1911 C   0  0  0  0  0  0
  -25.9158  -32.4714   23.8280 C   0  0  1  0  0  0
  -27.2235  -27.2031   20.1396 C   0  0  0  0  0  0
  -25.5934  -33.8520   24.2204 N   0  0  0  0  0  0
  -23.4361  -30.4668   21.5343 C   0  0  2  0  0  0
  -24.8857  -28.9002   20.1040 C   0  0  0  0  0  0
  -22.7526  -29.4561   22.4877 C   0  0  0  0  0  0
  -18.0296  -28.1390   22.8481 C   0  0  0  0  0  0
  -24.1492  -36.7266   23.2642 C   0  0  0  0  0  0
  -25.9842  -30.7421   21.3792 C   0  0  0  0  0  0
  -26.0555  -29.3588   20.7212 C   0  0  0  0  0  0
  -27.2219  -28.5214   20.7281 C   0  0  0  0  0  0
  -26.0346  -26.8240   19.4822 C   0  0  0  0  0  0
  -24.8841  -27.6448   19.4715 C   0  0  0  0  0  0
  -23.6576  -29.7937   20.1521 C   0  0  0  0  0  0
  -25.4120  -36.3044   24.0319 C   0  0  1  0  0  0
  -20.5903  -28.3705   23.1255 C   0  0  2  0  0  0
  -20.6780  -26.9415   22.5410 C   0  0  0  0  0  0
  -19.5757  -26.6380   21.5214 C   0  0  0  0  0  0
  -18.1937  -26.7930   22.1623 C   0  0  0  0  0  0
  -19.1551  -28.8866   23.2862 C   0  0  0  0  0  0
  -18.9472  -30.1465   23.8882 C   0  0  0  0  0  0
  -17.6470  -30.6589   24.0562 C   0  0  0  0  0  0
  -25.9067  -34.9419   23.5070 C   0  0  0  0  0  0
  -16.5360  -29.9086   23.6334 C   0  0  0  0  0  0
  -16.7282  -28.6504   23.0353 C   0  0  0  0  0  0
  -26.4507  -31.6569   25.0702 C   0  0  0  0  0  0
  -25.3711  -31.3742   26.1411 C   0  0  0  0  0  0
  -27.0371  -30.2977   24.6240 C   0  0  0  0  0  0
  -27.6044  -32.4330   25.7483 C   0  0  0  0  0  0
  -27.5579  -37.1782   24.8460 C   0  0  0  0  0  0
  -21.4226  -29.3039   22.3633 N   0  0  0  0  0  0
  -26.4284  -37.3755   23.9413 N   0  0  0  0  0  0
  -24.7045  -31.0395   22.0907 N   0  0  0  0  0  0
  -23.4201  -28.8115   23.3006 O   0  0  0  0  0  0
  -28.3109  -26.2909   20.2627 O   0  0  0  0  0  0
  -26.5653  -34.8911   22.4649 O   0  0  0  0  0  0
  -23.5493  -32.1331   23.7173 O   0  0  0  0  0  0
  -30.8200  -20.3361   20.9736 C   0  0  0  0  0  0
  -31.7531  -19.3233   21.2579 C   0  0  0  0  0  0
  -29.4885  -20.0333   20.6414 C   0  0  0  0  0  0
  -29.1916  -18.5838   20.5035 C   0  0  0  0  0  0
  -30.1608  -17.4900   20.7658 C   0  0  0  0  0  0
  -31.4352  -17.9493   21.2214 C   0  0  0  0  0  0
  -27.4189  -23.6566   20.1553 C   0  0  0  0  0  0
  -29.3981  -23.8172   20.3440 C   0  0  0  0  0  0
  -28.3514  -24.8514   19.7438 C   0  0  2  0  0  0
  -27.7789  -18.1822   20.1110 C   0  0  0  0  0  0
  -28.4465  -21.2887   20.7052 C   0  0  0  0  0  0
  -29.8383  -16.0015   20.7048 N   0  0  0  0  0  0
  -28.5335  -22.6570   19.9469 N   0  3  1  0  0  0
  -32.6424  -16.9152   21.9039 Cl  0  0  0  0  0  0
  -31.4700  -12.6304   19.1921 H   0  0  0  0  0  0
  -30.3809  -11.5459   20.0024 H   0  0  0  0  0  0
  -29.8128  -11.7345   17.5548 H   0  0  0  0  0  0
  -29.6275  -13.4639   17.7161 H   0  0  0  0  0  0
  -27.9154  -11.2826   18.9437 H   0  0  0  0  0  0
  -27.3842  -12.4970   17.8106 H   0  0  0  0  0  0
  -27.6159  -14.2561   19.4477 H   0  0  0  0  0  0
  -28.7344  -12.2364   21.4523 H   0  0  0  0  0  0
  -28.3964  -13.9175   21.7827 H   0  0  0  0  0  0
  -25.2769   -9.5682   22.4763 H   0  0  0  0  0  0
  -24.0007   -7.4633   22.7471 H   0  0  0  0  0  0
  -21.0851   -8.8777   19.8951 H   0  0  0  0  0  0
  -22.3708  -10.9676   19.6168 H   0  0  0  0  0  0
  -21.2008   -7.6148   23.9717 H   0  0  0  0  0  0
  -21.1481   -6.0523   25.9078 H   0  0  0  0  0  0
  -22.0598   -2.7609   23.2846 H   0  0  0  0  0  0
  -22.4077  -11.9861   22.4819 H   0  0  0  0  0  0
  -21.1067  -13.1211   22.2637 H   0  0  0  0  0  0
  -24.6354  -15.8376   20.5078 H   0  0  0  0  0  0
  -26.2415  -15.6274   20.0301 H   0  0  0  0  0  0
  -26.7220  -32.5340   23.1011 H   0  0  0  0  0  0
  -25.0061  -33.9644   25.0335 H   0  0  0  0  0  0
  -22.7353  -31.2904   21.3822 H   0  0  0  0  0  0
  -23.3759  -35.9591   23.3285 H   0  0  0  0  0  0
  -24.3581  -36.8912   22.2060 H   0  0  0  0  0  0
  -23.7239  -37.6455   23.6687 H   0  0  0  0  0  0
  -26.1311  -31.4998   20.6083 H   0  0  0  0  0  0
  -26.8582  -30.7916   22.0172 H   0  0  0  0  0  0
  -28.1127  -28.8629   21.2365 H   0  0  0  0  0  0
  -25.9658  -25.8599   19.0014 H   0  0  0  0  0  0
  -23.9882  -27.2896   18.9808 H   0  0  0  0  0  0
  -23.7844  -30.5674   19.3941 H   0  0  0  0  0  0
  -22.7749  -29.2287   19.8475 H   0  0  0  0  0  0
  -25.1304  -36.1873   25.0810 H   0  0  0  0  0  0
  -20.9995  -28.3293   24.1376 H   0  0  0  0  0  0
  -20.5672  -26.2318   23.3623 H   0  0  0  0  0  0
  -21.6648  -26.7425   22.1210 H   0  0  0  0  0  0
  -19.6919  -25.6287   21.1252 H   0  0  0  0  0  0
  -19.6697  -27.3185   20.6740 H   0  0  0  0  0  0
  -17.4207  -26.6676   21.4027 H   0  0  0  0  0  0
  -18.0335  -26.0075   22.9021 H   0  0  0  0  0  0
  -19.7949  -30.7285   24.2242 H   0  0  0  0  0  0
  -17.5025  -31.6268   24.5166 H   0  0  0  0  0  0
  -15.5360  -30.2983   23.7667 H   0  0  0  0  0  0
  -15.8682  -28.0821   22.7072 H   0  0  0  0  0  0
  -24.5895  -30.7082   25.7738 H   0  0  0  0  0  0
  -24.8895  -32.2919   26.4798 H   0  0  0  0  0  0
  -25.8011  -30.8945   27.0213 H   0  0  0  0  0  0
  -26.2974  -29.6704   24.1251 H   0  0  0  0  0  0
  -27.4016  -29.7265   25.4787 H   0  0  0  0  0  0
  -27.8863  -30.4235   23.9520 H   0  0  0  0  0  0
  -27.2637  -33.3638   26.2029 H   0  0  0  0  0  0
  -28.3871  -32.6879   25.0325 H   0  0  0  0  0  0
  -28.0698  -31.8480   26.5425 H   0  0  0  0  0  0
  -28.2570  -38.0105   24.7535 H   0  0  0  0  0  0
  -28.1099  -36.2635   24.6247 H   0  0  0  0  0  0
  -27.2302  -37.1379   25.8863 H   0  0  0  0  0  0
  -20.9424  -29.8749   21.6819 H   0  0  0  0  0  0
  -26.0152  -38.2818   24.1436 H   0  0  0  0  0  0
  -31.1229  -21.3651   21.1101 H   0  0  0  0  0  0
  -32.7370  -19.6161   21.5958 H   0  0  0  0  0  0
  -26.5719  -23.4978   19.4878 H   0  0  0  0  0  0
  -27.0828  -23.7100   21.1936 H   0  0  0  0  0  0
  -29.5204  -23.9019   21.4262 H   0  0  0  0  0  0
  -30.3681  -23.8215   19.8468 H   0  0  0  0  0  0
  -28.4461  -24.8892   18.6563 H   0  0  0  0  0  0
  -27.3592  -18.8764   19.3837 H   0  0  0  0  0  0
  -27.1298  -18.1610   20.9867 H   0  0  0  0  0  0
  -27.7542  -17.1988   19.6432 H   0  0  0  0  0  0
  -28.3558  -21.5373   21.7627 H   0  0  0  0  0  0
  -27.4680  -20.8906   20.4435 H   0  0  0  0  0  0
  -28.8633  -15.7930   20.8466 H   0  0  0  0  0  0
  -28.6367  -22.4796   18.9599 H   0  0  0  0  0  0
  1 25  1  0  0  0
  1 30  2  0  0  0
  1 82  1  0  0  0
  2  3  1  0  0  0
  2 25  1  0  0  0
  2 85  1  0  0  0
  2 86  1  0  0  0
  3  4  1  0  0  0
  3 87  1  0  0  0
  3 88  1  0  0  0
  4  5  1  0  0  0
  4 89  1  0  0  0
  4 90  1  0  0  0
  5  6  1  0  0  0
  5 26  1  0  0  0
  5 91  1  0  0  0
  6 25  1  0  0  0
  6 92  1  0  0  0
  6 93  1  0  0  0
  7  8  2  0  0  0
  7 26  1  0  0  0
  7 29  1  0  0  0
  8  9  1  0  0  0
  8 22  1  0  0  0
  9 10  1  0  0  0
  9 27  2  0  0  0
 10 11  2  0  0  0
 10 15  1  0  0  0
 11 12  1  0  0  0
 11 94  1  0  0  0
 12 13  2  0  0  0
 12 95  1  0  0  0
 13 14  1  0  0  0
 13 31  1  0  0  0
 14 15  2  0  0  0
 14 96  1  0  0  0
 15 97  1  0  0  0
 16 17  2  0  0  0
 16 21  1  0  0  0
 16 31  1  0  0  0
 17 18  1  0  0  0
 17 98  1  0  0  0
 18 19  2  0  0  0
 18 99  1  0  0  0
 19 20  1  0  0  0
 19 24  1  0  0  0
 20 21  2  0  0  0
 20100  1  0  0  0
 21 23  1  0  0  0
 22 28  1  0  0  0
 22 32  2  0  0  0
 26 27  1  0  0  0
 28101  1  0  0  0
 28102  1  0  0  0
 29103  1  0  0  0
 29104  1  0  0  0
 33 34  1  0  0  0
 33 66  1  0  0  0
 33 70  2  0  0  0
 34 36  1  0  0  0
 34 59  1  0  0  0
 34105  1  0  0  0
 35 44  2  0  0  0
 35 45  1  0  0  0
 35 68  1  0  0  0
 36 56  1  0  0  0
 36106  1  0  0  0
 37 39  1  0  0  0
 37 47  1  0  0  0
 37 66  1  0  0  0
 37107  1  0  0  0
 38 43  2  0  0  0
 38 46  1  0  0  0
 38 47  1  0  0  0
 39 64  1  0  0  0
 39 67  2  0  0  0
 40 52  1  0  0  0
 40 53  2  0  0  0
 40 58  1  0  0  0
 41108  1  0  0  0
 41109  1  0  0  0
 41110  1  0  0  0
 41 48  1  0  0  0
 42 43  1  0  0  0
 42 66  1  0  0  0
 42111  1  0  0  0
 42112  1  0  0  0
 43 44  1  0  0  0
 44113  1  0  0  0
 45 46  2  0  0  0
 45114  1  0  0  0
 46115  1  0  0  0
 47116  1  0  0  0
 47117  1  0  0  0
 48 56  1  0  0  0
 48 65  1  0  0  0
 48118  1  0  0  0
 49 50  1  0  0  0
 49 53  1  0  0  0
 49 64  1  0  0  0
 49119  1  0  0  0
 50 51  1  0  0  0
 50120  1  0  0  0
 50121  1  0  0  0
 51 52  1  0  0  0
 51122  1  0  0  0
 51123  1  0  0  0
 52124  1  0  0  0
 52125  1  0  0  0
 53 54  1  0  0  0
 54 55  2  0  0  0
 54126  1  0  0  0
 55 57  1  0  0  0
 55127  1  0  0  0
 56 69  2  0  0  0
 57 58  2  0  0  0
 57128  1  0  0  0
 58129  1  0  0  0
 59 60  1  0  0  0
 59 61  1  0  0  0
 59 62  1  0  0  0
 60130  1  0  0  0
 60131  1  0  0  0
 60132  1  0  0  0
 61133  1  0  0  0
 61134  1  0  0  0
 61135  1  0  0  0
 62136  1  0  0  0
 62137  1  0  0  0
 62138  1  0  0  0
 63 65  1  0  0  0
 63139  1  0  0  0
 63140  1  0  0  0
 63141  1  0  0  0
 64142  1  0  0  0
 65143  1  0  0  0
 68 79  1  0  0  0
 71 72  2  0  0  0
 71 73  1  0  0  0
 71144  1  0  0  0
 72 76  1  0  0  0
 72145  1  0  0  0
 73 74  2  0  0  0
 73 81  1  0  0  0
 74 75  1  0  0  0
 74 80  1  0  0  0
 75 76  2  0  0  0
 75 82  1  0  0  0
 76 84  1  0  0  0
 77 79  1  0  0  0
 77 83  1  0  0  0
 77146  1  0  0  0
 77147  1  0  0  0
 78 79  1  0  0  0
 78 83  1  0  0  0
 78148  1  0  0  0
 78149  1  0  0  0
 79150  1  0  0  0
 80151  1  0  0  0
 80152  1  0  0  0
 80153  1  0  0  0
 81154  1  0  0  0
 81155  1  0  0  0
 81 83  1  0  0  0
 82156  1  0  0  0
 83157  1  0  0  0
M  CHG  1  83   1
M  ISO  4   1 100  68 101  79 101  82 100
M  END
> <chiral flag>
0

> <version>
0

> <s_m_source_file>
/data/baiqing/PycharmProjects/Reinvent-master-3.2/result/LINK_invent/BTK/process_docking_weight1_custom_product_contain_oxygen_bond_distance_aromatic_linkinvent_7_9_3/rearranged_h_0031.sdf

> <i_m_source_file_index>
60

> <r_mmod_Potential_Energy-OPLS-2005>
120.173141479492

> <r_mmod_Stretch_Energy-OPLS-2005>
183.239456176758

> <r_mmod_Bend_Energy-OPLS-2005>
261.440521240234

> <r_mmod_Torsional_Energy-OPLS-2005>
223.302703857422

> <r_mmod_Improper_Torsional_Energy-OPLS-2005>
7.47290277481079

> <r_mmod_Van_der_Waal_Energy-OPLS-2005>
137.79313659668

> <r_mmod_Electrostatic_Energy-OPLS-2005>
-315.216186523438

> <r_mmod_Solvation_Energy-OPLS-2005>
-504.657440185547

> <b_mmod_Minimization_Converged-OPLS-2005>
0

> <r_mmod_RMS_Derivative-OPLS-2005>
0.272357046604156

$$$$
60
                    3D
 Structure written by MMmdl.
161170  0  0  1  0            999 V2000
  -30.5631  -14.8439   20.4477 C   0  0  0  0  0  0
  -30.4507  -12.5162   19.5011 C   0  0  0  0  0  0
  -29.5242  -12.4906   18.2620 C   0  0  0  0  0  0
  -28.0570  -12.2961   18.6828 C   0  0  0  0  0  0
  -27.6430  -13.2275   19.8498 C   0  0  2  0  0  0
  -28.6807  -13.2019   20.9931 C   0  0  0  0  0  0
  -25.2530  -13.8189   20.5675 C   0  0  0  0  0  0
  -24.1805  -13.0452   20.9194 C   0  0  0  0  0  0
  -24.6376  -11.6931   20.8739 C   0  0  0  0  0  0
  -23.9052  -10.4308   21.0412 C   0  0  0  0  0  0
  -24.3614   -9.4210   21.9180 C   0  0  0  0  0  0
  -23.6288   -8.2258   22.0752 C   0  0  0  0  0  0
  -22.4259   -8.0300   21.3562 C   0  0  0  0  0  0
  -21.9879   -9.0268   20.4658 C   0  0  0  0  0  0
  -22.7223  -10.2140   20.3073 C   0  0  0  0  0  0
  -21.6858   -6.0734   22.5273 C   0  0  0  0  0  0
  -21.4005   -6.5629   23.8203 C   0  0  0  0  0  0
  -21.3661   -5.6765   24.9162 C   0  0  0  0  0  0
  -21.6055   -4.3037   24.7201 C   0  0  0  0  0  0
  -21.8828   -3.8142   23.4322 C   0  0  0  0  0  0
  -21.9192   -4.6963   22.3385 C   0  0  0  0  0  0
  -22.7836  -13.5259   21.1837 C   0  0  0  0  0  0
  -22.1681   -4.2157   21.0959 F   0  0  0  0  0  0
  -21.5618   -3.4518   25.7715 F   0  0  0  0  0  0
  -29.9754  -13.5899   20.4137 N   0  0  0  0  0  0
  -26.2924  -12.9385   20.3246 N   0  0  0  0  0  0
  -25.9308  -11.6532   20.5743 N   0  0  0  0  0  0
  -22.0484  -12.8276   22.0409 N   0  0  0  0  0  0
  -25.4240  -15.1908   20.4084 N   0  0  0  0  0  0
  -31.7451  -14.9517   20.1023 O   0  0  0  0  0  0
  -21.6639   -6.8892   21.4249 O   0  0  0  0  0  0
  -22.3535  -14.5581   20.6688 O   0  0  0  0  0  0
  -24.6416  -31.8465   23.1906 C   0  0  0  0  0  0
  -25.9197  -32.4705   23.8291 C   0  0  1  0  0  0
  -27.2133  -27.1594   20.1777 C   0  0  0  0  0  0
  -25.5955  -33.8510   24.2200 N   0  0  0  0  0  0
  -23.4476  -30.4677   21.5321 C   0  0  2  0  0  0
  -24.9033  -28.9030   20.1094 C   0  0  0  0  0  0
  -22.7576  -29.4559   22.4822 C   0  0  0  0  0  0
  -18.0321  -28.1423   22.8461 C   0  0  0  0  0  0
  -24.1497  -36.7267   23.2634 C   0  0  0  0  0  0
  -26.0032  -30.7279   21.3930 C   0  0  0  0  0  0
  -26.0785  -29.3421   20.7374 C   0  0  0  0  0  0
  -27.2426  -28.4870   20.7558 C   0  0  0  0  0  0
  -26.0262  -26.8232   19.4948 C   0  0  0  0  0  0
  -24.8909  -27.6558   19.4685 C   0  0  0  0  0  0
  -23.6793  -29.8037   20.1496 C   0  0  0  0  0  0
  -25.4123  -36.3032   24.0308 C   0  0  1  0  0  0
  -20.5930  -28.3747   23.1224 C   0  0  2  0  0  0
  -20.6809  -26.9443   22.5413 C   0  0  0  0  0  0
  -19.5790  -26.6402   21.5214 C   0  0  0  0  0  0
  -18.1962  -26.7959   22.1606 C   0  0  0  0  0  0
  -19.1573  -28.8903   23.2840 C   0  0  0  0  0  0
  -18.9489  -30.1488   23.8884 C   0  0  0  0  0  0
  -17.6482  -30.6595   24.0581 C   0  0  0  0  0  0
  -25.9074  -34.9408   23.5058 C   0  0  0  0  0  0
  -16.5378  -29.9097   23.6339 C   0  0  0  0  0  0
  -16.7301  -28.6527   23.0336 C   0  0  0  0  0  0
  -26.4532  -31.6572   25.0726 C   0  0  0  0  0  0
  -25.3735  -31.3830   26.1455 C   0  0  0  0  0  0
  -27.0344  -30.2923   24.6344 C   0  0  0  0  0  0
  -27.6084  -32.4343   25.7465 C   0  0  0  0  0  0
  -27.5595  -37.1765   24.8448 C   0  0  0  0  0  0
  -21.4267  -29.3057   22.3568 N   0  0  0  0  0  0
  -26.4285  -37.3747   23.9418 N   0  0  0  0  0  0
  -24.7162  -31.0357   22.0929 N   0  0  0  0  0  0
  -23.4218  -28.8117   23.2977 O   0  0  0  0  0  0
  -28.2036  -26.1209   20.2085 O   0  0  0  0  0  0
  -26.5660  -34.8900   22.4630 O   0  0  0  0  0  0
  -23.5536  -32.1326   23.7135 O   0  0  0  0  0  0
  -28.0944  -25.0271   21.2281 C   0  0  0  0  0  0
  -27.7396  -18.9845   23.1749 C   0  0  0  0  0  0
  -28.4067  -20.3720   23.3299 C   0  0  0  0  0  0
  -27.9297  -18.3534   21.7716 C   0  0  0  0  0  0
  -29.0030  -21.2630   19.7009 C   0  0  0  0  0  0
  -29.0495  -22.9029   19.7709 C   0  0  0  0  0  0
  -28.5986  -22.7012   22.1854 C   0  0  0  0  0  0
  -28.4187  -21.1360   21.9949 C   0  0  1  0  0  0
  -29.3731  -20.4018   20.9836 C   0  0  1  0  0  0
  -29.3060  -18.7164   21.1785 C   0  0  2  0  0  0
  -29.9471  -17.4878   20.2714 C   0  0  0  0  0  0
  -28.5396  -23.6233   20.9947 N   0  0  0  0  0  0
  -29.7646  -15.9806   20.6567 N   0  0  0  0  0  0
  -27.6127  -25.3458   22.3199 O   0  0  0  0  0  0
  -31.4838  -12.6686   19.1879 H   0  0  0  0  0  0
  -30.4463  -11.5533   20.0144 H   0  0  0  0  0  0
  -29.8221  -11.6865   17.5878 H   0  0  0  0  0  0
  -29.6294  -13.4189   17.6985 H   0  0  0  0  0  0
  -27.9400  -11.2546   18.9879 H   0  0  0  0  0  0
  -27.3981  -12.4342   17.8273 H   0  0  0  0  0  0
  -27.6319  -14.2365   19.4367 H   0  0  0  0  0  0
  -28.7342  -12.2110   21.4451 H   0  0  0  0  0  0
  -28.3916  -13.8829   21.7932 H   0  0  0  0  0  0
  -25.2775   -9.5653   22.4745 H   0  0  0  0  0  0
  -23.9989   -7.4623   22.7456 H   0  0  0  0  0  0
  -21.0806   -8.8802   19.8965 H   0  0  0  0  0  0
  -22.3695  -10.9683   19.6187 H   0  0  0  0  0  0
  -21.2004   -7.6132   23.9709 H   0  0  0  0  0  0
  -21.1476   -6.0488   25.9055 H   0  0  0  0  0  0
  -22.0605   -2.7605   23.2813 H   0  0  0  0  0  0
  -22.4131  -11.9959   22.4818 H   0  0  0  0  0  0
  -21.1130  -13.1349   22.2680 H   0  0  0  0  0  0
  -24.6525  -15.8380   20.5260 H   0  0  0  0  0  0
  -26.2464  -15.6235   20.0117 H   0  0  0  0  0  0
  -26.7263  -32.5326   23.1024 H   0  0  0  0  0  0
  -25.0076  -33.9628   25.0332 H   0  0  0  0  0  0
  -22.7493  -31.2928   21.3797 H   0  0  0  0  0  0
  -23.3752  -35.9609   23.3283 H   0  0  0  0  0  0
  -24.3592  -36.8912   22.2055 H   0  0  0  0  0  0
  -23.7275  -37.6462   23.6685 H   0  0  0  0  0  0
  -26.1669  -31.4863   20.6263 H   0  0  0  0  0  0
  -26.8697  -30.7715   22.0406 H   0  0  0  0  0  0
  -28.1370  -28.8146   21.2672 H   0  0  0  0  0  0
  -25.9596  -25.8573   19.0125 H   0  0  0  0  0  0
  -23.9997  -27.3177   18.9581 H   0  0  0  0  0  0
  -23.8206  -30.5836   19.4003 H   0  0  0  0  0  0
  -22.7955  -29.2490   19.8294 H   0  0  0  0  0  0
  -25.1308  -36.1843   25.0799 H   0  0  0  0  0  0
  -21.0033  -28.3369   24.1341 H   0  0  0  0  0  0
  -20.5707  -26.2362   23.3639 H   0  0  0  0  0  0
  -21.6680  -26.7453   22.1220 H   0  0  0  0  0  0
  -19.6958  -25.6309   21.1256 H   0  0  0  0  0  0
  -19.6735  -27.3204   20.6740 H   0  0  0  0  0  0
  -17.4235  -26.6706   21.4004 H   0  0  0  0  0  0
  -18.0347  -26.0113   22.9010 H   0  0  0  0  0  0
  -19.7963  -30.7315   24.2242 H   0  0  0  0  0  0
  -17.5034  -31.6261   24.5212 H   0  0  0  0  0  0
  -15.5374  -30.2997   23.7677 H   0  0  0  0  0  0
  -15.8700  -28.0852   22.7040 H   0  0  0  0  0  0
  -24.5879  -30.7189   25.7834 H   0  0  0  0  0  0
  -24.8972  -32.3049   26.4800 H   0  0  0  0  0  0
  -25.8034  -30.9076   27.0279 H   0  0  0  0  0  0
  -26.2930  -29.6666   24.1356 H   0  0  0  0  0  0
  -27.3889  -29.7223   25.4945 H   0  0  0  0  0  0
  -27.8899  -30.4074   23.9685 H   0  0  0  0  0  0
  -27.2657  -33.3613   26.2070 H   0  0  0  0  0  0
  -28.3844  -32.6967   25.0263 H   0  0  0  0  0  0
  -28.0824  -31.8485   26.5349 H   0  0  0  0  0  0
  -28.2590  -38.0080   24.7498 H   0  0  0  0  0  0
  -28.1104  -36.2612   24.6232 H   0  0  0  0  0  0
  -27.2332  -37.1376   25.8854 H   0  0  0  0  0  0
  -20.9477  -29.8722   21.6704 H   0  0  0  0  0  0
  -26.0148  -38.2799   24.1466 H   0  0  0  0  0  0
  -26.6725  -19.0618   23.3906 H   0  0  0  0  0  0
  -28.1490  -18.3176   23.9359 H   0  0  0  0  0  0
  -29.4332  -20.2512   23.6826 H   0  0  0  0  0  0
  -27.8969  -20.9362   24.1117 H   0  0  0  0  0  0
  -27.1435  -18.6932   21.0947 H   0  0  0  0  0  0
  -27.7894  -17.2755   21.8567 H   0  0  0  0  0  0
  -29.6420  -20.9403   18.8782 H   0  0  0  0  0  0
  -27.9996  -20.9728   19.3886 H   0  0  0  0  0  0
  -28.5286  -23.3007   18.8996 H   0  0  0  0  0  0
  -30.0886  -23.2097   19.6519 H   0  0  0  0  0  0
  -29.5278  -22.8959   22.7209 H   0  0  0  0  0  0
  -27.8057  -22.9938   22.8764 H   0  0  0  0  0  0
  -27.4013  -21.0323   21.6135 H   0  0  0  0  0  0
  -30.4026  -20.6714   21.2254 H   0  0  0  0  0  0
  -29.9644  -18.5892   22.0394 H   0  0  0  0  0  0
  -31.0159  -17.6668   20.1590 H   0  0  0  0  0  0
  -29.5353  -17.5835   19.2670 H   0  0  0  0  0  0
  -28.8290  -15.7426   20.9520 H   0  0  0  0  0  0
  1 25  1  0  0  0
  1 30  2  0  0  0
  1 83  1  0  0  0
  2  3  1  0  0  0
  2 25  1  0  0  0
  2 85  1  0  0  0
  2 86  1  0  0  0
  3  4  1  0  0  0
  3 87  1  0  0  0
  3 88  1  0  0  0
  4  5  1  0  0  0
  4 89  1  0  0  0
  4 90  1  0  0  0
  5  6  1  0  0  0
  5 26  1  0  0  0
  5 91  1  0  0  0
  6 25  1  0  0  0
  6 92  1  0  0  0
  6 93  1  0  0  0
  7  8  2  0  0  0
  7 26  1  0  0  0
  7 29  1  0  0  0
  8  9  1  0  0  0
  8 22  1  0  0  0
  9 10  1  0  0  0
  9 27  2  0  0  0
 10 11  2  0  0  0
 10 15  1  0  0  0
 11 12  1  0  0  0
 11 94  1  0  0  0
 12 13  2  0  0  0
 12 95  1  0  0  0
 13 14  1  0  0  0
 13 31  1  0  0  0
 14 15  2  0  0  0
 14 96  1  0  0  0
 15 97  1  0  0  0
 16 17  2  0  0  0
 16 21  1  0  0  0
 16 31  1  0  0  0
 17 18  1  0  0  0
 17 98  1  0  0  0
 18 19  2  0  0  0
 18 99  1  0  0  0
 19 20  1  0  0  0
 19 24  1  0  0  0
 20 21  2  0  0  0
 20100  1  0  0  0
 21 23  1  0  0  0
 22 28  1  0  0  0
 22 32  2  0  0  0
 26 27  1  0  0  0
 28101  1  0  0  0
 28102  1  0  0  0
 29103  1  0  0  0
 29104  1  0  0  0
 33 34  1  0  0  0
 33 66  1  0  0  0
 33 70  2  0  0  0
 34 36  1  0  0  0
 34 59  1  0  0  0
 34105  1  0  0  0
 35 44  2  0  0  0
 35 45  1  0  0  0
 35 68  1  0  0  0
 36 56  1  0  0  0
 36106  1  0  0  0
 37 39  1  0  0  0
 37 47  1  0  0  0
 37 66  1  0  0  0
 37107  1  0  0  0
 38 43  2  0  0  0
 38 46  1  0  0  0
 38 47  1  0  0  0
 39 64  1  0  0  0
 39 67  2  0  0  0
 40 52  1  0  0  0
 40 53  2  0  0  0
 40 58  1  0  0  0
 41108  1  0  0  0
 41109  1  0  0  0
 41110  1  0  0  0
 41 48  1  0  0  0
 42 43  1  0  0  0
 42 66  1  0  0  0
 42111  1  0  0  0
 42112  1  0  0  0
 43 44  1  0  0  0
 44113  1  0  0  0
 45 46  2  0  0  0
 45114  1  0  0  0
 46115  1  0  0  0
 47116  1  0  0  0
 47117  1  0  0  0
 48 56  1  0  0  0
 48 65  1  0  0  0
 48118  1  0  0  0
 49 50  1  0  0  0
 49 53  1  0  0  0
 49 64  1  0  0  0
 49119  1  0  0  0
 50 51  1  0  0  0
 50120  1  0  0  0
 50121  1  0  0  0
 51 52  1  0  0  0
 51122  1  0  0  0
 51123  1  0  0  0
 52124  1  0  0  0
 52125  1  0  0  0
 53 54  1  0  0  0
 54 55  2  0  0  0
 54126  1  0  0  0
 55 57  1  0  0  0
 55127  1  0  0  0
 56 69  2  0  0  0
 57 58  2  0  0  0
 57128  1  0  0  0
 58129  1  0  0  0
 59 60  1  0  0  0
 59 61  1  0  0  0
 59 62  1  0  0  0
 60130  1  0  0  0
 60131  1  0  0  0
 60132  1  0  0  0
 61133  1  0  0  0
 61134  1  0  0  0
 61135  1  0  0  0
 62136  1  0  0  0
 62137  1  0  0  0
 62138  1  0  0  0
 63 65  1  0  0  0
 63139  1  0  0  0
 63140  1  0  0  0
 63141  1  0  0  0
 64142  1  0  0  0
 65143  1  0  0  0
 68 71  1  0  0  0
 71 82  1  0  0  0
 71 84  2  0  0  0
 72 73  1  0  0  0
 72 74  1  0  0  0
 72144  1  0  0  0
 72145  1  0  0  0
 73146  1  0  0  0
 73147  1  0  0  0
 73 78  1  0  0  0
 74 80  1  0  0  0
 74148  1  0  0  0
 74149  1  0  0  0
 75 76  1  0  0  0
 75150  1  0  0  0
 75151  1  0  0  0
 75 79  1  0  0  0
 76 82  1  0  0  0
 76152  1  0  0  0
 76153  1  0  0  0
 77 78  1  0  0  0
 77 82  1  0  0  0
 77154  1  0  0  0
 77155  1  0  0  0
 78 79  1  0  0  0
 78156  1  0  0  0
 79 80  1  0  0  0
 79157  1  0  0  0
 80 81  1  0  0  0
 80158  1  0  0  0
 81 83  1  0  0  0
 81159  1  0  0  0
 81160  1  0  0  0
 83161  1  0  0  0
M  ISO  4   1 100  68 101  71 101  83 100
M  END
> <chiral flag>
0

> <version>
0

> <s_m_source_file>
/data/baiqing/PycharmProjects/Reinvent-master-3.2/result/LINK_invent/BTK/process_docking_weight1_custom_product_contain_oxygen_bond_distance_aromatic_linkinvent_7_9_3/rearranged_h_0031.sdf

> <i_m_source_file_index>
61

> <r_mmod_Potential_Energy-OPLS-2005>
578.186462402344

> <r_mmod_Stretch_Energy-OPLS-2005>
218.786407470703

> <r_mmod_Bend_Energy-OPLS-2005>
308.267425537109

> <r_mmod_Torsional_Energy-OPLS-2005>
332.489501953125

> <r_mmod_Improper_Torsional_Energy-OPLS-2005>
5.53278732299805

> <r_mmod_Van_der_Waal_Energy-OPLS-2005>
128.920654296875

> <r_mmod_Electrostatic_Energy-OPLS-2005>
-351.355285644531

> <r_mmod_Solvation_Energy-OPLS-2005>
-222.909271240234

> <b_mmod_Minimization_Converged-OPLS-2005>
0

> <r_mmod_RMS_Derivative-OPLS-2005>
3.69210457801819

$$$$
61
                    3D
 Structure written by MMmdl.
173182  0  0  1  0            999 V2000
  -30.5967  -14.6736   20.4867 C   0  0  0  0  0  0
  -30.4440  -12.4104   19.4555 C   0  0  0  0  0  0
  -29.5140  -12.5140   18.2258 C   0  0  0  0  0  0
  -28.0363  -12.3435   18.6345 C   0  0  0  0  0  0
  -27.6528  -13.2097   19.8633 C   0  0  2  0  0  0
  -28.6967  -13.0776   20.9943 C   0  0  0  0  0  0
  -25.2578  -13.8149   20.5701 C   0  0  0  0  0  0
  -24.1837  -13.0434   20.9200 C   0  0  0  0  0  0
  -24.6385  -11.6904   20.8737 C   0  0  0  0  0  0
  -23.9051  -10.4307   21.0408 C   0  0  0  0  0  0
  -24.3614   -9.4228   21.9186 C   0  0  0  0  0  0
  -23.6303   -8.2259   22.0747 C   0  0  0  0  0  0
  -22.4283   -8.0285   21.3549 C   0  0  0  0  0  0
  -21.9916   -9.0257   20.4653 C   0  0  0  0  0  0
  -22.7227  -10.2144   20.3061 C   0  0  0  0  0  0
  -21.6862   -6.0736   22.5285 C   0  0  0  0  0  0
  -21.4009   -6.5635   23.8216 C   0  0  0  0  0  0
  -21.3667   -5.6775   24.9184 C   0  0  0  0  0  0
  -21.6046   -4.3043   24.7224 C   0  0  0  0  0  0
  -21.8825   -3.8143   23.4338 C   0  0  0  0  0  0
  -21.9210   -4.6967   22.3407 C   0  0  0  0  0  0
  -22.7865  -13.5257   21.1856 C   0  0  0  0  0  0
  -22.1678   -4.2166   21.0986 F   0  0  0  0  0  0
  -21.5657   -3.4522   25.7727 F   0  0  0  0  0  0
  -30.0078  -13.4345   20.4275 N   0  0  0  0  0  0
  -26.2986  -12.9307   20.3304 N   0  0  0  0  0  0
  -25.9301  -11.6470   20.5721 N   0  0  0  0  0  0
  -22.0481  -12.8278   22.0418 N   0  0  0  0  0  0
  -25.4290  -15.1869   20.4148 N   0  0  0  0  0  0
  -31.7648  -14.8468   20.1274 O   0  0  0  0  0  0
  -21.6647   -6.8877   21.4244 O   0  0  0  0  0  0
  -22.3568  -14.5566   20.6696 O   0  0  0  0  0  0
  -24.6249  -31.8595   23.2002 C   0  0  0  0  0  0
  -25.9101  -32.4774   23.8335 C   0  0  1  0  0  0
  -27.2289  -27.3323   20.1200 C   0  0  0  0  0  0
  -25.5916  -33.8570   24.2271 N   0  0  0  0  0  0
  -23.4177  -30.4804   21.5426 C   0  0  2  0  0  0
  -24.8652  -28.9263   20.1174 C   0  0  0  0  0  0
  -22.7460  -29.4619   22.4939 C   0  0  0  0  0  0
  -18.0285  -28.1375   22.8484 C   0  0  0  0  0  0
  -24.1487  -36.7292   23.2635 C   0  0  0  0  0  0
  -25.9556  -30.7957   21.3658 C   0  0  0  0  0  0
  -26.0324  -29.4204   20.7140 C   0  0  0  0  0  0
  -27.2213  -28.6363   20.6999 C   0  0  0  0  0  0
  -26.0413  -26.8724   19.5189 C   0  0  0  0  0  0
  -24.8700  -27.6569   19.5124 C   0  0  0  0  0  0
  -23.6329  -29.8070   20.1609 C   0  0  0  0  0  0
  -25.4112  -36.3082   24.0330 C   0  0  1  0  0  0
  -20.5877  -28.3682   23.1288 C   0  0  2  0  0  0
  -20.6768  -26.9404   22.5411 C   0  0  0  0  0  0
  -19.5754  -26.6382   21.5202 C   0  0  0  0  0  0
  -18.1928  -26.7921   22.1614 C   0  0  0  0  0  0
  -19.1534  -28.8843   23.2880 C   0  0  0  0  0  0
  -18.9459  -30.1446   23.8903 C   0  0  0  0  0  0
  -17.6459  -30.6581   24.0560 C   0  0  0  0  0  0
  -25.9049  -34.9454   23.5106 C   0  0  0  0  0  0
  -16.5350  -29.9084   23.6321 C   0  0  0  0  0  0
  -16.7270  -28.6494   23.0346 C   0  0  0  0  0  0
  -26.4496  -31.6577   25.0701 C   0  0  0  0  0  0
  -25.3735  -31.3720   26.1433 C   0  0  0  0  0  0
  -27.0334  -30.3006   24.6127 C   0  0  0  0  0  0
  -27.6054  -32.4308   25.7476 C   0  0  0  0  0  0
  -27.5585  -37.1796   24.8456 C   0  0  0  0  0  0
  -21.4171  -29.3044   22.3685 N   0  0  0  0  0  0
  -26.4286  -37.3783   23.9413 N   0  0  0  0  0  0
  -24.6845  -31.0622   22.0936 N   0  0  0  0  0  0
  -23.4190  -28.8165   23.3012 O   0  0  0  0  0  0
  -28.3646  -26.5231   20.0841 O   0  0  0  0  0  0
  -26.5617  -34.8920   22.4670 O   0  0  0  0  0  0
  -23.5420  -32.1380   23.7347 O   0  0  0  0  0  0
  -30.5154  -18.0854   21.3142 C   0  0  0  0  0  0
  -28.9006  -19.1257   19.3182 C   0  0  0  0  0  0
  -30.4379  -19.5096   21.1228 C   0  0  0  0  0  0
  -29.6101  -20.0899   20.0916 C   0  0  0  0  0  0
  -29.8127  -17.1471   20.5137 C   0  0  0  0  0  0
  -28.9841  -17.7166   19.5134 C   0  0  0  0  0  0
  -30.1828  -23.6364   20.9460 C   0  0  0  0  0  0
  -29.6569  -24.9771   21.4499 C   0  0  0  0  0  0
  -28.1982  -23.8572   19.8972 C   0  0  0  0  0  0
  -28.3243  -25.1966   20.7318 C   0  0  2  0  0  0
  -34.3375  -20.1058   19.8545 C   0  0  0  0  0  0
  -33.3856  -22.1160   23.4406 C   0  0  0  0  0  0
  -29.5404  -21.6039   19.5635 C   0  0  0  0  0  0
  -31.2838  -20.3341   22.0875 C   0  0  0  0  0  0
  -33.1643  -20.8632   20.4946 C   0  0  0  0  0  0
  -33.5959  -20.6692   22.9485 C   0  0  0  0  0  0
  -29.2517  -22.8830   20.3339 N   0  0  0  0  0  0
  -29.7636  -15.7121   20.8192 N   0  0  0  0  0  0
  -32.7429  -20.2699   21.7936 N   0  3  0  0  0  0
  -31.3726  -23.3432   21.0627 O   0  0  0  0  0  0
  -28.0429  -16.6991   18.4835 Cl  0  0  0  0  0  0
  -31.4845  -12.5469   19.1550 H   0  0  0  0  0  0
  -30.3859  -11.4133   19.8974 H   0  0  0  0  0  0
  -29.7842  -11.7630   17.4812 H   0  0  0  0  0  0
  -29.6517  -13.4829   17.7442 H   0  0  0  0  0  0
  -27.8756  -11.2897   18.8628 H   0  0  0  0  0  0
  -27.3852  -12.5763   17.7914 H   0  0  0  0  0  0
  -27.6659  -14.2399   19.5192 H   0  0  0  0  0  0
  -28.7200  -12.0570   21.3790 H   0  0  0  0  0  0
  -28.4333  -13.7076   21.8460 H   0  0  0  0  0  0
  -25.2748   -9.5733   22.4764 H   0  0  0  0  0  0
  -24.0049   -7.4658   22.7447 H   0  0  0  0  0  0
  -21.0864   -8.8766   19.8951 H   0  0  0  0  0  0
  -22.3677  -10.9692   19.6185 H   0  0  0  0  0  0
  -21.1967   -7.6125   23.9725 H   0  0  0  0  0  0
  -21.1488   -6.0497   25.9088 H   0  0  0  0  0  0
  -22.0593   -2.7603   23.2830 H   0  0  0  0  0  0
  -22.4054  -11.9945   22.4840 H   0  0  0  0  0  0
  -21.1104  -13.1354   22.2590 H   0  0  0  0  0  0
  -24.6510  -15.8292   20.5133 H   0  0  0  0  0  0
  -26.2537  -15.6253   20.0256 H   0  0  0  0  0  0
  -26.7160  -32.5452   23.1077 H   0  0  0  0  0  0
  -25.0064  -33.9713   25.0418 H   0  0  0  0  0  0
  -22.7107  -31.2996   21.3963 H   0  0  0  0  0  0
  -23.3752  -35.9617   23.3285 H   0  0  0  0  0  0
  -24.3585  -36.8924   22.2050 H   0  0  0  0  0  0
  -23.7230  -37.6488   23.6664 H   0  0  0  0  0  0
  -26.0792  -31.5572   20.5944 H   0  0  0  0  0  0
  -26.8383  -30.8505   21.9914 H   0  0  0  0  0  0
  -28.1252  -29.0188   21.1528 H   0  0  0  0  0  0
  -26.0217  -25.8983   19.0502 H   0  0  0  0  0  0
  -23.9737  -27.2721   19.0460 H   0  0  0  0  0  0
  -23.7521  -30.5785   19.3995 H   0  0  0  0  0  0
  -22.7534  -29.2350   19.8612 H   0  0  0  0  0  0
  -25.1284  -36.1928   25.0824 H   0  0  0  0  0  0
  -20.9972  -28.3249   24.1407 H   0  0  0  0  0  0
  -20.5650  -26.2287   23.3605 H   0  0  0  0  0  0
  -21.6640  -26.7421   22.1220 H   0  0  0  0  0  0
  -19.6913  -25.6295   21.1228 H   0  0  0  0  0  0
  -19.6689  -27.3191   20.6730 H   0  0  0  0  0  0
  -17.4194  -26.6658   21.4016 H   0  0  0  0  0  0
  -18.0336  -26.0061   22.9013 H   0  0  0  0  0  0
  -19.7937  -30.7250   24.2272 H   0  0  0  0  0  0
  -17.5022  -31.6262   24.5161 H   0  0  0  0  0  0
  -15.5353  -30.2987   23.7649 H   0  0  0  0  0  0
  -15.8668  -28.0819   22.7062 H   0  0  0  0  0  0
  -24.5892  -30.7087   25.7764 H   0  0  0  0  0  0
  -24.8950  -32.2895   26.4871 H   0  0  0  0  0  0
  -25.8069  -30.8881   27.0196 H   0  0  0  0  0  0
  -26.2898  -29.6759   24.1161 H   0  0  0  0  0  0
  -27.4056  -29.7255   25.4615 H   0  0  0  0  0  0
  -27.8757  -30.4299   23.9325 H   0  0  0  0  0  0
  -27.2661  -33.3608   26.2050 H   0  0  0  0  0  0
  -28.3875  -32.6863   25.0315 H   0  0  0  0  0  0
  -28.0706  -31.8430   26.5399 H   0  0  0  0  0  0
  -28.2573  -38.0121   24.7539 H   0  0  0  0  0  0
  -28.1107  -36.2652   24.6225 H   0  0  0  0  0  0
  -27.2312  -37.1384   25.8862 H   0  0  0  0  0  0
  -20.9340  -29.8775   21.6911 H   0  0  0  0  0  0
  -26.0163  -38.2852   24.1431 H   0  0  0  0  0  0
  -31.1173  -17.6953   22.1237 H   0  0  0  0  0  0
  -28.2738  -19.4644   18.5059 H   0  0  0  0  0  0
  -30.3800  -25.7622   21.2289 H   0  0  0  0  0  0
  -29.5211  -24.9360   22.5305 H   0  0  0  0  0  0
  -28.3242  -24.0707   18.8351 H   0  0  0  0  0  0
  -27.2071  -23.4181   20.0182 H   0  0  0  0  0  0
  -27.5349  -25.2031   21.4860 H   0  0  0  0  0  0
  -34.6112  -20.5682   18.9053 H   0  0  0  0  0  0
  -34.0736  -19.0691   19.6440 H   0  0  0  0  0  0
  -35.2274  -20.1105   20.4836 H   0  0  0  0  0  0
  -34.0817  -22.3422   24.2487 H   0  0  0  0  0  0
  -32.3822  -22.2724   23.8345 H   0  0  0  0  0  0
  -33.5595  -22.8536   22.6585 H   0  0  0  0  0  0
  -28.7941  -21.6075   18.7682 H   0  0  0  0  0  0
  -30.4657  -21.7724   19.0140 H   0  0  0  0  0  0
  -31.1211  -19.9115   23.0809 H   0  0  0  0  0  0
  -30.9053  -21.3395   22.1815 H   0  0  0  0  0  0
  -32.3438  -20.8374   19.7819 H   0  0  0  0  0  0
  -33.4254  -21.9133   20.6092 H   0  0  0  0  0  0
  -33.4053  -19.9850   23.7761 H   0  0  0  0  0  0
  -34.6447  -20.5251   22.6932 H   0  0  0  0  0  0
  -28.8410  -15.3837   21.0562 H   0  0  0  0  0  0
  -32.9151  -19.2828   21.6817 H   0  0  0  0  0  0
  1 25  1  0  0  0
  1 30  2  0  0  0
  1 88  1  0  0  0
  2  3  1  0  0  0
  2 25  1  0  0  0
  2 92  1  0  0  0
  2 93  1  0  0  0
  3  4  1  0  0  0
  3 94  1  0  0  0
  3 95  1  0  0  0
  4  5  1  0  0  0
  4 96  1  0  0  0
  4 97  1  0  0  0
  5  6  1  0  0  0
  5 26  1  0  0  0
  5 98  1  0  0  0
  6 25  1  0  0  0
  6 99  1  0  0  0
  6100  1  0  0  0
  7  8  2  0  0  0
  7 26  1  0  0  0
  7 29  1  0  0  0
  8  9  1  0  0  0
  8 22  1  0  0  0
  9 10  1  0  0  0
  9 27  2  0  0  0
 10 11  2  0  0  0
 10 15  1  0  0  0
 11 12  1  0  0  0
 11101  1  0  0  0
 12 13  2  0  0  0
 12102  1  0  0  0
 13 14  1  0  0  0
 13 31  1  0  0  0
 14 15  2  0  0  0
 14103  1  0  0  0
 15104  1  0  0  0
 16 17  2  0  0  0
 16 21  1  0  0  0
 16 31  1  0  0  0
 17 18  1  0  0  0
 17105  1  0  0  0
 18 19  2  0  0  0
 18106  1  0  0  0
 19 20  1  0  0  0
 19 24  1  0  0  0
 20 21  2  0  0  0
 20107  1  0  0  0
 21 23  1  0  0  0
 22 28  1  0  0  0
 22 32  2  0  0  0
 26 27  1  0  0  0
 28108  1  0  0  0
 28109  1  0  0  0
 29110  1  0  0  0
 29111  1  0  0  0
 33 34  1  0  0  0
 33 66  1  0  0  0
 33 70  2  0  0  0
 34 36  1  0  0  0
 34 59  1  0  0  0
 34112  1  0  0  0
 35 44  2  0  0  0
 35 45  1  0  0  0
 35 68  1  0  0  0
 36 56  1  0  0  0
 36113  1  0  0  0
 37 39  1  0  0  0
 37 47  1  0  0  0
 37 66  1  0  0  0
 37114  1  0  0  0
 38 43  2  0  0  0
 38 46  1  0  0  0
 38 47  1  0  0  0
 39 64  1  0  0  0
 39 67  2  0  0  0
 40 52  1  0  0  0
 40 53  2  0  0  0
 40 58  1  0  0  0
 41115  1  0  0  0
 41116  1  0  0  0
 41117  1  0  0  0
 41 48  1  0  0  0
 42 43  1  0  0  0
 42 66  1  0  0  0
 42118  1  0  0  0
 42119  1  0  0  0
 43 44  1  0  0  0
 44120  1  0  0  0
 45 46  2  0  0  0
 45121  1  0  0  0
 46122  1  0  0  0
 47123  1  0  0  0
 47124  1  0  0  0
 48 56  1  0  0  0
 48 65  1  0  0  0
 48125  1  0  0  0
 49 50  1  0  0  0
 49 53  1  0  0  0
 49 64  1  0  0  0
 49126  1  0  0  0
 50 51  1  0  0  0
 50127  1  0  0  0
 50128  1  0  0  0
 51 52  1  0  0  0
 51129  1  0  0  0
 51130  1  0  0  0
 52131  1  0  0  0
 52132  1  0  0  0
 53 54  1  0  0  0
 54 55  2  0  0  0
 54133  1  0  0  0
 55 57  1  0  0  0
 55134  1  0  0  0
 56 69  2  0  0  0
 57 58  2  0  0  0
 57135  1  0  0  0
 58136  1  0  0  0
 59 60  1  0  0  0
 59 61  1  0  0  0
 59 62  1  0  0  0
 60137  1  0  0  0
 60138  1  0  0  0
 60139  1  0  0  0
 61140  1  0  0  0
 61141  1  0  0  0
 61142  1  0  0  0
 62143  1  0  0  0
 62144  1  0  0  0
 62145  1  0  0  0
 63 65  1  0  0  0
 63146  1  0  0  0
 63147  1  0  0  0
 63148  1  0  0  0
 64149  1  0  0  0
 65150  1  0  0  0
 68 80  1  0  0  0
 71 73  2  0  0  0
 71 75  1  0  0  0
 71151  1  0  0  0
 72 74  2  0  0  0
 72 76  1  0  0  0
 72152  1  0  0  0
 73 74  1  0  0  0
 73 84  1  0  0  0
 74 83  1  0  0  0
 75 76  2  0  0  0
 75 88  1  0  0  0
 76 91  1  0  0  0
 77 78  1  0  0  0
 77 87  1  0  0  0
 77 90  2  0  0  0
 78 80  1  0  0  0
 78153  1  0  0  0
 78154  1  0  0  0
 79 80  1  0  0  0
 79 87  1  0  0  0
 79155  1  0  0  0
 79156  1  0  0  0
 80157  1  0  0  0
 81 85  1  0  0  0
 81158  1  0  0  0
 81159  1  0  0  0
 81160  1  0  0  0
 82 86  1  0  0  0
 82161  1  0  0  0
 82162  1  0  0  0
 82163  1  0  0  0
 83 87  1  0  0  0
 83164  1  0  0  0
 83165  1  0  0  0
 84166  1  0  0  0
 84167  1  0  0  0
 84 89  1  0  0  0
 85 89  1  0  0  0
 85168  1  0  0  0
 85169  1  0  0  0
 86 89  1  0  0  0
 86170  1  0  0  0
 86171  1  0  0  0
 88172  1  0  0  0
 89173  1  0  0  0
M  CHG  1  89   1
M  ISO  4   1 100  68 101  80 101  88 100
M  END
> <chiral flag>
0

> <version>
0

> <s_m_source_file>
/data/baiqing/PycharmProjects/Reinvent-master-3.2/result/LINK_invent/BTK/process_docking_weight1_custom_product_contain_oxygen_bond_distance_aromatic_linkinvent_7_9_3/rearranged_h_0031.sdf

> <i_m_source_file_index>
62

> <r_mmod_Potential_Energy-OPLS-2005>
10.3839673995972

> <r_mmod_Stretch_Energy-OPLS-2005>
90.5162734985352

> <r_mmod_Bend_Energy-OPLS-2005>
212.213287353516

> <r_mmod_Torsional_Energy-OPLS-2005>
305.401885986328

> <r_mmod_Improper_Torsional_Energy-OPLS-2005>
9.48765182495117

> <r_mmod_Van_der_Waal_Energy-OPLS-2005>
125.87606048584

> <r_mmod_Electrostatic_Energy-OPLS-2005>
-362.017608642578

> <r_mmod_Solvation_Energy-OPLS-2005>
-420.759979248047

> <b_mmod_Minimization_Converged-OPLS-2005>
0

> <r_mmod_RMS_Derivative-OPLS-2005>
2.1909396648407

$$$$
62
                    3D
 Structure written by MMmdl.
163172  0  0  1  0            999 V2000
  -30.5862  -14.7368   20.4387 C   0  0  0  0  0  0
  -30.4245  -12.4449   19.4711 C   0  0  0  0  0  0
  -29.5058  -12.5317   18.2308 C   0  0  0  0  0  0
  -28.0286  -12.3628   18.6372 C   0  0  0  0  0  0
  -27.6424  -13.2354   19.8625 C   0  0  2  0  0  0
  -28.6856  -13.1375   20.9973 C   0  0  0  0  0  0
  -25.2492  -13.8214   20.5698 C   0  0  0  0  0  0
  -24.1779  -13.0464   20.9180 C   0  0  0  0  0  0
  -24.6362  -11.6941   20.8702 C   0  0  0  0  0  0
  -23.9052  -10.4307   21.0391 C   0  0  0  0  0  0
  -24.3604   -9.4219   21.9171 C   0  0  0  0  0  0
  -23.6290   -8.2254   22.0775 C   0  0  0  0  0  0
  -22.4263   -8.0298   21.3585 C   0  0  0  0  0  0
  -21.9897   -9.0253   20.4667 C   0  0  0  0  0  0
  -22.7225  -10.2125   20.3048 C   0  0  0  0  0  0
  -21.6856   -6.0733   22.5292 C   0  0  0  0  0  0
  -21.4014   -6.5635   23.8225 C   0  0  0  0  0  0
  -21.3682   -5.6788   24.9185 C   0  0  0  0  0  0
  -21.6051   -4.3051   24.7234 C   0  0  0  0  0  0
  -21.8805   -3.8149   23.4346 C   0  0  0  0  0  0
  -21.9182   -4.6961   22.3403 C   0  0  0  0  0  0
  -22.7798  -13.5248   21.1857 C   0  0  0  0  0  0
  -22.1658   -4.2152   21.0982 F   0  0  0  0  0  0
  -21.5640   -3.4530   25.7749 F   0  0  0  0  0  0
  -29.9916  -13.4940   20.4269 N   0  0  0  0  0  0
  -26.2930  -12.9430   20.3323 N   0  0  0  0  0  0
  -25.9302  -11.6567   20.5741 N   0  0  0  0  0  0
  -22.0442  -12.8213   22.0392 N   0  0  0  0  0  0
  -25.4219  -15.1944   20.4111 N   0  0  0  0  0  0
  -31.7478  -14.8644   20.0379 O   0  0  0  0  0  0
  -21.6654   -6.8877   21.4256 O   0  0  0  0  0  0
  -22.3483  -14.5568   20.6734 O   0  0  0  0  0  0
  -24.6295  -31.8563   23.1955 C   0  0  0  0  0  0
  -25.9134  -32.4759   23.8288 C   0  0  1  0  0  0
  -27.2148  -27.2688   20.1143 C   0  0  0  0  0  0
  -25.5942  -33.8559   24.2224 N   0  0  0  0  0  0
  -23.4236  -30.4793   21.5389 C   0  0  2  0  0  0
  -24.8674  -28.9241   20.1056 C   0  0  0  0  0  0
  -22.7483  -29.4615   22.4894 C   0  0  0  0  0  0
  -18.0305  -28.1374   22.8469 C   0  0  0  0  0  0
  -24.1520  -36.7300   23.2633 C   0  0  0  0  0  0
  -25.9686  -30.7697   21.3732 C   0  0  0  0  0  0
  -26.0366  -29.3937   20.7130 C   0  0  0  0  0  0
  -27.2098  -28.5762   20.7077 C   0  0  0  0  0  0
  -26.0162  -26.8558   19.4922 C   0  0  0  0  0  0
  -24.8611  -27.6643   19.4878 C   0  0  0  0  0  0
  -23.6390  -29.8103   20.1544 C   0  0  0  0  0  0
  -25.4142  -36.3071   24.0309 C   0  0  1  0  0  0
  -20.5907  -28.3695   23.1260 C   0  0  2  0  0  0
  -20.6810  -26.9418   22.5390 C   0  0  0  0  0  0
  -19.5794  -26.6375   21.5191 C   0  0  0  0  0  0
  -18.1962  -26.7921   22.1593 C   0  0  0  0  0  0
  -19.1554  -28.8848   23.2861 C   0  0  0  0  0  0
  -18.9473  -30.1448   23.8882 C   0  0  0  0  0  0
  -17.6478  -30.6577   24.0556 C   0  0  0  0  0  0
  -25.9070  -34.9444   23.5071 C   0  0  0  0  0  0
  -16.5371  -29.9079   23.6323 C   0  0  0  0  0  0
  -16.7292  -28.6497   23.0336 C   0  0  0  0  0  0
  -26.4497  -31.6594   25.0683 C   0  0  0  0  0  0
  -25.3700  -31.3744   26.1383 C   0  0  0  0  0  0
  -27.0362  -30.3020   24.6176 C   0  0  0  0  0  0
  -27.6046  -32.4356   25.7455 C   0  0  0  0  0  0
  -27.5596  -37.1812   24.8454 C   0  0  0  0  0  0
  -21.4198  -29.3049   22.3645 N   0  0  0  0  0  0
  -26.4316  -37.3769   23.9379 N   0  0  0  0  0  0
  -24.6928  -31.0537   22.0921 N   0  0  0  0  0  0
  -23.4195  -28.8153   23.2978 O   0  0  0  0  0  0
  -28.3393  -26.4206   20.1974 O   0  0  0  0  0  0
  -26.5630  -34.8920   22.4634 O   0  0  0  0  0  0
  -23.5453  -32.1396   23.7263 O   0  0  0  0  0  0
  -29.3906  -18.4384   20.6183 C   0  0  0  0  0  0
  -29.4346  -17.0390   18.6396 C   0  0  0  0  0  0
  -28.9820  -19.6219   19.8651 C   0  0  0  0  0  0
  -28.7207  -19.4026   18.4784 C   0  0  0  0  0  0
  -29.6062  -17.1182   20.0367 C   0  0  0  0  0  0
  -28.9944  -18.1437   17.8860 C   0  0  0  0  0  0
  -30.2684  -23.7809   18.2891 C   0  0  0  0  0  0
  -29.8613  -25.1059   18.9575 C   0  0  0  0  0  0
  -30.2260  -22.5954   19.2729 C   0  0  0  0  0  0
  -28.3527  -23.6962   20.4627 C   0  0  0  0  0  0
  -28.4563  -25.0565   19.5812 C   0  0  1  0  0  0
  -28.0911  -20.4623   17.5813 C   0  0  0  0  0  0
  -28.7183  -21.0506   20.5609 C   0  0  0  0  0  0
  -29.8294  -15.8494   20.7820 N   0  0  0  0  0  0
  -28.8550  -22.3894   19.7986 N   0  3  2  0  0  0
  -28.7909  -17.9687   16.5569 F   0  0  0  0  0  0
  -31.4680  -12.5588   19.1720 H   0  0  0  0  0  0
  -30.3550  -11.4558   19.9287 H   0  0  0  0  0  0
  -29.7814  -11.7725   17.4974 H   0  0  0  0  0  0
  -29.6434  -13.4966   17.7381 H   0  0  0  0  0  0
  -27.8624  -11.3083   18.8616 H   0  0  0  0  0  0
  -27.3795  -12.5976   17.7928 H   0  0  0  0  0  0
  -27.6456  -14.2665   19.5115 H   0  0  0  0  0  0
  -28.7073  -12.1275   21.4105 H   0  0  0  0  0  0
  -28.4229  -13.7955   21.8263 H   0  0  0  0  0  0
  -25.2748   -9.5699   22.4736 H   0  0  0  0  0  0
  -24.0025   -7.4634   22.7462 H   0  0  0  0  0  0
  -21.0859   -8.8735   19.8935 H   0  0  0  0  0  0
  -22.3701  -10.9645   19.6141 H   0  0  0  0  0  0
  -21.2006   -7.6154   23.9727 H   0  0  0  0  0  0
  -21.1542   -6.0528   25.9087 H   0  0  0  0  0  0
  -22.0564   -2.7618   23.2847 H   0  0  0  0  0  0
  -22.4045  -11.9856   22.4750 H   0  0  0  0  0  0
  -21.1083  -13.1260   22.2670 H   0  0  0  0  0  0
  -24.6501  -15.8484   20.4899 H   0  0  0  0  0  0
  -26.2814  -15.6314   20.1025 H   0  0  0  0  0  0
  -26.7186  -32.5404   23.1003 H   0  0  0  0  0  0
  -25.0125  -33.9705   25.0392 H   0  0  0  0  0  0
  -22.7189  -31.3013   21.3914 H   0  0  0  0  0  0
  -23.3787  -35.9625   23.3268 H   0  0  0  0  0  0
  -24.3618  -36.8973   22.2058 H   0  0  0  0  0  0
  -23.7279  -37.6488   23.6693 H   0  0  0  0  0  0
  -26.1120  -31.5320   20.6066 H   0  0  0  0  0  0
  -26.8455  -30.8136   22.0081 H   0  0  0  0  0  0
  -28.1082  -28.9300   21.1931 H   0  0  0  0  0  0
  -25.9219  -25.8849   19.0297 H   0  0  0  0  0  0
  -23.9612  -27.2956   19.0147 H   0  0  0  0  0  0
  -23.7610  -30.5859   19.3975 H   0  0  0  0  0  0
  -22.7562  -29.2449   19.8496 H   0  0  0  0  0  0
  -25.1342  -36.1916   25.0807 H   0  0  0  0  0  0
  -21.0004  -28.3292   24.1380 H   0  0  0  0  0  0
  -20.5744  -26.2302   23.3591 H   0  0  0  0  0  0
  -21.6682  -26.7472   22.1182 H   0  0  0  0  0  0
  -19.6975  -25.6280   21.1245 H   0  0  0  0  0  0
  -19.6745  -27.3160   20.6703 H   0  0  0  0  0  0
  -17.4244  -26.6664   21.3977 H   0  0  0  0  0  0
  -18.0357  -26.0043   22.8975 H   0  0  0  0  0  0
  -19.7952  -30.7253   24.2260 H   0  0  0  0  0  0
  -17.5036  -31.6254   24.5161 H   0  0  0  0  0  0
  -15.5376  -30.2976   23.7648 H   0  0  0  0  0  0
  -15.8692  -28.0818   22.7046 H   0  0  0  0  0  0
  -24.5860  -30.7124   25.7670 H   0  0  0  0  0  0
  -24.8883  -32.2916   26.4791 H   0  0  0  0  0  0
  -25.7971  -30.8899   27.0169 H   0  0  0  0  0  0
  -26.2939  -29.6737   24.1228 H   0  0  0  0  0  0
  -27.4089  -29.7321   25.4696 H   0  0  0  0  0  0
  -27.8795  -30.4312   23.9386 H   0  0  0  0  0  0
  -27.2648  -33.3672   26.1986 H   0  0  0  0  0  0
  -28.3851  -32.6907   25.0276 H   0  0  0  0  0  0
  -28.0701  -31.8509   26.5397 H   0  0  0  0  0  0
  -28.2603  -38.0128   24.7525 H   0  0  0  0  0  0
  -28.1131  -36.2655   24.6283 H   0  0  0  0  0  0
  -27.2306  -37.1459   25.8859 H   0  0  0  0  0  0
  -20.9378  -29.8763   21.6851 H   0  0  0  0  0  0
  -26.0207  -38.2855   24.1356 H   0  0  0  0  0  0
  -29.5136  -18.5443   21.6869 H   0  0  0  0  0  0
  -29.5669  -16.0989   18.1228 H   0  0  0  0  0  0
  -31.2785  -23.8780   17.8898 H   0  0  0  0  0  0
  -29.6224  -23.5817   17.4338 H   0  0  0  0  0  0
  -29.9018  -25.9133   18.2252 H   0  0  0  0  0  0
  -30.5888  -25.3584   19.7312 H   0  0  0  0  0  0
  -30.9089  -22.7716   20.1067 H   0  0  0  0  0  0
  -30.5814  -21.6949   18.7720 H   0  0  0  0  0  0
  -27.3155  -23.5580   20.7725 H   0  0  0  0  0  0
  -28.9217  -23.8406   21.3819 H   0  0  0  0  0  0
  -27.7666  -24.9611   18.7449 H   0  0  0  0  0  0
  -27.3256  -21.0343   18.1036 H   0  0  0  0  0  0
  -27.5817  -20.0031   16.7313 H   0  0  0  0  0  0
  -28.8441  -21.1348   17.1705 H   0  0  0  0  0  0
  -29.3735  -21.1084   21.4303 H   0  0  0  0  0  0
  -27.7059  -21.0147   20.9662 H   0  0  0  0  0  0
  -29.1004  -15.6415   21.4509 H   0  0  0  0  0  0
  -28.2662  -22.2627   18.9885 H   0  0  0  0  0  0
  1 25  1  0  0  0
  1 30  2  0  0  0
  1 84  1  0  0  0
  2  3  1  0  0  0
  2 25  1  0  0  0
  2 87  1  0  0  0
  2 88  1  0  0  0
  3  4  1  0  0  0
  3 89  1  0  0  0
  3 90  1  0  0  0
  4  5  1  0  0  0
  4 91  1  0  0  0
  4 92  1  0  0  0
  5  6  1  0  0  0
  5 26  1  0  0  0
  5 93  1  0  0  0
  6 25  1  0  0  0
  6 94  1  0  0  0
  6 95  1  0  0  0
  7  8  2  0  0  0
  7 26  1  0  0  0
  7 29  1  0  0  0
  8  9  1  0  0  0
  8 22  1  0  0  0
  9 10  1  0  0  0
  9 27  2  0  0  0
 10 11  2  0  0  0
 10 15  1  0  0  0
 11 12  1  0  0  0
 11 96  1  0  0  0
 12 13  2  0  0  0
 12 97  1  0  0  0
 13 14  1  0  0  0
 13 31  1  0  0  0
 14 15  2  0  0  0
 14 98  1  0  0  0
 15 99  1  0  0  0
 16 17  2  0  0  0
 16 21  1  0  0  0
 16 31  1  0  0  0
 17 18  1  0  0  0
 17100  1  0  0  0
 18 19  2  0  0  0
 18101  1  0  0  0
 19 20  1  0  0  0
 19 24  1  0  0  0
 20 21  2  0  0  0
 20102  1  0  0  0
 21 23  1  0  0  0
 22 28  1  0  0  0
 22 32  2  0  0  0
 26 27  1  0  0  0
 28103  1  0  0  0
 28104  1  0  0  0
 29105  1  0  0  0
 29106  1  0  0  0
 33 34  1  0  0  0
 33 66  1  0  0  0
 33 70  2  0  0  0
 34 36  1  0  0  0
 34 59  1  0  0  0
 34107  1  0  0  0
 35 44  2  0  0  0
 35 45  1  0  0  0
 35 68  1  0  0  0
 36 56  1  0  0  0
 36108  1  0  0  0
 37 39  1  0  0  0
 37 47  1  0  0  0
 37 66  1  0  0  0
 37109  1  0  0  0
 38 43  2  0  0  0
 38 46  1  0  0  0
 38 47  1  0  0  0
 39 64  1  0  0  0
 39 67  2  0  0  0
 40 52  1  0  0  0
 40 53  2  0  0  0
 40 58  1  0  0  0
 41110  1  0  0  0
 41111  1  0  0  0
 41112  1  0  0  0
 41 48  1  0  0  0
 42 43  1  0  0  0
 42 66  1  0  0  0
 42113  1  0  0  0
 42114  1  0  0  0
 43 44  1  0  0  0
 44115  1  0  0  0
 45 46  2  0  0  0
 45116  1  0  0  0
 46117  1  0  0  0
 47118  1  0  0  0
 47119  1  0  0  0
 48 56  1  0  0  0
 48 65  1  0  0  0
 48120  1  0  0  0
 49 50  1  0  0  0
 49 53  1  0  0  0
 49 64  1  0  0  0
 49121  1  0  0  0
 50 51  1  0  0  0
 50122  1  0  0  0
 50123  1  0  0  0
 51 52  1  0  0  0
 51124  1  0  0  0
 51125  1  0  0  0
 52126  1  0  0  0
 52127  1  0  0  0
 53 54  1  0  0  0
 54 55  2  0  0  0
 54128  1  0  0  0
 55 57  1  0  0  0
 55129  1  0  0  0
 56 69  2  0  0  0
 57 58  2  0  0  0
 57130  1  0  0  0
 58131  1  0  0  0
 59 60  1  0  0  0
 59 61  1  0  0  0
 59 62  1  0  0  0
 60132  1  0  0  0
 60133  1  0  0  0
 60134  1  0  0  0
 61135  1  0  0  0
 61136  1  0  0  0
 61137  1  0  0  0
 62138  1  0  0  0
 62139  1  0  0  0
 62140  1  0  0  0
 63 65  1  0  0  0
 63141  1  0  0  0
 63142  1  0  0  0
 63143  1  0  0  0
 64144  1  0  0  0
 65145  1  0  0  0
 68 81  1  0  0  0
 71 73  2  0  0  0
 71 75  1  0  0  0
 71146  1  0  0  0
 72 75  2  0  0  0
 72 76  1  0  0  0
 72147  1  0  0  0
 73 74  1  0  0  0
 73 83  1  0  0  0
 74 76  2  0  0  0
 74 82  1  0  0  0
 75 84  1  0  0  0
 76 86  1  0  0  0
 77 78  1  0  0  0
 77 79  1  0  0  0
 77148  1  0  0  0
 77149  1  0  0  0
 78 81  1  0  0  0
 78150  1  0  0  0
 78151  1  0  0  0
 79 85  1  0  0  0
 79152  1  0  0  0
 79153  1  0  0  0
 80 81  1  0  0  0
 80 85  1  0  0  0
 80154  1  0  0  0
 80155  1  0  0  0
 81156  1  0  0  0
 82157  1  0  0  0
 82158  1  0  0  0
 82159  1  0  0  0
 83160  1  0  0  0
 83161  1  0  0  0
 83 85  1  0  0  0
 84162  1  0  0  0
 85163  1  0  0  0
M  CHG  1  85   1
M  ISO  4   1 100  68 101  81 101  84 100
M  END
> <chiral flag>
0

> <version>
0

> <s_m_source_file>
/data/baiqing/PycharmProjects/Reinvent-master-3.2/result/LINK_invent/BTK/process_docking_weight1_custom_product_contain_oxygen_bond_distance_aromatic_linkinvent_7_9_3/rearranged_h_0031.sdf

> <i_m_source_file_index>
63

> <r_mmod_Potential_Energy-OPLS-2005>
128.733108520508

> <r_mmod_Stretch_Energy-OPLS-2005>
129.224899291992

> <r_mmod_Bend_Energy-OPLS-2005>
177.55339050293

> <r_mmod_Torsional_Energy-OPLS-2005>
272.647857666016

> <r_mmod_Improper_Torsional_Energy-OPLS-2005>
5.54897260665894

> <r_mmod_Van_der_Waal_Energy-OPLS-2005>
137.429763793945

> <r_mmod_Electrostatic_Energy-OPLS-2005>
-231.928771972656

> <r_mmod_Solvation_Energy-OPLS-2005>
-440.536956787109

> <b_mmod_Minimization_Converged-OPLS-2005>
0

> <r_mmod_RMS_Derivative-OPLS-2005>
2.58534979820251

$$$$
63
                    3D
 Structure written by MMmdl.
149157  0  0  1  0            999 V2000
  -30.4810  -15.1903   20.3856 C   0  0  0  0  0  0
  -30.4387  -12.7576   19.5235 C   0  0  0  0  0  0
  -29.5329  -12.5652   18.2828 C   0  0  0  0  0  0
  -28.0785  -12.3020   18.7094 C   0  0  0  0  0  0
  -27.6158  -13.2714   19.8261 C   0  0  2  0  0  0
  -28.6515  -13.4220   20.9611 C   0  0  0  0  0  0
  -25.2405  -13.8249   20.5738 C   0  0  0  0  0  0
  -24.1751  -13.0443   20.9254 C   0  0  0  0  0  0
  -24.6404  -11.6939   20.8766 C   0  0  0  0  0  0
  -23.9098  -10.4295   21.0409 C   0  0  0  0  0  0
  -24.3640   -9.4205   21.9187 C   0  0  0  0  0  0
  -23.6304   -8.2245   22.0758 C   0  0  0  0  0  0
  -22.4285   -8.0288   21.3547 C   0  0  0  0  0  0
  -21.9928   -9.0264   20.4650 C   0  0  0  0  0  0
  -22.7268  -10.2137   20.3058 C   0  0  0  0  0  0
  -21.6856   -6.0740   22.5280 C   0  0  0  0  0  0
  -21.4018   -6.5644   23.8214 C   0  0  0  0  0  0
  -21.3657   -5.6795   24.9175 C   0  0  0  0  0  0
  -21.6039   -4.3058   24.7226 C   0  0  0  0  0  0
  -21.8819   -3.8151   23.4348 C   0  0  0  0  0  0
  -21.9193   -4.6968   22.3404 C   0  0  0  0  0  0
  -22.7766  -13.5194   21.1896 C   0  0  0  0  0  0
  -22.1660   -4.2154   21.0980 F   0  0  0  0  0  0
  -21.5624   -3.4541   25.7737 F   0  0  0  0  0  0
  -29.8954  -13.9005   20.3398 N   0  0  0  0  0  0
  -26.2837  -12.9520   20.3230 N   0  0  0  0  0  0
  -25.9342  -11.6627   20.5733 N   0  0  0  0  0  0
  -22.0421  -12.8177   22.0454 N   0  0  0  0  0  0
  -25.4035  -15.1983   20.4158 N   0  0  0  0  0  0
  -31.6983  -15.1875   20.1595 O   0  0  0  0  0  0
  -21.6644   -6.8887   21.4244 O   0  0  0  0  0  0
  -22.3446  -14.5493   20.6735 O   0  0  0  0  0  0
  -24.6584  -31.8294   23.1782 C   0  0  0  0  0  0
  -25.9289  -32.4616   23.8216 C   0  0  1  0  0  0
  -27.2119  -26.9747   20.1752 C   0  0  0  0  0  0
  -25.5977  -33.8429   24.2118 N   0  0  0  0  0  0
  -23.4710  -30.4454   21.5261 C   0  0  2  0  0  0
  -24.9257  -28.8500   20.1108 C   0  0  0  0  0  0
  -22.7647  -29.4466   22.4798 C   0  0  0  0  0  0
  -18.0317  -28.1403   22.8465 C   0  0  0  0  0  0
  -24.1492  -36.7216   23.2647 C   0  0  0  0  0  0
  -26.0393  -30.6484   21.4076 C   0  0  0  0  0  0
  -26.1078  -29.2437   20.7523 C   0  0  0  0  0  0
  -27.2471  -28.3237   20.7725 C   0  0  0  0  0  0
  -26.0104  -26.7432   19.4650 C   0  0  0  0  0  0
  -24.8992  -27.6167   19.4479 C   0  0  0  0  0  0
  -23.7096  -29.7708   20.1491 C   0  0  0  0  0  0
  -25.4130  -36.2981   24.0306 C   0  0  1  0  0  0
  -20.5942  -28.3742   23.1193 C   0  0  2  0  0  0
  -20.6794  -26.9428   22.5394 C   0  0  0  0  0  0
  -19.5768  -26.6380   21.5204 C   0  0  0  0  0  0
  -18.1951  -26.7937   22.1617 C   0  0  0  0  0  0
  -19.1580  -28.8893   23.2818 C   0  0  0  0  0  0
  -18.9495  -30.1483   23.8851 C   0  0  0  0  0  0
  -17.6490  -30.6595   24.0555 C   0  0  0  0  0  0
  -25.9093  -34.9363   23.5029 C   0  0  0  0  0  0
  -16.5379  -29.9083   23.6344 C   0  0  0  0  0  0
  -16.7301  -28.6502   23.0364 C   0  0  0  0  0  0
  -26.4561  -31.6541   25.0721 C   0  0  0  0  0  0
  -25.3702  -31.3766   26.1384 C   0  0  0  0  0  0
  -27.0461  -30.2913   24.6430 C   0  0  0  0  0  0
  -27.6062  -32.4344   25.7513 C   0  0  0  0  0  0
  -27.5570  -37.1760   24.8465 C   0  0  0  0  0  0
  -21.4321  -29.3042   22.3548 N   0  0  0  0  0  0
  -26.4278  -37.3713   23.9413 N   0  0  0  0  0  0
  -24.7434  -30.9998   22.0906 N   0  0  0  0  0  0
  -23.4217  -28.8019   23.3010 O   0  0  0  0  0  0
  -28.1699  -25.8396   20.2260 O   0  0  0  0  0  0
  -26.5694  -34.8886   22.4617 O   0  0  0  0  0  0
  -23.5664  -32.1246   23.6898 O   0  0  0  0  0  0
  -29.7661  -22.2532   19.9963 C   0  0  0  0  0  0
  -30.2098  -20.8333   19.9812 C   0  0  0  0  0  0
  -27.7375  -21.5284   20.7906 C   0  0  0  0  0  0
  -28.4664  -22.7451   20.4119 C   0  0  0  0  0  0
  -29.4731  -19.6253   20.3639 C   0  0  0  0  0  0
  -28.1711  -20.1060   20.7805 C   0  0  0  0  0  0
  -27.7208  -24.2788   20.5160 C   0  0  0  0  0  0
  -27.1790  -19.0651   21.2624 C   0  0  0  0  0  0
  -30.1900  -18.0400   20.3481 C   0  0  0  0  0  0
  -29.7458  -16.4616   20.4786 N   0  0  0  0  0  0
  -26.5570  -24.1836   20.9146 O   0  0  0  0  0  0
  -31.4625  -12.9445   19.1963 H   0  0  0  0  0  0
  -30.4846  -11.8436   20.1177 H   0  0  0  0  0  0
  -29.8997  -11.7436   17.6660 H   0  0  0  0  0  0
  -29.5750  -13.4601   17.6600 H   0  0  0  0  0  0
  -28.0247  -11.2751   19.0728 H   0  0  0  0  0  0
  -27.4104  -12.3575   17.8492 H   0  0  0  0  0  0
  -27.5397  -14.2444   19.3393 H   0  0  0  0  0  0
  -28.7999  -12.4829   21.4961 H   0  0  0  0  0  0
  -28.3055  -14.1497   21.6970 H   0  0  0  0  0  0
  -25.2782   -9.5676   22.4768 H   0  0  0  0  0  0
  -24.0006   -7.4636   22.7481 H   0  0  0  0  0  0
  -21.0856   -8.8792   19.8957 H   0  0  0  0  0  0
  -22.3730  -10.9679   19.6170 H   0  0  0  0  0  0
  -21.2016   -7.6153   23.9720 H   0  0  0  0  0  0
  -21.1474   -6.0526   25.9077 H   0  0  0  0  0  0
  -22.0599   -2.7614   23.2848 H   0  0  0  0  0  0
  -22.4050  -11.9850   22.4847 H   0  0  0  0  0  0
  -21.1037  -13.1192   22.2654 H   0  0  0  0  0  0
  -24.6283  -15.8443   20.5159 H   0  0  0  0  0  0
  -26.2389  -15.6362   20.0518 H   0  0  0  0  0  0
  -26.7355  -32.5174   23.0931 H   0  0  0  0  0  0
  -25.0082  -33.9519   25.0241 H   0  0  0  0  0  0
  -22.7816  -31.2761   21.3616 H   0  0  0  0  0  0
  -23.3766  -35.9533   23.3280 H   0  0  0  0  0  0
  -24.3571  -36.8886   22.2067 H   0  0  0  0  0  0
  -23.7239  -37.6395   23.6716 H   0  0  0  0  0  0
  -26.2169  -31.3918   20.6295 H   0  0  0  0  0  0
  -26.9009  -30.7032   22.0609 H   0  0  0  0  0  0
  -28.1369  -28.6166   21.3116 H   0  0  0  0  0  0
  -25.8922  -25.8048   18.9429 H   0  0  0  0  0  0
  -24.0061  -27.3117   18.9199 H   0  0  0  0  0  0
  -23.8617  -30.5436   19.3950 H   0  0  0  0  0  0
  -22.8205  -29.2237   19.8303 H   0  0  0  0  0  0
  -25.1323  -36.1783   25.0798 H   0  0  0  0  0  0
  -21.0028  -28.3343   24.1314 H   0  0  0  0  0  0
  -20.5668  -26.2359   23.3628 H   0  0  0  0  0  0
  -21.6660  -26.7400   22.1206 H   0  0  0  0  0  0
  -19.6928  -25.6278   21.1260 H   0  0  0  0  0  0
  -19.6710  -27.3168   20.6716 H   0  0  0  0  0  0
  -17.4217  -26.6674   21.4026 H   0  0  0  0  0  0
  -18.0356  -26.0086   22.9023 H   0  0  0  0  0  0
  -19.7973  -30.7308   24.2204 H   0  0  0  0  0  0
  -17.5046  -31.6274   24.5162 H   0  0  0  0  0  0
  -15.5380  -30.2974   23.7697 H   0  0  0  0  0  0
  -15.8698  -28.0809   22.7107 H   0  0  0  0  0  0
  -24.5901  -30.7097   25.7695 H   0  0  0  0  0  0
  -24.8874  -32.2956   26.4712 H   0  0  0  0  0  0
  -25.7951  -30.9000   27.0228 H   0  0  0  0  0  0
  -26.3129  -29.6591   24.1410 H   0  0  0  0  0  0
  -27.3978  -29.7266   25.5076 H   0  0  0  0  0  0
  -27.9075  -30.4104   23.9855 H   0  0  0  0  0  0
  -27.2644  -33.3694   26.1960 H   0  0  0  0  0  0
  -28.3938  -32.6824   25.0384 H   0  0  0  0  0  0
  -28.0657  -31.8556   26.5535 H   0  0  0  0  0  0
  -28.2563  -38.0080   24.7528 H   0  0  0  0  0  0
  -28.1094  -36.2608   24.6275 H   0  0  0  0  0  0
  -27.2288  -37.1379   25.8868 H   0  0  0  0  0  0
  -20.9562  -29.8747   21.6700 H   0  0  0  0  0  0
  -26.0128  -38.2769   24.1439 H   0  0  0  0  0  0
  -30.4807  -22.9963   19.6697 H   0  0  0  0  0  0
  -31.2261  -20.6717   19.6483 H   0  0  0  0  0  0
  -26.7271  -21.6966   21.1373 H   0  0  0  0  0  0
  -26.2107  -19.5058   21.5012 H   0  0  0  0  0  0
  -27.5543  -18.5729   22.1601 H   0  0  0  0  0  0
  -27.0198  -18.3053   20.4970 H   0  0  0  0  0  0
  -30.9592  -18.1283   21.1157 H   0  0  0  0  0  0
  -30.7601  -18.0478   19.4183 H   0  0  0  0  0  0
  -28.7562  -16.3322   20.6245 H   0  0  0  0  0  0
  1 25  1  0  0  0
  1 30  2  0  0  0
  1 80  1  0  0  0
  2  3  1  0  0  0
  2 25  1  0  0  0
  2 82  1  0  0  0
  2 83  1  0  0  0
  3  4  1  0  0  0
  3 84  1  0  0  0
  3 85  1  0  0  0
  4  5  1  0  0  0
  4 86  1  0  0  0
  4 87  1  0  0  0
  5  6  1  0  0  0
  5 26  1  0  0  0
  5 88  1  0  0  0
  6 25  1  0  0  0
  6 89  1  0  0  0
  6 90  1  0  0  0
  7  8  2  0  0  0
  7 26  1  0  0  0
  7 29  1  0  0  0
  8  9  1  0  0  0
  8 22  1  0  0  0
  9 10  1  0  0  0
  9 27  2  0  0  0
 10 11  2  0  0  0
 10 15  1  0  0  0
 11 12  1  0  0  0
 11 91  1  0  0  0
 12 13  2  0  0  0
 12 92  1  0  0  0
 13 14  1  0  0  0
 13 31  1  0  0  0
 14 15  2  0  0  0
 14 93  1  0  0  0
 15 94  1  0  0  0
 16 17  2  0  0  0
 16 21  1  0  0  0
 16 31  1  0  0  0
 17 18  1  0  0  0
 17 95  1  0  0  0
 18 19  2  0  0  0
 18 96  1  0  0  0
 19 20  1  0  0  0
 19 24  1  0  0  0
 20 21  2  0  0  0
 20 97  1  0  0  0
 21 23  1  0  0  0
 22 28  1  0  0  0
 22 32  2  0  0  0
 26 27  1  0  0  0
 28 98  1  0  0  0
 28 99  1  0  0  0
 29100  1  0  0  0
 29101  1  0  0  0
 33 34  1  0  0  0
 33 66  1  0  0  0
 33 70  2  0  0  0
 34 36  1  0  0  0
 34 59  1  0  0  0
 34102  1  0  0  0
 35 44  2  0  0  0
 35 45  1  0  0  0
 35 68  1  0  0  0
 36 56  1  0  0  0
 36103  1  0  0  0
 37 39  1  0  0  0
 37 47  1  0  0  0
 37 66  1  0  0  0
 37104  1  0  0  0
 38 43  2  0  0  0
 38 46  1  0  0  0
 38 47  1  0  0  0
 39 64  1  0  0  0
 39 67  2  0  0  0
 40 52  1  0  0  0
 40 53  2  0  0  0
 40 58  1  0  0  0
 41105  1  0  0  0
 41106  1  0  0  0
 41107  1  0  0  0
 41 48  1  0  0  0
 42 43  1  0  0  0
 42 66  1  0  0  0
 42108  1  0  0  0
 42109  1  0  0  0
 43 44  1  0  0  0
 44110  1  0  0  0
 45 46  2  0  0  0
 45111  1  0  0  0
 46112  1  0  0  0
 47113  1  0  0  0
 47114  1  0  0  0
 48 56  1  0  0  0
 48 65  1  0  0  0
 48115  1  0  0  0
 49 50  1  0  0  0
 49 53  1  0  0  0
 49 64  1  0  0  0
 49116  1  0  0  0
 50 51  1  0  0  0
 50117  1  0  0  0
 50118  1  0  0  0
 51 52  1  0  0  0
 51119  1  0  0  0
 51120  1  0  0  0
 52121  1  0  0  0
 52122  1  0  0  0
 53 54  1  0  0  0
 54 55  2  0  0  0
 54123  1  0  0  0
 55 57  1  0  0  0
 55124  1  0  0  0
 56 69  2  0  0  0
 57 58  2  0  0  0
 57125  1  0  0  0
 58126  1  0  0  0
 59 60  1  0  0  0
 59 61  1  0  0  0
 59 62  1  0  0  0
 60127  1  0  0  0
 60128  1  0  0  0
 60129  1  0  0  0
 61130  1  0  0  0
 61131  1  0  0  0
 61132  1  0  0  0
 62133  1  0  0  0
 62134  1  0  0  0
 62135  1  0  0  0
 63 65  1  0  0  0
 63136  1  0  0  0
 63137  1  0  0  0
 63138  1  0  0  0
 64139  1  0  0  0
 65140  1  0  0  0
 68 77  1  0  0  0
 71 72  2  0  0  0
 71 74  1  0  0  0
 71141  1  0  0  0
 72 75  1  0  0  0
 72142  1  0  0  0
 73 74  2  0  0  0
 73 76  1  0  0  0
 73143  1  0  0  0
 74 77  1  0  0  0
 75 76  2  0  0  0
 75 79  1  0  0  0
 76 78  1  0  0  0
 77 81  2  0  0  0
 78144  1  0  0  0
 78145  1  0  0  0
 78146  1  0  0  0
 79 80  1  0  0  0
 79147  1  0  0  0
 79148  1  0  0  0
 80149  1  0  0  0
M  ISO  4   1 100  68 101  77 101  80 100
M  END
> <chiral flag>
0

> <version>
0

> <s_m_source_file>
/data/baiqing/PycharmProjects/Reinvent-master-3.2/result/LINK_invent/BTK/process_docking_weight1_custom_product_contain_oxygen_bond_distance_aromatic_linkinvent_7_9_3/rearranged_h_0031.sdf

> <i_m_source_file_index>
64

> <r_mmod_Potential_Energy-OPLS-2005>
1078.71484375

> <r_mmod_Stretch_Energy-OPLS-2005>
487.035522460938

> <r_mmod_Bend_Energy-OPLS-2005>
437.198608398438

> <r_mmod_Torsional_Energy-OPLS-2005>
200.838394165039

> <r_mmod_Improper_Torsional_Energy-OPLS-2005>
4.28387546539307

> <r_mmod_Van_der_Waal_Energy-OPLS-2005>
133.663452148438

> <r_mmod_Electrostatic_Energy-OPLS-2005>
-363.40576171875

> <r_mmod_Solvation_Energy-OPLS-2005>
-216.149124145508

> <b_mmod_Minimization_Converged-OPLS-2005>
0

> <r_mmod_RMS_Derivative-OPLS-2005>
0.610372543334961

$$$$
64
                    3D
 Structure written by MMmdl.
167176  0  0  1  0            999 V2000
  -30.6028  -14.7733   20.5060 C   0  0  0  0  0  0
  -30.4547  -12.4914   19.4587 C   0  0  0  0  0  0
  -29.5086  -12.5254   18.2361 C   0  0  0  0  0  0
  -28.0334  -12.3177   18.6464 C   0  0  0  0  0  0
  -27.6433  -13.1727   19.8763 C   0  0  2  0  0  0
  -28.7158  -13.0386   20.9872 C   0  0  0  0  0  0
  -25.2471  -13.7924   20.5727 C   0  0  0  0  0  0
  -24.1758  -13.0259   20.9248 C   0  0  0  0  0  0
  -24.6363  -11.6729   20.8854 C   0  0  0  0  0  0
  -23.9068  -10.4144   21.0492 C   0  0  0  0  0  0
  -24.3599   -9.4043   21.9261 C   0  0  0  0  0  0
  -23.6221   -8.2118   22.0793 C   0  0  0  0  0  0
  -22.4206   -8.0233   21.3561 C   0  0  0  0  0  0
  -21.9886   -9.0215   20.4655 C   0  0  0  0  0  0
  -22.7261  -10.2051   20.3102 C   0  0  0  0  0  0
  -21.6815   -6.0726   22.5288 C   0  0  0  0  0  0
  -21.3987   -6.5617   23.8226 C   0  0  0  0  0  0
  -21.3672   -5.6777   24.9195 C   0  0  0  0  0  0
  -21.6031   -4.3044   24.7267 C   0  0  0  0  0  0
  -21.8784   -3.8158   23.4376 C   0  0  0  0  0  0
  -21.9168   -4.6958   22.3430 C   0  0  0  0  0  0
  -22.7786  -13.5117   21.1874 C   0  0  0  0  0  0
  -22.1623   -4.2137   21.1011 F   0  0  0  0  0  0
  -21.5657   -3.4526   25.7792 F   0  0  0  0  0  0
  -29.9844  -13.5282   20.4149 N   0  0  0  0  0  0
  -26.2934  -12.9081   20.3476 N   0  0  0  0  0  0
  -25.9294  -11.6279   20.5943 N   0  0  0  0  0  0
  -22.0407  -12.8146   22.0436 N   0  0  0  0  0  0
  -25.3974  -15.1657   20.4017 N   0  0  0  0  0  0
  -31.7901  -14.8493   20.1721 O   0  0  0  0  0  0
  -21.6559   -6.8859   21.4258 O   0  0  0  0  0  0
  -22.3565  -14.5464   20.6735 O   0  0  0  0  0  0
  -24.6280  -31.8574   23.2025 C   0  0  0  0  0  0
  -25.9126  -32.4773   23.8359 C   0  0  1  0  0  0
  -27.2248  -27.3038   20.0887 C   0  0  0  0  0  0
  -25.5955  -33.8575   24.2283 N   0  0  0  0  0  0
  -23.4221  -30.4812   21.5455 C   0  0  2  0  0  0
  -24.8662  -28.9324   20.1138 C   0  0  0  0  0  0
  -22.7474  -29.4615   22.4950 C   0  0  0  0  0  0
  -18.0279  -28.1390   22.8480 C   0  0  0  0  0  0
  -24.1479  -36.7279   23.2634 C   0  0  0  0  0  0
  -25.9682  -30.7744   21.3833 C   0  0  0  0  0  0
  -26.0369  -29.4014   20.7214 C   0  0  0  0  0  0
  -27.2178  -28.5975   20.7014 C   0  0  0  0  0  0
  -26.0224  -26.8835   19.4738 C   0  0  0  0  0  0
  -24.8634  -27.6793   19.4836 C   0  0  0  0  0  0
  -23.6357  -29.8163   20.1615 C   0  0  0  0  0  0
  -25.4114  -36.3074   24.0319 C   0  0  1  0  0  0
  -20.5874  -28.3691   23.1299 C   0  0  2  0  0  0
  -20.6780  -26.9416   22.5417 C   0  0  0  0  0  0
  -19.5756  -26.6387   21.5220 C   0  0  0  0  0  0
  -18.1924  -26.7942   22.1604 C   0  0  0  0  0  0
  -19.1530  -28.8851   23.2885 C   0  0  0  0  0  0
  -18.9462  -30.1458   23.8905 C   0  0  0  0  0  0
  -17.6463  -30.6593   24.0560 C   0  0  0  0  0  0
  -25.9066  -34.9456   23.5102 C   0  0  0  0  0  0
  -16.5352  -29.9089   23.6334 C   0  0  0  0  0  0
  -16.7274  -28.6502   23.0368 C   0  0  0  0  0  0
  -26.4504  -31.6612   25.0747 C   0  0  0  0  0  0
  -25.3754  -31.3749   26.1487 C   0  0  0  0  0  0
  -27.0378  -30.3035   24.6262 C   0  0  0  0  0  0
  -27.6047  -32.4370   25.7527 C   0  0  0  0  0  0
  -27.5597  -37.1779   24.8441 C   0  0  0  0  0  0
  -21.4186  -29.3048   22.3708 N   0  0  0  0  0  0
  -26.4273  -37.3791   23.9430 N   0  0  0  0  0  0
  -24.6916  -31.0553   22.1001 N   0  0  0  0  0  0
  -23.4198  -28.8152   23.3037 O   0  0  0  0  0  0
  -28.3600  -26.4722   20.0996 O   0  0  0  0  0  0
  -26.5630  -34.8904   22.4663 O   0  0  0  0  0  0
  -23.5441  -32.1406   23.7335 O   0  0  0  0  0  0
  -30.3675  -19.3715   19.0969 C   0  0  0  0  0  0
  -30.3422  -17.9562   19.2820 C   0  0  0  0  0  0
  -30.3581  -20.2933   20.1844 C   0  0  0  0  0  0
  -30.3621  -19.7009   21.4874 C   0  0  0  0  0  0
  -30.4118  -18.2699   21.6699 C   0  0  0  0  0  0
  -30.3496  -17.3562   20.5679 C   0  0  0  0  0  0
  -28.9790  -23.2130   18.3321 C   0  0  0  0  0  0
  -29.3561  -22.6208   17.1825 C   0  0  0  0  0  0
  -28.2174  -24.5358   18.4314 C   0  0  0  0  0  0
  -29.3324  -24.0673   20.4978 C   0  0  0  0  0  0
  -28.2216  -25.0024   19.9029 C   0  0  1  0  0  0
  -30.3052  -20.6140   22.7151 C   0  0  0  0  0  0
  -30.4991  -17.6836   23.0752 C   0  0  0  0  0  0
  -28.4514  -16.0640   21.0844 C   0  0  0  0  0  0
  -30.5256  -21.8540   19.9383 C   0  0  0  0  0  0
  -29.8835  -15.9644   20.7540 N   0  0  0  0  0  0
  -29.3188  -22.7660   19.7303 N   0  3  2  0  0  0
  -31.4842  -12.6520   19.1378 H   0  0  0  0  0  0
  -30.4582  -11.5010   19.9186 H   0  0  0  0  0  0
  -29.8053  -11.7628   17.5160 H   0  0  0  0  0  0
  -29.6200  -13.4885   17.7367 H   0  0  0  0  0  0
  -27.8828  -11.2600   18.8645 H   0  0  0  0  0  0
  -27.3734  -12.5501   17.8093 H   0  0  0  0  0  0
  -27.6224  -14.1741   19.4797 H   0  0  0  0  0  0
  -28.8066  -11.9842   21.2533 H   0  0  0  0  0  0
  -28.4650  -13.4874   21.9444 H   0  0  0  0  0  0
  -25.2743   -9.5447   22.4862 H   0  0  0  0  0  0
  -23.9869   -7.4431   22.7454 H   0  0  0  0  0  0
  -21.0856   -8.8764   19.8885 H   0  0  0  0  0  0
  -22.3780  -10.9623   19.6223 H   0  0  0  0  0  0
  -21.1937   -7.6123   23.9750 H   0  0  0  0  0  0
  -21.1565   -6.0521   25.9094 H   0  0  0  0  0  0
  -22.0574   -2.7623   23.2882 H   0  0  0  0  0  0
  -22.4040  -11.9807   22.4808 H   0  0  0  0  0  0
  -21.1024  -13.1165   22.2673 H   0  0  0  0  0  0
  -24.6220  -15.8068   20.5182 H   0  0  0  0  0  0
  -26.2416  -15.6200   20.0880 H   0  0  0  0  0  0
  -26.7186  -32.5390   23.1094 H   0  0  0  0  0  0
  -25.0125  -33.9740   25.0441 H   0  0  0  0  0  0
  -22.7168  -31.3024   21.4040 H   0  0  0  0  0  0
  -23.3771  -35.9576   23.3234 H   0  0  0  0  0  0
  -24.3578  -36.8977   22.2065 H   0  0  0  0  0  0
  -23.7193  -37.6436   23.6707 H   0  0  0  0  0  0
  -26.1148  -31.5401   20.6193 H   0  0  0  0  0  0
  -26.8421  -30.8136   22.0227 H   0  0  0  0  0  0
  -28.1151  -28.9542   21.1878 H   0  0  0  0  0  0
  -25.9408  -25.9296   18.9761 H   0  0  0  0  0  0
  -23.9697  -27.3152   18.9954 H   0  0  0  0  0  0
  -23.7509  -30.5935   19.4050 H   0  0  0  0  0  0
  -22.7542  -29.2484   19.8587 H   0  0  0  0  0  0
  -25.1285  -36.1911   25.0809 H   0  0  0  0  0  0
  -20.9959  -28.3263   24.1423 H   0  0  0  0  0  0
  -20.5694  -26.2304   23.3617 H   0  0  0  0  0  0
  -21.6654  -26.7452   22.1209 H   0  0  0  0  0  0
  -19.6924  -25.6294   21.1267 H   0  0  0  0  0  0
  -19.6711  -27.3188   20.6745 H   0  0  0  0  0  0
  -17.4208  -26.6715   21.3981 H   0  0  0  0  0  0
  -18.0284  -26.0073   22.8978 H   0  0  0  0  0  0
  -19.7937  -30.7273   24.2284 H   0  0  0  0  0  0
  -17.5013  -31.6278   24.5157 H   0  0  0  0  0  0
  -15.5353  -30.3003   23.7657 H   0  0  0  0  0  0
  -15.8671  -28.0829   22.7102 H   0  0  0  0  0  0
  -24.5864  -30.7181   25.7804 H   0  0  0  0  0  0
  -24.9033  -32.2928   26.5004 H   0  0  0  0  0  0
  -25.8082  -30.8833   27.0214 H   0  0  0  0  0  0
  -26.2983  -29.6768   24.1266 H   0  0  0  0  0  0
  -27.4042  -29.7309   25.4799 H   0  0  0  0  0  0
  -27.8860  -30.4321   23.9532 H   0  0  0  0  0  0
  -27.2610  -33.3610   26.2194 H   0  0  0  0  0  0
  -28.3809  -32.7062   25.0348 H   0  0  0  0  0  0
  -28.0792  -31.8474   26.5390 H   0  0  0  0  0  0
  -28.2524  -38.0164   24.7610 H   0  0  0  0  0  0
  -28.1178  -36.2705   24.6089 H   0  0  0  0  0  0
  -27.2334  -37.1210   25.8839 H   0  0  0  0  0  0
  -20.9376  -29.8779   21.6913 H   0  0  0  0  0  0
  -26.0137  -38.2832   24.1524 H   0  0  0  0  0  0
  -30.3713  -19.7484   18.0848 H   0  0  0  0  0  0
  -30.2618  -17.3217   18.4112 H   0  0  0  0  0  0
  -29.0811  -23.0636   16.2347 H   0  0  0  0  0  0
  -29.9455  -21.7196   17.1396 H   0  0  0  0  0  0
  -27.2088  -24.3861   18.0453 H   0  0  0  0  0  0
  -28.7034  -25.2651   17.7855 H   0  0  0  0  0  0
  -29.2108  -23.9000   21.5685 H   0  0  0  0  0  0
  -30.2996  -24.5489   20.3532 H   0  0  0  0  0  0
  -27.2872  -24.6831   20.3701 H   0  0  0  0  0  0
  -29.8422  -21.5750   22.4995 H   0  0  0  0  0  0
  -31.3005  -20.7991   23.1171 H   0  0  0  0  0  0
  -29.6896  -20.1859   23.5057 H   0  0  0  0  0  0
  -31.0634  -18.3333   23.7461 H   0  0  0  0  0  0
  -31.0232  -16.7265   23.0606 H   0  0  0  0  0  0
  -29.5084  -17.5230   23.4980 H   0  0  0  0  0  0
  -28.1810  -17.0370   21.4900 H   0  0  0  0  0  0
  -28.0730  -15.4045   21.8508 H   0  0  0  0  0  0
  -27.8650  -16.0371   20.1706 H   0  0  0  0  0  0
  -31.2129  -21.9831   19.1049 H   0  0  0  0  0  0
  -31.1032  -22.2560   20.7726 H   0  0  0  0  0  0
  -28.5340  -22.2348   20.0796 H   0  0  0  0  0  0
  1 25  1  0  0  0
  1 30  2  0  0  0
  1 86  1  0  0  0
  2  3  1  0  0  0
  2 25  1  0  0  0
  2 88  1  0  0  0
  2 89  1  0  0  0
  3  4  1  0  0  0
  3 90  1  0  0  0
  3 91  1  0  0  0
  4  5  1  0  0  0
  4 92  1  0  0  0
  4 93  1  0  0  0
  5  6  1  0  0  0
  5 26  1  0  0  0
  5 94  1  0  0  0
  6 25  1  0  0  0
  6 95  1  0  0  0
  6 96  1  0  0  0
  7  8  2  0  0  0
  7 26  1  0  0  0
  7 29  1  0  0  0
  8  9  1  0  0  0
  8 22  1  0  0  0
  9 10  1  0  0  0
  9 27  2  0  0  0
 10 11  2  0  0  0
 10 15  1  0  0  0
 11 12  1  0  0  0
 11 97  1  0  0  0
 12 13  2  0  0  0
 12 98  1  0  0  0
 13 14  1  0  0  0
 13 31  1  0  0  0
 14 15  2  0  0  0
 14 99  1  0  0  0
 15100  1  0  0  0
 16 17  2  0  0  0
 16 21  1  0  0  0
 16 31  1  0  0  0
 17 18  1  0  0  0
 17101  1  0  0  0
 18 19  2  0  0  0
 18102  1  0  0  0
 19 20  1  0  0  0
 19 24  1  0  0  0
 20 21  2  0  0  0
 20103  1  0  0  0
 21 23  1  0  0  0
 22 28  1  0  0  0
 22 32  2  0  0  0
 26 27  1  0  0  0
 28104  1  0  0  0
 28105  1  0  0  0
 29106  1  0  0  0
 29107  1  0  0  0
 33 34  1  0  0  0
 33 66  1  0  0  0
 33 70  2  0  0  0
 34 36  1  0  0  0
 34 59  1  0  0  0
 34108  1  0  0  0
 35 44  2  0  0  0
 35 45  1  0  0  0
 35 68  1  0  0  0
 36 56  1  0  0  0
 36109  1  0  0  0
 37 39  1  0  0  0
 37 47  1  0  0  0
 37 66  1  0  0  0
 37110  1  0  0  0
 38 43  2  0  0  0
 38 46  1  0  0  0
 38 47  1  0  0  0
 39 64  1  0  0  0
 39 67  2  0  0  0
 40 52  1  0  0  0
 40 53  2  0  0  0
 40 58  1  0  0  0
 41111  1  0  0  0
 41112  1  0  0  0
 41113  1  0  0  0
 41 48  1  0  0  0
 42 43  1  0  0  0
 42 66  1  0  0  0
 42114  1  0  0  0
 42115  1  0  0  0
 43 44  1  0  0  0
 44116  1  0  0  0
 45 46  2  0  0  0
 45117  1  0  0  0
 46118  1  0  0  0
 47119  1  0  0  0
 47120  1  0  0  0
 48 56  1  0  0  0
 48 65  1  0  0  0
 48121  1  0  0  0
 49 50  1  0  0  0
 49 53  1  0  0  0
 49 64  1  0  0  0
 49122  1  0  0  0
 50 51  1  0  0  0
 50123  1  0  0  0
 50124  1  0  0  0
 51 52  1  0  0  0
 51125  1  0  0  0
 51126  1  0  0  0
 52127  1  0  0  0
 52128  1  0  0  0
 53 54  1  0  0  0
 54 55  2  0  0  0
 54129  1  0  0  0
 55 57  1  0  0  0
 55130  1  0  0  0
 56 69  2  0  0  0
 57 58  2  0  0  0
 57131  1  0  0  0
 58132  1  0  0  0
 59 60  1  0  0  0
 59 61  1  0  0  0
 59 62  1  0  0  0
 60133  1  0  0  0
 60134  1  0  0  0
 60135  1  0  0  0
 61136  1  0  0  0
 61137  1  0  0  0
 61138  1  0  0  0
 62139  1  0  0  0
 62140  1  0  0  0
 62141  1  0  0  0
 63 65  1  0  0  0
 63142  1  0  0  0
 63143  1  0  0  0
 63144  1  0  0  0
 64145  1  0  0  0
 65146  1  0  0  0
 68 81  1  0  0  0
 71 72  2  0  0  0
 71 73  1  0  0  0
 71147  1  0  0  0
 72 76  1  0  0  0
 72148  1  0  0  0
 73 74  2  0  0  0
 73 85  1  0  0  0
 74 75  1  0  0  0
 74 82  1  0  0  0
 75 76  2  0  0  0
 75 83  1  0  0  0
 76 86  1  0  0  0
 77 78  2  0  0  0
 77 79  1  0  0  0
 77 87  1  0  0  0
 78149  1  0  0  0
 78150  1  0  0  0
 79 81  1  0  0  0
 79151  1  0  0  0
 79152  1  0  0  0
 80 81  1  0  0  0
 80 87  1  0  0  0
 80153  1  0  0  0
 80154  1  0  0  0
 81155  1  0  0  0
 82156  1  0  0  0
 82157  1  0  0  0
 82158  1  0  0  0
 83159  1  0  0  0
 83160  1  0  0  0
 83161  1  0  0  0
 84 86  1  0  0  0
 84162  1  0  0  0
 84163  1  0  0  0
 84164  1  0  0  0
 85165  1  0  0  0
 85166  1  0  0  0
 85 87  1  0  0  0
 87167  1  0  0  0
M  CHG  1  87   1
M  ISO  4   1 100  68 101  81 101  86 100
M  END
> <chiral flag>
0

> <version>
0

> <s_m_source_file>
/data/baiqing/PycharmProjects/Reinvent-master-3.2/result/LINK_invent/BTK/process_docking_weight1_custom_product_contain_oxygen_bond_distance_aromatic_linkinvent_7_9_3/rearranged_h_0031.sdf

> <i_m_source_file_index>
65

> <r_mmod_Potential_Energy-OPLS-2005>
287.974273681641

> <r_mmod_Stretch_Energy-OPLS-2005>
106.217590332031

> <r_mmod_Bend_Energy-OPLS-2005>
221.168579101562

> <r_mmod_Torsional_Energy-OPLS-2005>
331.214324951172

> <r_mmod_Improper_Torsional_Energy-OPLS-2005>
9.39486885070801

> <r_mmod_Van_der_Waal_Energy-OPLS-2005>
169.433578491211

> <r_mmod_Electrostatic_Energy-OPLS-2005>
-206.03596496582

> <r_mmod_Solvation_Energy-OPLS-2005>
-416.423065185547

> <b_mmod_Minimization_Converged-OPLS-2005>
0

> <r_mmod_RMS_Derivative-OPLS-2005>
5.13088178634644

$$$$
65
                    3D
 Structure written by MMmdl.
166175  0  0  1  0            999 V2000
  -30.7140  -14.5021   20.5331 C   0  0  0  0  0  0
  -30.4147  -12.3164   19.4355 C   0  0  0  0  0  0
  -29.4938  -12.4981   18.2121 C   0  0  0  0  0  0
  -28.0159  -12.3600   18.6249 C   0  0  0  0  0  0
  -27.6570  -13.2166   19.8696 C   0  0  2  0  0  0
  -28.7013  -13.0416   20.9963 C   0  0  0  0  0  0
  -25.2568  -13.8184   20.5700 C   0  0  0  0  0  0
  -24.1830  -13.0446   20.9189 C   0  0  0  0  0  0
  -24.6398  -11.6916   20.8743 C   0  0  0  0  0  0
  -23.9067  -10.4295   21.0405 C   0  0  0  0  0  0
  -24.3618   -9.4209   21.9184 C   0  0  0  0  0  0
  -23.6291   -8.2245   22.0756 C   0  0  0  0  0  0
  -22.4275   -8.0282   21.3542 C   0  0  0  0  0  0
  -21.9909   -9.0258   20.4647 C   0  0  0  0  0  0
  -22.7239  -10.2136   20.3055 C   0  0  0  0  0  0
  -21.6853   -6.0735   22.5279 C   0  0  0  0  0  0
  -21.4016   -6.5639   23.8214 C   0  0  0  0  0  0
  -21.3659   -5.6791   24.9174 C   0  0  0  0  0  0
  -21.6043   -4.3053   24.7224 C   0  0  0  0  0  0
  -21.8818   -3.8146   23.4346 C   0  0  0  0  0  0
  -21.9193   -4.6963   22.3403 C   0  0  0  0  0  0
  -22.7850  -13.5236   21.1848 C   0  0  0  0  0  0
  -22.1660   -4.2150   21.0980 F   0  0  0  0  0  0
  -21.5628   -3.4539   25.7736 F   0  0  0  0  0  0
  -30.0281  -13.3296   20.4318 N   0  0  0  0  0  0
  -26.3010  -12.9373   20.3364 N   0  0  0  0  0  0
  -25.9329  -11.6526   20.5776 N   0  0  0  0  0  0
  -22.0490  -12.8226   22.0404 N   0  0  0  0  0  0
  -25.4280  -15.1902   20.4117 N   0  0  0  0  0  0
  -31.8626  -14.6314   20.1040 O   0  0  0  0  0  0
  -21.6639   -6.8880   21.4240 O   0  0  0  0  0  0
  -22.3533  -14.5544   20.6699 O   0  0  0  0  0  0
  -24.6181  -31.8668   23.2103 C   0  0  0  0  0  0
  -25.9062  -32.4817   23.8393 C   0  0  1  0  0  0
  -27.2216  -27.4023   20.0997 C   0  0  0  0  0  0
  -25.5915  -33.8618   24.2322 N   0  0  0  0  0  0
  -23.4058  -30.4938   21.5518 C   0  0  2  0  0  0
  -24.8497  -28.9637   20.1107 C   0  0  0  0  0  0
  -22.7425  -29.4664   22.4977 C   0  0  0  0  0  0
  -18.0278  -28.1382   22.8496 C   0  0  0  0  0  0
  -24.1488  -36.7311   23.2639 C   0  0  0  0  0  0
  -25.9393  -30.8252   21.3663 C   0  0  0  0  0  0
  -26.0148  -29.4598   20.7089 C   0  0  0  0  0  0
  -27.2045  -28.6891   20.6967 C   0  0  0  0  0  0
  -26.0367  -26.9424   19.4771 C   0  0  0  0  0  0
  -24.8586  -27.7071   19.4887 C   0  0  0  0  0  0
  -23.6138  -29.8329   20.1644 C   0  0  0  0  0  0
  -25.4110  -36.3106   24.0333 C   0  0  1  0  0  0
  -20.5868  -28.3671   23.1313 C   0  0  2  0  0  0
  -20.6768  -26.9405   22.5421 C   0  0  0  0  0  0
  -19.5747  -26.6384   21.5220 C   0  0  0  0  0  0
  -18.1923  -26.7932   22.1624 C   0  0  0  0  0  0
  -19.1526  -28.8843   23.2903 C   0  0  0  0  0  0
  -18.9454  -30.1454   23.8908 C   0  0  0  0  0  0
  -17.6453  -30.6586   24.0574 C   0  0  0  0  0  0
  -25.9040  -34.9472   23.5119 C   0  0  0  0  0  0
  -16.5347  -29.9088   23.6333 C   0  0  0  0  0  0
  -16.7264  -28.6508   23.0349 C   0  0  0  0  0  0
  -26.4482  -31.6605   25.0730 C   0  0  0  0  0  0
  -25.3749  -31.3718   26.1483 C   0  0  0  0  0  0
  -27.0316  -30.3050   24.6110 C   0  0  0  0  0  0
  -27.6059  -32.4328   25.7482 C   0  0  0  0  0  0
  -27.5578  -37.1806   24.8465 C   0  0  0  0  0  0
  -21.4147  -29.3043   22.3723 N   0  0  0  0  0  0
  -26.4293  -37.3793   23.9408 N   0  0  0  0  0  0
  -24.6729  -31.0758   22.1009 N   0  0  0  0  0  0
  -23.4191  -28.8189   23.3008 O   0  0  0  0  0  0
  -28.3644  -26.6144   20.1498 O   0  0  0  0  0  0
  -26.5602  -34.8919   22.4682 O   0  0  0  0  0  0
  -23.5364  -32.1417   23.7493 O   0  0  0  0  0  0
  -28.4261  -19.1954   23.2258 C   0  0  0  0  0  0
  -30.0926  -19.4605   21.0114 C   0  0  0  0  0  0
  -28.9593  -18.0315   22.6318 C   0  0  0  0  0  0
  -28.7473  -20.4879   22.7599 C   0  0  0  0  0  0
  -29.8100  -18.1515   21.4994 C   0  0  0  0  0  0
  -29.5917  -20.6390   21.6306 C   0  0  0  0  0  0
  -28.3322  -24.4273   18.9093 C   0  0  0  0  0  0
  -28.5904  -22.9589   19.3195 C   0  0  0  0  0  0
  -29.1640  -24.4087   21.1176 C   0  0  0  0  0  0
  -28.1650  -25.1762   20.2350 C   0  0  1  0  0  0
  -28.6249  -16.6977   23.2828 C   0  0  0  0  0  0
  -28.2028  -21.6831   23.5295 C   0  0  0  0  0  0
  -30.5443  -16.9655   20.8269 C   0  0  0  0  0  0
  -30.0666  -22.0349   21.1582 C   0  0  0  0  0  0
  -30.0224  -15.5857   20.9441 N   0  0  0  0  0  0
  -28.9765  -22.9739   20.7523 N   0  3  2  0  0  0
  -31.4615  -12.3947   19.1365 H   0  0  0  0  0  0
  -30.3017  -11.3155   19.8551 H   0  0  0  0  0  0
  -29.7369  -11.7632   17.4436 H   0  0  0  0  0  0
  -29.6617  -13.4783   17.7626 H   0  0  0  0  0  0
  -27.8310  -11.3061   18.8354 H   0  0  0  0  0  0
  -27.3650  -12.6202   17.7892 H   0  0  0  0  0  0
  -27.6878  -14.2583   19.5499 H   0  0  0  0  0  0
  -28.6790  -12.0214   21.3820 H   0  0  0  0  0  0
  -28.4709  -13.6856   21.8460 H   0  0  0  0  0  0
  -25.2765   -9.5684   22.4757 H   0  0  0  0  0  0
  -24.0001   -7.4635   22.7474 H   0  0  0  0  0  0
  -21.0842   -8.8774   19.8953 H   0  0  0  0  0  0
  -22.3699  -10.9673   19.6162 H   0  0  0  0  0  0
  -21.2009   -7.6147   23.9716 H   0  0  0  0  0  0
  -21.1481   -6.0521   25.9076 H   0  0  0  0  0  0
  -22.0598   -2.7609   23.2845 H   0  0  0  0  0  0
  -22.4101  -11.9882   22.4788 H   0  0  0  0  0  0
  -21.1106  -13.1248   22.2608 H   0  0  0  0  0  0
  -24.6607  -15.8444   20.5205 H   0  0  0  0  0  0
  -26.2778  -15.6309   20.0838 H   0  0  0  0  0  0
  -26.7130  -32.5518   23.1147 H   0  0  0  0  0  0
  -25.0102  -33.9791   25.0489 H   0  0  0  0  0  0
  -22.6964  -31.3124   21.4154 H   0  0  0  0  0  0
  -23.3745  -35.9652   23.3314 H   0  0  0  0  0  0
  -24.3584  -36.8920   22.2052 H   0  0  0  0  0  0
  -23.7242  -37.6517   23.6648 H   0  0  0  0  0  0
  -26.0571  -31.5916   20.5988 H   0  0  0  0  0  0
  -26.8256  -30.8759   21.9868 H   0  0  0  0  0  0
  -28.0995  -29.0656   21.1725 H   0  0  0  0  0  0
  -25.9919  -25.9866   18.9794 H   0  0  0  0  0  0
  -23.9653  -27.3245   19.0147 H   0  0  0  0  0  0
  -23.7226  -30.6112   19.4083 H   0  0  0  0  0  0
  -22.7353  -29.2570   19.8664 H   0  0  0  0  0  0
  -25.1284  -36.1971   25.0824 H   0  0  0  0  0  0
  -20.9969  -28.3242   24.1429 H   0  0  0  0  0  0
  -20.5688  -26.2279   23.3613 H   0  0  0  0  0  0
  -21.6637  -26.7457   22.1200 H   0  0  0  0  0  0
  -19.6918  -25.6301   21.1241 H   0  0  0  0  0  0
  -19.6692  -27.3208   20.6764 H   0  0  0  0  0  0
  -17.4200  -26.6700   21.4015 H   0  0  0  0  0  0
  -18.0310  -26.0064   22.9005 H   0  0  0  0  0  0
  -19.7932  -30.7276   24.2268 H   0  0  0  0  0  0
  -17.5008  -31.6267   24.5179 H   0  0  0  0  0  0
  -15.5350  -30.2995   23.7649 H   0  0  0  0  0  0
  -15.8664  -28.0837   22.7047 H   0  0  0  0  0  0
  -24.5934  -30.7041   25.7832 H   0  0  0  0  0  0
  -24.8925  -32.2877   26.4907 H   0  0  0  0  0  0
  -25.8107  -30.8914   27.0254 H   0  0  0  0  0  0
  -26.2858  -29.6808   24.1175 H   0  0  0  0  0  0
  -27.4102  -29.7289   25.4565 H   0  0  0  0  0  0
  -27.8684  -30.4370   23.9251 H   0  0  0  0  0  0
  -27.2681  -33.3632   26.2059 H   0  0  0  0  0  0
  -28.3858  -32.6890   25.0298 H   0  0  0  0  0  0
  -28.0735  -31.8457   26.5395 H   0  0  0  0  0  0
  -28.2602  -38.0098   24.7508 H   0  0  0  0  0  0
  -28.1063  -36.2627   24.6287 H   0  0  0  0  0  0
  -27.2300  -37.1458   25.8871 H   0  0  0  0  0  0
  -20.9305  -29.8775   21.6956 H   0  0  0  0  0  0
  -26.0180  -38.2871   24.1413 H   0  0  0  0  0  0
  -27.7860  -19.0963   24.0929 H   0  0  0  0  0  0
  -30.7667  -19.5647   20.1713 H   0  0  0  0  0  0
  -27.4772  -24.5244   18.2417 H   0  0  0  0  0  0
  -29.2034  -24.8172   18.3832 H   0  0  0  0  0  0
  -29.3587  -22.5173   18.6842 H   0  0  0  0  0  0
  -27.6895  -22.3542   19.2053 H   0  0  0  0  0  0
  -28.9935  -24.5841   22.1804 H   0  0  0  0  0  0
  -30.1818  -24.7243   20.8838 H   0  0  0  0  0  0
  -27.1799  -24.9531   20.6507 H   0  0  0  0  0  0
  -28.1182  -16.8344   24.2382 H   0  0  0  0  0  0
  -29.5298  -16.1245   23.4866 H   0  0  0  0  0  0
  -27.9621  -16.1115   22.6462 H   0  0  0  0  0  0
  -27.7880  -21.3758   24.4903 H   0  0  0  0  0  0
  -27.4034  -22.1748   22.9753 H   0  0  0  0  0  0
  -28.9845  -22.4119   23.7446 H   0  0  0  0  0  0
  -31.5643  -16.9818   21.2154 H   0  0  0  0  0  0
  -30.6324  -17.1862   19.7614 H   0  0  0  0  0  0
  -30.8050  -21.9430   20.3605 H   0  0  0  0  0  0
  -30.6144  -22.4749   21.9927 H   0  0  0  0  0  0
  -29.0662  -15.4621   21.2354 H   0  0  0  0  0  0
  -28.1623  -22.6585   21.2596 H   0  0  0  0  0  0
  1 25  1  0  0  0
  1 30  2  0  0  0
  1 85  1  0  0  0
  2  3  1  0  0  0
  2 25  1  0  0  0
  2 87  1  0  0  0
  2 88  1  0  0  0
  3  4  1  0  0  0
  3 89  1  0  0  0
  3 90  1  0  0  0
  4  5  1  0  0  0
  4 91  1  0  0  0
  4 92  1  0  0  0
  5  6  1  0  0  0
  5 26  1  0  0  0
  5 93  1  0  0  0
  6 25  1  0  0  0
  6 94  1  0  0  0
  6 95  1  0  0  0
  7  8  2  0  0  0
  7 26  1  0  0  0
  7 29  1  0  0  0
  8  9  1  0  0  0
  8 22  1  0  0  0
  9 10  1  0  0  0
  9 27  2  0  0  0
 10 11  2  0  0  0
 10 15  1  0  0  0
 11 12  1  0  0  0
 11 96  1  0  0  0
 12 13  2  0  0  0
 12 97  1  0  0  0
 13 14  1  0  0  0
 13 31  1  0  0  0
 14 15  2  0  0  0
 14 98  1  0  0  0
 15 99  1  0  0  0
 16 17  2  0  0  0
 16 21  1  0  0  0
 16 31  1  0  0  0
 17 18  1  0  0  0
 17100  1  0  0  0
 18 19  2  0  0  0
 18101  1  0  0  0
 19 20  1  0  0  0
 19 24  1  0  0  0
 20 21  2  0  0  0
 20102  1  0  0  0
 21 23  1  0  0  0
 22 28  1  0  0  0
 22 32  2  0  0  0
 26 27  1  0  0  0
 28103  1  0  0  0
 28104  1  0  0  0
 29105  1  0  0  0
 29106  1  0  0  0
 33 34  1  0  0  0
 33 66  1  0  0  0
 33 70  2  0  0  0
 34 36  1  0  0  0
 34 59  1  0  0  0
 34107  1  0  0  0
 35 44  2  0  0  0
 35 45  1  0  0  0
 35 68  1  0  0  0
 36 56  1  0  0  0
 36108  1  0  0  0
 37 39  1  0  0  0
 37 47  1  0  0  0
 37 66  1  0  0  0
 37109  1  0  0  0
 38 43  2  0  0  0
 38 46  1  0  0  0
 38 47  1  0  0  0
 39 64  1  0  0  0
 39 67  2  0  0  0
 40 52  1  0  0  0
 40 53  2  0  0  0
 40 58  1  0  0  0
 41110  1  0  0  0
 41111  1  0  0  0
 41112  1  0  0  0
 41 48  1  0  0  0
 42 43  1  0  0  0
 42 66  1  0  0  0
 42113  1  0  0  0
 42114  1  0  0  0
 43 44  1  0  0  0
 44115  1  0  0  0
 45 46  2  0  0  0
 45116  1  0  0  0
 46117  1  0  0  0
 47118  1  0  0  0
 47119  1  0  0  0
 48 56  1  0  0  0
 48 65  1  0  0  0
 48120  1  0  0  0
 49 50  1  0  0  0
 49 53  1  0  0  0
 49 64  1  0  0  0
 49121  1  0  0  0
 50 51  1  0  0  0
 50122  1  0  0  0
 50123  1  0  0  0
 51 52  1  0  0  0
 51124  1  0  0  0
 51125  1  0  0  0
 52126  1  0  0  0
 52127  1  0  0  0
 53 54  1  0  0  0
 54 55  2  0  0  0
 54128  1  0  0  0
 55 57  1  0  0  0
 55129  1  0  0  0
 56 69  2  0  0  0
 57 58  2  0  0  0
 57130  1  0  0  0
 58131  1  0  0  0
 59 60  1  0  0  0
 59 61  1  0  0  0
 59 62  1  0  0  0
 60132  1  0  0  0
 60133  1  0  0  0
 60134  1  0  0  0
 61135  1  0  0  0
 61136  1  0  0  0
 61137  1  0  0  0
 62138  1  0  0  0
 62139  1  0  0  0
 62140  1  0  0  0
 63 65  1  0  0  0
 63141  1  0  0  0
 63142  1  0  0  0
 63143  1  0  0  0
 64144  1  0  0  0
 65145  1  0  0  0
 68 80  1  0  0  0
 71 73  2  0  0  0
 71 74  1  0  0  0
 71146  1  0  0  0
 72 75  2  0  0  0
 72 76  1  0  0  0
 72147  1  0  0  0
 73 75  1  0  0  0
 73 81  1  0  0  0
 74 76  2  0  0  0
 74 82  1  0  0  0
 75 83  1  0  0  0
 76 84  1  0  0  0
 77 78  1  0  0  0
 77 80  1  0  0  0
 77148  1  0  0  0
 77149  1  0  0  0
 78 86  1  0  0  0
 78150  1  0  0  0
 78151  1  0  0  0
 79 80  1  0  0  0
 79 86  1  0  0  0
 79152  1  0  0  0
 79153  1  0  0  0
 80154  1  0  0  0
 81155  1  0  0  0
 81156  1  0  0  0
 81157  1  0  0  0
 82158  1  0  0  0
 82159  1  0  0  0
 82160  1  0  0  0
 83 85  1  0  0  0
 83161  1  0  0  0
 83162  1  0  0  0
 84163  1  0  0  0
 84164  1  0  0  0
 84 86  1  0  0  0
 85165  1  0  0  0
 86166  1  0  0  0
M  CHG  1  86   1
M  ISO  4   1 100  68 101  80 101  85 100
M  END
> <chiral flag>
0

> <version>
0

> <s_m_source_file>
/data/baiqing/PycharmProjects/Reinvent-master-3.2/result/LINK_invent/BTK/process_docking_weight1_custom_product_contain_oxygen_bond_distance_aromatic_linkinvent_7_9_3/rearranged_h_0031.sdf

> <i_m_source_file_index>
66

> <r_mmod_Potential_Energy-OPLS-2005>
-135.806838989258

> <r_mmod_Stretch_Energy-OPLS-2005>
46.4220962524414

> <r_mmod_Bend_Energy-OPLS-2005>
140.106521606445

> <r_mmod_Torsional_Energy-OPLS-2005>
255.568344116211

> <r_mmod_Improper_Torsional_Energy-OPLS-2005>
5.10112714767456

> <r_mmod_Van_der_Waal_Energy-OPLS-2005>
152.736633300781

> <r_mmod_Electrostatic_Energy-OPLS-2005>
-333.212249755859

> <r_mmod_Solvation_Energy-OPLS-2005>
-423.214294433594

> <b_mmod_Minimization_Converged-OPLS-2005>
0

> <r_mmod_RMS_Derivative-OPLS-2005>
0.958209574222565

$$$$
66
                    3D
 Structure written by MMmdl.
162170  0  0  1  0            999 V2000
  -30.7234  -14.5451   20.5402 C   0  0  0  0  0  0
  -30.4169  -12.3578   19.4209 C   0  0  0  0  0  0
  -29.4837  -12.4950   18.2017 C   0  0  0  0  0  0
  -28.0108  -12.3224   18.6253 C   0  0  0  0  0  0
  -27.6482  -13.1798   19.8651 C   0  0  2  0  0  0
  -28.7083  -13.0052   20.9827 C   0  0  0  0  0  0
  -25.2565  -13.8063   20.5688 C   0  0  0  0  0  0
  -24.1794  -13.0385   20.9197 C   0  0  0  0  0  0
  -24.6328  -11.6848   20.8768 C   0  0  0  0  0  0
  -23.8990  -10.4260   21.0427 C   0  0  0  0  0  0
  -24.3561   -9.4181   21.9196 C   0  0  0  0  0  0
  -23.6261   -8.2208   22.0749 C   0  0  0  0  0  0
  -22.4251   -8.0244   21.3533 C   0  0  0  0  0  0
  -21.9871   -9.0215   20.4640 C   0  0  0  0  0  0
  -22.7175  -10.2106   20.3067 C   0  0  0  0  0  0
  -21.6841   -6.0716   22.5276 C   0  0  0  0  0  0
  -21.4004   -6.5627   23.8206 C   0  0  0  0  0  0
  -21.3665   -5.6789   24.9176 C   0  0  0  0  0  0
  -21.6047   -4.3049   24.7223 C   0  0  0  0  0  0
  -21.8826   -3.8134   23.4351 C   0  0  0  0  0  0
  -21.9188   -4.6944   22.3404 C   0  0  0  0  0  0
  -22.7837  -13.5222   21.1858 C   0  0  0  0  0  0
  -22.1662   -4.2134   21.0980 F   0  0  0  0  0  0
  -21.5635   -3.4538   25.7740 F   0  0  0  0  0  0
  -30.0062  -13.3816   20.4062 N   0  0  0  0  0  0
  -26.2955  -12.9169   20.3379 N   0  0  0  0  0  0
  -25.9247  -11.6364   20.5814 N   0  0  0  0  0  0
  -22.0470  -12.8223   22.0414 N   0  0  0  0  0  0
  -25.4291  -15.1774   20.4084 N   0  0  0  0  0  0
  -31.9056  -14.5628   20.1868 O   0  0  0  0  0  0
  -21.6626   -6.8843   21.4229 O   0  0  0  0  0  0
  -22.3545  -14.5541   20.6708 O   0  0  0  0  0  0
  -24.6152  -31.8681   23.2125 C   0  0  0  0  0  0
  -25.9045  -32.4830   23.8405 C   0  0  1  0  0  0
  -27.2332  -27.4241   20.0978 C   0  0  0  0  0  0
  -25.5901  -33.8629   24.2335 N   0  0  0  0  0  0
  -23.4037  -30.4923   21.5530 C   0  0  2  0  0  0
  -24.8503  -28.9604   20.1158 C   0  0  0  0  0  0
  -22.7415  -29.4663   22.5000 C   0  0  0  0  0  0
  -18.0278  -28.1384   22.8499 C   0  0  0  0  0  0
  -24.1487  -36.7311   23.2631 C   0  0  0  0  0  0
  -25.9339  -30.8311   21.3683 C   0  0  0  0  0  0
  -26.0120  -29.4658   20.7120 C   0  0  0  0  0  0
  -27.2052  -28.7060   20.6986 C   0  0  0  0  0  0
  -26.0493  -26.9431   19.4868 C   0  0  0  0  0  0
  -24.8644  -27.6989   19.5008 C   0  0  0  0  0  0
  -23.6141  -29.8279   20.1666 C   0  0  0  0  0  0
  -25.4109  -36.3118   24.0336 C   0  0  1  0  0  0
  -20.5871  -28.3667   23.1325 C   0  0  2  0  0  0
  -20.6776  -26.9406   22.5414 C   0  0  0  0  0  0
  -19.5755  -26.6392   21.5216 C   0  0  0  0  0  0
  -18.1933  -26.7935   22.1625 C   0  0  0  0  0  0
  -19.1526  -28.8843   23.2912 C   0  0  0  0  0  0
  -18.9448  -30.1453   23.8922 C   0  0  0  0  0  0
  -17.6448  -30.6593   24.0566 C   0  0  0  0  0  0
  -25.9034  -34.9479   23.5129 C   0  0  0  0  0  0
  -16.5343  -29.9093   23.6330 C   0  0  0  0  0  0
  -16.7265  -28.6508   23.0356 C   0  0  0  0  0  0
  -26.4471  -31.6616   25.0733 C   0  0  0  0  0  0
  -25.3730  -31.3723   26.1474 C   0  0  0  0  0  0
  -27.0302  -30.3063   24.6110 C   0  0  0  0  0  0
  -27.6060  -32.4321   25.7485 C   0  0  0  0  0  0
  -27.5589  -37.1805   24.8459 C   0  0  0  0  0  0
  -21.4143  -29.3036   22.3735 N   0  0  0  0  0  0
  -26.4298  -37.3799   23.9414 N   0  0  0  0  0  0
  -24.6692  -31.0769   22.1038 N   0  0  0  0  0  0
  -23.4184  -28.8198   23.3036 O   0  0  0  0  0  0
  -28.3995  -26.6772   20.1348 O   0  0  0  0  0  0
  -26.5584  -34.8924   22.4686 O   0  0  0  0  0  0
  -23.5342  -32.1426   23.7514 O   0  0  0  0  0  0
  -30.2937  -20.6095   18.8800 C   0  0  0  0  0  0
  -30.3357  -19.3641   18.2440 C   0  0  0  0  0  0
  -30.4734  -20.7188   20.2733 C   0  0  0  0  0  0
  -30.7211  -19.5250   21.0306 C   0  0  0  0  0  0
  -30.7243  -18.2356   20.3909 C   0  0  0  0  0  0
  -30.5535  -18.1877   18.9765 C   0  0  0  0  0  0
  -31.0271  -19.6164   22.5266 C   0  0  0  0  0  0
  -28.7193  -16.1094   20.9179 C   0  0  0  0  0  0
  -30.9766  -16.9348   21.2186 C   0  0  0  0  0  0
  -30.4585  -22.1501   20.8609 C   0  0  0  0  0  0
  -29.4885  -24.4618   20.5275 C   0  0  0  0  0  0
  -28.2700  -25.2494   19.9836 C   0  0  0  0  0  0
  -30.1411  -15.7274   20.9517 N   0  0  0  0  0  0
  -29.3383  -22.9843   20.3512 N   0  3  0  0  0  0
  -30.6428  -16.7305   18.0513 Cl  0  0  0  0  0  0
  -31.4572  -12.4507   19.1041 H   0  0  0  0  0  0
  -30.3390  -11.3585   19.8508 H   0  0  0  0  0  0
  -29.7429  -11.7548   17.4436 H   0  0  0  0  0  0
  -29.6230  -13.4724   17.7375 H   0  0  0  0  0  0
  -27.8515  -11.2668   18.8467 H   0  0  0  0  0  0
  -27.3457  -12.5583   17.7940 H   0  0  0  0  0  0
  -27.6587  -14.1993   19.5000 H   0  0  0  0  0  0
  -28.7330  -11.9606   21.2990 H   0  0  0  0  0  0
  -28.4847  -13.5421   21.9006 H   0  0  0  0  0  0
  -25.2700   -9.5674   22.4770 H   0  0  0  0  0  0
  -23.9981   -7.4602   22.7463 H   0  0  0  0  0  0
  -21.0807   -8.8715   19.8947 H   0  0  0  0  0  0
  -22.3617  -10.9645   19.6178 H   0  0  0  0  0  0
  -21.1987   -7.6134   23.9705 H   0  0  0  0  0  0
  -21.1487   -6.0519   25.9079 H   0  0  0  0  0  0
  -22.0597   -2.7595   23.2853 H   0  0  0  0  0  0
  -22.4075  -11.9870   22.4776 H   0  0  0  0  0  0
  -21.1095  -13.1257   22.2647 H   0  0  0  0  0  0
  -24.6671  -15.8347   20.5327 H   0  0  0  0  0  0
  -26.2925  -15.6181   20.1200 H   0  0  0  0  0  0
  -26.7109  -32.5544   23.1162 H   0  0  0  0  0  0
  -25.0085  -33.9792   25.0501 H   0  0  0  0  0  0
  -22.6936  -31.3102   21.4142 H   0  0  0  0  0  0
  -23.3764  -35.9628   23.3288 H   0  0  0  0  0  0
  -24.3583  -36.8931   22.2047 H   0  0  0  0  0  0
  -23.7219  -37.6504   23.6648 H   0  0  0  0  0  0
  -26.0445  -31.6004   20.6031 H   0  0  0  0  0  0
  -26.8225  -30.8838   21.9861 H   0  0  0  0  0  0
  -28.1005  -29.0910   21.1674 H   0  0  0  0  0  0
  -26.0145  -25.9842   18.9915 H   0  0  0  0  0  0
  -23.9709  -27.3065   19.0349 H   0  0  0  0  0  0
  -23.7280  -30.6045   19.4091 H   0  0  0  0  0  0
  -22.7377  -29.2502   19.8665 H   0  0  0  0  0  0
  -25.1287  -36.1979   25.0828 H   0  0  0  0  0  0
  -20.9954  -28.3222   24.1449 H   0  0  0  0  0  0
  -20.5705  -26.2262   23.3591 H   0  0  0  0  0  0
  -21.6643  -26.7472   22.1192 H   0  0  0  0  0  0
  -19.6915  -25.6302   21.1251 H   0  0  0  0  0  0
  -19.6707  -27.3201   20.6747 H   0  0  0  0  0  0
  -17.4203  -26.6689   21.4031 H   0  0  0  0  0  0
  -18.0335  -26.0073   22.9016 H   0  0  0  0  0  0
  -19.7917  -30.7270   24.2307 H   0  0  0  0  0  0
  -17.4998  -31.6278   24.5154 H   0  0  0  0  0  0
  -15.5345  -30.2998   23.7643 H   0  0  0  0  0  0
  -15.8667  -28.0831   22.7065 H   0  0  0  0  0  0
  -24.5887  -30.7099   25.7792 H   0  0  0  0  0  0
  -24.8936  -32.2881   26.4941 H   0  0  0  0  0  0
  -25.8060  -30.8856   27.0220 H   0  0  0  0  0  0
  -26.2848  -29.6830   24.1156 H   0  0  0  0  0  0
  -27.4069  -29.7295   25.4568 H   0  0  0  0  0  0
  -27.8685  -30.4396   23.9268 H   0  0  0  0  0  0
  -27.2709  -33.3614   26.2101 H   0  0  0  0  0  0
  -28.3850  -32.6890   25.0296 H   0  0  0  0  0  0
  -28.0752  -31.8417   26.5364 H   0  0  0  0  0  0
  -28.2592  -38.0119   24.7546 H   0  0  0  0  0  0
  -28.1106  -36.2656   24.6248 H   0  0  0  0  0  0
  -27.2308  -37.1403   25.8858 H   0  0  0  0  0  0
  -20.9304  -29.8738   21.6943 H   0  0  0  0  0  0
  -26.0193  -38.2873   24.1444 H   0  0  0  0  0  0
  -30.1451  -21.4859   18.2661 H   0  0  0  0  0  0
  -30.2156  -19.3150   17.1716 H   0  0  0  0  0  0
  -31.3989  -20.5863   22.8437 H   0  0  0  0  0  0
  -31.8228  -18.9285   22.8121 H   0  0  0  0  0  0
  -30.1387  -19.3778   23.1126 H   0  0  0  0  0  0
  -28.0659  -15.4923   21.5209 H   0  0  0  0  0  0
  -28.3698  -16.1433   19.8878 H   0  0  0  0  0  0
  -28.5525  -17.1111   21.3158 H   0  0  0  0  0  0
  -30.7956  -17.1179   22.2759 H   0  0  0  0  0  0
  -32.0473  -16.7339   21.1601 H   0  0  0  0  0  0
  -31.4105  -22.6182   20.6064 H   0  0  0  0  0  0
  -30.3852  -22.1629   21.9455 H   0  0  0  0  0  0
  -29.6237  -24.6905   21.5856 H   0  0  0  0  0  0
  -30.3906  -24.7973   20.0150 H   0  0  0  0  0  0
  -27.3842  -24.8998   20.5175 H   0  0  0  0  0  0
  -28.1261  -25.0201   18.9267 H   0  0  0  0  0  0
  -28.4954  -22.6685   20.8060 H   0  0  0  0  0  0
  -29.2435  -22.7869   19.3685 H   0  0  0  0  0  0
  1 25  1  0  0  0
  1 30  2  0  0  0
  1 83  1  0  0  0
  2  3  1  0  0  0
  2 25  1  0  0  0
  2 86  1  0  0  0
  2 87  1  0  0  0
  3  4  1  0  0  0
  3 88  1  0  0  0
  3 89  1  0  0  0
  4  5  1  0  0  0
  4 90  1  0  0  0
  4 91  1  0  0  0
  5  6  1  0  0  0
  5 26  1  0  0  0
  5 92  1  0  0  0
  6 25  1  0  0  0
  6 93  1  0  0  0
  6 94  1  0  0  0
  7  8  2  0  0  0
  7 26  1  0  0  0
  7 29  1  0  0  0
  8  9  1  0  0  0
  8 22  1  0  0  0
  9 10  1  0  0  0
  9 27  2  0  0  0
 10 11  2  0  0  0
 10 15  1  0  0  0
 11 12  1  0  0  0
 11 95  1  0  0  0
 12 13  2  0  0  0
 12 96  1  0  0  0
 13 14  1  0  0  0
 13 31  1  0  0  0
 14 15  2  0  0  0
 14 97  1  0  0  0
 15 98  1  0  0  0
 16 17  2  0  0  0
 16 21  1  0  0  0
 16 31  1  0  0  0
 17 18  1  0  0  0
 17 99  1  0  0  0
 18 19  2  0  0  0
 18100  1  0  0  0
 19 20  1  0  0  0
 19 24  1  0  0  0
 20 21  2  0  0  0
 20101  1  0  0  0
 21 23  1  0  0  0
 22 28  1  0  0  0
 22 32  2  0  0  0
 26 27  1  0  0  0
 28102  1  0  0  0
 28103  1  0  0  0
 29104  1  0  0  0
 29105  1  0  0  0
 33 34  1  0  0  0
 33 66  1  0  0  0
 33 70  2  0  0  0
 34 36  1  0  0  0
 34 59  1  0  0  0
 34106  1  0  0  0
 35 44  2  0  0  0
 35 45  1  0  0  0
 35 68  1  0  0  0
 36 56  1  0  0  0
 36107  1  0  0  0
 37 39  1  0  0  0
 37 47  1  0  0  0
 37 66  1  0  0  0
 37108  1  0  0  0
 38 43  2  0  0  0
 38 46  1  0  0  0
 38 47  1  0  0  0
 39 64  1  0  0  0
 39 67  2  0  0  0
 40 52  1  0  0  0
 40 53  2  0  0  0
 40 58  1  0  0  0
 41109  1  0  0  0
 41110  1  0  0  0
 41111  1  0  0  0
 41 48  1  0  0  0
 42 43  1  0  0  0
 42 66  1  0  0  0
 42112  1  0  0  0
 42113  1  0  0  0
 43 44  1  0  0  0
 44114  1  0  0  0
 45 46  2  0  0  0
 45115  1  0  0  0
 46116  1  0  0  0
 47117  1  0  0  0
 47118  1  0  0  0
 48 56  1  0  0  0
 48 65  1  0  0  0
 48119  1  0  0  0
 49 50  1  0  0  0
 49 53  1  0  0  0
 49 64  1  0  0  0
 49120  1  0  0  0
 50 51  1  0  0  0
 50121  1  0  0  0
 50122  1  0  0  0
 51 52  1  0  0  0
 51123  1  0  0  0
 51124  1  0  0  0
 52125  1  0  0  0
 52126  1  0  0  0
 53 54  1  0  0  0
 54 55  2  0  0  0
 54127  1  0  0  0
 55 57  1  0  0  0
 55128  1  0  0  0
 56 69  2  0  0  0
 57 58  2  0  0  0
 57129  1  0  0  0
 58130  1  0  0  0
 59 60  1  0  0  0
 59 61  1  0  0  0
 59 62  1  0  0  0
 60131  1  0  0  0
 60132  1  0  0  0
 60133  1  0  0  0
 61134  1  0  0  0
 61135  1  0  0  0
 61136  1  0  0  0
 62137  1  0  0  0
 62138  1  0  0  0
 62139  1  0  0  0
 63 65  1  0  0  0
 63140  1  0  0  0
 63141  1  0  0  0
 63142  1  0  0  0
 64143  1  0  0  0
 65144  1  0  0  0
 68 82  1  0  0  0
 71 72  2  0  0  0
 71 73  1  0  0  0
 71145  1  0  0  0
 72 76  1  0  0  0
 72146  1  0  0  0
 73 74  2  0  0  0
 73 80  1  0  0  0
 74 75  1  0  0  0
 74 77  1  0  0  0
 75 76  2  0  0  0
 75 79  1  0  0  0
 76 85  1  0  0  0
 77147  1  0  0  0
 77148  1  0  0  0
 77149  1  0  0  0
 78 83  1  0  0  0
 78150  1  0  0  0
 78151  1  0  0  0
 78152  1  0  0  0
 79 83  1  0  0  0
 79153  1  0  0  0
 79154  1  0  0  0
 80 84  1  0  0  0
 80155  1  0  0  0
 80156  1  0  0  0
 81 82  1  0  0  0
 81 84  1  0  0  0
 81157  1  0  0  0
 81158  1  0  0  0
 82159  1  0  0  0
 82160  1  0  0  0
 84161  1  0  0  0
 84162  1  0  0  0
M  CHG  1  84   1
M  ISO  4   1 100  68 101  82 101  83 100
M  END
> <chiral flag>
0

> <version>
0

> <s_m_source_file>
/data/baiqing/PycharmProjects/Reinvent-master-3.2/result/LINK_invent/BTK/process_docking_weight1_custom_product_contain_oxygen_bond_distance_aromatic_linkinvent_7_9_3/rearranged_h_0031.sdf

> <i_m_source_file_index>
67

> <r_mmod_Potential_Energy-OPLS-2005>
-20.2871894836426

> <r_mmod_Stretch_Energy-OPLS-2005>
55.7292518615723

> <r_mmod_Bend_Energy-OPLS-2005>
136.782012939453

> <r_mmod_Torsional_Energy-OPLS-2005>
235.588134765625

> <r_mmod_Improper_Torsional_Energy-OPLS-2005>
2.91936230659485

> <r_mmod_Van_der_Waal_Energy-OPLS-2005>
181.844329833984

> <r_mmod_Electrostatic_Energy-OPLS-2005>
-201.480987548828

> <r_mmod_Solvation_Energy-OPLS-2005>
-456.864349365234

> <b_mmod_Minimization_Converged-OPLS-2005>
0

> <r_mmod_RMS_Derivative-OPLS-2005>
1.60184586048126

$$$$
67
                    3D
 Structure written by MMmdl.
153162  0  0  1  0            999 V2000
  -30.6373  -14.7125   20.4782 C   0  0  0  0  0  0
  -30.4273  -12.4418   19.4631 C   0  0  0  0  0  0
  -29.5029  -12.4998   18.2286 C   0  0  0  0  0  0
  -28.0307  -12.3265   18.6481 C   0  0  0  0  0  0
  -27.6404  -13.2305   19.8486 C   0  0  2  0  0  0
  -28.6862  -13.1634   20.9819 C   0  0  0  0  0  0
  -25.2507  -13.8199   20.5706 C   0  0  0  0  0  0
  -24.1798  -13.0440   20.9212 C   0  0  0  0  0  0
  -24.6390  -11.6918   20.8750 C   0  0  0  0  0  0
  -23.9068  -10.4295   21.0412 C   0  0  0  0  0  0
  -24.3621   -9.4209   21.9189 C   0  0  0  0  0  0
  -23.6298   -8.2243   22.0754 C   0  0  0  0  0  0
  -22.4280   -8.0281   21.3544 C   0  0  0  0  0  0
  -21.9917   -9.0253   20.4645 C   0  0  0  0  0  0
  -22.7243  -10.2133   20.3058 C   0  0  0  0  0  0
  -21.6855   -6.0740   22.5280 C   0  0  0  0  0  0
  -21.4011   -6.5642   23.8214 C   0  0  0  0  0  0
  -21.3658   -5.6794   24.9174 C   0  0  0  0  0  0
  -21.6045   -4.3057   24.7225 C   0  0  0  0  0  0
  -21.8817   -3.8151   23.4346 C   0  0  0  0  0  0
  -21.9193   -4.6969   22.3403 C   0  0  0  0  0  0
  -22.7818  -13.5219   21.1872 C   0  0  0  0  0  0
  -22.1662   -4.2155   21.0981 F   0  0  0  0  0  0
  -21.5629   -3.4539   25.7738 F   0  0  0  0  0  0
  -29.9867  -13.5046   20.3943 N   0  0  0  0  0  0
  -26.2934  -12.9408   20.3290 N   0  0  0  0  0  0
  -25.9321  -11.6549   20.5760 N   0  0  0  0  0  0
  -22.0475  -12.8199   22.0429 N   0  0  0  0  0  0
  -25.4190  -15.1923   20.4141 N   0  0  0  0  0  0
  -31.8290  -14.7885   20.1704 O   0  0  0  0  0  0
  -21.6640   -6.8882   21.4242 O   0  0  0  0  0  0
  -22.3500  -14.5531   20.6733 O   0  0  0  0  0  0
  -24.6312  -31.8553   23.1975 C   0  0  0  0  0  0
  -25.9144  -32.4753   23.8315 C   0  0  1  0  0  0
  -27.2189  -27.2731   20.1201 C   0  0  0  0  0  0
  -25.5952  -33.8553   24.2239 N   0  0  0  0  0  0
  -23.4257  -30.4796   21.5404 C   0  0  2  0  0  0
  -24.8703  -28.9259   20.1102 C   0  0  0  0  0  0
  -22.7498  -29.4612   22.4904 C   0  0  0  0  0  0
  -18.0293  -28.1386   22.8492 C   0  0  0  0  0  0
  -24.1491  -36.7269   23.2639 C   0  0  0  0  0  0
  -25.9708  -30.7719   21.3749 C   0  0  0  0  0  0
  -26.0419  -29.3954   20.7168 C   0  0  0  0  0  0
  -27.2174  -28.5806   20.7111 C   0  0  0  0  0  0
  -26.0179  -26.8620   19.4980 C   0  0  0  0  0  0
  -24.8629  -27.6674   19.4913 C   0  0  0  0  0  0
  -23.6423  -29.8135   20.1563 C   0  0  0  0  0  0
  -25.4118  -36.3058   24.0322 C   0  0  1  0  0  0
  -20.5898  -28.3702   23.1266 C   0  0  2  0  0  0
  -20.6788  -26.9423   22.5399 C   0  0  0  0  0  0
  -19.5759  -26.6389   21.5213 C   0  0  0  0  0  0
  -18.1934  -26.7929   22.1622 C   0  0  0  0  0  0
  -19.1548  -28.8860   23.2877 C   0  0  0  0  0  0
  -18.9474  -30.1466   23.8890 C   0  0  0  0  0  0
  -17.6475  -30.6592   24.0574 C   0  0  0  0  0  0
  -25.9064  -34.9437   23.5075 C   0  0  0  0  0  0
  -16.5366  -29.9089   23.6345 C   0  0  0  0  0  0
  -16.7282  -28.6509   23.0358 C   0  0  0  0  0  0
  -26.4508  -31.6581   25.0707 C   0  0  0  0  0  0
  -25.3723  -31.3745   26.1426 C   0  0  0  0  0  0
  -27.0365  -30.3000   24.6193 C   0  0  0  0  0  0
  -27.6060  -32.4327   25.7479 C   0  0  0  0  0  0
  -27.5572  -37.1791   24.8467 C   0  0  0  0  0  0
  -21.4203  -29.3053   22.3656 N   0  0  0  0  0  0
  -26.4283  -37.3763   23.9413 N   0  0  0  0  0  0
  -24.6947  -31.0533   22.0938 N   0  0  0  0  0  0
  -23.4203  -28.8151   23.2997 O   0  0  0  0  0  0
  -28.3350  -26.4097   20.1766 O   0  0  0  0  0  0
  -26.5632  -34.8920   22.4641 O   0  0  0  0  0  0
  -23.5470  -32.1373   23.7288 O   0  0  0  0  0  0
  -30.4487  -19.4754   19.6213 C   0  0  0  0  0  0
  -28.4259  -20.6803   21.0572 C   0  0  0  0  0  0
  -29.8303  -18.6507   20.5957 C   0  0  0  0  0  0
  -29.0559  -21.5402   20.1005 C   0  0  0  0  0  0
  -30.0850  -20.8395   19.3839 C   0  0  0  0  0  0
  -28.7861  -19.3084   21.3090 C   0  0  0  0  0  0
  -29.5419  -24.1012   19.6681 C   0  0  0  0  0  0
  -27.6995  -23.7931   20.5424 C   0  0  0  0  0  0
  -28.2558  -24.9952   19.6875 C   0  0  0  0  0  0
  -30.4808  -17.2476   20.9939 C   0  0  0  0  0  0
  -28.6383  -22.9382   19.7861 N   0  0  0  0  0  0
  -29.9089  -15.8617   20.7322 N   0  0  0  0  0  0
  -30.9564  -21.6463   18.1281 Cl  0  0  0  0  0  0
  -27.9471  -18.4531   22.5530 Cl  0  0  0  0  0  0
  -31.4677  -12.5619   19.1567 H   0  0  0  0  0  0
  -30.3690  -11.4655   19.9467 H   0  0  0  0  0  0
  -29.7805  -11.7251   17.5127 H   0  0  0  0  0  0
  -29.6300  -13.4535   17.7140 H   0  0  0  0  0  0
  -27.8890  -11.2787   18.9158 H   0  0  0  0  0  0
  -27.3696  -12.5149   17.8012 H   0  0  0  0  0  0
  -27.6354  -14.2517   19.4671 H   0  0  0  0  0  0
  -28.7178  -12.1678   21.4263 H   0  0  0  0  0  0
  -28.4262  -13.8507   21.7890 H   0  0  0  0  0  0
  -25.2767   -9.5685   22.4761 H   0  0  0  0  0  0
  -24.0010   -7.4634   22.7472 H   0  0  0  0  0  0
  -21.0852   -8.8771   19.8950 H   0  0  0  0  0  0
  -22.3707  -10.9671   19.6166 H   0  0  0  0  0  0
  -21.2002   -7.6150   23.9718 H   0  0  0  0  0  0
  -21.1482   -6.0525   25.9077 H   0  0  0  0  0  0
  -22.0600   -2.7614   23.2845 H   0  0  0  0  0  0
  -22.4098  -11.9849   22.4788 H   0  0  0  0  0  0
  -21.1099  -13.1218   22.2660 H   0  0  0  0  0  0
  -24.6517  -15.8445   20.5348 H   0  0  0  0  0  0
  -26.2689  -15.6390   20.0943 H   0  0  0  0  0  0
  -26.7205  -32.5406   23.1051 H   0  0  0  0  0  0
  -25.0149  -33.9694   25.0419 H   0  0  0  0  0  0
  -22.7224  -31.3026   21.3948 H   0  0  0  0  0  0
  -23.3766  -35.9590   23.3299 H   0  0  0  0  0  0
  -24.3582  -36.8887   22.2054 H   0  0  0  0  0  0
  -23.7236  -37.6463   23.6668 H   0  0  0  0  0  0
  -26.1090  -31.5336   20.6065 H   0  0  0  0  0  0
  -26.8486  -30.8181   22.0084 H   0  0  0  0  0  0
  -28.1158  -28.9373   21.1956 H   0  0  0  0  0  0
  -25.9303  -25.8951   19.0281 H   0  0  0  0  0  0
  -23.9623  -27.3008   19.0178 H   0  0  0  0  0  0
  -23.7683  -30.5890   19.4001 H   0  0  0  0  0  0
  -22.7601  -29.2466   19.8525 H   0  0  0  0  0  0
  -25.1301  -36.1890   25.0813 H   0  0  0  0  0  0
  -21.0000  -28.3281   24.1384 H   0  0  0  0  0  0
  -20.5697  -26.2316   23.3605 H   0  0  0  0  0  0
  -21.6654  -26.7446   22.1190 H   0  0  0  0  0  0
  -19.6925  -25.6296   21.1252 H   0  0  0  0  0  0
  -19.6690  -27.3203   20.6743 H   0  0  0  0  0  0
  -17.4207  -26.6692   21.4023 H   0  0  0  0  0  0
  -18.0331  -26.0055   22.9002 H   0  0  0  0  0  0
  -19.7954  -30.7294   24.2238 H   0  0  0  0  0  0
  -17.5034  -31.6274   24.5175 H   0  0  0  0  0  0
  -15.5371  -30.3000   23.7669 H   0  0  0  0  0  0
  -15.8679  -28.0842   22.7061 H   0  0  0  0  0  0
  -24.5918  -30.7059   25.7764 H   0  0  0  0  0  0
  -24.8903  -32.2926   26.4800 H   0  0  0  0  0  0
  -25.8045  -30.8969   27.0231 H   0  0  0  0  0  0
  -26.2947  -29.6733   24.1226 H   0  0  0  0  0  0
  -27.4064  -29.7271   25.4704 H   0  0  0  0  0  0
  -27.8808  -30.4274   23.9414 H   0  0  0  0  0  0
  -27.2673  -33.3663   26.1983 H   0  0  0  0  0  0
  -28.3912  -32.6821   25.0328 H   0  0  0  0  0  0
  -28.0673  -31.8492   26.5458 H   0  0  0  0  0  0
  -28.2588  -38.0093   24.7528 H   0  0  0  0  0  0
  -28.1070  -36.2624   24.6276 H   0  0  0  0  0  0
  -27.2295  -37.1410   25.8873 H   0  0  0  0  0  0
  -20.9387  -29.8774   21.6859 H   0  0  0  0  0  0
  -26.0155  -38.2828   24.1439 H   0  0  0  0  0  0
  -31.2692  -19.0672   19.0493 H   0  0  0  0  0  0
  -27.6170  -21.0909   21.6425 H   0  0  0  0  0  0
  -30.1861  -24.2338   20.5393 H   0  0  0  0  0  0
  -30.0984  -24.1636   18.7329 H   0  0  0  0  0  0
  -26.6461  -23.5685   20.3681 H   0  0  0  0  0  0
  -27.9369  -23.8559   21.6066 H   0  0  0  0  0  0
  -27.8407  -24.9912   18.6769 H   0  0  0  0  0  0
  -30.6346  -17.2947   22.0729 H   0  0  0  0  0  0
  -31.4936  -17.2676   20.5886 H   0  0  0  0  0  0
  -28.9219  -15.7422   20.9016 H   0  0  0  0  0  0
  1 25  1  0  0  0
  1 30  2  0  0  0
  1 82  1  0  0  0
  2  3  1  0  0  0
  2 25  1  0  0  0
  2 85  1  0  0  0
  2 86  1  0  0  0
  3  4  1  0  0  0
  3 87  1  0  0  0
  3 88  1  0  0  0
  4  5  1  0  0  0
  4 89  1  0  0  0
  4 90  1  0  0  0
  5  6  1  0  0  0
  5 26  1  0  0  0
  5 91  1  0  0  0
  6 25  1  0  0  0
  6 92  1  0  0  0
  6 93  1  0  0  0
  7  8  2  0  0  0
  7 26  1  0  0  0
  7 29  1  0  0  0
  8  9  1  0  0  0
  8 22  1  0  0  0
  9 10  1  0  0  0
  9 27  2  0  0  0
 10 11  2  0  0  0
 10 15  1  0  0  0
 11 12  1  0  0  0
 11 94  1  0  0  0
 12 13  2  0  0  0
 12 95  1  0  0  0
 13 14  1  0  0  0
 13 31  1  0  0  0
 14 15  2  0  0  0
 14 96  1  0  0  0
 15 97  1  0  0  0
 16 17  2  0  0  0
 16 21  1  0  0  0
 16 31  1  0  0  0
 17 18  1  0  0  0
 17 98  1  0  0  0
 18 19  2  0  0  0
 18 99  1  0  0  0
 19 20  1  0  0  0
 19 24  1  0  0  0
 20 21  2  0  0  0
 20100  1  0  0  0
 21 23  1  0  0  0
 22 28  1  0  0  0
 22 32  2  0  0  0
 26 27  1  0  0  0
 28101  1  0  0  0
 28102  1  0  0  0
 29103  1  0  0  0
 29104  1  0  0  0
 33 34  1  0  0  0
 33 66  1  0  0  0
 33 70  2  0  0  0
 34 36  1  0  0  0
 34 59  1  0  0  0
 34105  1  0  0  0
 35 44  2  0  0  0
 35 45  1  0  0  0
 35 68  1  0  0  0
 36 56  1  0  0  0
 36106  1  0  0  0
 37 39  1  0  0  0
 37 47  1  0  0  0
 37 66  1  0  0  0
 37107  1  0  0  0
 38 43  2  0  0  0
 38 46  1  0  0  0
 38 47  1  0  0  0
 39 64  1  0  0  0
 39 67  2  0  0  0
 40 52  1  0  0  0
 40 53  2  0  0  0
 40 58  1  0  0  0
 41108  1  0  0  0
 41109  1  0  0  0
 41110  1  0  0  0
 41 48  1  0  0  0
 42 43  1  0  0  0
 42 66  1  0  0  0
 42111  1  0  0  0
 42112  1  0  0  0
 43 44  1  0  0  0
 44113  1  0  0  0
 45 46  2  0  0  0
 45114  1  0  0  0
 46115  1  0  0  0
 47116  1  0  0  0
 47117  1  0  0  0
 48 56  1  0  0  0
 48 65  1  0  0  0
 48118  1  0  0  0
 49 50  1  0  0  0
 49 53  1  0  0  0
 49 64  1  0  0  0
 49119  1  0  0  0
 50 51  1  0  0  0
 50120  1  0  0  0
 50121  1  0  0  0
 51 52  1  0  0  0
 51122  1  0  0  0
 51123  1  0  0  0
 52124  1  0  0  0
 52125  1  0  0  0
 53 54  1  0  0  0
 54 55  2  0  0  0
 54126  1  0  0  0
 55 57  1  0  0  0
 55127  1  0  0  0
 56 69  2  0  0  0
 57 58  2  0  0  0
 57128  1  0  0  0
 58129  1  0  0  0
 59 60  1  0  0  0
 59 61  1  0  0  0
 59 62  1  0  0  0
 60130  1  0  0  0
 60131  1  0  0  0
 60132  1  0  0  0
 61133  1  0  0  0
 61134  1  0  0  0
 61135  1  0  0  0
 62136  1  0  0  0
 62137  1  0  0  0
 62138  1  0  0  0
 63 65  1  0  0  0
 63139  1  0  0  0
 63140  1  0  0  0
 63141  1  0  0  0
 64142  1  0  0  0
 65143  1  0  0  0
 68 79  1  0  0  0
 71 73  2  0  0  0
 71 75  1  0  0  0
 71144  1  0  0  0
 72 74  1  0  0  0
 72 76  2  0  0  0
 72145  1  0  0  0
 73 76  1  0  0  0
 73 80  1  0  0  0
 74 75  2  0  0  0
 74 81  1  0  0  0
 75 83  1  0  0  0
 76 84  1  0  0  0
 77 79  1  0  0  0
 77 81  1  0  0  0
 77146  1  0  0  0
 77147  1  0  0  0
 78 79  1  0  0  0
 78 81  1  0  0  0
 78148  1  0  0  0
 78149  1  0  0  0
 79150  1  0  0  0
 80 82  1  0  0  0
 80151  1  0  0  0
 80152  1  0  0  0
 82153  1  0  0  0
M  ISO  4   1 100  68 101  79 101  82 100
M  END
> <chiral flag>
0

> <version>
0

> <s_m_source_file>
/data/baiqing/PycharmProjects/Reinvent-master-3.2/result/LINK_invent/BTK/process_docking_weight1_custom_product_contain_oxygen_bond_distance_aromatic_linkinvent_7_9_3/rearranged_h_0031.sdf

> <i_m_source_file_index>
68

> <r_mmod_Potential_Energy-OPLS-2005>
207.126342773438

> <r_mmod_Stretch_Energy-OPLS-2005>
103.916297912598

> <r_mmod_Bend_Energy-OPLS-2005>
235.1162109375

> <r_mmod_Torsional_Energy-OPLS-2005>
224.977066040039

> <r_mmod_Improper_Torsional_Energy-OPLS-2005>
11.9818296432495

> <r_mmod_Van_der_Waal_Energy-OPLS-2005>
142.340545654297

> <r_mmod_Electrostatic_Energy-OPLS-2005>
-363.981323242188

> <r_mmod_Solvation_Energy-OPLS-2005>
-221.811828613281

> <b_mmod_Minimization_Converged-OPLS-2005>
0

> <r_mmod_RMS_Derivative-OPLS-2005>
1.07845520973206

$$$$
68
                    3D
 Structure written by MMmdl.
147155  0  0  1  0            999 V2000
  -30.4730  -15.1809   20.3808 C   0  0  0  0  0  0
  -30.4342  -12.7483   19.5211 C   0  0  0  0  0  0
  -29.5287  -12.5601   18.2794 C   0  0  0  0  0  0
  -28.0728  -12.3020   18.7054 C   0  0  0  0  0  0
  -27.6132  -13.2689   19.8258 C   0  0  2  0  0  0
  -28.6486  -13.4127   20.9610 C   0  0  0  0  0  0
  -25.2394  -13.8240   20.5745 C   0  0  0  0  0  0
  -24.1740  -13.0434   20.9253 C   0  0  0  0  0  0
  -24.6386  -11.6929   20.8759 C   0  0  0  0  0  0
  -23.9081  -10.4292   21.0408 C   0  0  0  0  0  0
  -24.3630   -9.4205   21.9185 C   0  0  0  0  0  0
  -23.6305   -8.2239   22.0750 C   0  0  0  0  0  0
  -22.4284   -8.0281   21.3544 C   0  0  0  0  0  0
  -21.9925   -9.0252   20.4642 C   0  0  0  0  0  0
  -22.7253  -10.2132   20.3054 C   0  0  0  0  0  0
  -21.6855   -6.0740   22.5280 C   0  0  0  0  0  0
  -21.4016   -6.5641   23.8215 C   0  0  0  0  0  0
  -21.3658   -5.6791   24.9177 C   0  0  0  0  0  0
  -21.6047   -4.3056   24.7225 C   0  0  0  0  0  0
  -21.8818   -3.8148   23.4347 C   0  0  0  0  0  0
  -21.9197   -4.6967   22.3405 C   0  0  0  0  0  0
  -22.7758  -13.5190   21.1914 C   0  0  0  0  0  0
  -22.1663   -4.2153   21.0982 F   0  0  0  0  0  0
  -21.5631   -3.4537   25.7737 F   0  0  0  0  0  0
  -29.8918  -13.8902   20.3382 N   0  0  0  0  0  0
  -26.2816  -12.9506   20.3225 N   0  0  0  0  0  0
  -25.9321  -11.6617   20.5721 N   0  0  0  0  0  0
  -22.0429  -12.8158   22.0468 N   0  0  0  0  0  0
  -25.4023  -15.1975   20.4188 N   0  0  0  0  0  0
  -31.6912  -15.1828   20.1597 O   0  0  0  0  0  0
  -21.6644   -6.8882   21.4243 O   0  0  0  0  0  0
  -22.3432  -14.5497   20.6768 O   0  0  0  0  0  0
  -24.6593  -31.8286   23.1760 C   0  0  0  0  0  0
  -25.9297  -32.4623   23.8194 C   0  0  1  0  0  0
  -27.2107  -26.9735   20.1739 C   0  0  0  0  0  0
  -25.5986  -33.8434   24.2107 N   0  0  0  0  0  0
  -23.4706  -30.4445   21.5241 C   0  0  2  0  0  0
  -24.9232  -28.8452   20.1093 C   0  0  0  0  0  0
  -22.7646  -29.4471   22.4792 C   0  0  0  0  0  0
  -18.0322  -28.1413   22.8479 C   0  0  0  0  0  0
  -24.1485  -36.7196   23.2645 C   0  0  0  0  0  0
  -26.0384  -30.6500   21.4007 C   0  0  0  0  0  0
  -26.1064  -29.2459   20.7424 C   0  0  0  0  0  0
  -27.2472  -28.3291   20.7546 C   0  0  0  0  0  0
  -26.0009  -26.7220   19.4871 C   0  0  0  0  0  0
  -24.8929  -27.6024   19.4620 C   0  0  0  0  0  0
  -23.7078  -29.7675   20.1472 C   0  0  0  0  0  0
  -25.4126  -36.2978   24.0305 C   0  0  1  0  0  0
  -20.5943  -28.3752   23.1198 C   0  0  2  0  0  0
  -20.6797  -26.9437   22.5403 C   0  0  0  0  0  0
  -19.5765  -26.6390   21.5219 C   0  0  0  0  0  0
  -18.1950  -26.7947   22.1635 C   0  0  0  0  0  0
  -19.1583  -28.8900   23.2828 C   0  0  0  0  0  0
  -18.9496  -30.1491   23.8863 C   0  0  0  0  0  0
  -17.6492  -30.6608   24.0557 C   0  0  0  0  0  0
  -25.9097  -34.9368   23.5021 C   0  0  0  0  0  0
  -16.5378  -29.9096   23.6351 C   0  0  0  0  0  0
  -16.7305  -28.6512   23.0379 C   0  0  0  0  0  0
  -26.4562  -31.6554   25.0706 C   0  0  0  0  0  0
  -25.3699  -31.3806   26.1372 C   0  0  0  0  0  0
  -27.0444  -30.2921   24.6413 C   0  0  0  0  0  0
  -27.6059  -32.4349   25.7510 C   0  0  0  0  0  0
  -27.5562  -37.1750   24.8467 C   0  0  0  0  0  0
  -21.4319  -29.3044   22.3543 N   0  0  0  0  0  0
  -26.4264  -37.3719   23.9422 N   0  0  0  0  0  0
  -24.7435  -30.9998   22.0870 N   0  0  0  0  0  0
  -23.4215  -28.8033   23.3010 O   0  0  0  0  0  0
  -28.1946  -25.8656   20.2639 O   0  0  0  0  0  0
  -26.5689  -34.8898   22.4606 O   0  0  0  0  0  0
  -23.5673  -32.1238   23.6884 O   0  0  0  0  0  0
  -29.7113  -22.1745   19.6487 C   0  0  0  0  0  0
  -30.1301  -20.7527   19.6898 C   0  0  0  0  0  0
  -27.8536  -21.6084   20.8815 C   0  0  0  0  0  0
  -28.5261  -22.7489   20.2541 C   0  0  0  0  0  0
  -29.4585  -19.6131   20.3107 C   0  0  0  0  0  0
  -28.2675  -20.1788   20.9254 C   0  0  0  0  0  0
  -30.1721  -18.0269   20.3451 C   0  0  0  0  0  0
  -27.8016  -24.3088   20.0173 C   0  0  0  0  0  0
  -29.7309  -16.4474   20.4642 N   0  0  0  0  0  0
  -27.2383  -19.0916   21.7845 Cl  0  0  0  0  0  0
  -31.4590  -12.9344   19.1967 H   0  0  0  0  0  0
  -30.4753  -11.8326   20.1134 H   0  0  0  0  0  0
  -29.8923  -11.7365   17.6636 H   0  0  0  0  0  0
  -29.5741  -13.4541   17.6562 H   0  0  0  0  0  0
  -28.0138  -11.2736   19.0633 H   0  0  0  0  0  0
  -27.4052  -12.3658   17.8451 H   0  0  0  0  0  0
  -27.5383  -14.2433   19.3421 H   0  0  0  0  0  0
  -28.7949  -12.4705   21.4913 H   0  0  0  0  0  0
  -28.3035  -14.1373   21.7001 H   0  0  0  0  0  0
  -25.2773   -9.5690   22.4764 H   0  0  0  0  0  0
  -24.0019   -7.4630   22.7464 H   0  0  0  0  0  0
  -21.0861   -8.8772   19.8943 H   0  0  0  0  0  0
  -22.3709  -10.9674   19.6165 H   0  0  0  0  0  0
  -21.2000   -7.6146   23.9720 H   0  0  0  0  0  0
  -21.1484   -6.0520   25.9081 H   0  0  0  0  0  0
  -22.0598   -2.7610   23.2843 H   0  0  0  0  0  0
  -22.4064  -11.9814   22.4828 H   0  0  0  0  0  0
  -21.1044  -13.1159   22.2697 H   0  0  0  0  0  0
  -24.6339  -15.8476   20.5430 H   0  0  0  0  0  0
  -26.2471  -15.6450   20.0893 H   0  0  0  0  0  0
  -26.7365  -32.5175   23.0910 H   0  0  0  0  0  0
  -25.0114  -33.9519   25.0244 H   0  0  0  0  0  0
  -22.7819  -31.2755   21.3587 H   0  0  0  0  0  0
  -23.3770  -35.9504   23.3287 H   0  0  0  0  0  0
  -24.3559  -36.8857   22.2063 H   0  0  0  0  0  0
  -23.7225  -37.6375   23.6699 H   0  0  0  0  0  0
  -26.2158  -31.3963   20.6248 H   0  0  0  0  0  0
  -26.9002  -30.7017   22.0539 H   0  0  0  0  0  0
  -28.1398  -28.6296   21.2848 H   0  0  0  0  0  0
  -25.8635  -25.7768   18.9855 H   0  0  0  0  0  0
  -23.9950  -27.2901   18.9472 H   0  0  0  0  0  0
  -23.8605  -30.5394   19.3919 H   0  0  0  0  0  0
  -22.8182  -29.2216   19.8293 H   0  0  0  0  0  0
  -25.1326  -36.1762   25.0795 H   0  0  0  0  0  0
  -21.0042  -28.3352   24.1313 H   0  0  0  0  0  0
  -20.5679  -26.2368   23.3642 H   0  0  0  0  0  0
  -21.6659  -26.7423   22.1199 H   0  0  0  0  0  0
  -19.6918  -25.6292   21.1268 H   0  0  0  0  0  0
  -19.6694  -27.3182   20.6727 H   0  0  0  0  0  0
  -17.4213  -26.6697   21.4041 H   0  0  0  0  0  0
  -18.0341  -26.0103   22.9045 H   0  0  0  0  0  0
  -19.7971  -30.7318   24.2215 H   0  0  0  0  0  0
  -17.5047  -31.6287   24.5162 H   0  0  0  0  0  0
  -15.5377  -30.2991   23.7699 H   0  0  0  0  0  0
  -15.8704  -28.0817   22.7129 H   0  0  0  0  0  0
  -24.5875  -30.7163   25.7687 H   0  0  0  0  0  0
  -24.8900  -32.3019   26.4684 H   0  0  0  0  0  0
  -25.7942  -30.9048   27.0223 H   0  0  0  0  0  0
  -26.3105  -29.6613   24.1384 H   0  0  0  0  0  0
  -27.3954  -29.7268   25.5057 H   0  0  0  0  0  0
  -27.9064  -30.4115   23.9844 H   0  0  0  0  0  0
  -27.2633  -33.3697   26.1962 H   0  0  0  0  0  0
  -28.3945  -32.6834   25.0392 H   0  0  0  0  0  0
  -28.0637  -31.8552   26.5535 H   0  0  0  0  0  0
  -28.2562  -38.0062   24.7540 H   0  0  0  0  0  0
  -28.1081  -36.2598   24.6268 H   0  0  0  0  0  0
  -27.2285  -37.1369   25.8870 H   0  0  0  0  0  0
  -20.9554  -29.8744   21.6694 H   0  0  0  0  0  0
  -26.0110  -38.2769   24.1465 H   0  0  0  0  0  0
  -30.3369  -22.8486   19.0803 H   0  0  0  0  0  0
  -31.0592  -20.5286   19.1850 H   0  0  0  0  0  0
  -26.9075  -21.8293   21.3550 H   0  0  0  0  0  0
  -30.9079  -18.1233   21.1437 H   0  0  0  0  0  0
  -30.7798  -18.0243   19.4398 H   0  0  0  0  0  0
  -26.8397  -24.2056   20.5201 H   0  0  0  0  0  0
  -27.5539  -24.2800   18.9566 H   0  0  0  0  0  0
  -28.7401  -16.3151   20.6003 H   0  0  0  0  0  0
  1 25  1  0  0  0
  1 30  2  0  0  0
  1 79  1  0  0  0
  2  3  1  0  0  0
  2 25  1  0  0  0
  2 81  1  0  0  0
  2 82  1  0  0  0
  3  4  1  0  0  0
  3 83  1  0  0  0
  3 84  1  0  0  0
  4  5  1  0  0  0
  4 85  1  0  0  0
  4 86  1  0  0  0
  5  6  1  0  0  0
  5 26  1  0  0  0
  5 87  1  0  0  0
  6 25  1  0  0  0
  6 88  1  0  0  0
  6 89  1  0  0  0
  7  8  2  0  0  0
  7 26  1  0  0  0
  7 29  1  0  0  0
  8  9  1  0  0  0
  8 22  1  0  0  0
  9 10  1  0  0  0
  9 27  2  0  0  0
 10 11  2  0  0  0
 10 15  1  0  0  0
 11 12  1  0  0  0
 11 90  1  0  0  0
 12 13  2  0  0  0
 12 91  1  0  0  0
 13 14  1  0  0  0
 13 31  1  0  0  0
 14 15  2  0  0  0
 14 92  1  0  0  0
 15 93  1  0  0  0
 16 17  2  0  0  0
 16 21  1  0  0  0
 16 31  1  0  0  0
 17 18  1  0  0  0
 17 94  1  0  0  0
 18 19  2  0  0  0
 18 95  1  0  0  0
 19 20  1  0  0  0
 19 24  1  0  0  0
 20 21  2  0  0  0
 20 96  1  0  0  0
 21 23  1  0  0  0
 22 28  1  0  0  0
 22 32  2  0  0  0
 26 27  1  0  0  0
 28 97  1  0  0  0
 28 98  1  0  0  0
 29 99  1  0  0  0
 29100  1  0  0  0
 33 34  1  0  0  0
 33 66  1  0  0  0
 33 70  2  0  0  0
 34 36  1  0  0  0
 34 59  1  0  0  0
 34101  1  0  0  0
 35 44  2  0  0  0
 35 45  1  0  0  0
 35 68  1  0  0  0
 36 56  1  0  0  0
 36102  1  0  0  0
 37 39  1  0  0  0
 37 47  1  0  0  0
 37 66  1  0  0  0
 37103  1  0  0  0
 38 43  2  0  0  0
 38 46  1  0  0  0
 38 47  1  0  0  0
 39 64  1  0  0  0
 39 67  2  0  0  0
 40 52  1  0  0  0
 40 53  2  0  0  0
 40 58  1  0  0  0
 41104  1  0  0  0
 41105  1  0  0  0
 41106  1  0  0  0
 41 48  1  0  0  0
 42 43  1  0  0  0
 42 66  1  0  0  0
 42107  1  0  0  0
 42108  1  0  0  0
 43 44  1  0  0  0
 44109  1  0  0  0
 45 46  2  0  0  0
 45110  1  0  0  0
 46111  1  0  0  0
 47112  1  0  0  0
 47113  1  0  0  0
 48 56  1  0  0  0
 48 65  1  0  0  0
 48114  1  0  0  0
 49 50  1  0  0  0
 49 53  1  0  0  0
 49 64  1  0  0  0
 49115  1  0  0  0
 50 51  1  0  0  0
 50116  1  0  0  0
 50117  1  0  0  0
 51 52  1  0  0  0
 51118  1  0  0  0
 51119  1  0  0  0
 52120  1  0  0  0
 52121  1  0  0  0
 53 54  1  0  0  0
 54 55  2  0  0  0
 54122  1  0  0  0
 55 57  1  0  0  0
 55123  1  0  0  0
 56 69  2  0  0  0
 57 58  2  0  0  0
 57124  1  0  0  0
 58125  1  0  0  0
 59 60  1  0  0  0
 59 61  1  0  0  0
 59 62  1  0  0  0
 60126  1  0  0  0
 60127  1  0  0  0
 60128  1  0  0  0
 61129  1  0  0  0
 61130  1  0  0  0
 61131  1  0  0  0
 62132  1  0  0  0
 62133  1  0  0  0
 62134  1  0  0  0
 63 65  1  0  0  0
 63135  1  0  0  0
 63136  1  0  0  0
 63137  1  0  0  0
 64138  1  0  0  0
 65139  1  0  0  0
 68 78  1  0  0  0
 71 72  2  0  0  0
 71 74  1  0  0  0
 71140  1  0  0  0
 72 75  1  0  0  0
 72141  1  0  0  0
 73 74  2  0  0  0
 73 76  1  0  0  0
 73142  1  0  0  0
 74 78  1  0  0  0
 75 76  2  0  0  0
 75 77  1  0  0  0
 76 80  1  0  0  0
 77 79  1  0  0  0
 77143  1  0  0  0
 77144  1  0  0  0
 78145  1  0  0  0
 78146  1  0  0  0
 79147  1  0  0  0
M  ISO  4   1 100  68 101  78 101  79 100
M  END
> <chiral flag>
0

> <version>
0

> <s_m_source_file>
/data/baiqing/PycharmProjects/Reinvent-master-3.2/result/LINK_invent/BTK/process_docking_weight1_custom_product_contain_oxygen_bond_distance_aromatic_linkinvent_7_9_3/rearranged_h_0031.sdf

> <i_m_source_file_index>
69

> <r_mmod_Potential_Energy-OPLS-2005>
1022.09692382812

> <r_mmod_Stretch_Energy-OPLS-2005>
444.71630859375

> <r_mmod_Bend_Energy-OPLS-2005>
422.078552246094

> <r_mmod_Torsional_Energy-OPLS-2005>
215.163543701172

> <r_mmod_Improper_Torsional_Energy-OPLS-2005>
7.18276405334473

> <r_mmod_Van_der_Waal_Energy-OPLS-2005>
129.621002197266

> <r_mmod_Electrostatic_Energy-OPLS-2005>
-376.067413330078

> <r_mmod_Solvation_Energy-OPLS-2005>
-207.935272216797

> <b_mmod_Minimization_Converged-OPLS-2005>
0

> <r_mmod_RMS_Derivative-OPLS-2005>
1.06433057785034

$$$$
69
                    3D
 Structure written by MMmdl.
170179  0  0  1  0            999 V2000
  -30.6856  -14.6808   20.5223 C   0  0  0  0  0  0
  -30.4299  -12.4223   19.4576 C   0  0  0  0  0  0
  -29.5053  -12.4645   18.2235 C   0  0  0  0  0  0
  -28.0294  -12.3221   18.6396 C   0  0  0  0  0  0
  -27.6478  -13.2216   19.8430 C   0  0  2  0  0  0
  -28.6915  -13.1303   20.9694 C   0  0  0  0  0  0
  -25.2568  -13.8174   20.5672 C   0  0  0  0  0  0
  -24.1845  -13.0464   20.9158 C   0  0  0  0  0  0
  -24.6402  -11.6922   20.8708 C   0  0  0  0  0  0
  -23.9074  -10.4311   21.0403 C   0  0  0  0  0  0
  -24.3634   -9.4218   21.9175 C   0  0  0  0  0  0
  -23.6313   -8.2257   22.0753 C   0  0  0  0  0  0
  -22.4285   -8.0292   21.3565 C   0  0  0  0  0  0
  -21.9925   -9.0249   20.4650 C   0  0  0  0  0  0
  -22.7246  -10.2132   20.3054 C   0  0  0  0  0  0
  -21.6846   -6.0747   22.5279 C   0  0  0  0  0  0
  -21.4020   -6.5659   23.8211 C   0  0  0  0  0  0
  -21.3663   -5.6811   24.9167 C   0  0  0  0  0  0
  -21.6027   -4.3069   24.7219 C   0  0  0  0  0  0
  -21.8826   -3.8170   23.4340 C   0  0  0  0  0  0
  -21.9197   -4.6982   22.3395 C   0  0  0  0  0  0
  -22.7883  -13.5248   21.1846 C   0  0  0  0  0  0
  -22.1672   -4.2177   21.0971 F   0  0  0  0  0  0
  -21.5617   -3.4542   25.7728 F   0  0  0  0  0  0
  -29.9969  -13.4892   20.3941 N   0  0  0  0  0  0
  -26.2981  -12.9361   20.3247 N   0  0  0  0  0  0
  -25.9325  -11.6510   20.5707 N   0  0  0  0  0  0
  -22.0514  -12.8234   22.0366 N   0  0  0  0  0  0
  -25.4289  -15.1907   20.4169 N   0  0  0  0  0  0
  -31.8666  -14.7282   20.1681 O   0  0  0  0  0  0
  -21.6659   -6.8882   21.4243 O   0  0  0  0  0  0
  -22.3568  -14.5555   20.6672 O   0  0  0  0  0  0
  -24.6288  -31.8578   23.2008 C   0  0  0  0  0  0
  -25.9122  -32.4772   23.8351 C   0  0  1  0  0  0
  -27.2078  -27.2496   20.1343 C   0  0  0  0  0  0
  -25.5883  -33.8571   24.2261 N   0  0  0  0  0  0
  -23.4271  -30.4811   21.5462 C   0  0  2  0  0  0
  -24.8798  -28.9378   20.1063 C   0  0  0  0  0  0
  -22.7494  -29.4599   22.4934 C   0  0  0  0  0  0
  -18.0288  -28.1413   22.8504 C   0  0  0  0  0  0
  -24.1477  -36.7302   23.2637 C   0  0  0  0  0  0
  -25.9743  -30.7597   21.3939 C   0  0  0  0  0  0
  -26.0473  -29.3814   20.7397 C   0  0  0  0  0  0
  -27.2136  -28.5465   20.7561 C   0  0  0  0  0  0
  -26.0550  -26.9357   19.3877 C   0  0  0  0  0  0
  -24.8903  -27.7207   19.4155 C   0  0  0  0  0  0
  -23.6455  -29.8188   20.1615 C   0  0  0  0  0  0
  -25.4102  -36.3079   24.0327 C   0  0  1  0  0  0
  -20.5889  -28.3701   23.1277 C   0  0  2  0  0  0
  -20.6767  -26.9421   22.5425 C   0  0  0  0  0  0
  -19.5740  -26.6397   21.5233 C   0  0  0  0  0  0
  -18.1925  -26.7960   22.1650 C   0  0  0  0  0  0
  -19.1549  -28.8882   23.2884 C   0  0  0  0  0  0
  -18.9468  -30.1487   23.8904 C   0  0  0  0  0  0
  -17.6460  -30.6605   24.0572 C   0  0  0  0  0  0
  -25.9057  -34.9446   23.5112 C   0  0  0  0  0  0
  -16.5349  -29.9100   23.6324 C   0  0  0  0  0  0
  -16.7280  -28.6518   23.0354 C   0  0  0  0  0  0
  -26.4501  -31.6587   25.0732 C   0  0  0  0  0  0
  -25.3704  -31.3728   26.1433 C   0  0  0  0  0  0
  -27.0339  -30.2979   24.6263 C   0  0  0  0  0  0
  -27.6047  -32.4330   25.7492 C   0  0  0  0  0  0
  -27.5582  -37.1812   24.8465 C   0  0  0  0  0  0
  -21.4207  -29.3035   22.3651 N   0  0  0  0  0  0
  -26.4279  -37.3776   23.9424 N   0  0  0  0  0  0
  -24.6952  -31.0515   22.1029 N   0  0  0  0  0  0
  -23.4181  -28.8115   23.3038 O   0  0  0  0  0  0
  -28.2673  -26.3072   20.1682 O   0  0  0  0  0  0
  -26.5661  -34.8909   22.4701 O   0  0  0  0  0  0
  -23.5435  -32.1419   23.7281 O   0  0  0  0  0  0
  -30.6211  -19.8452   19.1828 C   0  0  0  0  0  0
  -30.8200  -18.6754   18.4427 C   0  0  0  0  0  0
  -29.9620  -19.8139   20.4213 C   0  0  0  0  0  0
  -30.5255  -17.3937   18.9538 C   0  0  0  0  0  0
  -29.6366  -18.4850   20.9455 C   0  0  0  0  0  0
  -30.0665  -17.2191   20.3070 C   0  0  0  0  0  0
  -29.2975  -23.9045   20.6931 C   0  0  0  0  0  0
  -30.5742  -24.3143   20.5869 C   0  0  0  0  0  0
  -27.1398  -23.1676   19.0246 C   0  0  0  0  0  0
  -26.8168  -24.0602   20.2463 C   0  0  0  0  0  0
  -28.1754  -22.0641   19.3691 C   0  0  0  0  0  0
  -28.0519  -24.8990   20.7174 C   0  0  2  0  0  0
  -30.6830  -16.2732   17.9338 C   0  0  0  0  0  0
  -28.6991  -18.4588   22.1464 C   0  0  0  0  0  0
  -29.8984  -15.7874   22.4316 C   0  0  0  0  0  0
  -29.7926  -21.2301   21.1584 C   0  0  0  0  0  0
  -30.0371  -15.8427   20.9612 N   0  0  0  0  0  0
  -28.9051  -22.3745   20.6208 N   0  3  1  0  0  0
  -31.4712  -12.5280   19.1460 H   0  0  0  0  0  0
  -30.3635  -11.4467   19.9448 H   0  0  0  0  0  0
  -29.7700  -11.6683   17.5265 H   0  0  0  0  0  0
  -29.6525  -13.3925   17.6773 H   0  0  0  0  0  0
  -27.8611  -11.2734   18.8924 H   0  0  0  0  0  0
  -27.3801  -12.5400   17.7918 H   0  0  0  0  0  0
  -27.6540  -14.2462   19.4736 H   0  0  0  0  0  0
  -28.7199  -12.1195   21.3812 H   0  0  0  0  0  0
  -28.4080  -13.7831   21.7898 H   0  0  0  0  0  0
  -25.2757   -9.5710   22.4770 H   0  0  0  0  0  0
  -24.0004   -7.4661   22.7493 H   0  0  0  0  0  0
  -21.0843   -8.8775   19.8975 H   0  0  0  0  0  0
  -22.3670  -10.9689   19.6199 H   0  0  0  0  0  0
  -21.2014   -7.6173   23.9717 H   0  0  0  0  0  0
  -21.1476   -6.0541   25.9070 H   0  0  0  0  0  0
  -22.0595   -2.7633   23.2831 H   0  0  0  0  0  0
  -22.4128  -11.9889   22.4764 H   0  0  0  0  0  0
  -21.1141  -13.1299   22.2570 H   0  0  0  0  0  0
  -24.6651  -15.8462   20.5380 H   0  0  0  0  0  0
  -26.2875  -15.6358   20.1226 H   0  0  0  0  0  0
  -26.7167  -32.5439   23.1075 H   0  0  0  0  0  0
  -24.9889  -33.9711   25.0303 H   0  0  0  0  0  0
  -22.7228  -31.3053   21.4025 H   0  0  0  0  0  0
  -23.3730  -35.9650   23.3311 H   0  0  0  0  0  0
  -24.3557  -36.8930   22.2051 H   0  0  0  0  0  0
  -23.7258  -37.6508   23.6671 H   0  0  0  0  0  0
  -26.1200  -31.5164   20.6226 H   0  0  0  0  0  0
  -26.8510  -30.8107   22.0272 H   0  0  0  0  0  0
  -28.1001  -28.8771   21.2768 H   0  0  0  0  0  0
  -26.0410  -26.0636   18.7539 H   0  0  0  0  0  0
  -24.0167  -27.3994   18.8672 H   0  0  0  0  0  0
  -23.7638  -30.5990   19.4098 H   0  0  0  0  0  0
  -22.7663  -29.2489   19.8532 H   0  0  0  0  0  0
  -25.1278  -36.1928   25.0818 H   0  0  0  0  0  0
  -21.0009  -28.3318   24.1395 H   0  0  0  0  0  0
  -20.5681  -26.2321   23.3641 H   0  0  0  0  0  0
  -21.6621  -26.7449   22.1212 H   0  0  0  0  0  0
  -19.6879  -25.6311   21.1254 H   0  0  0  0  0  0
  -19.6667  -27.3218   20.6775 H   0  0  0  0  0  0
  -17.4180  -26.6725   21.4052 H   0  0  0  0  0  0
  -18.0308  -26.0118   22.9064 H   0  0  0  0  0  0
  -19.7937  -30.7319   24.2264 H   0  0  0  0  0  0
  -17.5002  -31.6293   24.5183 H   0  0  0  0  0  0
  -15.5348  -30.2994   23.7657 H   0  0  0  0  0  0
  -15.8684  -28.0835   22.7055 H   0  0  0  0  0  0
  -24.5896  -30.7080   25.7730 H   0  0  0  0  0  0
  -24.8870  -32.2880   26.4836 H   0  0  0  0  0  0
  -25.7970  -30.8892   27.0232 H   0  0  0  0  0  0
  -26.2955  -29.6770   24.1179 H   0  0  0  0  0  0
  -27.3850  -29.7204   25.4837 H   0  0  0  0  0  0
  -27.8910  -30.4197   23.9637 H   0  0  0  0  0  0
  -27.2661  -33.3640   26.2043 H   0  0  0  0  0  0
  -28.3839  -32.6891   25.0302 H   0  0  0  0  0  0
  -28.0752  -31.8493   26.5420 H   0  0  0  0  0  0
  -28.2577  -38.0118   24.7484 H   0  0  0  0  0  0
  -28.1087  -36.2648   24.6300 H   0  0  0  0  0  0
  -27.2309  -37.1478   25.8866 H   0  0  0  0  0  0
  -20.9399  -29.8761   21.6848 H   0  0  0  0  0  0
  -26.0164  -38.2846   24.1432 H   0  0  0  0  0  0
  -30.9442  -20.7855   18.7579 H   0  0  0  0  0  0
  -31.2241  -18.7813   17.4446 H   0  0  0  0  0  0
  -31.4167  -23.6386   20.5053 H   0  0  0  0  0  0
  -30.7968  -25.3737   20.5683 H   0  0  0  0  0  0
  -27.5300  -23.7875   18.2151 H   0  0  0  0  0  0
  -26.2368  -22.6969   18.6329 H   0  0  0  0  0  0
  -26.5384  -23.3974   21.0660 H   0  0  0  0  0  0
  -25.8886  -24.6034   20.1308 H   0  0  0  0  0  0
  -28.8829  -21.9645   18.5473 H   0  0  0  0  0  0
  -27.6640  -21.1052   19.4835 H   0  0  0  0  0  0
  -27.8885  -25.0852   21.7797 H   0  0  0  0  0  0
  -30.5625  -16.6532   16.9192 H   0  0  0  0  0  0
  -29.9042  -15.5276   18.0635 H   0  0  0  0  0  0
  -31.6684  -15.8059   17.9633 H   0  0  0  0  0  0
  -28.0165  -17.6144   22.0616 H   0  0  0  0  0  0
  -28.0392  -19.3235   22.1661 H   0  0  0  0  0  0
  -29.2286  -18.4208   23.0967 H   0  0  0  0  0  0
  -30.4442  -16.5952   22.9148 H   0  0  0  0  0  0
  -30.2955  -14.8774   22.8857 H   0  0  0  0  0  0
  -28.8580  -15.8174   22.7490 H   0  0  0  0  0  0
  -30.8046  -21.6147   21.2720 H   0  0  0  0  0  0
  -29.4724  -21.0564   22.1864 H   0  0  0  0  0  0
  -28.1550  -22.2946   21.2900 H   0  0  0  0  0  0
  1 25  1  0  0  0
  1 30  2  0  0  0
  1 87  1  0  0  0
  2  3  1  0  0  0
  2 25  1  0  0  0
  2 89  1  0  0  0
  2 90  1  0  0  0
  3  4  1  0  0  0
  3 91  1  0  0  0
  3 92  1  0  0  0
  4  5  1  0  0  0
  4 93  1  0  0  0
  4 94  1  0  0  0
  5  6  1  0  0  0
  5 26  1  0  0  0
  5 95  1  0  0  0
  6 25  1  0  0  0
  6 96  1  0  0  0
  6 97  1  0  0  0
  7  8  2  0  0  0
  7 26  1  0  0  0
  7 29  1  0  0  0
  8  9  1  0  0  0
  8 22  1  0  0  0
  9 10  1  0  0  0
  9 27  2  0  0  0
 10 11  2  0  0  0
 10 15  1  0  0  0
 11 12  1  0  0  0
 11 98  1  0  0  0
 12 13  2  0  0  0
 12 99  1  0  0  0
 13 14  1  0  0  0
 13 31  1  0  0  0
 14 15  2  0  0  0
 14100  1  0  0  0
 15101  1  0  0  0
 16 17  2  0  0  0
 16 21  1  0  0  0
 16 31  1  0  0  0
 17 18  1  0  0  0
 17102  1  0  0  0
 18 19  2  0  0  0
 18103  1  0  0  0
 19 20  1  0  0  0
 19 24  1  0  0  0
 20 21  2  0  0  0
 20104  1  0  0  0
 21 23  1  0  0  0
 22 28  1  0  0  0
 22 32  2  0  0  0
 26 27  1  0  0  0
 28105  1  0  0  0
 28106  1  0  0  0
 29107  1  0  0  0
 29108  1  0  0  0
 33 34  1  0  0  0
 33 66  1  0  0  0
 33 70  2  0  0  0
 34 36  1  0  0  0
 34 59  1  0  0  0
 34109  1  0  0  0
 35 44  2  0  0  0
 35 45  1  0  0  0
 35 68  1  0  0  0
 36 56  1  0  0  0
 36110  1  0  0  0
 37 39  1  0  0  0
 37 47  1  0  0  0
 37 66  1  0  0  0
 37111  1  0  0  0
 38 43  2  0  0  0
 38 46  1  0  0  0
 38 47  1  0  0  0
 39 64  1  0  0  0
 39 67  2  0  0  0
 40 52  1  0  0  0
 40 53  2  0  0  0
 40 58  1  0  0  0
 41112  1  0  0  0
 41113  1  0  0  0
 41114  1  0  0  0
 41 48  1  0  0  0
 42 43  1  0  0  0
 42 66  1  0  0  0
 42115  1  0  0  0
 42116  1  0  0  0
 43 44  1  0  0  0
 44117  1  0  0  0
 45 46  2  0  0  0
 45118  1  0  0  0
 46119  1  0  0  0
 47120  1  0  0  0
 47121  1  0  0  0
 48 56  1  0  0  0
 48 65  1  0  0  0
 48122  1  0  0  0
 49 50  1  0  0  0
 49 53  1  0  0  0
 49 64  1  0  0  0
 49123  1  0  0  0
 50 51  1  0  0  0
 50124  1  0  0  0
 50125  1  0  0  0
 51 52  1  0  0  0
 51126  1  0  0  0
 51127  1  0  0  0
 52128  1  0  0  0
 52129  1  0  0  0
 53 54  1  0  0  0
 54 55  2  0  0  0
 54130  1  0  0  0
 55 57  1  0  0  0
 55131  1  0  0  0
 56 69  2  0  0  0
 57 58  2  0  0  0
 57132  1  0  0  0
 58133  1  0  0  0
 59 60  1  0  0  0
 59 61  1  0  0  0
 59 62  1  0  0  0
 60134  1  0  0  0
 60135  1  0  0  0
 60136  1  0  0  0
 61137  1  0  0  0
 61138  1  0  0  0
 61139  1  0  0  0
 62140  1  0  0  0
 62141  1  0  0  0
 62142  1  0  0  0
 63 65  1  0  0  0
 63143  1  0  0  0
 63144  1  0  0  0
 63145  1  0  0  0
 64146  1  0  0  0
 65147  1  0  0  0
 68 82  1  0  0  0
 71 72  2  0  0  0
 71 73  1  0  0  0
 71148  1  0  0  0
 72 74  1  0  0  0
 72149  1  0  0  0
 73 75  2  0  0  0
 73 86  1  0  0  0
 74 76  2  0  0  0
 74 83  1  0  0  0
 75 76  1  0  0  0
 75 84  1  0  0  0
 76 87  1  0  0  0
 77 78  2  0  0  0
 77 82  1  0  0  0
 77 88  1  0  0  0
 78150  1  0  0  0
 78151  1  0  0  0
 79 80  1  0  0  0
 79 81  1  0  0  0
 79152  1  0  0  0
 79153  1  0  0  0
 80 82  1  0  0  0
 80154  1  0  0  0
 80155  1  0  0  0
 81 88  1  0  0  0
 81156  1  0  0  0
 81157  1  0  0  0
 82158  1  0  0  0
 83159  1  0  0  0
 83160  1  0  0  0
 83161  1  0  0  0
 84162  1  0  0  0
 84163  1  0  0  0
 84164  1  0  0  0
 85 87  1  0  0  0
 85165  1  0  0  0
 85166  1  0  0  0
 85167  1  0  0  0
 86168  1  0  0  0
 86169  1  0  0  0
 86 88  1  0  0  0
 88170  1  0  0  0
M  CHG  1  88   1
M  ISO  4   1 100  68 101  82 101  87 100
M  END
> <chiral flag>
0

> <version>
0

> <s_m_source_file>
/data/baiqing/PycharmProjects/Reinvent-master-3.2/result/LINK_invent/BTK/process_docking_weight1_custom_product_contain_oxygen_bond_distance_aromatic_linkinvent_7_9_3/rearranged_h_0031.sdf

> <i_m_source_file_index>
70

> <r_mmod_Potential_Energy-OPLS-2005>
372.237976074219

> <r_mmod_Stretch_Energy-OPLS-2005>
166.139404296875

> <r_mmod_Bend_Energy-OPLS-2005>
222.510696411133

> <r_mmod_Torsional_Energy-OPLS-2005>
353.038940429688

> <r_mmod_Improper_Torsional_Energy-OPLS-2005>
4.84174346923828

> <r_mmod_Van_der_Waal_Energy-OPLS-2005>
187.479705810547

> <r_mmod_Electrostatic_Energy-OPLS-2005>
-222.703887939453

> <r_mmod_Solvation_Energy-OPLS-2005>
-418.926239013672

> <b_mmod_Minimization_Converged-OPLS-2005>
0

> <r_mmod_RMS_Derivative-OPLS-2005>
4.5134162902832

$$$$
70
                    3D
 Structure written by MMmdl.
164173  0  0  1  0            999 V2000
  -30.6865  -14.5225   20.4442 C   0  0  0  0  0  0
  -30.4066  -12.3042   19.4331 C   0  0  0  0  0  0
  -29.4942  -12.4814   18.2061 C   0  0  0  0  0  0
  -28.0104  -12.3656   18.6105 C   0  0  0  0  0  0
  -27.6484  -13.2193   19.8533 C   0  0  2  0  0  0
  -28.6923  -13.0852   20.9837 C   0  0  0  0  0  0
  -25.2574  -13.8167   20.5714 C   0  0  0  0  0  0
  -24.1844  -13.0483   20.9189 C   0  0  0  0  0  0
  -24.6398  -11.6911   20.8711 C   0  0  0  0  0  0
  -23.9086  -10.4310   21.0382 C   0  0  0  0  0  0
  -24.3618   -9.4223   21.9157 C   0  0  0  0  0  0
  -23.6276   -8.2266   22.0777 C   0  0  0  0  0  0
  -22.4239   -8.0321   21.3609 C   0  0  0  0  0  0
  -21.9893   -9.0282   20.4677 C   0  0  0  0  0  0
  -22.7250  -10.2144   20.3052 C   0  0  0  0  0  0
  -21.6856   -6.0738   22.5266 C   0  0  0  0  0  0
  -21.4017   -6.5640   23.8204 C   0  0  0  0  0  0
  -21.3667   -5.6791   24.9176 C   0  0  0  0  0  0
  -21.6053   -4.3059   24.7222 C   0  0  0  0  0  0
  -21.8818   -3.8139   23.4348 C   0  0  0  0  0  0
  -21.9189   -4.6959   22.3402 C   0  0  0  0  0  0
  -22.7874  -13.5300   21.1891 C   0  0  0  0  0  0
  -22.1623   -4.2140   21.0986 F   0  0  0  0  0  0
  -21.5649   -3.4532   25.7743 F   0  0  0  0  0  0
  -30.0165  -13.3389   20.4077 N   0  0  0  0  0  0
  -26.2998  -12.9361   20.3314 N   0  0  0  0  0  0
  -25.9350  -11.6528   20.5776 N   0  0  0  0  0  0
  -22.0524  -12.8258   22.0387 N   0  0  0  0  0  0
  -25.4338  -15.1868   20.4098 N   0  0  0  0  0  0
  -31.8633  -14.6234   20.0932 O   0  0  0  0  0  0
  -21.6650   -6.8887   21.4240 O   0  0  0  0  0  0
  -22.3580  -14.5654   20.6810 O   0  0  0  0  0  0
  -24.6153  -31.8650   23.2068 C   0  0  0  0  0  0
  -25.9049  -32.4785   23.8397 C   0  0  1  0  0  0
  -27.2347  -27.4092   20.0769 C   0  0  0  0  0  0
  -25.5907  -33.8585   24.2341 N   0  0  0  0  0  0
  -23.4038  -30.4832   21.5523 C   0  0  2  0  0  0
  -24.8547  -28.9473   20.1155 C   0  0  0  0  0  0
  -22.7371  -29.4633   22.5025 C   0  0  0  0  0  0
  -18.0320  -28.1389   22.8642 C   0  0  0  0  0  0
  -24.1493  -36.7293   23.2639 C   0  0  0  0  0  0
  -25.9361  -30.8164   21.3707 C   0  0  0  0  0  0
  -26.0164  -29.4479   20.7193 C   0  0  0  0  0  0
  -27.2094  -28.6825   20.7019 C   0  0  0  0  0  0
  -26.0690  -26.9515   19.4301 C   0  0  0  0  0  0
  -24.8738  -27.6981   19.4720 C   0  0  0  0  0  0
  -23.6171  -29.8175   20.1704 C   0  0  0  0  0  0
  -25.4106  -36.3079   24.0329 C   0  0  1  0  0  0
  -20.5896  -28.3728   23.1511 C   0  0  2  0  0  0
  -20.6722  -26.9350   22.5911 C   0  0  0  0  0  0
  -19.5920  -26.6480   21.5489 C   0  0  0  0  0  0
  -18.2058  -26.7900   22.1823 C   0  0  0  0  0  0
  -19.1571  -28.8908   23.2992 C   0  0  0  0  0  0
  -18.9501  -30.1554   23.8888 C   0  0  0  0  0  0
  -17.6491  -30.6621   24.0589 C   0  0  0  0  0  0
  -25.9015  -34.9442   23.5142 C   0  0  0  0  0  0
  -16.5385  -29.9094   23.6385 C   0  0  0  0  0  0
  -16.7312  -28.6509   23.0451 C   0  0  0  0  0  0
  -26.4478  -31.6547   25.0710 C   0  0  0  0  0  0
  -25.3773  -31.3657   26.1469 C   0  0  0  0  0  0
  -27.0323  -30.2992   24.6087 C   0  0  0  0  0  0
  -27.6047  -32.4267   25.7487 C   0  0  0  0  0  0
  -27.5573  -37.1789   24.8465 C   0  0  0  0  0  0
  -21.4126  -29.2905   22.3677 N   0  0  0  0  0  0
  -26.4293  -37.3765   23.9389 N   0  0  0  0  0  0
  -24.6691  -31.0685   22.1022 N   0  0  0  0  0  0
  -23.4080  -28.8378   23.3270 O   0  0  0  0  0  0
  -28.3746  -26.6216   20.0607 O   0  0  0  0  0  0
  -26.5589  -34.8885   22.4699 O   0  0  0  0  0  0
  -23.5327  -32.1469   23.7400 O   0  0  0  0  0  0
  -29.5689  -19.2521   19.3652 C   0  0  0  0  0  0
  -28.3039  -19.7184   21.7811 C   0  0  0  0  0  0
  -28.8712  -20.4724   19.5517 C   0  0  0  0  0  0
  -29.6007  -18.2288   20.3430 C   0  0  0  0  0  0
  -28.2394  -20.7473   20.8002 C   0  0  0  0  0  0
  -28.9412  -18.4752   21.5577 C   0  0  0  0  0  0
  -26.4175  -24.2714   21.2665 C   0  0  0  0  0  0
  -25.0722  -24.2901   21.2141 C   0  0  0  0  0  0
  -27.3118  -25.2797   21.9508 C   0  0  0  0  0  0
  -28.5964  -24.0898   20.3031 C   0  0  0  0  0  0
  -28.4766  -25.4887   20.9827 C   0  0  1  0  0  0
  -28.7958  -21.3949   18.3489 C   0  0  0  0  0  0
  -30.4064  -16.9404   20.0595 C   0  0  0  0  0  0
  -27.3833  -21.9878   21.2119 C   0  0  0  0  0  0
  -29.9349  -15.6382   20.5812 N   0  0  0  0  0  0
  -27.3209  -23.3291   20.5173 N   0  3  1  0  0  0
  -28.8935  -17.5208   22.5156 F   0  0  0  0  0  0
  -31.4501  -12.3826   19.1287 H   0  0  0  0  0  0
  -30.2841  -11.3070   19.8650 H   0  0  0  0  0  0
  -29.7307  -11.7328   17.4506 H   0  0  0  0  0  0
  -29.6901  -13.4548   17.7505 H   0  0  0  0  0  0
  -27.7994  -11.3119   18.8099 H   0  0  0  0  0  0
  -27.3740  -12.6451   17.7701 H   0  0  0  0  0  0
  -27.6615  -14.2592   19.5163 H   0  0  0  0  0  0
  -28.6557  -12.0987   21.4438 H   0  0  0  0  0  0
  -28.4742  -13.7924   21.7838 H   0  0  0  0  0  0
  -25.2790   -9.5674   22.4692 H   0  0  0  0  0  0
  -24.0030   -7.4638   22.7459 H   0  0  0  0  0  0
  -21.0862   -8.8777   19.8916 H   0  0  0  0  0  0
  -22.3746  -10.9665   19.6115 H   0  0  0  0  0  0
  -21.1987   -7.6147   23.9702 H   0  0  0  0  0  0
  -21.1499   -6.0532   25.9085 H   0  0  0  0  0  0
  -22.0585   -2.7595   23.2862 H   0  0  0  0  0  0
  -22.4201  -11.9900   22.4717 H   0  0  0  0  0  0
  -21.1110  -13.1192   22.2562 H   0  0  0  0  0  0
  -24.6758  -15.8537   20.5123 H   0  0  0  0  0  0
  -26.2983  -15.6092   20.0976 H   0  0  0  0  0  0
  -26.7118  -32.5506   23.1159 H   0  0  0  0  0  0
  -25.0039  -33.9800   25.0481 H   0  0  0  0  0  0
  -22.6914  -31.2969   21.4096 H   0  0  0  0  0  0
  -23.3732  -35.9651   23.3313 H   0  0  0  0  0  0
  -24.3573  -36.8908   22.2054 H   0  0  0  0  0  0
  -23.7277  -37.6498   23.6669 H   0  0  0  0  0  0
  -26.0439  -31.5781   20.5981 H   0  0  0  0  0  0
  -26.8210  -30.8714   21.9921 H   0  0  0  0  0  0
  -28.1054  -29.0581   21.1759 H   0  0  0  0  0  0
  -26.0835  -26.0160   18.8892 H   0  0  0  0  0  0
  -23.9830  -27.3168   18.9851 H   0  0  0  0  0  0
  -23.7243  -30.5939   19.4067 H   0  0  0  0  0  0
  -22.7431  -29.2353   19.8768 H   0  0  0  0  0  0
  -25.1294  -36.1921   25.0820 H   0  0  0  0  0  0
  -20.9982  -28.3505   24.1643 H   0  0  0  0  0  0
  -20.5158  -26.2447   23.4264 H   0  0  0  0  0  0
  -21.6705  -26.7104   22.2198 H   0  0  0  0  0  0
  -19.7157  -25.6488   21.1297 H   0  0  0  0  0  0
  -19.6993  -27.3484   20.7180 H   0  0  0  0  0  0
  -17.4350  -26.6522   21.4228 H   0  0  0  0  0  0
  -18.0585  -26.0079   22.9260 H   0  0  0  0  0  0
  -19.7944  -30.7430   24.2242 H   0  0  0  0  0  0
  -17.5018  -31.6287   24.5193 H   0  0  0  0  0  0
  -15.5383  -30.3030   23.7718 H   0  0  0  0  0  0
  -15.8717  -28.0752   22.7238 H   0  0  0  0  0  0
  -24.5953  -30.6963   25.7852 H   0  0  0  0  0  0
  -24.8942  -32.2814   26.4893 H   0  0  0  0  0  0
  -25.8130  -30.8877   27.0259 H   0  0  0  0  0  0
  -26.2883  -29.6710   24.1164 H   0  0  0  0  0  0
  -27.4141  -29.7208   25.4517 H   0  0  0  0  0  0
  -27.8693  -30.4288   23.9215 H   0  0  0  0  0  0
  -27.2663  -33.3585   26.2023 H   0  0  0  0  0  0
  -28.3883  -32.6778   25.0330 H   0  0  0  0  0  0
  -28.0683  -31.8412   26.5446 H   0  0  0  0  0  0
  -28.2592  -38.0086   24.7473 H   0  0  0  0  0  0
  -28.1064  -36.2597   24.6340 H   0  0  0  0  0  0
  -27.2277  -37.1502   25.8871 H   0  0  0  0  0  0
  -20.9298  -29.8159   21.6517 H   0  0  0  0  0  0
  -26.0166  -38.2832   24.1370 H   0  0  0  0  0  0
  -30.0790  -19.0772   18.4320 H   0  0  0  0  0  0
  -27.8003  -19.8512   22.7306 H   0  0  0  0  0  0
  -24.5228  -25.0702   21.7228 H   0  0  0  0  0  0
  -24.4895  -23.5712   20.6563 H   0  0  0  0  0  0
  -27.6923  -24.8220   22.8676 H   0  0  0  0  0  0
  -26.8062  -26.1928   22.2585 H   0  0  0  0  0  0
  -29.4446  -23.5479   20.7258 H   0  0  0  0  0  0
  -28.7887  -24.2227   19.2394 H   0  0  0  0  0  0
  -29.3835  -25.6749   21.5560 H   0  0  0  0  0  0
  -29.4085  -22.2836   18.4788 H   0  0  0  0  0  0
  -27.7681  -21.6881   18.1458 H   0  0  0  0  0  0
  -29.1573  -20.8843   17.4561 H   0  0  0  0  0  0
  -30.4661  -16.8278   18.9752 H   0  0  0  0  0  0
  -31.4373  -17.1194   20.3780 H   0  0  0  0  0  0
  -27.6602  -22.1922   22.2440 H   0  0  0  0  0  0
  -26.3557  -21.6141   21.2501 H   0  0  0  0  0  0
  -28.9612  -15.5520   20.8307 H   0  0  0  0  0  0
  -26.9211  -23.1510   19.6071 H   0  0  0  0  0  0
  1 25  1  0  0  0
  1 30  2  0  0  0
  1 85  1  0  0  0
  2  3  1  0  0  0
  2 25  1  0  0  0
  2 88  1  0  0  0
  2 89  1  0  0  0
  3  4  1  0  0  0
  3 90  1  0  0  0
  3 91  1  0  0  0
  4  5  1  0  0  0
  4 92  1  0  0  0
  4 93  1  0  0  0
  5  6  1  0  0  0
  5 26  1  0  0  0
  5 94  1  0  0  0
  6 25  1  0  0  0
  6 95  1  0  0  0
  6 96  1  0  0  0
  7  8  2  0  0  0
  7 26  1  0  0  0
  7 29  1  0  0  0
  8  9  1  0  0  0
  8 22  1  0  0  0
  9 10  1  0  0  0
  9 27  2  0  0  0
 10 11  2  0  0  0
 10 15  1  0  0  0
 11 12  1  0  0  0
 11 97  1  0  0  0
 12 13  2  0  0  0
 12 98  1  0  0  0
 13 14  1  0  0  0
 13 31  1  0  0  0
 14 15  2  0  0  0
 14 99  1  0  0  0
 15100  1  0  0  0
 16 17  2  0  0  0
 16 21  1  0  0  0
 16 31  1  0  0  0
 17 18  1  0  0  0
 17101  1  0  0  0
 18 19  2  0  0  0
 18102  1  0  0  0
 19 20  1  0  0  0
 19 24  1  0  0  0
 20 21  2  0  0  0
 20103  1  0  0  0
 21 23  1  0  0  0
 22 28  1  0  0  0
 22 32  2  0  0  0
 26 27  1  0  0  0
 28104  1  0  0  0
 28105  1  0  0  0
 29106  1  0  0  0
 29107  1  0  0  0
 33 34  1  0  0  0
 33 66  1  0  0  0
 33 70  2  0  0  0
 34 36  1  0  0  0
 34 59  1  0  0  0
 34108  1  0  0  0
 35 44  2  0  0  0
 35 45  1  0  0  0
 35 68  1  0  0  0
 36 56  1  0  0  0
 36109  1  0  0  0
 37 39  1  0  0  0
 37 47  1  0  0  0
 37 66  1  0  0  0
 37110  1  0  0  0
 38 43  2  0  0  0
 38 46  1  0  0  0
 38 47  1  0  0  0
 39 64  1  0  0  0
 39 67  2  0  0  0
 40 52  1  0  0  0
 40 53  2  0  0  0
 40 58  1  0  0  0
 41111  1  0  0  0
 41112  1  0  0  0
 41113  1  0  0  0
 41 48  1  0  0  0
 42 43  1  0  0  0
 42 66  1  0  0  0
 42114  1  0  0  0
 42115  1  0  0  0
 43 44  1  0  0  0
 44116  1  0  0  0
 45 46  2  0  0  0
 45117  1  0  0  0
 46118  1  0  0  0
 47119  1  0  0  0
 47120  1  0  0  0
 48 56  1  0  0  0
 48 65  1  0  0  0
 48121  1  0  0  0
 49 50  1  0  0  0
 49 53  1  0  0  0
 49 64  1  0  0  0
 49122  1  0  0  0
 50 51  1  0  0  0
 50123  1  0  0  0
 50124  1  0  0  0
 51 52  1  0  0  0
 51125  1  0  0  0
 51126  1  0  0  0
 52127  1  0  0  0
 52128  1  0  0  0
 53 54  1  0  0  0
 54 55  2  0  0  0
 54129  1  0  0  0
 55 57  1  0  0  0
 55130  1  0  0  0
 56 69  2  0  0  0
 57 58  2  0  0  0
 57131  1  0  0  0
 58132  1  0  0  0
 59 60  1  0  0  0
 59 61  1  0  0  0
 59 62  1  0  0  0
 60133  1  0  0  0
 60134  1  0  0  0
 60135  1  0  0  0
 61136  1  0  0  0
 61137  1  0  0  0
 61138  1  0  0  0
 62139  1  0  0  0
 62140  1  0  0  0
 62141  1  0  0  0
 63 65  1  0  0  0
 63142  1  0  0  0
 63143  1  0  0  0
 63144  1  0  0  0
 64145  1  0  0  0
 65146  1  0  0  0
 68 81  1  0  0  0
 71 73  2  0  0  0
 71 74  1  0  0  0
 71147  1  0  0  0
 72 75  2  0  0  0
 72 76  1  0  0  0
 72148  1  0  0  0
 73 75  1  0  0  0
 73 82  1  0  0  0
 74 76  2  0  0  0
 74 83  1  0  0  0
 75 84  1  0  0  0
 76 87  1  0  0  0
 77 78  2  0  0  0
 77 79  1  0  0  0
 77 86  1  0  0  0
 78149  1  0  0  0
 78150  1  0  0  0
 79 81  1  0  0  0
 79151  1  0  0  0
 79152  1  0  0  0
 80 81  1  0  0  0
 80 86  1  0  0  0
 80153  1  0  0  0
 80154  1  0  0  0
 81155  1  0  0  0
 82156  1  0  0  0
 82157  1  0  0  0
 82158  1  0  0  0
 83 85  1  0  0  0
 83159  1  0  0  0
 83160  1  0  0  0
 84161  1  0  0  0
 84162  1  0  0  0
 84 86  1  0  0  0
 85163  1  0  0  0
 86164  1  0  0  0
M  CHG  1  86   1
M  ISO  4   1 100  68 101  81 101  85 100
M  END
> <chiral flag>
0

> <version>
0

> <s_m_source_file>
/data/baiqing/PycharmProjects/Reinvent-master-3.2/result/LINK_invent/BTK/process_docking_weight1_custom_product_contain_oxygen_bond_distance_aromatic_linkinvent_7_9_3/rearranged_h_0031.sdf

> <i_m_source_file_index>
71

> <r_mmod_Potential_Energy-OPLS-2005>
-30.0844650268555

> <r_mmod_Stretch_Energy-OPLS-2005>
51.6352500915527

> <r_mmod_Bend_Energy-OPLS-2005>
182.661590576172

> <r_mmod_Torsional_Energy-OPLS-2005>
277.478271484375

> <r_mmod_Improper_Torsional_Energy-OPLS-2005>
8.77355861663818

> <r_mmod_Van_der_Waal_Energy-OPLS-2005>
145.42155456543

> <r_mmod_Electrostatic_Energy-OPLS-2005>
-296.216033935547

> <r_mmod_Solvation_Energy-OPLS-2005>
-425.644927978516

> <b_mmod_Minimization_Converged-OPLS-2005>
0

> <r_mmod_RMS_Derivative-OPLS-2005>
8.56021785736084

$$$$
71
                    3D
 Structure written by MMmdl.
160169  0  0  1  0            999 V2000
  -30.6038  -14.6482   20.5079 C   0  0  0  0  0  0
  -30.4450  -12.4032   19.4469 C   0  0  0  0  0  0
  -29.5102  -12.5164   18.2211 C   0  0  0  0  0  0
  -28.0325  -12.3456   18.6298 C   0  0  0  0  0  0
  -27.6528  -13.2070   19.8632 C   0  0  2  0  0  0
  -28.6983  -13.0565   20.9913 C   0  0  0  0  0  0
  -25.2556  -13.8121   20.5688 C   0  0  0  0  0  0
  -24.1818  -13.0406   20.9201 C   0  0  0  0  0  0
  -24.6379  -11.6878   20.8739 C   0  0  0  0  0  0
  -23.9043  -10.4275   21.0403 C   0  0  0  0  0  0
  -24.3605   -9.4193   21.9179 C   0  0  0  0  0  0
  -23.6283   -8.2229   22.0752 C   0  0  0  0  0  0
  -22.4263   -8.0270   21.3544 C   0  0  0  0  0  0
  -21.9891   -9.0238   20.4646 C   0  0  0  0  0  0
  -22.7217  -10.2117   20.3051 C   0  0  0  0  0  0
  -21.6846   -6.0728   22.5280 C   0  0  0  0  0  0
  -21.4005   -6.5636   23.8213 C   0  0  0  0  0  0
  -21.3660   -5.6787   24.9176 C   0  0  0  0  0  0
  -21.6049   -4.3051   24.7226 C   0  0  0  0  0  0
  -21.8821   -3.8141   23.4348 C   0  0  0  0  0  0
  -21.9189   -4.6957   22.3404 C   0  0  0  0  0  0
  -22.7844  -13.5218   21.1854 C   0  0  0  0  0  0
  -22.1663   -4.2144   21.0981 F   0  0  0  0  0  0
  -21.5632   -3.4534   25.7739 F   0  0  0  0  0  0
  -30.0117  -13.4141   20.4316 N   0  0  0  0  0  0
  -26.2980  -12.9294   20.3295 N   0  0  0  0  0  0
  -25.9301  -11.6461   20.5729 N   0  0  0  0  0  0
  -22.0469  -12.8233   22.0419 N   0  0  0  0  0  0
  -25.4214  -15.1837   20.4132 N   0  0  0  0  0  0
  -31.7672  -14.8295   20.1360 O   0  0  0  0  0  0
  -21.6634   -6.8866   21.4240 O   0  0  0  0  0  0
  -22.3540  -14.5524   20.6694 O   0  0  0  0  0  0
  -24.6280  -31.8584   23.2022 C   0  0  0  0  0  0
  -25.9129  -32.4766   23.8351 C   0  0  1  0  0  0
  -27.2215  -27.2963   20.1189 C   0  0  0  0  0  0
  -25.5946  -33.8570   24.2277 N   0  0  0  0  0  0
  -23.4228  -30.4817   21.5455 C   0  0  2  0  0  0
  -24.8695  -28.9346   20.1140 C   0  0  0  0  0  0
  -22.7485  -29.4621   22.4942 C   0  0  0  0  0  0
  -18.0284  -28.1395   22.8481 C   0  0  0  0  0  0
  -24.1488  -36.7295   23.2636 C   0  0  0  0  0  0
  -25.9663  -30.7765   21.3821 C   0  0  0  0  0  0
  -26.0372  -29.4002   20.7310 C   0  0  0  0  0  0
  -27.2150  -28.5906   20.7303 C   0  0  0  0  0  0
  -26.0418  -26.9130   19.4444 C   0  0  0  0  0  0
  -24.8746  -27.6957   19.4599 C   0  0  0  0  0  0
  -23.6386  -29.8156   20.1615 C   0  0  0  0  0  0
  -25.4111  -36.3072   24.0324 C   0  0  1  0  0  0
  -20.5885  -28.3698   23.1284 C   0  0  2  0  0  0
  -20.6773  -26.9420   22.5407 C   0  0  0  0  0  0
  -19.5752  -26.6392   21.5212 C   0  0  0  0  0  0
  -18.1930  -26.7940   22.1616 C   0  0  0  0  0  0
  -19.1535  -28.8866   23.2875 C   0  0  0  0  0  0
  -18.9451  -30.1470   23.8885 C   0  0  0  0  0  0
  -17.6448  -30.6590   24.0568 C   0  0  0  0  0  0
  -25.9048  -34.9443   23.5095 C   0  0  0  0  0  0
  -16.5342  -29.9083   23.6337 C   0  0  0  0  0  0
  -16.7269  -28.6510   23.0341 C   0  0  0  0  0  0
  -26.4504  -31.6578   25.0725 C   0  0  0  0  0  0
  -25.3739  -31.3753   26.1464 C   0  0  0  0  0  0
  -27.0321  -30.2978   24.6208 C   0  0  0  0  0  0
  -27.6076  -32.4304   25.7484 C   0  0  0  0  0  0
  -27.5579  -37.1801   24.8459 C   0  0  0  0  0  0
  -21.4195  -29.3051   22.3683 N   0  0  0  0  0  0
  -26.4289  -37.3763   23.9404 N   0  0  0  0  0  0
  -24.6913  -31.0568   22.0993 N   0  0  0  0  0  0
  -23.4200  -28.8150   23.3021 O   0  0  0  0  0  0
  -28.3408  -26.4425   20.1159 O   0  0  0  0  0  0
  -26.5603  -34.8914   22.4652 O   0  0  0  0  0  0
  -23.5439  -32.1398   23.7333 O   0  0  0  0  0  0
  -28.9592  -19.2229   19.6554 C   0  0  0  0  0  0
  -29.8697  -20.0557   20.3583 C   0  0  0  0  0  0
  -30.7714  -19.3695   21.2360 C   0  0  0  0  0  0
  -29.8709  -17.1198   20.6305 C   0  0  0  0  0  0
  -30.7698  -17.9384   21.3607 C   0  0  0  0  0  0
  -28.9499  -17.8048   19.7905 C   0  0  0  0  0  0
  -27.2720  -24.0660   19.7715 C   0  0  0  0  0  0
  -27.6693  -22.6172   20.1524 C   0  0  0  0  0  0
  -29.4895  -24.0983   20.5078 C   0  0  0  0  0  0
  -28.2066  -25.0131   20.5471 C   0  0  1  0  0  0
  -31.7857  -20.1586   22.0490 C   0  0  0  0  0  0
  -29.9913  -21.5988   20.0110 C   0  0  0  0  0  0
  -29.7629  -15.6758   20.8369 N   0  0  0  0  0  0
  -29.0710  -22.6426   20.6268 N   0  3  2  0  0  0
  -31.6316  -17.3424   22.2209 F   0  0  0  0  0  0
  -27.7886  -16.9105   18.8771 Cl  0  0  0  0  0  0
  -31.4831  -12.5478   19.1427 H   0  0  0  0  0  0
  -30.3975  -11.4034   19.8814 H   0  0  0  0  0  0
  -29.7810  -11.7728   17.4709 H   0  0  0  0  0  0
  -29.6460  -13.4898   17.7468 H   0  0  0  0  0  0
  -27.8673  -11.2899   18.8496 H   0  0  0  0  0  0
  -27.3803  -12.5846   17.7892 H   0  0  0  0  0  0
  -27.6681  -14.2401   19.5252 H   0  0  0  0  0  0
  -28.7159  -12.0296   21.3597 H   0  0  0  0  0  0
  -28.4387  -13.6747   21.8520 H   0  0  0  0  0  0
  -25.2749   -9.5677   22.4754 H   0  0  0  0  0  0
  -23.9993   -7.4620   22.7472 H   0  0  0  0  0  0
  -21.0817   -8.8752   19.8960 H   0  0  0  0  0  0
  -22.3666  -10.9657   19.6166 H   0  0  0  0  0  0
  -21.1994   -7.6142   23.9717 H   0  0  0  0  0  0
  -21.1484   -6.0516   25.9080 H   0  0  0  0  0  0
  -22.0601   -2.7601   23.2846 H   0  0  0  0  0  0
  -22.4061  -11.9899   22.4830 H   0  0  0  0  0  0
  -21.1094  -13.1286   22.2613 H   0  0  0  0  0  0
  -24.6385  -15.8210   20.5055 H   0  0  0  0  0  0
  -26.2404  -15.6237   20.0116 H   0  0  0  0  0  0
  -26.7196  -32.5424   23.1095 H   0  0  0  0  0  0
  -25.0133  -33.9710   25.0449 H   0  0  0  0  0  0
  -22.7188  -31.3036   21.4002 H   0  0  0  0  0  0
  -23.3744  -35.9636   23.3287 H   0  0  0  0  0  0
  -24.3587  -36.8925   22.2054 H   0  0  0  0  0  0
  -23.7248  -37.6498   23.6664 H   0  0  0  0  0  0
  -26.0990  -31.5328   20.6075 H   0  0  0  0  0  0
  -26.8478  -30.8291   22.0093 H   0  0  0  0  0  0
  -28.1092  -28.9423   21.2253 H   0  0  0  0  0  0
  -26.0015  -26.0124   18.8575 H   0  0  0  0  0  0
  -23.9931  -27.3488   18.9379 H   0  0  0  0  0  0
  -23.7575  -30.5895   19.4029 H   0  0  0  0  0  0
  -22.7597  -29.2424   19.8595 H   0  0  0  0  0  0
  -25.1291  -36.1918   25.0816 H   0  0  0  0  0  0
  -20.9965  -28.3260   24.1410 H   0  0  0  0  0  0
  -20.5682  -26.2300   23.3602 H   0  0  0  0  0  0
  -21.6639  -26.7457   22.1193 H   0  0  0  0  0  0
  -19.6910  -25.6301   21.1244 H   0  0  0  0  0  0
  -19.6698  -27.3202   20.6744 H   0  0  0  0  0  0
  -17.4202  -26.6691   21.4018 H   0  0  0  0  0  0
  -18.0329  -26.0088   22.9016 H   0  0  0  0  0  0
  -19.7923  -30.7302   24.2237 H   0  0  0  0  0  0
  -17.4995  -31.6267   24.5175 H   0  0  0  0  0  0
  -15.5340  -30.2974   23.7679 H   0  0  0  0  0  0
  -15.8669  -28.0837   22.7039 H   0  0  0  0  0  0
  -24.5905  -30.7099   25.7818 H   0  0  0  0  0  0
  -24.8947  -32.2935   26.4869 H   0  0  0  0  0  0
  -25.8069  -30.8954   27.0248 H   0  0  0  0  0  0
  -26.2882  -29.6742   24.1237 H   0  0  0  0  0  0
  -27.3983  -29.7235   25.4728 H   0  0  0  0  0  0
  -27.8780  -30.4225   23.9445 H   0  0  0  0  0  0
  -27.2708  -33.3634   26.2014 H   0  0  0  0  0  0
  -28.3909  -32.6806   25.0316 H   0  0  0  0  0  0
  -28.0708  -31.8449   26.5434 H   0  0  0  0  0  0
  -28.2592  -38.0098   24.7487 H   0  0  0  0  0  0
  -28.1072  -36.2629   24.6291 H   0  0  0  0  0  0
  -27.2302  -37.1453   25.8863 H   0  0  0  0  0  0
  -20.9374  -29.8782   21.6900 H   0  0  0  0  0  0
  -26.0168  -38.2838   24.1398 H   0  0  0  0  0  0
  -28.2620  -19.6683   18.9603 H   0  0  0  0  0  0
  -26.2193  -24.2294   19.9968 H   0  0  0  0  0  0
  -27.4211  -24.2030   18.6998 H   0  0  0  0  0  0
  -27.5269  -21.9414   19.3083 H   0  0  0  0  0  0
  -27.0418  -22.2495   20.9648 H   0  0  0  0  0  0
  -30.1994  -24.3664   21.2900 H   0  0  0  0  0  0
  -29.9956  -24.2433   19.5516 H   0  0  0  0  0  0
  -27.8611  -25.0408   21.5818 H   0  0  0  0  0  0
  -31.3209  -21.0275   22.5152 H   0  0  0  0  0  0
  -32.6025  -20.4971   21.4112 H   0  0  0  0  0  0
  -32.2203  -19.5614   22.8510 H   0  0  0  0  0  0
  -29.9166  -21.6904   18.9264 H   0  0  0  0  0  0
  -31.0127  -21.9101   20.2289 H   0  0  0  0  0  0
  -28.8272  -15.3592   21.0309 H   0  0  0  0  0  0
  -29.0344  -22.4340   21.6146 H   0  0  0  0  0  0
  1 25  1  0  0  0
  1 30  2  0  0  0
  1 83  1  0  0  0
  2  3  1  0  0  0
  2 25  1  0  0  0
  2 87  1  0  0  0
  2 88  1  0  0  0
  3  4  1  0  0  0
  3 89  1  0  0  0
  3 90  1  0  0  0
  4  5  1  0  0  0
  4 91  1  0  0  0
  4 92  1  0  0  0
  5  6  1  0  0  0
  5 26  1  0  0  0
  5 93  1  0  0  0
  6 25  1  0  0  0
  6 94  1  0  0  0
  6 95  1  0  0  0
  7  8  2  0  0  0
  7 26  1  0  0  0
  7 29  1  0  0  0
  8  9  1  0  0  0
  8 22  1  0  0  0
  9 10  1  0  0  0
  9 27  2  0  0  0
 10 11  2  0  0  0
 10 15  1  0  0  0
 11 12  1  0  0  0
 11 96  1  0  0  0
 12 13  2  0  0  0
 12 97  1  0  0  0
 13 14  1  0  0  0
 13 31  1  0  0  0
 14 15  2  0  0  0
 14 98  1  0  0  0
 15 99  1  0  0  0
 16 17  2  0  0  0
 16 21  1  0  0  0
 16 31  1  0  0  0
 17 18  1  0  0  0
 17100  1  0  0  0
 18 19  2  0  0  0
 18101  1  0  0  0
 19 20  1  0  0  0
 19 24  1  0  0  0
 20 21  2  0  0  0
 20102  1  0  0  0
 21 23  1  0  0  0
 22 28  1  0  0  0
 22 32  2  0  0  0
 26 27  1  0  0  0
 28103  1  0  0  0
 28104  1  0  0  0
 29105  1  0  0  0
 29106  1  0  0  0
 33 34  1  0  0  0
 33 66  1  0  0  0
 33 70  2  0  0  0
 34 36  1  0  0  0
 34 59  1  0  0  0
 34107  1  0  0  0
 35 44  2  0  0  0
 35 45  1  0  0  0
 35 68  1  0  0  0
 36 56  1  0  0  0
 36108  1  0  0  0
 37 39  1  0  0  0
 37 47  1  0  0  0
 37 66  1  0  0  0
 37109  1  0  0  0
 38 43  2  0  0  0
 38 46  1  0  0  0
 38 47  1  0  0  0
 39 64  1  0  0  0
 39 67  2  0  0  0
 40 52  1  0  0  0
 40 53  2  0  0  0
 40 58  1  0  0  0
 41110  1  0  0  0
 41111  1  0  0  0
 41112  1  0  0  0
 41 48  1  0  0  0
 42 43  1  0  0  0
 42 66  1  0  0  0
 42113  1  0  0  0
 42114  1  0  0  0
 43 44  1  0  0  0
 44115  1  0  0  0
 45 46  2  0  0  0
 45116  1  0  0  0
 46117  1  0  0  0
 47118  1  0  0  0
 47119  1  0  0  0
 48 56  1  0  0  0
 48 65  1  0  0  0
 48120  1  0  0  0
 49 50  1  0  0  0
 49 53  1  0  0  0
 49 64  1  0  0  0
 49121  1  0  0  0
 50 51  1  0  0  0
 50122  1  0  0  0
 50123  1  0  0  0
 51 52  1  0  0  0
 51124  1  0  0  0
 51125  1  0  0  0
 52126  1  0  0  0
 52127  1  0  0  0
 53 54  1  0  0  0
 54 55  2  0  0  0
 54128  1  0  0  0
 55 57  1  0  0  0
 55129  1  0  0  0
 56 69  2  0  0  0
 57 58  2  0  0  0
 57130  1  0  0  0
 58131  1  0  0  0
 59 60  1  0  0  0
 59 61  1  0  0  0
 59 62  1  0  0  0
 60132  1  0  0  0
 60133  1  0  0  0
 60134  1  0  0  0
 61135  1  0  0  0
 61136  1  0  0  0
 61137  1  0  0  0
 62138  1  0  0  0
 62139  1  0  0  0
 62140  1  0  0  0
 63 65  1  0  0  0
 63141  1  0  0  0
 63142  1  0  0  0
 63143  1  0  0  0
 64144  1  0  0  0
 65145  1  0  0  0
 68 80  1  0  0  0
 71 72  2  0  0  0
 71 76  1  0  0  0
 71146  1  0  0  0
 72 73  1  0  0  0
 72 82  1  0  0  0
 73 75  2  0  0  0
 73 81  1  0  0  0
 74 75  1  0  0  0
 74 76  2  0  0  0
 74 83  1  0  0  0
 75 85  1  0  0  0
 76 86  1  0  0  0
 77 78  1  0  0  0
 77 80  1  0  0  0
 77147  1  0  0  0
 77148  1  0  0  0
 78 84  1  0  0  0
 78149  1  0  0  0
 78150  1  0  0  0
 79 80  1  0  0  0
 79 84  1  0  0  0
 79151  1  0  0  0
 79152  1  0  0  0
 80153  1  0  0  0
 81154  1  0  0  0
 81155  1  0  0  0
 81156  1  0  0  0
 82157  1  0  0  0
 82158  1  0  0  0
 82 84  1  0  0  0
 83159  1  0  0  0
 84160  1  0  0  0
M  CHG  1  84   1
M  ISO  4   1 100  68 101  80 101  83 100
M  END
> <chiral flag>
0

> <version>
0

> <s_m_source_file>
/data/baiqing/PycharmProjects/Reinvent-master-3.2/result/LINK_invent/BTK/process_docking_weight1_custom_product_contain_oxygen_bond_distance_aromatic_linkinvent_7_9_3/rearranged_h_0031.sdf

> <i_m_source_file_index>
72

> <r_mmod_Potential_Energy-OPLS-2005>
-36.4706268310547

> <r_mmod_Stretch_Energy-OPLS-2005>
83.4435119628906

> <r_mmod_Bend_Energy-OPLS-2005>
168.910110473633

> <r_mmod_Torsional_Energy-OPLS-2005>
296.911865234375

> <r_mmod_Improper_Torsional_Energy-OPLS-2005>
7.00677347183228

> <r_mmod_Van_der_Waal_Energy-OPLS-2005>
136.561767578125

> <r_mmod_Electrostatic_Energy-OPLS-2005>
-327.731567382812

> <r_mmod_Solvation_Energy-OPLS-2005>
-455.262420654297

> <b_mmod_Minimization_Converged-OPLS-2005>
0

> <r_mmod_RMS_Derivative-OPLS-2005>
1.30224120616913

$$$$
72
                    3D
 Structure written by MMmdl.
155164  0  0  1  0            999 V2000
  -30.5807  -14.8396   20.4121 C   0  0  0  0  0  0
  -30.4347  -12.5059   19.5007 C   0  0  0  0  0  0
  -29.5165  -12.5099   18.2560 C   0  0  0  0  0  0
  -28.0472  -12.3178   18.6736 C   0  0  0  0  0  0
  -27.6374  -13.2420   19.8499 C   0  0  2  0  0  0
  -28.6795  -13.2298   20.9915 C   0  0  0  0  0  0
  -25.2470  -13.8229   20.5707 C   0  0  0  0  0  0
  -24.1781  -13.0449   20.9229 C   0  0  0  0  0  0
  -24.6380  -11.6936   20.8759 C   0  0  0  0  0  0
  -23.9067  -10.4299   21.0432 C   0  0  0  0  0  0
  -24.3623   -9.4208   21.9194 C   0  0  0  0  0  0
  -23.6291   -8.2248   22.0760 C   0  0  0  0  0  0
  -22.4279   -8.0288   21.3543 C   0  0  0  0  0  0
  -21.9903   -9.0271   20.4658 C   0  0  0  0  0  0
  -22.7242  -10.2137   20.3077 C   0  0  0  0  0  0
  -21.6843   -6.0740   22.5283 C   0  0  0  0  0  0
  -21.4012   -6.5637   23.8220 C   0  0  0  0  0  0
  -21.3662   -5.6786   24.9172 C   0  0  0  0  0  0
  -21.6045   -4.3052   24.7222 C   0  0  0  0  0  0
  -21.8810   -3.8144   23.4340 C   0  0  0  0  0  0
  -21.9184   -4.6964   22.3397 C   0  0  0  0  0  0
  -22.7797  -13.5220   21.1902 C   0  0  0  0  0  0
  -22.1658   -4.2159   21.0974 F   0  0  0  0  0  0
  -21.5630   -3.4531   25.7730 F   0  0  0  0  0  0
  -29.9783  -13.5917   20.4081 N   0  0  0  0  0  0
  -26.2912  -12.9452   20.3295 N   0  0  0  0  0  0
  -25.9319  -11.6588   20.5770 N   0  0  0  0  0  0
  -22.0449  -12.8211   22.0452 N   0  0  0  0  0  0
  -25.4125  -15.1949   20.4107 N   0  0  0  0  0  0
  -31.7727  -14.9179   20.0955 O   0  0  0  0  0  0
  -21.6639   -6.8889   21.4247 O   0  0  0  0  0  0
  -22.3471  -14.5527   20.6733 O   0  0  0  0  0  0
  -24.6385  -31.8509   23.1929 C   0  0  0  0  0  0
  -25.9184  -32.4730   23.8295 C   0  0  1  0  0  0
  -27.2177  -27.2027   20.1282 C   0  0  0  0  0  0
  -25.5969  -33.8539   24.2219 N   0  0  0  0  0  0
  -23.4385  -30.4732   21.5364 C   0  0  2  0  0  0
  -24.8848  -28.9103   20.1081 C   0  0  0  0  0  0
  -22.7540  -29.4583   22.4858 C   0  0  0  0  0  0
  -18.0307  -28.1412   22.8466 C   0  0  0  0  0  0
  -24.1504  -36.7284   23.2634 C   0  0  0  0  0  0
  -25.9904  -30.7449   21.3813 C   0  0  0  0  0  0
  -26.0606  -29.3623   20.7197 C   0  0  0  0  0  0
  -27.2286  -28.5234   20.7123 C   0  0  0  0  0  0
  -26.0132  -26.8290   19.4928 C   0  0  0  0  0  0
  -24.8703  -27.6545   19.4825 C   0  0  0  0  0  0
  -23.6639  -29.8117   20.1513 C   0  0  0  0  0  0
  -25.4133  -36.3052   24.0308 C   0  0  1  0  0  0
  -20.5916  -28.3740   23.1239 C   0  0  2  0  0  0
  -20.6811  -26.9449   22.5407 C   0  0  0  0  0  0
  -19.5786  -26.6397   21.5220 C   0  0  0  0  0  0
  -18.1960  -26.7951   22.1613 C   0  0  0  0  0  0
  -19.1562  -28.8891   23.2854 C   0  0  0  0  0  0
  -18.9475  -30.1481   23.8893 C   0  0  0  0  0  0
  -17.6475  -30.6598   24.0577 C   0  0  0  0  0  0
  -25.9081  -34.9430   23.5064 C   0  0  0  0  0  0
  -16.5368  -29.9103   23.6325 C   0  0  0  0  0  0
  -16.7295  -28.6528   23.0334 C   0  0  0  0  0  0
  -26.4523  -31.6578   25.0715 C   0  0  0  0  0  0
  -25.3724  -31.3759   26.1420 C   0  0  0  0  0  0
  -27.0365  -30.2973   24.6245 C   0  0  0  0  0  0
  -27.6056  -32.4333   25.7500 C   0  0  0  0  0  0
  -27.5585  -37.1805   24.8456 C   0  0  0  0  0  0
  -21.4239  -29.3064   22.3600 N   0  0  0  0  0  0
  -26.4295  -37.3759   23.9389 N   0  0  0  0  0  0
  -24.7084  -31.0425   22.0926 N   0  0  0  0  0  0
  -23.4216  -28.8119   23.2982 O   0  0  0  0  0  0
  -28.3021  -26.2764   20.1993 O   0  0  0  0  0  0
  -26.5636  -34.8906   22.4628 O   0  0  0  0  0  0
  -23.5521  -32.1357   23.7184 O   0  0  0  0  0  0
  -29.6228  -20.0232   18.7925 C   0  0  0  0  0  0
  -29.9639  -18.8622   18.0699 C   0  0  0  0  0  0
  -29.3628  -19.9680   20.1718 C   0  0  0  0  0  0
  -29.4749  -18.6258   20.7864 C   0  0  0  0  0  0
  -29.8286  -17.3913   20.0564 C   0  0  0  0  0  0
  -30.0587  -17.5821   18.6621 C   0  0  0  0  0  0
  -29.4372  -23.8609   19.9275 C   0  0  0  0  0  0
  -27.5050  -23.6782   20.5722 C   0  0  0  0  0  0
  -28.1767  -24.8198   19.7400 C   0  0  1  0  0  0
  -29.2048  -18.5081   22.2781 C   0  0  0  0  0  0
  -29.0268  -21.3516   20.9461 C   0  0  0  0  0  0
  -28.6823  -22.7486   20.3483 N   0  0  0  0  0  0
  -29.8071  -15.9904   20.6398 N   0  0  0  0  0  0
  -30.6379  -23.9743   19.7844 O   0  0  0  0  0  0
  -30.3719  -16.2724   17.5758 Cl  0  0  0  0  0  0
  -31.4759  -12.6306   19.1969 H   0  0  0  0  0  0
  -30.3881  -11.5448   20.0166 H   0  0  0  0  0  0
  -29.8117  -11.7228   17.5628 H   0  0  0  0  0  0
  -29.6273  -13.4515   17.7146 H   0  0  0  0  0  0
  -27.9299  -11.2743   18.9711 H   0  0  0  0  0  0
  -27.3850  -12.4693   17.8204 H   0  0  0  0  0  0
  -27.6159  -14.2507   19.4389 H   0  0  0  0  0  0
  -28.7307  -12.2505   21.4689 H   0  0  0  0  0  0
  -28.3939  -13.9350   21.7737 H   0  0  0  0  0  0
  -25.2776   -9.5657   22.4757 H   0  0  0  0  0  0
  -23.9997   -7.4612   22.7446 H   0  0  0  0  0  0
  -21.0842   -8.8784   19.8954 H   0  0  0  0  0  0
  -22.3714  -10.9673   19.6181 H   0  0  0  0  0  0
  -21.2021   -7.6151   23.9725 H   0  0  0  0  0  0
  -21.1497   -6.0524   25.9074 H   0  0  0  0  0  0
  -22.0589   -2.7614   23.2840 H   0  0  0  0  0  0
  -22.4081  -11.9882   22.4857 H   0  0  0  0  0  0
  -21.1074  -13.1219   22.2706 H   0  0  0  0  0  0
  -24.6329  -15.8384   20.5008 H   0  0  0  0  0  0
  -26.2553  -15.6356   20.0629 H   0  0  0  0  0  0
  -26.7250  -32.5347   23.1030 H   0  0  0  0  0  0
  -25.0153  -33.9674   25.0387 H   0  0  0  0  0  0
  -22.7389  -31.2988   21.3883 H   0  0  0  0  0  0
  -23.3758  -35.9629   23.3293 H   0  0  0  0  0  0
  -24.3594  -36.8922   22.2053 H   0  0  0  0  0  0
  -23.7276  -37.6487   23.6676 H   0  0  0  0  0  0
  -26.1422  -31.5060   20.6151 H   0  0  0  0  0  0
  -26.8640  -30.7907   22.0202 H   0  0  0  0  0  0
  -28.1321  -28.8686   21.1951 H   0  0  0  0  0  0
  -25.9159  -25.8662   19.0163 H   0  0  0  0  0  0
  -23.9682  -27.3024   19.0005 H   0  0  0  0  0  0
  -23.8151  -30.5968   19.4088 H   0  0  0  0  0  0
  -22.7773  -29.2664   19.8222 H   0  0  0  0  0  0
  -25.1323  -36.1892   25.0800 H   0  0  0  0  0  0
  -21.0012  -28.3354   24.1360 H   0  0  0  0  0  0
  -20.5748  -26.2356   23.3623 H   0  0  0  0  0  0
  -21.6676  -26.7500   22.1184 H   0  0  0  0  0  0
  -19.6965  -25.6305   21.1266 H   0  0  0  0  0  0
  -19.6728  -27.3189   20.6734 H   0  0  0  0  0  0
  -17.4236  -26.6692   21.4004 H   0  0  0  0  0  0
  -18.0354  -26.0101   22.9014 H   0  0  0  0  0  0
  -19.7955  -30.7291   24.2269 H   0  0  0  0  0  0
  -17.5032  -31.6260   24.5204 H   0  0  0  0  0  0
  -15.5373  -30.3008   23.7653 H   0  0  0  0  0  0
  -15.8693  -28.0854   22.7042 H   0  0  0  0  0  0
  -24.5885  -30.7133   25.7733 H   0  0  0  0  0  0
  -24.8953  -32.2957   26.4813 H   0  0  0  0  0  0
  -25.8028  -30.8939   27.0209 H   0  0  0  0  0  0
  -26.2950  -29.6704   24.1279 H   0  0  0  0  0  0
  -27.4023  -29.7253   25.4783 H   0  0  0  0  0  0
  -27.8846  -30.4201   23.9504 H   0  0  0  0  0  0
  -27.2630  -33.3623   26.2059 H   0  0  0  0  0  0
  -28.3880  -32.6910   25.0352 H   0  0  0  0  0  0
  -28.0708  -31.8480   26.5441 H   0  0  0  0  0  0
  -28.2592  -38.0109   24.7492 H   0  0  0  0  0  0
  -28.1091  -36.2640   24.6294 H   0  0  0  0  0  0
  -27.2303  -37.1466   25.8857 H   0  0  0  0  0  0
  -20.9447  -29.8768   21.6772 H   0  0  0  0  0  0
  -26.0171  -38.2828   24.1386 H   0  0  0  0  0  0
  -29.5621  -20.9696   18.2723 H   0  0  0  0  0  0
  -30.1374  -18.9510   17.0067 H   0  0  0  0  0  0
  -26.5636  -23.3309   20.1422 H   0  0  0  0  0  0
  -27.3586  -23.9501   21.6198 H   0  0  0  0  0  0
  -27.8363  -24.7944   18.7048 H   0  0  0  0  0  0
  -29.6203  -19.3549   22.8235 H   0  0  0  0  0  0
  -29.6656  -17.6142   22.6972 H   0  0  0  0  0  0
  -28.1323  -18.4625   22.4711 H   0  0  0  0  0  0
  -29.8890  -21.5215   21.5925 H   0  0  0  0  0  0
  -28.2072  -21.1221   21.6276 H   0  0  0  0  0  0
  -28.9734  -15.7945   21.1704 H   0  0  0  0  0  0
  1 25  1  0  0  0
  1 30  2  0  0  0
  1 83  1  0  0  0
  2  3  1  0  0  0
  2 25  1  0  0  0
  2 86  1  0  0  0
  2 87  1  0  0  0
  3  4  1  0  0  0
  3 88  1  0  0  0
  3 89  1  0  0  0
  4  5  1  0  0  0
  4 90  1  0  0  0
  4 91  1  0  0  0
  5  6  1  0  0  0
  5 26  1  0  0  0
  5 92  1  0  0  0
  6 25  1  0  0  0
  6 93  1  0  0  0
  6 94  1  0  0  0
  7  8  2  0  0  0
  7 26  1  0  0  0
  7 29  1  0  0  0
  8  9  1  0  0  0
  8 22  1  0  0  0
  9 10  1  0  0  0
  9 27  2  0  0  0
 10 11  2  0  0  0
 10 15  1  0  0  0
 11 12  1  0  0  0
 11 95  1  0  0  0
 12 13  2  0  0  0
 12 96  1  0  0  0
 13 14  1  0  0  0
 13 31  1  0  0  0
 14 15  2  0  0  0
 14 97  1  0  0  0
 15 98  1  0  0  0
 16 17  2  0  0  0
 16 21  1  0  0  0
 16 31  1  0  0  0
 17 18  1  0  0  0
 17 99  1  0  0  0
 18 19  2  0  0  0
 18100  1  0  0  0
 19 20  1  0  0  0
 19 24  1  0  0  0
 20 21  2  0  0  0
 20101  1  0  0  0
 21 23  1  0  0  0
 22 28  1  0  0  0
 22 32  2  0  0  0
 26 27  1  0  0  0
 28102  1  0  0  0
 28103  1  0  0  0
 29104  1  0  0  0
 29105  1  0  0  0
 33 34  1  0  0  0
 33 66  1  0  0  0
 33 70  2  0  0  0
 34 36  1  0  0  0
 34 59  1  0  0  0
 34106  1  0  0  0
 35 44  2  0  0  0
 35 45  1  0  0  0
 35 68  1  0  0  0
 36 56  1  0  0  0
 36107  1  0  0  0
 37 39  1  0  0  0
 37 47  1  0  0  0
 37 66  1  0  0  0
 37108  1  0  0  0
 38 43  2  0  0  0
 38 46  1  0  0  0
 38 47  1  0  0  0
 39 64  1  0  0  0
 39 67  2  0  0  0
 40 52  1  0  0  0
 40 53  2  0  0  0
 40 58  1  0  0  0
 41109  1  0  0  0
 41110  1  0  0  0
 41111  1  0  0  0
 41 48  1  0  0  0
 42 43  1  0  0  0
 42 66  1  0  0  0
 42112  1  0  0  0
 42113  1  0  0  0
 43 44  1  0  0  0
 44114  1  0  0  0
 45 46  2  0  0  0
 45115  1  0  0  0
 46116  1  0  0  0
 47117  1  0  0  0
 47118  1  0  0  0
 48 56  1  0  0  0
 48 65  1  0  0  0
 48119  1  0  0  0
 49 50  1  0  0  0
 49 53  1  0  0  0
 49 64  1  0  0  0
 49120  1  0  0  0
 50 51  1  0  0  0
 50121  1  0  0  0
 50122  1  0  0  0
 51 52  1  0  0  0
 51123  1  0  0  0
 51124  1  0  0  0
 52125  1  0  0  0
 52126  1  0  0  0
 53 54  1  0  0  0
 54 55  2  0  0  0
 54127  1  0  0  0
 55 57  1  0  0  0
 55128  1  0  0  0
 56 69  2  0  0  0
 57 58  2  0  0  0
 57129  1  0  0  0
 58130  1  0  0  0
 59 60  1  0  0  0
 59 61  1  0  0  0
 59 62  1  0  0  0
 60131  1  0  0  0
 60132  1  0  0  0
 60133  1  0  0  0
 61134  1  0  0  0
 61135  1  0  0  0
 61136  1  0  0  0
 62137  1  0  0  0
 62138  1  0  0  0
 62139  1  0  0  0
 63 65  1  0  0  0
 63140  1  0  0  0
 63141  1  0  0  0
 63142  1  0  0  0
 64143  1  0  0  0
 65144  1  0  0  0
 68 79  1  0  0  0
 71 72  2  0  0  0
 71 73  1  0  0  0
 71145  1  0  0  0
 72 76  1  0  0  0
 72146  1  0  0  0
 73 74  2  0  0  0
 73 81  1  0  0  0
 74 75  1  0  0  0
 74 80  1  0  0  0
 75 76  2  0  0  0
 75 83  1  0  0  0
 76 85  1  0  0  0
 77 79  1  0  0  0
 77 82  1  0  0  0
 77 84  2  0  0  0
 78 79  1  0  0  0
 78 82  1  0  0  0
 78147  1  0  0  0
 78148  1  0  0  0
 79149  1  0  0  0
 80150  1  0  0  0
 80151  1  0  0  0
 80152  1  0  0  0
 81 82  1  0  0  0
 81153  1  0  0  0
 81154  1  0  0  0
 83155  1  0  0  0
M  ISO  4   1 100  68 101  79 101  83 100
M  END
> <chiral flag>
0

> <version>
0

> <s_m_source_file>
/data/baiqing/PycharmProjects/Reinvent-master-3.2/result/LINK_invent/BTK/process_docking_weight1_custom_product_contain_oxygen_bond_distance_aromatic_linkinvent_7_9_3/rearranged_h_0031.sdf

> <i_m_source_file_index>
73

> <r_mmod_Potential_Energy-OPLS-2005>
249.241439819336

> <r_mmod_Stretch_Energy-OPLS-2005>
172.461166381836

> <r_mmod_Bend_Energy-OPLS-2005>
207.994918823242

> <r_mmod_Torsional_Energy-OPLS-2005>
240.207382202148

> <r_mmod_Improper_Torsional_Energy-OPLS-2005>
5.68990802764893

> <r_mmod_Van_der_Waal_Energy-OPLS-2005>
128.263046264648

> <r_mmod_Electrostatic_Energy-OPLS-2005>
-388.901092529297

> <r_mmod_Solvation_Energy-OPLS-2005>
-245.829528808594

> <b_mmod_Minimization_Converged-OPLS-2005>
0

> <r_mmod_RMS_Derivative-OPLS-2005>
2.87677574157715

$$$$
73
                    3D
 Structure written by MMmdl.
170179  0  0  1  0            999 V2000
  -30.5483  -14.7849   20.4457 C   0  0  0  0  0  0
  -30.4472  -12.4516   19.5266 C   0  0  0  0  0  0
  -29.5422  -12.4006   18.2737 C   0  0  0  0  0  0
  -28.0433  -12.3169   18.6349 C   0  0  0  0  0  0
  -27.6363  -13.2293   19.8253 C   0  0  2  0  0  0
  -28.6604  -13.1757   20.9756 C   0  0  0  0  0  0
  -25.2502  -13.8211   20.5573 C   0  0  0  0  0  0
  -24.1803  -13.0468   20.9142 C   0  0  0  0  0  0
  -24.6391  -11.6944   20.8698 C   0  0  0  0  0  0
  -23.9052  -10.4314   21.0396 C   0  0  0  0  0  0
  -24.3629   -9.4242   21.9178 C   0  0  0  0  0  0
  -23.6324   -8.2256   22.0742 C   0  0  0  0  0  0
  -22.4301   -8.0287   21.3539 C   0  0  0  0  0  0
  -21.9928   -9.0238   20.4628 C   0  0  0  0  0  0
  -22.7234  -10.2138   20.3037 C   0  0  0  0  0  0
  -21.6850   -6.0753   22.5296 C   0  0  0  0  0  0
  -21.4011   -6.5661   23.8232 C   0  0  0  0  0  0
  -21.3683   -5.6821   24.9193 C   0  0  0  0  0  0
  -21.6049   -4.3083   24.7248 C   0  0  0  0  0  0
  -21.8816   -3.8163   23.4371 C   0  0  0  0  0  0
  -21.9183   -4.6981   22.3423 C   0  0  0  0  0  0
  -22.7836  -13.5249   21.1847 C   0  0  0  0  0  0
  -22.1636   -4.2176   21.0993 F   0  0  0  0  0  0
  -21.5659   -3.4553   25.7751 F   0  0  0  0  0  0
  -29.9667  -13.5339   20.4192 N   0  0  0  0  0  0
  -26.2884  -12.9404   20.3061 N   0  0  0  0  0  0
  -25.9300  -11.6563   20.5654 N   0  0  0  0  0  0
  -22.0451  -12.8230   22.0397 N   0  0  0  0  0  0
  -25.4268  -15.1931   20.4006 N   0  0  0  0  0  0
  -31.7372  -14.9018   20.1236 O   0  0  0  0  0  0
  -21.6661   -6.8878   21.4247 O   0  0  0  0  0  0
  -22.3499  -14.5532   20.6699 O   0  0  0  0  0  0
  -24.6314  -31.8545   23.2008 C   0  0  0  0  0  0
  -25.9112  -32.4760   23.8389 C   0  0  1  0  0  0
  -27.2162  -27.2249   20.1299 C   0  0  0  0  0  0
  -25.5896  -33.8575   24.2298 N   0  0  0  0  0  0
  -23.4318  -30.4739   21.5466 C   0  0  2  0  0  0
  -24.8778  -28.9174   20.1151 C   0  0  0  0  0  0
  -22.7519  -29.4564   22.4953 C   0  0  0  0  0  0
  -18.0287  -28.1366   22.8483 C   0  0  0  0  0  0
  -24.1485  -36.7281   23.2652 C   0  0  0  0  0  0
  -25.9824  -30.7519   21.3912 C   0  0  0  0  0  0
  -26.0522  -29.3749   20.7238 C   0  0  0  0  0  0
  -27.2213  -28.5423   20.7157 C   0  0  0  0  0  0
  -26.0123  -26.8440   19.4933 C   0  0  0  0  0  0
  -24.8658  -27.6639   19.4867 C   0  0  0  0  0  0
  -23.6521  -29.8099   20.1630 C   0  0  0  0  0  0
  -25.4119  -36.3102   24.0354 C   0  0  1  0  0  0
  -20.5888  -28.3676   23.1288 C   0  0  2  0  0  0
  -20.6767  -26.9392   22.5423 C   0  0  0  0  0  0
  -19.5749  -26.6353   21.5218 C   0  0  0  0  0  0
  -18.1923  -26.7909   22.1615 C   0  0  0  0  0  0
  -19.1536  -28.8846   23.2869 C   0  0  0  0  0  0
  -18.9453  -30.1456   23.8873 C   0  0  0  0  0  0
  -17.6447  -30.6578   24.0537 C   0  0  0  0  0  0
  -25.9055  -34.9463   23.5146 C   0  0  0  0  0  0
  -16.5342  -29.9061   23.6324 C   0  0  0  0  0  0
  -16.7267  -28.6475   23.0350 C   0  0  0  0  0  0
  -26.4449  -31.6595   25.0804 C   0  0  0  0  0  0
  -25.3651  -31.3721   26.1507 C   0  0  0  0  0  0
  -27.0303  -30.3008   24.6332 C   0  0  0  0  0  0
  -27.6002  -32.4342   25.7583 C   0  0  0  0  0  0
  -27.5593  -37.1822   24.8466 C   0  0  0  0  0  0
  -21.4227  -29.3025   22.3701 N   0  0  0  0  0  0
  -26.4306  -37.3792   23.9408 N   0  0  0  0  0  0
  -24.7009  -31.0449   22.1020 N   0  0  0  0  0  0
  -23.4201  -28.8107   23.3062 O   0  0  0  0  0  0
  -28.3291  -26.3407   20.1918 O   0  0  0  0  0  0
  -26.5629  -34.8915   22.4722 O   0  0  0  0  0  0
  -23.5454  -32.1387   23.7262 O   0  0  0  0  0  0
  -29.4229  -18.5486   17.9361 C   0  0  0  0  0  0
  -29.1930  -18.4734   20.6856 C   0  0  0  0  0  0
  -28.9746  -19.7083   18.5968 C   0  0  0  0  0  0
  -29.7441  -17.3480   18.6020 C   0  0  0  0  0  0
  -28.9010  -19.7484   20.0116 C   0  0  0  0  0  0
  -29.6194  -17.2398   20.0164 C   0  0  0  0  0  0
  -29.9884  -22.9513   19.6840 C   0  0  0  0  0  0
  -31.1759  -22.3484   19.4273 C   0  0  0  0  0  0
  -29.5542  -24.3436   19.1689 C   0  0  0  0  0  0
  -28.1332  -23.7262   21.0073 C   0  0  0  0  0  0
  -28.2815  -24.8458   19.8842 C   0  0  1  0  0  0
  -28.5348  -20.8746   17.7177 C   0  0  0  0  0  0
  -30.1151  -16.1772   17.7098 C   0  0  0  0  0  0
  -31.6965  -21.1127   20.1506 C   0  0  0  0  0  0
  -32.1267  -22.8508   18.3526 C   0  0  0  0  0  0
  -28.3281  -21.0872   20.7102 C   0  0  0  0  0  0
  -29.7336  -15.8955   20.6814 N   0  0  0  0  0  0
  -29.0039  -22.4981   20.7219 N   0  3  2  0  0  0
  -31.4877  -12.5937   19.2264 H   0  0  0  0  0  0
  -30.4249  -11.4986   20.0599 H   0  0  0  0  0  0
  -29.8161  -11.5294   17.6778 H   0  0  0  0  0  0
  -29.7352  -13.2526   17.6320 H   0  0  0  0  0  0
  -27.8278  -11.2744   18.8716 H   0  0  0  0  0  0
  -27.4414  -12.5524   17.7566 H   0  0  0  0  0  0
  -27.6251  -14.2445   19.4290 H   0  0  0  0  0  0
  -28.6853  -12.1809   21.4241 H   0  0  0  0  0  0
  -28.3757  -13.8697   21.7673 H   0  0  0  0  0  0
  -25.2776   -9.5775   22.4748 H   0  0  0  0  0  0
  -24.0062   -7.4659   22.7469 H   0  0  0  0  0  0
  -21.0867   -8.8743   19.8929 H   0  0  0  0  0  0
  -22.3673  -10.9664   19.6149 H   0  0  0  0  0  0
  -21.1976   -7.6169   23.9745 H   0  0  0  0  0  0
  -21.1516   -6.0547   25.9104 H   0  0  0  0  0  0
  -22.0564   -2.7625   23.2858 H   0  0  0  0  0  0
  -22.4055  -11.9932   22.4844 H   0  0  0  0  0  0
  -21.1042  -13.1251   22.2471 H   0  0  0  0  0  0
  -24.6724  -15.8644   20.4908 H   0  0  0  0  0  0
  -26.2931  -15.6134   20.0918 H   0  0  0  0  0  0
  -26.7187  -32.5375   23.1139 H   0  0  0  0  0  0
  -24.9992  -33.9732   25.0404 H   0  0  0  0  0  0
  -22.7303  -31.2982   21.4011 H   0  0  0  0  0  0
  -23.3784  -35.9571   23.3310 H   0  0  0  0  0  0
  -24.3569  -36.8904   22.2063 H   0  0  0  0  0  0
  -23.7190  -37.6470   23.6663 H   0  0  0  0  0  0
  -26.1372  -31.5194   20.6315 H   0  0  0  0  0  0
  -26.8529  -30.7901   22.0361 H   0  0  0  0  0  0
  -28.1234  -28.8877   21.2015 H   0  0  0  0  0  0
  -25.9041  -25.8925   19.0001 H   0  0  0  0  0  0
  -23.9646  -27.3117   19.0038 H   0  0  0  0  0  0
  -23.7848  -30.5890   19.4117 H   0  0  0  0  0  0
  -22.7685  -29.2498   19.8514 H   0  0  0  0  0  0
  -25.1299  -36.1985   25.0853 H   0  0  0  0  0  0
  -20.9948  -28.3218   24.1417 H   0  0  0  0  0  0
  -20.5648  -26.2272   23.3618 H   0  0  0  0  0  0
  -21.6636  -26.7404   22.1224 H   0  0  0  0  0  0
  -19.6904  -25.6249   21.1276 H   0  0  0  0  0  0
  -19.6701  -27.3139   20.6729 H   0  0  0  0  0  0
  -17.4202  -26.6674   21.4003 H   0  0  0  0  0  0
  -18.0306  -26.0039   22.9000 H   0  0  0  0  0  0
  -19.7929  -30.7285   24.2213 H   0  0  0  0  0  0
  -17.4997  -31.6262   24.5133 H   0  0  0  0  0  0
  -15.5336  -30.2952   23.7663 H   0  0  0  0  0  0
  -15.8664  -28.0791   22.7072 H   0  0  0  0  0  0
  -24.5849  -30.7044   25.7824 H   0  0  0  0  0  0
  -24.8784  -32.2852   26.4951 H   0  0  0  0  0  0
  -25.7947  -30.8894   27.0294 H   0  0  0  0  0  0
  -26.2917  -29.6799   24.1236 H   0  0  0  0  0  0
  -27.3818  -29.7241   25.4900 H   0  0  0  0  0  0
  -27.8871  -30.4292   23.9713 H   0  0  0  0  0  0
  -27.2614  -33.3659   26.2135 H   0  0  0  0  0  0
  -28.3815  -32.6876   25.0405 H   0  0  0  0  0  0
  -28.0649  -31.8474   26.5519 H   0  0  0  0  0  0
  -28.2606  -38.0130   24.7533 H   0  0  0  0  0  0
  -28.1112  -36.2665   24.6277 H   0  0  0  0  0  0
  -27.2313  -37.1438   25.8871 H   0  0  0  0  0  0
  -20.9420  -29.8765   21.6924 H   0  0  0  0  0  0
  -26.0209  -38.2889   24.1364 H   0  0  0  0  0  0
  -29.4631  -18.5722   16.8561 H   0  0  0  0  0  0
  -29.0285  -18.4279   21.7525 H   0  0  0  0  0  0
  -29.4021  -24.3089   18.0903 H   0  0  0  0  0  0
  -30.3721  -25.0442   19.3450 H   0  0  0  0  0  0
  -27.0869  -23.4627   21.1665 H   0  0  0  0  0  0
  -28.4904  -24.1432   21.9476 H   0  0  0  0  0  0
  -27.5008  -24.6494   19.1553 H   0  0  0  0  0  0
  -28.1043  -20.5116   16.7849 H   0  0  0  0  0  0
  -29.3875  -21.5005   17.4556 H   0  0  0  0  0  0
  -27.7662  -21.5003   18.1688 H   0  0  0  0  0  0
  -31.1627  -15.9052   17.8425 H   0  0  0  0  0  0
  -29.9694  -16.3956   16.6505 H   0  0  0  0  0  0
  -29.4768  -15.3303   17.9425 H   0  0  0  0  0  0
  -31.1011  -20.8492   21.0218 H   0  0  0  0  0  0
  -32.7094  -21.2814   20.5131 H   0  0  0  0  0  0
  -31.7213  -20.2548   19.4773 H   0  0  0  0  0  0
  -31.7510  -23.7303   17.8313 H   0  0  0  0  0  0
  -32.2719  -22.0697   17.6042 H   0  0  0  0  0  0
  -33.1023  -23.0990   18.7721 H   0  0  0  0  0  0
  -28.1404  -20.8379   21.7544 H   0  0  0  0  0  0
  -27.3242  -21.2150   20.3060 H   0  0  0  0  0  0
  -28.9121  -15.6487   21.2156 H   0  0  0  0  0  0
  -29.5517  -22.4084   21.5660 H   0  0  0  0  0  0
  1 25  1  0  0  0
  1 30  2  0  0  0
  1 87  1  0  0  0
  2  3  1  0  0  0
  2 25  1  0  0  0
  2 89  1  0  0  0
  2 90  1  0  0  0
  3  4  1  0  0  0
  3 91  1  0  0  0
  3 92  1  0  0  0
  4  5  1  0  0  0
  4 93  1  0  0  0
  4 94  1  0  0  0
  5  6  1  0  0  0
  5 26  1  0  0  0
  5 95  1  0  0  0
  6 25  1  0  0  0
  6 96  1  0  0  0
  6 97  1  0  0  0
  7  8  2  0  0  0
  7 26  1  0  0  0
  7 29  1  0  0  0
  8  9  1  0  0  0
  8 22  1  0  0  0
  9 10  1  0  0  0
  9 27  2  0  0  0
 10 11  2  0  0  0
 10 15  1  0  0  0
 11 12  1  0  0  0
 11 98  1  0  0  0
 12 13  2  0  0  0
 12 99  1  0  0  0
 13 14  1  0  0  0
 13 31  1  0  0  0
 14 15  2  0  0  0
 14100  1  0  0  0
 15101  1  0  0  0
 16 17  2  0  0  0
 16 21  1  0  0  0
 16 31  1  0  0  0
 17 18  1  0  0  0
 17102  1  0  0  0
 18 19  2  0  0  0
 18103  1  0  0  0
 19 20  1  0  0  0
 19 24  1  0  0  0
 20 21  2  0  0  0
 20104  1  0  0  0
 21 23  1  0  0  0
 22 28  1  0  0  0
 22 32  2  0  0  0
 26 27  1  0  0  0
 28105  1  0  0  0
 28106  1  0  0  0
 29107  1  0  0  0
 29108  1  0  0  0
 33 34  1  0  0  0
 33 66  1  0  0  0
 33 70  2  0  0  0
 34 36  1  0  0  0
 34 59  1  0  0  0
 34109  1  0  0  0
 35 44  2  0  0  0
 35 45  1  0  0  0
 35 68  1  0  0  0
 36 56  1  0  0  0
 36110  1  0  0  0
 37 39  1  0  0  0
 37 47  1  0  0  0
 37 66  1  0  0  0
 37111  1  0  0  0
 38 43  2  0  0  0
 38 46  1  0  0  0
 38 47  1  0  0  0
 39 64  1  0  0  0
 39 67  2  0  0  0
 40 52  1  0  0  0
 40 53  2  0  0  0
 40 58  1  0  0  0
 41112  1  0  0  0
 41113  1  0  0  0
 41114  1  0  0  0
 41 48  1  0  0  0
 42 43  1  0  0  0
 42 66  1  0  0  0
 42115  1  0  0  0
 42116  1  0  0  0
 43 44  1  0  0  0
 44117  1  0  0  0
 45 46  2  0  0  0
 45118  1  0  0  0
 46119  1  0  0  0
 47120  1  0  0  0
 47121  1  0  0  0
 48 56  1  0  0  0
 48 65  1  0  0  0
 48122  1  0  0  0
 49 50  1  0  0  0
 49 53  1  0  0  0
 49 64  1  0  0  0
 49123  1  0  0  0
 50 51  1  0  0  0
 50124  1  0  0  0
 50125  1  0  0  0
 51 52  1  0  0  0
 51126  1  0  0  0
 51127  1  0  0  0
 52128  1  0  0  0
 52129  1  0  0  0
 53 54  1  0  0  0
 54 55  2  0  0  0
 54130  1  0  0  0
 55 57  1  0  0  0
 55131  1  0  0  0
 56 69  2  0  0  0
 57 58  2  0  0  0
 57132  1  0  0  0
 58133  1  0  0  0
 59 60  1  0  0  0
 59 61  1  0  0  0
 59 62  1  0  0  0
 60134  1  0  0  0
 60135  1  0  0  0
 60136  1  0  0  0
 61137  1  0  0  0
 61138  1  0  0  0
 61139  1  0  0  0
 62140  1  0  0  0
 62141  1  0  0  0
 62142  1  0  0  0
 63 65  1  0  0  0
 63143  1  0  0  0
 63144  1  0  0  0
 63145  1  0  0  0
 64146  1  0  0  0
 65147  1  0  0  0
 68 81  1  0  0  0
 71 73  2  0  0  0
 71 74  1  0  0  0
 71148  1  0  0  0
 72 75  2  0  0  0
 72 76  1  0  0  0
 72149  1  0  0  0
 73 75  1  0  0  0
 73 82  1  0  0  0
 74 76  2  0  0  0
 74 83  1  0  0  0
 75 86  1  0  0  0
 76 87  1  0  0  0
 77 78  2  0  0  0
 77 79  1  0  0  0
 77 88  1  0  0  0
 78 84  1  0  0  0
 78 85  1  0  0  0
 79 81  1  0  0  0
 79150  1  0  0  0
 79151  1  0  0  0
 80 81  1  0  0  0
 80 88  1  0  0  0
 80152  1  0  0  0
 80153  1  0  0  0
 81154  1  0  0  0
 82155  1  0  0  0
 82156  1  0  0  0
 82157  1  0  0  0
 83158  1  0  0  0
 83159  1  0  0  0
 83160  1  0  0  0
 84161  1  0  0  0
 84162  1  0  0  0
 84163  1  0  0  0
 85164  1  0  0  0
 85165  1  0  0  0
 85166  1  0  0  0
 86167  1  0  0  0
 86168  1  0  0  0
 86 88  1  0  0  0
 87169  1  0  0  0
 88170  1  0  0  0
M  CHG  1  88   1
M  ISO  4   1 100  68 101  81 101  87 100
M  END
> <chiral flag>
0

> <version>
0

> <s_m_source_file>
/data/baiqing/PycharmProjects/Reinvent-master-3.2/result/LINK_invent/BTK/process_docking_weight1_custom_product_contain_oxygen_bond_distance_aromatic_linkinvent_7_9_3/rearranged_h_0031.sdf

> <i_m_source_file_index>
74

> <r_mmod_Potential_Energy-OPLS-2005>
170.314910888672

> <r_mmod_Stretch_Energy-OPLS-2005>
152.116271972656

> <r_mmod_Bend_Energy-OPLS-2005>
235.097274780273

> <r_mmod_Torsional_Energy-OPLS-2005>
286.204132080078

> <r_mmod_Improper_Torsional_Energy-OPLS-2005>
6.66131401062012

> <r_mmod_Van_der_Waal_Energy-OPLS-2005>
140.098999023438

> <r_mmod_Electrostatic_Energy-OPLS-2005>
-329.026428222656

> <r_mmod_Solvation_Energy-OPLS-2005>
-427.971374511719

> <b_mmod_Minimization_Converged-OPLS-2005>
0

> <r_mmod_RMS_Derivative-OPLS-2005>
4.1861515045166

$$$$
74
                    3D
 Structure written by MMmdl.
156164  0  0  1  0            999 V2000
  -30.7144  -14.4953   20.5408 C   0  0  0  0  0  0
  -30.4144  -12.3147   19.4325 C   0  0  0  0  0  0
  -29.4866  -12.4959   18.2129 C   0  0  0  0  0  0
  -28.0119  -12.3478   18.6319 C   0  0  0  0  0  0
  -27.6557  -13.2017   19.8773 C   0  0  2  0  0  0
  -28.7040  -13.0309   21.0007 C   0  0  0  0  0  0
  -25.2587  -13.8152   20.5722 C   0  0  0  0  0  0
  -24.1842  -13.0426   20.9218 C   0  0  0  0  0  0
  -24.6384  -11.6891   20.8763 C   0  0  0  0  0  0
  -23.9050  -10.4274   21.0406 C   0  0  0  0  0  0
  -24.3599   -9.4197   21.9186 C   0  0  0  0  0  0
  -23.6287   -8.2228   22.0762 C   0  0  0  0  0  0
  -22.4271   -8.0265   21.3546 C   0  0  0  0  0  0
  -21.9894   -9.0237   20.4653 C   0  0  0  0  0  0
  -22.7218  -10.2123   20.3060 C   0  0  0  0  0  0
  -21.6854   -6.0721   22.5274 C   0  0  0  0  0  0
  -21.4010   -6.5634   23.8203 C   0  0  0  0  0  0
  -21.3673   -5.6802   24.9176 C   0  0  0  0  0  0
  -21.6045   -4.3062   24.7237 C   0  0  0  0  0  0
  -21.8821   -3.8145   23.4363 C   0  0  0  0  0  0
  -21.9192   -4.6947   22.3410 C   0  0  0  0  0  0
  -22.7864  -13.5216   21.1867 C   0  0  0  0  0  0
  -22.1656   -4.2134   21.0988 F   0  0  0  0  0  0
  -21.5633   -3.4546   25.7752 F   0  0  0  0  0  0
  -30.0300  -13.3236   20.4338 N   0  0  0  0  0  0
  -26.3003  -12.9301   20.3426 N   0  0  0  0  0  0
  -25.9311  -11.6465   20.5828 N   0  0  0  0  0  0
  -22.0507  -12.8191   22.0416 N   0  0  0  0  0  0
  -25.4307  -15.1868   20.4092 N   0  0  0  0  0  0
  -31.8619  -14.6286   20.1082 O   0  0  0  0  0  0
  -21.6647   -6.8853   21.4231 O   0  0  0  0  0  0
  -22.3542  -14.5509   20.6722 O   0  0  0  0  0  0
  -24.6165  -31.8678   23.2128 C   0  0  0  0  0  0
  -25.9046  -32.4823   23.8418 C   0  0  1  0  0  0
  -27.2212  -27.4092   20.0932 C   0  0  0  0  0  0
  -25.5907  -33.8622   24.2348 N   0  0  0  0  0  0
  -23.4053  -30.4953   21.5543 C   0  0  2  0  0  0
  -24.8479  -28.9671   20.1107 C   0  0  0  0  0  0
  -22.7434  -29.4655   22.4981 C   0  0  0  0  0  0
  -18.0286  -28.1368   22.8511 C   0  0  0  0  0  0
  -24.1490  -36.7321   23.2637 C   0  0  0  0  0  0
  -25.9370  -30.8256   21.3723 C   0  0  0  0  0  0
  -26.0102  -29.4600   20.7155 C   0  0  0  0  0  0
  -27.1976  -28.6874   20.7069 C   0  0  0  0  0  0
  -26.0412  -26.9562   19.4532 C   0  0  0  0  0  0
  -24.8601  -27.7168   19.4760 C   0  0  0  0  0  0
  -23.6147  -29.8394   20.1643 C   0  0  0  0  0  0
  -25.4112  -36.3121   24.0340 C   0  0  1  0  0  0
  -20.5894  -28.3637   23.1320 C   0  0  2  0  0  0
  -20.6794  -26.9398   22.5330 C   0  0  0  0  0  0
  -19.5717  -26.6397   21.5183 C   0  0  0  0  0  0
  -18.1926  -26.7917   22.1648 C   0  0  0  0  0  0
  -19.1545  -28.8800   23.2957 C   0  0  0  0  0  0
  -18.9475  -30.1366   23.9049 C   0  0  0  0  0  0
  -17.6474  -30.6502   24.0742 C   0  0  0  0  0  0
  -25.9037  -34.9477   23.5141 C   0  0  0  0  0  0
  -16.5364  -29.9072   23.6388 C   0  0  0  0  0  0
  -16.7277  -28.6530   23.0330 C   0  0  0  0  0  0
  -26.4465  -31.6602   25.0744 C   0  0  0  0  0  0
  -25.3736  -31.3686   26.1494 C   0  0  0  0  0  0
  -27.0285  -30.3044   24.6119 C   0  0  0  0  0  0
  -27.6054  -32.4302   25.7498 C   0  0  0  0  0  0
  -27.5583  -37.1824   24.8463 C   0  0  0  0  0  0
  -21.4162  -29.3038   22.3740 N   0  0  0  0  0  0
  -26.4298  -37.3804   23.9402 N   0  0  0  0  0  0
  -24.6722  -31.0754   22.1053 N   0  0  0  0  0  0
  -23.4218  -28.8178   23.2998 O   0  0  0  0  0  0
  -28.3770  -26.6429   20.1504 O   0  0  0  0  0  0
  -26.5593  -34.8914   22.4698 O   0  0  0  0  0  0
  -23.5348  -32.1445   23.7507 O   0  0  0  0  0  0
  -27.9372  -20.2090   19.4882 C   0  0  0  0  0  0
  -27.8697  -18.9409   18.8820 C   0  0  0  0  0  0
  -29.6661  -19.3773   20.9831 C   0  0  0  0  0  0
  -28.8663  -20.4588   20.5188 C   0  0  0  0  0  0
  -29.5816  -18.0743   20.4098 C   0  0  0  0  0  0
  -28.7064  -17.8910   19.3044 C   0  0  0  0  0  0
  -30.5131  -16.9645   20.9517 C   0  0  0  0  0  0
  -28.9519  -21.8686   21.1353 C   0  0  0  0  0  0
  -29.2770  -24.3472   20.6413 C   0  0  0  0  0  0
  -28.2812  -25.2304   19.8455 C   0  0  0  0  0  0
  -30.0234  -15.5656   20.9876 N   0  0  0  0  0  0
  -29.3099  -22.9305   20.1530 N   0  3  0  0  0  0
  -28.6547  -16.4318   18.3823 Cl  0  0  0  0  0  0
  -31.4581  -12.3992   19.1273 H   0  0  0  0  0  0
  -30.3094  -11.3120   19.8505 H   0  0  0  0  0  0
  -29.7285  -11.7630   17.4428 H   0  0  0  0  0  0
  -29.6483  -13.4787   17.7666 H   0  0  0  0  0  0
  -27.8396  -11.2929   18.8489 H   0  0  0  0  0  0
  -27.3510  -12.5976   17.8016 H   0  0  0  0  0  0
  -27.6793  -14.2394   19.5599 H   0  0  0  0  0  0
  -28.6869  -12.0109   21.3889 H   0  0  0  0  0  0
  -28.4725  -13.6756   21.8494 H   0  0  0  0  0  0
  -25.2730   -9.5694   22.4773 H   0  0  0  0  0  0
  -24.0010   -7.4625   22.7484 H   0  0  0  0  0  0
  -21.0825   -8.8747   19.8958 H   0  0  0  0  0  0
  -22.3655  -10.9665   19.6188 H   0  0  0  0  0  0
  -21.1985   -7.6140   23.9689 H   0  0  0  0  0  0
  -21.1499   -6.0546   25.9078 H   0  0  0  0  0  0
  -22.0586   -2.7605   23.2879 H   0  0  0  0  0  0
  -22.4133  -11.9864   22.4820 H   0  0  0  0  0  0
  -21.1124  -13.1239   22.2603 H   0  0  0  0  0  0
  -24.6671  -15.8437   20.5226 H   0  0  0  0  0  0
  -26.2734  -15.6200   20.0542 H   0  0  0  0  0  0
  -26.7128  -32.5523   23.1187 H   0  0  0  0  0  0
  -25.0059  -33.9799   25.0497 H   0  0  0  0  0  0
  -22.6968  -31.3164   21.4219 H   0  0  0  0  0  0
  -23.3749  -35.9659   23.3314 H   0  0  0  0  0  0
  -24.3590  -36.8914   22.2050 H   0  0  0  0  0  0
  -23.7245  -37.6530   23.6637 H   0  0  0  0  0  0
  -26.0534  -31.5951   20.6081 H   0  0  0  0  0  0
  -26.8238  -30.8752   21.9930 H   0  0  0  0  0  0
  -28.0904  -29.0611   21.1896 H   0  0  0  0  0  0
  -25.9986  -26.0210   18.9149 H   0  0  0  0  0  0
  -23.9700  -27.3435   18.9884 H   0  0  0  0  0  0
  -23.7329  -30.6225   19.4146 H   0  0  0  0  0  0
  -22.7352  -29.2708   19.8552 H   0  0  0  0  0  0
  -25.1295  -36.2000   25.0836 H   0  0  0  0  0  0
  -21.0061  -28.3139   24.1414 H   0  0  0  0  0  0
  -20.5773  -26.2185   23.3459 H   0  0  0  0  0  0
  -21.6637  -26.7504   22.1023 H   0  0  0  0  0  0
  -19.6848  -25.6317   21.1179 H   0  0  0  0  0  0
  -19.6620  -27.3233   20.6732 H   0  0  0  0  0  0
  -17.4164  -26.6634   21.4093 H   0  0  0  0  0  0
  -18.0367  -26.0051   22.9057 H   0  0  0  0  0  0
  -19.7955  -30.7112   24.2503 H   0  0  0  0  0  0
  -17.5022  -31.6107   24.5515 H   0  0  0  0  0  0
  -15.5366  -30.2990   23.7730 H   0  0  0  0  0  0
  -15.8669  -28.0905   22.6960 H   0  0  0  0  0  0
  -24.5936  -30.7000   25.7832 H   0  0  0  0  0  0
  -24.8890  -32.2817   26.4954 H   0  0  0  0  0  0
  -25.8102  -30.8860   27.0251 H   0  0  0  0  0  0
  -26.2822  -29.6824   24.1157 H   0  0  0  0  0  0
  -27.4036  -29.7259   25.4577 H   0  0  0  0  0  0
  -27.8677  -30.4364   23.9285 H   0  0  0  0  0  0
  -27.2702  -33.3604   26.2099 H   0  0  0  0  0  0
  -28.3845  -32.6848   25.0301 H   0  0  0  0  0  0
  -28.0737  -31.8399   26.5387 H   0  0  0  0  0  0
  -28.2617  -38.0109   24.7506 H   0  0  0  0  0  0
  -28.1066  -36.2639   24.6304 H   0  0  0  0  0  0
  -27.2294  -37.1496   25.8865 H   0  0  0  0  0  0
  -20.9323  -29.8823   21.7009 H   0  0  0  0  0  0
  -26.0191  -38.2884   24.1397 H   0  0  0  0  0  0
  -27.2792  -20.9921   19.1383 H   0  0  0  0  0  0
  -27.1799  -18.7746   18.0657 H   0  0  0  0  0  0
  -30.3655  -19.5492   21.7907 H   0  0  0  0  0  0
  -30.8088  -17.2206   21.9701 H   0  0  0  0  0  0
  -31.4261  -17.0359   20.3595 H   0  0  0  0  0  0
  -29.6803  -21.8692   21.9474 H   0  0  0  0  0  0
  -27.9834  -22.1037   21.5794 H   0  0  0  0  0  0
  -29.0289  -24.3833   21.7034 H   0  0  0  0  0  0
  -30.2797  -24.7652   20.5503 H   0  0  0  0  0  0
  -28.4458  -25.1141   18.7736 H   0  0  0  0  0  0
  -27.2927  -24.8297   20.0698 H   0  0  0  0  0  0
  -29.0839  -15.4079   21.3151 H   0  0  0  0  0  0
  -30.2407  -22.7323   19.8214 H   0  0  0  0  0  0
  -28.6967  -22.8448   19.3595 H   0  0  0  0  0  0
  1 25  1  0  0  0
  1 30  2  0  0  0
  1 81  1  0  0  0
  2  3  1  0  0  0
  2 25  1  0  0  0
  2 84  1  0  0  0
  2 85  1  0  0  0
  3  4  1  0  0  0
  3 86  1  0  0  0
  3 87  1  0  0  0
  4  5  1  0  0  0
  4 88  1  0  0  0
  4 89  1  0  0  0
  5  6  1  0  0  0
  5 26  1  0  0  0
  5 90  1  0  0  0
  6 25  1  0  0  0
  6 91  1  0  0  0
  6 92  1  0  0  0
  7  8  2  0  0  0
  7 26  1  0  0  0
  7 29  1  0  0  0
  8  9  1  0  0  0
  8 22  1  0  0  0
  9 10  1  0  0  0
  9 27  2  0  0  0
 10 11  2  0  0  0
 10 15  1  0  0  0
 11 12  1  0  0  0
 11 93  1  0  0  0
 12 13  2  0  0  0
 12 94  1  0  0  0
 13 14  1  0  0  0
 13 31  1  0  0  0
 14 15  2  0  0  0
 14 95  1  0  0  0
 15 96  1  0  0  0
 16 17  2  0  0  0
 16 21  1  0  0  0
 16 31  1  0  0  0
 17 18  1  0  0  0
 17 97  1  0  0  0
 18 19  2  0  0  0
 18 98  1  0  0  0
 19 20  1  0  0  0
 19 24  1  0  0  0
 20 21  2  0  0  0
 20 99  1  0  0  0
 21 23  1  0  0  0
 22 28  1  0  0  0
 22 32  2  0  0  0
 26 27  1  0  0  0
 28100  1  0  0  0
 28101  1  0  0  0
 29102  1  0  0  0
 29103  1  0  0  0
 33 34  1  0  0  0
 33 66  1  0  0  0
 33 70  2  0  0  0
 34 36  1  0  0  0
 34 59  1  0  0  0
 34104  1  0  0  0
 35 44  2  0  0  0
 35 45  1  0  0  0
 35 68  1  0  0  0
 36 56  1  0  0  0
 36105  1  0  0  0
 37 39  1  0  0  0
 37 47  1  0  0  0
 37 66  1  0  0  0
 37106  1  0  0  0
 38 43  2  0  0  0
 38 46  1  0  0  0
 38 47  1  0  0  0
 39 64  1  0  0  0
 39 67  2  0  0  0
 40 52  1  0  0  0
 40 53  2  0  0  0
 40 58  1  0  0  0
 41107  1  0  0  0
 41108  1  0  0  0
 41109  1  0  0  0
 41 48  1  0  0  0
 42 43  1  0  0  0
 42 66  1  0  0  0
 42110  1  0  0  0
 42111  1  0  0  0
 43 44  1  0  0  0
 44112  1  0  0  0
 45 46  2  0  0  0
 45113  1  0  0  0
 46114  1  0  0  0
 47115  1  0  0  0
 47116  1  0  0  0
 48 56  1  0  0  0
 48 65  1  0  0  0
 48117  1  0  0  0
 49 50  1  0  0  0
 49 53  1  0  0  0
 49 64  1  0  0  0
 49118  1  0  0  0
 50 51  1  0  0  0
 50119  1  0  0  0
 50120  1  0  0  0
 51 52  1  0  0  0
 51121  1  0  0  0
 51122  1  0  0  0
 52123  1  0  0  0
 52124  1  0  0  0
 53 54  1  0  0  0
 54 55  2  0  0  0
 54125  1  0  0  0
 55 57  1  0  0  0
 55126  1  0  0  0
 56 69  2  0  0  0
 57 58  2  0  0  0
 57127  1  0  0  0
 58128  1  0  0  0
 59 60  1  0  0  0
 59 61  1  0  0  0
 59 62  1  0  0  0
 60129  1  0  0  0
 60130  1  0  0  0
 60131  1  0  0  0
 61132  1  0  0  0
 61133  1  0  0  0
 61134  1  0  0  0
 62135  1  0  0  0
 62136  1  0  0  0
 62137  1  0  0  0
 63 65  1  0  0  0
 63138  1  0  0  0
 63139  1  0  0  0
 63140  1  0  0  0
 64141  1  0  0  0
 65142  1  0  0  0
 68 80  1  0  0  0
 71 72  2  0  0  0
 71 74  1  0  0  0
 71143  1  0  0  0
 72 76  1  0  0  0
 72144  1  0  0  0
 73 74  2  0  0  0
 73 75  1  0  0  0
 73145  1  0  0  0
 74 78  1  0  0  0
 75 76  2  0  0  0
 75 77  1  0  0  0
 76 83  1  0  0  0
 77 81  1  0  0  0
 77146  1  0  0  0
 77147  1  0  0  0
 78 82  1  0  0  0
 78148  1  0  0  0
 78149  1  0  0  0
 79 80  1  0  0  0
 79 82  1  0  0  0
 79150  1  0  0  0
 79151  1  0  0  0
 80152  1  0  0  0
 80153  1  0  0  0
 81154  1  0  0  0
 82155  1  0  0  0
 82156  1  0  0  0
M  CHG  1  82   1
M  ISO  4   1 100  68 101  80 101  81 100
M  END
> <chiral flag>
0

> <version>
0

> <s_m_source_file>
/data/baiqing/PycharmProjects/Reinvent-master-3.2/result/LINK_invent/BTK/process_docking_weight1_custom_product_contain_oxygen_bond_distance_aromatic_linkinvent_7_9_3/rearranged_h_0031.sdf

> <i_m_source_file_index>
75

> <r_mmod_Potential_Energy-OPLS-2005>
-238.615158081055

> <r_mmod_Stretch_Energy-OPLS-2005>
43.5742454528809

> <r_mmod_Bend_Energy-OPLS-2005>
102.861663818359

> <r_mmod_Torsional_Energy-OPLS-2005>
198.792861938477

> <r_mmod_Improper_Torsional_Energy-OPLS-2005>
4.0440239906311

> <r_mmod_Van_der_Waal_Energy-OPLS-2005>
151.634979248047

> <r_mmod_Electrostatic_Energy-OPLS-2005>
-287.303833007812

> <r_mmod_Solvation_Energy-OPLS-2005>
-471.904663085938

> <b_mmod_Minimization_Converged-OPLS-2005>
0

> <r_mmod_RMS_Derivative-OPLS-2005>
2.37212061882019

$$$$
75
                    3D
 Structure written by MMmdl.
160169  0  0  1  0            999 V2000
  -30.7317  -14.5108   20.5791 C   0  0  0  0  0  0
  -30.4125  -12.3420   19.4275 C   0  0  0  0  0  0
  -29.4861  -12.5040   18.2060 C   0  0  0  0  0  0
  -28.0130  -12.3426   18.6261 C   0  0  0  0  0  0
  -27.6490  -13.2035   19.8641 C   0  0  2  0  0  0
  -28.6960  -13.0483   20.9917 C   0  0  0  0  0  0
  -25.2526  -13.8151   20.5661 C   0  0  0  0  0  0
  -24.1806  -13.0427   20.9192 C   0  0  0  0  0  0
  -24.6364  -11.6897   20.8763 C   0  0  0  0  0  0
  -23.9043  -10.4291   21.0423 C   0  0  0  0  0  0
  -24.3600   -9.4197   21.9191 C   0  0  0  0  0  0
  -23.6289   -8.2227   22.0750 C   0  0  0  0  0  0
  -22.4273   -8.0264   21.3542 C   0  0  0  0  0  0
  -21.9900   -9.0238   20.4644 C   0  0  0  0  0  0
  -22.7224  -10.2122   20.3063 C   0  0  0  0  0  0
  -21.6848   -6.0733   22.5284 C   0  0  0  0  0  0
  -21.4008   -6.5638   23.8216 C   0  0  0  0  0  0
  -21.3655   -5.6792   24.9175 C   0  0  0  0  0  0
  -21.6041   -4.3057   24.7230 C   0  0  0  0  0  0
  -21.8821   -3.8144   23.4353 C   0  0  0  0  0  0
  -21.9192   -4.6961   22.3407 C   0  0  0  0  0  0
  -22.7834  -13.5224   21.1862 C   0  0  0  0  0  0
  -22.1669   -4.2140   21.0988 F   0  0  0  0  0  0
  -21.5641   -3.4542   25.7745 F   0  0  0  0  0  0
  -30.0199  -13.3542   20.4273 N   0  0  0  0  0  0
  -26.2951  -12.9317   20.3344 N   0  0  0  0  0  0
  -25.9281  -11.6484   20.5785 N   0  0  0  0  0  0
  -22.0490  -12.8223   22.0434 N   0  0  0  0  0  0
  -25.4216  -15.1871   20.3988 N   0  0  0  0  0  0
  -31.8718  -14.6373   20.1344 O   0  0  0  0  0  0
  -21.6642   -6.8862   21.4241 O   0  0  0  0  0  0
  -22.3528  -14.5534   20.6706 O   0  0  0  0  0  0
  -24.6176  -31.8653   23.2085 C   0  0  0  0  0  0
  -25.9055  -32.4809   23.8394 C   0  0  1  0  0  0
  -27.2253  -27.3871   20.1122 C   0  0  0  0  0  0
  -25.5896  -33.8616   24.2317 N   0  0  0  0  0  0
  -23.4092  -30.4896   21.5500 C   0  0  2  0  0  0
  -24.8532  -28.9568   20.1148 C   0  0  0  0  0  0
  -22.7433  -29.4630   22.4963 C   0  0  0  0  0  0
  -18.0280  -28.1361   22.8559 C   0  0  0  0  0  0
  -24.1481  -36.7310   23.2644 C   0  0  0  0  0  0
  -25.9423  -30.8208   21.3686 C   0  0  0  0  0  0
  -26.0178  -29.4531   20.7121 C   0  0  0  0  0  0
  -27.2065  -28.6798   20.6990 C   0  0  0  0  0  0
  -26.0352  -26.9199   19.5054 C   0  0  0  0  0  0
  -24.8598  -27.6925   19.5071 C   0  0  0  0  0  0
  -23.6202  -29.8283   20.1623 C   0  0  0  0  0  0
  -25.4108  -36.3110   24.0327 C   0  0  1  0  0  0
  -20.5889  -28.3644   23.1291 C   0  0  2  0  0  0
  -20.6802  -26.9403   22.5321 C   0  0  0  0  0  0
  -19.5684  -26.6335   21.5231 C   0  0  0  0  0  0
  -18.1922  -26.7869   22.1773 C   0  0  0  0  0  0
  -19.1553  -28.8823   23.2909 C   0  0  0  0  0  0
  -18.9508  -30.1448   23.8868 C   0  0  0  0  0  0
  -17.6518  -30.6590   24.0564 C   0  0  0  0  0  0
  -25.9036  -34.9476   23.5123 C   0  0  0  0  0  0
  -16.5397  -29.9099   23.6349 C   0  0  0  0  0  0
  -16.7284  -28.6493   23.0412 C   0  0  0  0  0  0
  -26.4470  -31.6598   25.0741 C   0  0  0  0  0  0
  -25.3736  -31.3700   26.1488 C   0  0  0  0  0  0
  -27.0309  -30.3039   24.6142 C   0  0  0  0  0  0
  -27.6038  -32.4325   25.7509 C   0  0  0  0  0  0
  -27.5572  -37.1819   24.8474 C   0  0  0  0  0  0
  -21.4161  -29.3036   22.3719 N   0  0  0  0  0  0
  -26.4297  -37.3789   23.9401 N   0  0  0  0  0  0
  -24.6750  -31.0732   22.1012 N   0  0  0  0  0  0
  -23.4189  -28.8132   23.2992 O   0  0  0  0  0  0
  -28.3842  -26.6178   20.1487 O   0  0  0  0  0  0
  -26.5608  -34.8937   22.4694 O   0  0  0  0  0  0
  -23.5355  -32.1410   23.7454 O   0  0  0  0  0  0
  -28.2488  -18.5713   21.6638 C   0  0  0  0  0  0
  -29.6330  -20.0288   19.7234 C   0  0  0  0  0  0
  -28.0393  -19.9721   21.5527 C   0  0  0  0  0  0
  -29.0918  -17.8682   20.7722 C   0  0  0  0  0  0
  -28.6873  -20.7161   20.5264 C   0  0  0  0  0  0
  -29.8276  -18.6295   19.8303 C   0  0  0  0  0  0
  -29.5351  -24.3437   20.2069 C   0  0  0  0  0  0
  -27.7209  -24.3864   21.1596 C   0  0  0  0  0  0
  -28.2673  -25.1790   19.9607 C   0  0  2  0  0  0
  -27.0485  -20.6256   22.5037 C   0  0  0  0  0  0
  -29.0283  -16.3224   20.7214 C   0  0  0  0  0  0
  -28.2354  -22.1473   20.1176 C   0  0  0  0  0  0
  -30.1722  -15.5508   21.2359 N   0  0  0  0  0  0
  -28.7221  -23.3279   20.9117 N   0  3  1  0  0  0
  -30.9062  -17.8579   18.7224 Cl  0  0  0  0  0  0
  -31.4550  -12.4318   19.1181 H   0  0  0  0  0  0
  -30.3164  -11.3414   19.8520 H   0  0  0  0  0  0
  -29.7379  -11.7689   17.4402 H   0  0  0  0  0  0
  -29.6347  -13.4865   17.7527 H   0  0  0  0  0  0
  -27.8453  -11.2889   18.8475 H   0  0  0  0  0  0
  -27.3555  -12.5869   17.7902 H   0  0  0  0  0  0
  -27.6614  -14.2334   19.5194 H   0  0  0  0  0  0
  -28.6915  -12.0290   21.3804 H   0  0  0  0  0  0
  -28.4513  -13.6884   21.8406 H   0  0  0  0  0  0
  -25.2746   -9.5679   22.4760 H   0  0  0  0  0  0
  -24.0008   -7.4614   22.7452 H   0  0  0  0  0  0
  -21.0834   -8.8750   19.8947 H   0  0  0  0  0  0
  -22.3681  -10.9656   19.6170 H   0  0  0  0  0  0
  -21.2006   -7.6142   23.9726 H   0  0  0  0  0  0
  -21.1471   -6.0514   25.9074 H   0  0  0  0  0  0
  -22.0604   -2.7601   23.2853 H   0  0  0  0  0  0
  -22.4103  -11.9874   22.4805 H   0  0  0  0  0  0
  -21.1091  -13.1214   22.2630 H   0  0  0  0  0  0
  -24.6436  -15.8320   20.4760 H   0  0  0  0  0  0
  -26.2557  -15.6211   20.0291 H   0  0  0  0  0  0
  -26.7121  -32.5512   23.1153 H   0  0  0  0  0  0
  -25.0032  -33.9767   25.0450 H   0  0  0  0  0  0
  -22.7001  -31.3079   21.4112 H   0  0  0  0  0  0
  -23.3739  -35.9648   23.3332 H   0  0  0  0  0  0
  -24.3564  -36.8910   22.2057 H   0  0  0  0  0  0
  -23.7247  -37.6526   23.6644 H   0  0  0  0  0  0
  -26.0656  -31.5882   20.6028 H   0  0  0  0  0  0
  -26.8261  -30.8673   21.9947 H   0  0  0  0  0  0
  -28.1053  -29.0620   21.1630 H   0  0  0  0  0  0
  -25.9785  -25.9567   19.0238 H   0  0  0  0  0  0
  -23.9642  -27.3068   19.0427 H   0  0  0  0  0  0
  -23.7353  -30.6055   19.4070 H   0  0  0  0  0  0
  -22.7416  -29.2548   19.8602 H   0  0  0  0  0  0
  -25.1285  -36.1981   25.0814 H   0  0  0  0  0  0
  -20.9999  -28.3170   24.1410 H   0  0  0  0  0  0
  -20.5861  -26.2249   23.3504 H   0  0  0  0  0  0
  -21.6652  -26.7515   22.1019 H   0  0  0  0  0  0
  -19.6818  -25.6226   21.1288 H   0  0  0  0  0  0
  -19.6517  -27.3097   20.6716 H   0  0  0  0  0  0
  -17.4095  -26.6572   21.4285 H   0  0  0  0  0  0
  -18.0421  -26.0059   22.9236 H   0  0  0  0  0  0
  -19.7995  -30.7286   24.2178 H   0  0  0  0  0  0
  -17.5131  -31.6298   24.5128 H   0  0  0  0  0  0
  -15.5404  -30.3023   23.7666 H   0  0  0  0  0  0
  -15.8704  -28.0765   22.7151 H   0  0  0  0  0  0
  -24.5890  -30.7064   25.7832 H   0  0  0  0  0  0
  -24.8947  -32.2856   26.4972 H   0  0  0  0  0  0
  -25.8096  -30.8850   27.0234 H   0  0  0  0  0  0
  -26.2871  -29.6809   24.1171 H   0  0  0  0  0  0
  -27.4046  -29.7269   25.4608 H   0  0  0  0  0  0
  -27.8708  -30.4349   23.9321 H   0  0  0  0  0  0
  -27.2626  -33.3609   26.2109 H   0  0  0  0  0  0
  -28.3833  -32.6922   25.0330 H   0  0  0  0  0  0
  -28.0716  -31.8449   26.5424 H   0  0  0  0  0  0
  -28.2616  -38.0092   24.7488 H   0  0  0  0  0  0
  -28.1047  -36.2627   24.6339 H   0  0  0  0  0  0
  -27.2290  -37.1516   25.8880 H   0  0  0  0  0  0
  -20.9297  -29.8816   21.7019 H   0  0  0  0  0  0
  -26.0193  -38.2872   24.1397 H   0  0  0  0  0  0
  -27.6847  -18.0118   22.3964 H   0  0  0  0  0  0
  -30.1519  -20.5590   18.9376 H   0  0  0  0  0  0
  -30.2421  -24.8343   20.8788 H   0  0  0  0  0  0
  -30.0368  -23.9932   19.3045 H   0  0  0  0  0  0
  -26.6760  -24.0869   21.0733 H   0  0  0  0  0  0
  -27.8989  -24.8896   22.1104 H   0  0  0  0  0  0
  -27.8276  -24.8940   19.0035 H   0  0  0  0  0  0
  -26.8185  -19.9677   23.3437 H   0  0  0  0  0  0
  -26.1085  -20.8487   21.9970 H   0  0  0  0  0  0
  -27.4513  -21.5482   22.9209 H   0  0  0  0  0  0
  -28.8623  -16.0630   19.6749 H   0  0  0  0  0  0
  -28.1373  -15.9954   21.2570 H   0  0  0  0  0  0
  -27.1464  -22.1306   20.1378 H   0  0  0  0  0  0
  -28.4735  -22.2965   19.0644 H   0  0  0  0  0  0
  -30.8781  -16.1647   21.6135 H   0  0  0  0  0  0
  -29.1600  -23.0221   21.7673 H   0  0  0  0  0  0
  1 25  1  0  0  0
  1 30  2  0  0  0
  1 83  1  0  0  0
  2  3  1  0  0  0
  2 25  1  0  0  0
  2 86  1  0  0  0
  2 87  1  0  0  0
  3  4  1  0  0  0
  3 88  1  0  0  0
  3 89  1  0  0  0
  4  5  1  0  0  0
  4 90  1  0  0  0
  4 91  1  0  0  0
  5  6  1  0  0  0
  5 26  1  0  0  0
  5 92  1  0  0  0
  6 25  1  0  0  0
  6 93  1  0  0  0
  6 94  1  0  0  0
  7  8  2  0  0  0
  7 26  1  0  0  0
  7 29  1  0  0  0
  8  9  1  0  0  0
  8 22  1  0  0  0
  9 10  1  0  0  0
  9 27  2  0  0  0
 10 11  2  0  0  0
 10 15  1  0  0  0
 11 12  1  0  0  0
 11 95  1  0  0  0
 12 13  2  0  0  0
 12 96  1  0  0  0
 13 14  1  0  0  0
 13 31  1  0  0  0
 14 15  2  0  0  0
 14 97  1  0  0  0
 15 98  1  0  0  0
 16 17  2  0  0  0
 16 21  1  0  0  0
 16 31  1  0  0  0
 17 18  1  0  0  0
 17 99  1  0  0  0
 18 19  2  0  0  0
 18100  1  0  0  0
 19 20  1  0  0  0
 19 24  1  0  0  0
 20 21  2  0  0  0
 20101  1  0  0  0
 21 23  1  0  0  0
 22 28  1  0  0  0
 22 32  2  0  0  0
 26 27  1  0  0  0
 28102  1  0  0  0
 28103  1  0  0  0
 29104  1  0  0  0
 29105  1  0  0  0
 33 34  1  0  0  0
 33 66  1  0  0  0
 33 70  2  0  0  0
 34 36  1  0  0  0
 34 59  1  0  0  0
 34106  1  0  0  0
 35 44  2  0  0  0
 35 45  1  0  0  0
 35 68  1  0  0  0
 36 56  1  0  0  0
 36107  1  0  0  0
 37 39  1  0  0  0
 37 47  1  0  0  0
 37 66  1  0  0  0
 37108  1  0  0  0
 38 43  2  0  0  0
 38 46  1  0  0  0
 38 47  1  0  0  0
 39 64  1  0  0  0
 39 67  2  0  0  0
 40 52  1  0  0  0
 40 53  2  0  0  0
 40 58  1  0  0  0
 41109  1  0  0  0
 41110  1  0  0  0
 41111  1  0  0  0
 41 48  1  0  0  0
 42 43  1  0  0  0
 42 66  1  0  0  0
 42112  1  0  0  0
 42113  1  0  0  0
 43 44  1  0  0  0
 44114  1  0  0  0
 45 46  2  0  0  0
 45115  1  0  0  0
 46116  1  0  0  0
 47117  1  0  0  0
 47118  1  0  0  0
 48 56  1  0  0  0
 48 65  1  0  0  0
 48119  1  0  0  0
 49 50  1  0  0  0
 49 53  1  0  0  0
 49 64  1  0  0  0
 49120  1  0  0  0
 50 51  1  0  0  0
 50121  1  0  0  0
 50122  1  0  0  0
 51 52  1  0  0  0
 51123  1  0  0  0
 51124  1  0  0  0
 52125  1  0  0  0
 52126  1  0  0  0
 53 54  1  0  0  0
 54 55  2  0  0  0
 54127  1  0  0  0
 55 57  1  0  0  0
 55128  1  0  0  0
 56 69  2  0  0  0
 57 58  2  0  0  0
 57129  1  0  0  0
 58130  1  0  0  0
 59 60  1  0  0  0
 59 61  1  0  0  0
 59 62  1  0  0  0
 60131  1  0  0  0
 60132  1  0  0  0
 60133  1  0  0  0
 61134  1  0  0  0
 61135  1  0  0  0
 61136  1  0  0  0
 62137  1  0  0  0
 62138  1  0  0  0
 62139  1  0  0  0
 63 65  1  0  0  0
 63140  1  0  0  0
 63141  1  0  0  0
 63142  1  0  0  0
 64143  1  0  0  0
 65144  1  0  0  0
 68 79  1  0  0  0
 71 73  2  0  0  0
 71 74  1  0  0  0
 71145  1  0  0  0
 72 75  2  0  0  0
 72 76  1  0  0  0
 72146  1  0  0  0
 73 75  1  0  0  0
 73 80  1  0  0  0
 74 76  2  0  0  0
 74 81  1  0  0  0
 75 82  1  0  0  0
 76 85  1  0  0  0
 77 79  1  0  0  0
 77 84  1  0  0  0
 77147  1  0  0  0
 77148  1  0  0  0
 78 79  1  0  0  0
 78 84  1  0  0  0
 78149  1  0  0  0
 78150  1  0  0  0
 79151  1  0  0  0
 80152  1  0  0  0
 80153  1  0  0  0
 80154  1  0  0  0
 81 83  1  0  0  0
 81155  1  0  0  0
 81156  1  0  0  0
 82157  1  0  0  0
 82158  1  0  0  0
 82 84  1  0  0  0
 83159  1  0  0  0
 84160  1  0  0  0
M  CHG  1  84   1
M  ISO  4   1 100  68 101  79 101  83 100
M  END
> <chiral flag>
0

> <version>
0

> <s_m_source_file>
/data/baiqing/PycharmProjects/Reinvent-master-3.2/result/LINK_invent/BTK/process_docking_weight1_custom_product_contain_oxygen_bond_distance_aromatic_linkinvent_7_9_3/rearranged_h_0031.sdf

> <i_m_source_file_index>
76

> <r_mmod_Potential_Energy-OPLS-2005>
-168.466888427734

> <r_mmod_Stretch_Energy-OPLS-2005>
49.445987701416

> <r_mmod_Bend_Energy-OPLS-2005>
137.316818237305

> <r_mmod_Torsional_Energy-OPLS-2005>
287.66748046875

> <r_mmod_Improper_Torsional_Energy-OPLS-2005>
8.270263671875

> <r_mmod_Van_der_Waal_Energy-OPLS-2005>
143.059204101562

> <r_mmod_Electrostatic_Energy-OPLS-2005>
-341.864837646484

> <r_mmod_Solvation_Energy-OPLS-2005>
-474.386474609375

> <b_mmod_Minimization_Converged-OPLS-2005>
0

> <r_mmod_RMS_Derivative-OPLS-2005>
2.8830132484436

$$$$
76
                    3D
 Structure written by MMmdl.
172181  0  0  1  0            999 V2000
  -30.6930  -14.6936   20.4440 C   0  0  0  0  0  0
  -30.4267  -12.4153   19.4691 C   0  0  0  0  0  0
  -29.5002  -12.4503   18.2372 C   0  0  0  0  0  0
  -28.0165  -12.3411   18.6508 C   0  0  0  0  0  0
  -27.6349  -13.2340   19.8652 C   0  0  2  0  0  0
  -28.7007  -13.1866   20.9824 C   0  0  0  0  0  0
  -25.2259  -13.7993   20.5567 C   0  0  0  0  0  0
  -24.1688  -13.0255   20.9265 C   0  0  0  0  0  0
  -24.6379  -11.6797   20.8845 C   0  0  0  0  0  0
  -23.9066  -10.4202   21.0442 C   0  0  0  0  0  0
  -24.3601   -9.4139   21.9243 C   0  0  0  0  0  0
  -23.6291   -8.2157   22.0754 C   0  0  0  0  0  0
  -22.4296   -8.0209   21.3516 C   0  0  0  0  0  0
  -21.9928   -9.0177   20.4636 C   0  0  0  0  0  0
  -22.7228  -10.2085   20.3080 C   0  0  0  0  0  0
  -21.6837   -6.0724   22.5285 C   0  0  0  0  0  0
  -21.3984   -6.5628   23.8207 C   0  0  0  0  0  0
  -21.3660   -5.6785   24.9174 C   0  0  0  0  0  0
  -21.6056   -4.3040   24.7242 C   0  0  0  0  0  0
  -21.8813   -3.8146   23.4357 C   0  0  0  0  0  0
  -21.9184   -4.6964   22.3422 C   0  0  0  0  0  0
  -22.7727  -13.5019   21.1917 C   0  0  0  0  0  0
  -22.1644   -4.2145   21.1001 F   0  0  0  0  0  0
  -21.5674   -3.4513   25.7748 F   0  0  0  0  0  0
  -29.9973  -13.5079   20.3673 N   0  0  0  0  0  0
  -26.2884  -12.9360   20.3464 N   0  0  0  0  0  0
  -25.9353  -11.6503   20.5990 N   0  0  0  0  0  0
  -22.0445  -12.8027   22.0546 N   0  0  0  0  0  0
  -25.3299  -15.1615   20.3472 N   0  0  0  0  0  0
  -31.9167  -14.6741   20.2972 O   0  0  0  0  0  0
  -21.6619   -6.8846   21.4228 O   0  0  0  0  0  0
  -22.3418  -14.5329   20.6781 O   0  0  0  0  0  0
  -24.6222  -31.8639   23.2037 C   0  0  0  0  0  0
  -25.9078  -32.4795   23.8349 C   0  0  1  0  0  0
  -27.2300  -27.3437   20.1147 C   0  0  0  0  0  0
  -25.5919  -33.8600   24.2280 N   0  0  0  0  0  0
  -23.4149  -30.4897   21.5453 C   0  0  2  0  0  0
  -24.8592  -28.9492   20.1055 C   0  0  0  0  0  0
  -22.7459  -29.4656   22.4928 C   0  0  0  0  0  0
  -18.0299  -28.1409   22.8501 C   0  0  0  0  0  0
  -24.1480  -36.7284   23.2640 C   0  0  0  0  0  0
  -25.9519  -30.8036   21.3680 C   0  0  0  0  0  0
  -26.0235  -29.4307   20.7147 C   0  0  0  0  0  0
  -27.2044  -28.6381   20.7142 C   0  0  0  0  0  0
  -26.0446  -26.9185   19.4637 C   0  0  0  0  0  0
  -24.8715  -27.6977   19.4698 C   0  0  0  0  0  0
  -23.6250  -29.8263   20.1577 C   0  0  0  0  0  0
  -25.4105  -36.3100   24.0345 C   0  0  1  0  0  0
  -20.5895  -28.3705   23.1291 C   0  0  2  0  0  0
  -20.6787  -26.9434   22.5424 C   0  0  0  0  0  0
  -19.5755  -26.6404   21.5229 C   0  0  0  0  0  0
  -18.1937  -26.7966   22.1628 C   0  0  0  0  0  0
  -19.1552  -28.8872   23.2892 C   0  0  0  0  0  0
  -18.9473  -30.1470   23.8910 C   0  0  0  0  0  0
  -17.6477  -30.6606   24.0581 C   0  0  0  0  0  0
  -25.9044  -34.9472   23.5113 C   0  0  0  0  0  0
  -16.5363  -29.9121   23.6331 C   0  0  0  0  0  0
  -16.7290  -28.6538   23.0352 C   0  0  0  0  0  0
  -26.4487  -31.6591   25.0704 C   0  0  0  0  0  0
  -25.3731  -31.3761   26.1442 C   0  0  0  0  0  0
  -27.0283  -30.3022   24.6111 C   0  0  0  0  0  0
  -27.6052  -32.4332   25.7471 C   0  0  0  0  0  0
  -27.5587  -37.1792   24.8477 C   0  0  0  0  0  0
  -21.4185  -29.3047   22.3669 N   0  0  0  0  0  0
  -26.4282  -37.3795   23.9439 N   0  0  0  0  0  0
  -24.6827  -31.0688   22.0960 N   0  0  0  0  0  0
  -23.4210  -28.8204   23.2998 O   0  0  0  0  0  0
  -28.3826  -26.5480   20.2051 O   0  0  0  0  0  0
  -26.5610  -34.8946   22.4678 O   0  0  0  0  0  0
  -23.5393  -32.1411   23.7389 O   0  0  0  0  0  0
  -31.0446  -19.4877   20.8209 C   0  0  0  0  0  0
  -29.8026  -20.1432   21.0322 C   0  0  0  0  0  0
  -31.1744  -18.0792   20.6261 C   0  0  0  0  0  0
  -28.6659  -19.2923   21.1075 C   0  0  0  0  0  0
  -28.7897  -17.8708   20.9218 C   0  0  0  0  0  0
  -30.0324  -17.2184   20.6404 C   0  0  0  0  0  0
  -29.3469  -23.6334   17.9805 C   0  0  0  0  0  0
  -29.2318  -25.0764   18.5033 C   0  0  0  0  0  0
  -29.9537  -22.6674   19.0253 C   0  0  0  0  0  0
  -29.0324  -24.1039   20.8271 C   0  0  0  0  0  0
  -28.4092  -25.1310   19.7973 C   0  0  1  0  0  0
  -32.5748  -17.5521   20.3630 C   0  0  0  0  0  0
  -27.2840  -19.8901   21.3814 C   0  0  0  0  0  0
  -27.5393  -17.0227   20.9438 C   0  0  0  0  0  0
  -29.8185  -15.9314   18.6020 C   0  0  0  0  0  0
  -29.7645  -21.6978   21.3256 C   0  0  0  0  0  0
  -30.0192  -15.8513   20.0615 N   0  0  0  0  0  0
  -29.1996  -22.6763   20.3082 N   0  3  2  0  0  0
  -31.4663  -12.5192   19.1510 H   0  0  0  0  0  0
  -30.3575  -11.4546   19.9814 H   0  0  0  0  0  0
  -29.7548  -11.6355   17.5585 H   0  0  0  0  0  0
  -29.6619  -13.3646   17.6724 H   0  0  0  0  0  0
  -27.8288  -11.2963   18.8933 H   0  0  0  0  0  0
  -27.3723  -12.5723   17.8043 H   0  0  0  0  0  0
  -27.5983  -14.2576   19.5059 H   0  0  0  0  0  0
  -28.7309  -12.2065   21.4607 H   0  0  0  0  0  0
  -28.4676  -13.9004   21.7727 H   0  0  0  0  0  0
  -25.2700   -9.5646   22.4890 H   0  0  0  0  0  0
  -23.9983   -7.4518   22.7468 H   0  0  0  0  0  0
  -21.0854   -8.8659   19.8958 H   0  0  0  0  0  0
  -22.3597  -10.9632   19.6236 H   0  0  0  0  0  0
  -21.1924   -7.6128   23.9687 H   0  0  0  0  0  0
  -21.1509   -6.0539   25.9072 H   0  0  0  0  0  0
  -22.0598   -2.7618   23.2848 H   0  0  0  0  0  0
  -22.4063  -11.9610   22.4789 H   0  0  0  0  0  0
  -21.1084  -13.1080   22.2838 H   0  0  0  0  0  0
  -24.4844  -15.7215   20.3351 H   0  0  0  0  0  0
  -26.0905  -15.5829   19.8331 H   0  0  0  0  0  0
  -26.7164  -32.5457   23.1115 H   0  0  0  0  0  0
  -25.0111  -33.9749   25.0466 H   0  0  0  0  0  0
  -22.7072  -31.3100   21.4065 H   0  0  0  0  0  0
  -23.3768  -35.9585   23.3289 H   0  0  0  0  0  0
  -24.3593  -36.8903   22.2061 H   0  0  0  0  0  0
  -23.7188  -37.6471   23.6655 H   0  0  0  0  0  0
  -26.0781  -31.5690   20.5991 H   0  0  0  0  0  0
  -26.8369  -30.8523   21.9920 H   0  0  0  0  0  0
  -28.0956  -29.0074   21.2006 H   0  0  0  0  0  0
  -25.9763  -25.9850   18.9310 H   0  0  0  0  0  0
  -23.9855  -27.3321   18.9688 H   0  0  0  0  0  0
  -23.7363  -30.6060   19.4016 H   0  0  0  0  0  0
  -22.7453  -29.2530   19.8585 H   0  0  0  0  0  0
  -25.1282  -36.1952   25.0835 H   0  0  0  0  0  0
  -21.0006  -28.3289   24.1405 H   0  0  0  0  0  0
  -20.5697  -26.2323   23.3624 H   0  0  0  0  0  0
  -21.6650  -26.7470   22.1204 H   0  0  0  0  0  0
  -19.6918  -25.6320   21.1252 H   0  0  0  0  0  0
  -19.6699  -27.3220   20.6767 H   0  0  0  0  0  0
  -17.4211  -26.6728   21.4016 H   0  0  0  0  0  0
  -18.0307  -26.0103   22.9015 H   0  0  0  0  0  0
  -19.7948  -30.7282   24.2273 H   0  0  0  0  0  0
  -17.5039  -31.6284   24.5198 H   0  0  0  0  0  0
  -15.5370  -30.3033   23.7654 H   0  0  0  0  0  0
  -15.8680  -28.0866   22.7057 H   0  0  0  0  0  0
  -24.5933  -30.7059   25.7823 H   0  0  0  0  0  0
  -24.8876  -32.2914   26.4825 H   0  0  0  0  0  0
  -25.8068  -30.9015   27.0249 H   0  0  0  0  0  0
  -26.2811  -29.6809   24.1154 H   0  0  0  0  0  0
  -27.4019  -29.7252   25.4582 H   0  0  0  0  0  0
  -27.8689  -30.4321   23.9287 H   0  0  0  0  0  0
  -27.2697  -33.3700   26.1942 H   0  0  0  0  0  0
  -28.3927  -32.6762   25.0322 H   0  0  0  0  0  0
  -28.0633  -31.8492   26.5469 H   0  0  0  0  0  0
  -28.2602  -38.0093   24.7540 H   0  0  0  0  0  0
  -28.1074  -36.2627   24.6268 H   0  0  0  0  0  0
  -27.2312  -37.1413   25.8877 H   0  0  0  0  0  0
  -20.9347  -29.8763   21.6884 H   0  0  0  0  0  0
  -26.0169  -38.2867   24.1449 H   0  0  0  0  0  0
  -31.9396  -20.0908   20.7983 H   0  0  0  0  0  0
  -29.9698  -23.6262   17.0843 H   0  0  0  0  0  0
  -28.3639  -23.2813   17.6666 H   0  0  0  0  0  0
  -28.7770  -25.7155   17.7465 H   0  0  0  0  0  0
  -30.2261  -25.4850   18.6899 H   0  0  0  0  0  0
  -30.9909  -22.9462   19.2199 H   0  0  0  0  0  0
  -29.9736  -21.6571   18.6120 H   0  0  0  0  0  0
  -28.4082  -24.0927   21.7214 H   0  0  0  0  0  0
  -30.0096  -24.4737   21.1411 H   0  0  0  0  0  0
  -27.4165  -24.7469   19.5879 H   0  0  0  0  0  0
  -33.3011  -18.3622   20.2832 H   0  0  0  0  0  0
  -32.6116  -16.9879   19.4320 H   0  0  0  0  0  0
  -32.8971  -16.9069   21.1806 H   0  0  0  0  0  0
  -27.2669  -20.9767   21.3999 H   0  0  0  0  0  0
  -26.9075  -19.5558   22.3485 H   0  0  0  0  0  0
  -26.5772  -19.5815   20.6095 H   0  0  0  0  0  0
  -26.7460  -17.4099   21.5813 H   0  0  0  0  0  0
  -27.7455  -16.0215   21.3186 H   0  0  0  0  0  0
  -27.1691  -16.9620   19.9221 H   0  0  0  0  0  0
  -28.8910  -15.4610   18.2873 H   0  0  0  0  0  0
  -30.6385  -15.4741   18.0428 H   0  0  0  0  0  0
  -29.7653  -16.9608   18.2483 H   0  0  0  0  0  0
  -30.7797  -22.0193   21.5590 H   0  0  0  0  0  0
  -29.2196  -21.8340   22.2599 H   0  0  0  0  0  0
  -28.2727  -22.3366   20.0955 H   0  0  0  0  0  0
  1 25  1  0  0  0
  1 30  2  0  0  0
  1 87  1  0  0  0
  2  3  1  0  0  0
  2 25  1  0  0  0
  2 89  1  0  0  0
  2 90  1  0  0  0
  3  4  1  0  0  0
  3 91  1  0  0  0
  3 92  1  0  0  0
  4  5  1  0  0  0
  4 93  1  0  0  0
  4 94  1  0  0  0
  5  6  1  0  0  0
  5 26  1  0  0  0
  5 95  1  0  0  0
  6 25  1  0  0  0
  6 96  1  0  0  0
  6 97  1  0  0  0
  7  8  2  0  0  0
  7 26  1  0  0  0
  7 29  1  0  0  0
  8  9  1  0  0  0
  8 22  1  0  0  0
  9 10  1  0  0  0
  9 27  2  0  0  0
 10 11  2  0  0  0
 10 15  1  0  0  0
 11 12  1  0  0  0
 11 98  1  0  0  0
 12 13  2  0  0  0
 12 99  1  0  0  0
 13 14  1  0  0  0
 13 31  1  0  0  0
 14 15  2  0  0  0
 14100  1  0  0  0
 15101  1  0  0  0
 16 17  2  0  0  0
 16 21  1  0  0  0
 16 31  1  0  0  0
 17 18  1  0  0  0
 17102  1  0  0  0
 18 19  2  0  0  0
 18103  1  0  0  0
 19 20  1  0  0  0
 19 24  1  0  0  0
 20 21  2  0  0  0
 20104  1  0  0  0
 21 23  1  0  0  0
 22 28  1  0  0  0
 22 32  2  0  0  0
 26 27  1  0  0  0
 28105  1  0  0  0
 28106  1  0  0  0
 29107  1  0  0  0
 29108  1  0  0  0
 33 34  1  0  0  0
 33 66  1  0  0  0
 33 70  2  0  0  0
 34 36  1  0  0  0
 34 59  1  0  0  0
 34109  1  0  0  0
 35 44  2  0  0  0
 35 45  1  0  0  0
 35 68  1  0  0  0
 36 56  1  0  0  0
 36110  1  0  0  0
 37 39  1  0  0  0
 37 47  1  0  0  0
 37 66  1  0  0  0
 37111  1  0  0  0
 38 43  2  0  0  0
 38 46  1  0  0  0
 38 47  1  0  0  0
 39 64  1  0  0  0
 39 67  2  0  0  0
 40 52  1  0  0  0
 40 53  2  0  0  0
 40 58  1  0  0  0
 41112  1  0  0  0
 41113  1  0  0  0
 41114  1  0  0  0
 41 48  1  0  0  0
 42 43  1  0  0  0
 42 66  1  0  0  0
 42115  1  0  0  0
 42116  1  0  0  0
 43 44  1  0  0  0
 44117  1  0  0  0
 45 46  2  0  0  0
 45118  1  0  0  0
 46119  1  0  0  0
 47120  1  0  0  0
 47121  1  0  0  0
 48 56  1  0  0  0
 48 65  1  0  0  0
 48122  1  0  0  0
 49 50  1  0  0  0
 49 53  1  0  0  0
 49 64  1  0  0  0
 49123  1  0  0  0
 50 51  1  0  0  0
 50124  1  0  0  0
 50125  1  0  0  0
 51 52  1  0  0  0
 51126  1  0  0  0
 51127  1  0  0  0
 52128  1  0  0  0
 52129  1  0  0  0
 53 54  1  0  0  0
 54 55  2  0  0  0
 54130  1  0  0  0
 55 57  1  0  0  0
 55131  1  0  0  0
 56 69  2  0  0  0
 57 58  2  0  0  0
 57132  1  0  0  0
 58133  1  0  0  0
 59 60  1  0  0  0
 59 61  1  0  0  0
 59 62  1  0  0  0
 60134  1  0  0  0
 60135  1  0  0  0
 60136  1  0  0  0
 61137  1  0  0  0
 61138  1  0  0  0
 61139  1  0  0  0
 62140  1  0  0  0
 62141  1  0  0  0
 62142  1  0  0  0
 63 65  1  0  0  0
 63143  1  0  0  0
 63144  1  0  0  0
 63145  1  0  0  0
 64146  1  0  0  0
 65147  1  0  0  0
 68 81  1  0  0  0
 71 72  2  0  0  0
 71 73  1  0  0  0
 71148  1  0  0  0
 72 74  1  0  0  0
 72 86  1  0  0  0
 73 76  2  0  0  0
 73 82  1  0  0  0
 74 75  2  0  0  0
 74 83  1  0  0  0
 75 76  1  0  0  0
 75 84  1  0  0  0
 76 87  1  0  0  0
 77 78  1  0  0  0
 77 79  1  0  0  0
 77149  1  0  0  0
 77150  1  0  0  0
 78 81  1  0  0  0
 78151  1  0  0  0
 78152  1  0  0  0
 79 88  1  0  0  0
 79153  1  0  0  0
 79154  1  0  0  0
 80 81  1  0  0  0
 80 88  1  0  0  0
 80155  1  0  0  0
 80156  1  0  0  0
 81157  1  0  0  0
 82158  1  0  0  0
 82159  1  0  0  0
 82160  1  0  0  0
 83161  1  0  0  0
 83162  1  0  0  0
 83163  1  0  0  0
 84164  1  0  0  0
 84165  1  0  0  0
 84166  1  0  0  0
 85 87  1  0  0  0
 85167  1  0  0  0
 85168  1  0  0  0
 85169  1  0  0  0
 86170  1  0  0  0
 86171  1  0  0  0
 86 88  1  0  0  0
 88172  1  0  0  0
M  CHG  1  88   1
M  ISO  4   1 100  68 101  81 101  87 100
M  END
> <chiral flag>
0

> <version>
0

> <s_m_source_file>
/data/baiqing/PycharmProjects/Reinvent-master-3.2/result/LINK_invent/BTK/process_docking_weight1_custom_product_contain_oxygen_bond_distance_aromatic_linkinvent_7_9_3/rearranged_h_0031.sdf

> <i_m_source_file_index>
77

> <r_mmod_Potential_Energy-OPLS-2005>
252.110488891602

> <r_mmod_Stretch_Energy-OPLS-2005>
90.9785766601562

> <r_mmod_Bend_Energy-OPLS-2005>
164.705200195312

> <r_mmod_Torsional_Energy-OPLS-2005>
351.279663085938

> <r_mmod_Improper_Torsional_Energy-OPLS-2005>
29.8008117675781

> <r_mmod_Van_der_Waal_Energy-OPLS-2005>
162.375015258789

> <r_mmod_Electrostatic_Energy-OPLS-2005>
-216.124908447266

> <r_mmod_Solvation_Energy-OPLS-2005>
-397.572540283203

> <b_mmod_Minimization_Converged-OPLS-2005>
0

> <r_mmod_RMS_Derivative-OPLS-2005>
3.96199083328247

$$$$
77
                    3D
 Structure written by MMmdl.
175184  0  0  1  0            999 V2000
  -30.7498  -14.4808   20.5976 C   0  0  0  0  0  0
  -30.4145  -12.3306   19.4172 C   0  0  0  0  0  0
  -29.4842  -12.5085   18.2026 C   0  0  0  0  0  0
  -28.0149  -12.3374   18.6284 C   0  0  0  0  0  0
  -27.6564  -13.1964   19.8674 C   0  0  2  0  0  0
  -28.7066  -13.0301   20.9910 C   0  0  0  0  0  0
  -25.2616  -13.8111   20.5753 C   0  0  0  0  0  0
  -24.1831  -13.0407   20.9140 C   0  0  0  0  0  0
  -24.6387  -11.6872   20.8728 C   0  0  0  0  0  0
  -23.9063  -10.4268   21.0422 C   0  0  0  0  0  0
  -24.3614   -9.4184   21.9198 C   0  0  0  0  0  0
  -23.6284   -8.2224   22.0769 C   0  0  0  0  0  0
  -22.4264   -8.0273   21.3561 C   0  0  0  0  0  0
  -21.9901   -9.0250   20.4664 C   0  0  0  0  0  0
  -22.7244  -10.2120   20.3073 C   0  0  0  0  0  0
  -21.6842   -6.0734   22.5284 C   0  0  0  0  0  0
  -21.4008   -6.5641   23.8218 C   0  0  0  0  0  0
  -21.3652   -5.6795   24.9180 C   0  0  0  0  0  0
  -21.6040   -4.3059   24.7225 C   0  0  0  0  0  0
  -21.8825   -3.8150   23.4353 C   0  0  0  0  0  0
  -21.9195   -4.6962   22.3407 C   0  0  0  0  0  0
  -22.7865  -13.5233   21.1809 C   0  0  0  0  0  0
  -22.1662   -4.2153   21.0986 F   0  0  0  0  0  0
  -21.5628   -3.4540   25.7740 F   0  0  0  0  0  0
  -30.0346  -13.3296   20.4310 N   0  0  0  0  0  0
  -26.3025  -12.9259   20.3412 N   0  0  0  0  0  0
  -25.9320  -11.6436   20.5802 N   0  0  0  0  0  0
  -22.0508  -12.8231   22.0366 N   0  0  0  0  0  0
  -25.4431  -15.1842   20.4397 N   0  0  0  0  0  0
  -31.8458  -14.6538   20.0546 O   0  0  0  0  0  0
  -21.6628   -6.8871   21.4247 O   0  0  0  0  0  0
  -22.3585  -14.5569   20.6703 O   0  0  0  0  0  0
  -24.6184  -31.8662   23.2079 C   0  0  0  0  0  0
  -25.9073  -32.4817   23.8373 C   0  0  1  0  0  0
  -27.2320  -27.3956   20.0883 C   0  0  0  0  0  0
  -25.5935  -33.8611   24.2311 N   0  0  0  0  0  0
  -23.4073  -30.4916   21.5492 C   0  0  2  0  0  0
  -24.8519  -28.9562   20.1102 C   0  0  0  0  0  0
  -22.7417  -29.4653   22.4953 C   0  0  0  0  0  0
  -18.0263  -28.1417   22.8509 C   0  0  0  0  0  0
  -24.1474  -36.7278   23.2644 C   0  0  0  0  0  0
  -25.9403  -30.8177   21.3668 C   0  0  0  0  0  0
  -26.0136  -29.4502   20.7123 C   0  0  0  0  0  0
  -27.2014  -28.6753   20.7026 C   0  0  0  0  0  0
  -26.0443  -26.9350   19.4685 C   0  0  0  0  0  0
  -24.8635  -27.6999   19.4863 C   0  0  0  0  0  0
  -23.6172  -29.8287   20.1614 C   0  0  0  0  0  0
  -25.4102  -36.3093   24.0338 C   0  0  1  0  0  0
  -20.5869  -28.3683   23.1309 C   0  0  2  0  0  0
  -20.6758  -26.9416   22.5421 C   0  0  0  0  0  0
  -19.5722  -26.6388   21.5236 C   0  0  0  0  0  0
  -18.1905  -26.7963   22.1644 C   0  0  0  0  0  0
  -19.1528  -28.8864   23.2911 C   0  0  0  0  0  0
  -18.9476  -30.1475   23.8908 C   0  0  0  0  0  0
  -17.6489  -30.6634   24.0588 C   0  0  0  0  0  0
  -25.9035  -34.9468   23.5112 C   0  0  0  0  0  0
  -16.5371  -29.9146   23.6361 C   0  0  0  0  0  0
  -16.7260  -28.6569   23.0357 C   0  0  0  0  0  0
  -26.4463  -31.6618   25.0730 C   0  0  0  0  0  0
  -25.3709  -31.3766   26.1471 C   0  0  0  0  0  0
  -27.0285  -30.3054   24.6117 C   0  0  0  0  0  0
  -27.6025  -32.4329   25.7521 C   0  0  0  0  0  0
  -27.5563  -37.1799   24.8478 C   0  0  0  0  0  0
  -21.4143  -29.3056   22.3723 N   0  0  0  0  0  0
  -26.4281  -37.3787   23.9425 N   0  0  0  0  0  0
  -24.6740  -31.0725   22.1003 N   0  0  0  0  0  0
  -23.4194  -28.8151   23.2963 O   0  0  0  0  0  0
  -28.4048  -26.6476   20.1473 O   0  0  0  0  0  0
  -26.5573  -34.8935   22.4655 O   0  0  0  0  0  0
  -23.5371  -32.1440   23.7437 O   0  0  0  0  0  0
  -30.0666  -20.0679   21.8171 C   0  0  0  0  0  0
  -29.7860  -18.6915   21.9787 C   0  0  0  0  0  0
  -29.8453  -19.8253   19.4320 C   0  0  0  0  0  0
  -30.1260  -20.6650   20.5369 C   0  0  0  0  0  0
  -29.5434  -17.8440   20.8731 C   0  0  0  0  0  0
  -29.5405  -18.4452   19.5791 C   0  0  0  0  0  0
  -29.0767  -25.6211   18.1033 C   0  0  0  0  0  0
  -29.4457  -24.3155   17.3947 C   0  0  0  0  0  0
  -29.4441  -24.3702   20.2967 C   0  0  0  0  0  0
  -28.5174  -25.3505   19.5052 C   0  0  1  0  0  0
  -30.4143  -23.4586   18.2377 C   0  0  2  0  0  0
  -30.9063  -22.2847   17.3671 C   0  0  0  0  0  0
  -31.1682  -15.8139   22.5603 C   0  0  0  0  0  0
  -29.1896  -16.3546   21.1314 C   0  0  0  0  0  0
  -30.5996  -22.1409   20.3964 C   0  0  0  0  0  0
  -29.1680  -17.6778   18.3102 C   0  0  0  0  0  0
  -30.2770  -15.4005   21.4742 N   0  0  0  0  0  0
  -29.7833  -23.0943   19.5562 N   0  3  1  0  0  0
  -27.7280  -17.8071   18.0387 N   0  3  0  0  0  0
  -31.4585  -12.4140   19.1117 H   0  0  0  0  0  0
  -30.3111  -11.3263   19.8316 H   0  0  0  0  0  0
  -29.7347  -11.7851   17.4262 H   0  0  0  0  0  0
  -29.6304  -13.4950   17.7606 H   0  0  0  0  0  0
  -27.8567  -11.2815   18.8543 H   0  0  0  0  0  0
  -27.3476  -12.5721   17.7984 H   0  0  0  0  0  0
  -27.6713  -14.2249   19.5192 H   0  0  0  0  0  0
  -28.6981  -12.0093   21.3771 H   0  0  0  0  0  0
  -28.4583  -13.6628   21.8425 H   0  0  0  0  0  0
  -25.2769   -9.5641   22.4764 H   0  0  0  0  0  0
  -23.9992   -7.4612   22.7487 H   0  0  0  0  0  0
  -21.0835   -8.8797   19.8964 H   0  0  0  0  0  0
  -22.3745  -10.9668   19.6173 H   0  0  0  0  0  0
  -21.1997   -7.6148   23.9720 H   0  0  0  0  0  0
  -21.1464   -6.0524   25.9081 H   0  0  0  0  0  0
  -22.0609   -2.7613   23.2859 H   0  0  0  0  0  0
  -22.4101  -11.9854   22.4705 H   0  0  0  0  0  0
  -21.1157  -13.1308   22.2618 H   0  0  0  0  0  0
  -24.6983  -15.8253   20.6905 H   0  0  0  0  0  0
  -26.3576  -15.6060   20.4819 H   0  0  0  0  0  0
  -26.7146  -32.5515   23.1132 H   0  0  0  0  0  0
  -25.0162  -33.9769   25.0513 H   0  0  0  0  0  0
  -22.6969  -31.3097   21.4107 H   0  0  0  0  0  0
  -23.3751  -35.9603   23.3331 H   0  0  0  0  0  0
  -24.3547  -36.8847   22.2051 H   0  0  0  0  0  0
  -23.7208  -37.6490   23.6620 H   0  0  0  0  0  0
  -26.0524  -31.5810   20.5960 H   0  0  0  0  0  0
  -26.8299  -30.8719   21.9831 H   0  0  0  0  0  0
  -28.0958  -29.0517   21.1784 H   0  0  0  0  0  0
  -25.9758  -25.9876   18.9604 H   0  0  0  0  0  0
  -23.9705  -27.3173   19.0123 H   0  0  0  0  0  0
  -23.7332  -30.6079   19.4081 H   0  0  0  0  0  0
  -22.7405  -29.2537   19.8586 H   0  0  0  0  0  0
  -25.1272  -36.1940   25.0825 H   0  0  0  0  0  0
  -20.9965  -28.3255   24.1422 H   0  0  0  0  0  0
  -20.5649  -26.2304   23.3608 H   0  0  0  0  0  0
  -21.6628  -26.7426   22.1210 H   0  0  0  0  0  0
  -19.6869  -25.6275   21.1296 H   0  0  0  0  0  0
  -19.6685  -27.3180   20.6752 H   0  0  0  0  0  0
  -17.4163  -26.6715   21.4050 H   0  0  0  0  0  0
  -18.0281  -26.0111   22.9043 H   0  0  0  0  0  0
  -19.7964  -30.7284   24.2275 H   0  0  0  0  0  0
  -17.5073  -31.6317   24.5186 H   0  0  0  0  0  0
  -15.5385  -30.3073   23.7701 H   0  0  0  0  0  0
  -15.8649  -28.0922   22.7049 H   0  0  0  0  0  0
  -24.5905  -30.7073   25.7832 H   0  0  0  0  0  0
  -24.8889  -32.2947   26.4849 H   0  0  0  0  0  0
  -25.8056  -30.9014   27.0276 H   0  0  0  0  0  0
  -26.2859  -29.6879   24.1063 H   0  0  0  0  0  0
  -27.3941  -29.7223   25.4574 H   0  0  0  0  0  0
  -27.8728  -30.4381   23.9347 H   0  0  0  0  0  0
  -27.2637  -33.3636   26.2083 H   0  0  0  0  0  0
  -28.3862  -32.6873   25.0376 H   0  0  0  0  0  0
  -28.0658  -31.8460   26.5465 H   0  0  0  0  0  0
  -28.2599  -38.0082   24.7496 H   0  0  0  0  0  0
  -28.1031  -36.2607   24.6328 H   0  0  0  0  0  0
  -27.2264  -37.1459   25.8879 H   0  0  0  0  0  0
  -20.9268  -29.8863   21.7032 H   0  0  0  0  0  0
  -26.0160  -38.2850   24.1474 H   0  0  0  0  0  0
  -30.2652  -20.6574   22.7014 H   0  0  0  0  0  0
  -29.7435  -18.2878   22.9806 H   0  0  0  0  0  0
  -29.8625  -20.2267   18.4362 H   0  0  0  0  0  0
  -28.3526  -26.1802   17.5098 H   0  0  0  0  0  0
  -29.9632  -26.2512   18.1827 H   0  0  0  0  0  0
  -29.9037  -24.5603   16.4347 H   0  0  0  0  0  0
  -28.5436  -23.7453   17.1670 H   0  0  0  0  0  0
  -28.9620  -24.1246   21.2443 H   0  0  0  0  0  0
  -30.3683  -24.8934   20.5492 H   0  0  0  0  0  0
  -27.5662  -24.8303   19.4278 H   0  0  0  0  0  0
  -31.2980  -24.0616   18.4590 H   0  0  0  0  0  0
  -30.0798  -21.7163   16.9449 H   0  0  0  0  0  0
  -31.5834  -21.6081   17.8873 H   0  0  0  0  0  0
  -31.4702  -22.6702   16.5174 H   0  0  0  0  0  0
  -31.9059  -16.5364   22.2076 H   0  0  0  0  0  0
  -31.7087  -14.9588   22.9717 H   0  0  0  0  0  0
  -30.6084  -16.2549   23.3835 H   0  0  0  0  0  0
  -28.6083  -15.9732   20.2991 H   0  0  0  0  0  0
  -28.4923  -16.3308   21.9700 H   0  0  0  0  0  0
  -31.6373  -22.1358   20.0631 H   0  0  0  0  0  0
  -30.6665  -22.5417   21.4085 H   0  0  0  0  0  0
  -29.4555  -16.6289   18.3686 H   0  0  0  0  0  0
  -29.7184  -18.0872   17.4616 H   0  0  0  0  0  0
  -28.9129  -22.6174   19.3739 H   0  0  0  0  0  0
  -27.1845  -17.4140   18.7835 H   0  0  0  0  0  0
  -27.4863  -17.3412   17.1823 H   0  0  0  0  0  0
  -27.4783  -18.7753   17.9502 H   0  0  0  0  0  0
  1 25  1  0  0  0
  1 30  2  0  0  0
  1 87  1  0  0  0
  2  3  1  0  0  0
  2 25  1  0  0  0
  2 90  1  0  0  0
  2 91  1  0  0  0
  3  4  1  0  0  0
  3 92  1  0  0  0
  3 93  1  0  0  0
  4  5  1  0  0  0
  4 94  1  0  0  0
  4 95  1  0  0  0
  5  6  1  0  0  0
  5 26  1  0  0  0
  5 96  1  0  0  0
  6 25  1  0  0  0
  6 97  1  0  0  0
  6 98  1  0  0  0
  7  8  2  0  0  0
  7 26  1  0  0  0
  7 29  1  0  0  0
  8  9  1  0  0  0
  8 22  1  0  0  0
  9 10  1  0  0  0
  9 27  2  0  0  0
 10 11  2  0  0  0
 10 15  1  0  0  0
 11 12  1  0  0  0
 11 99  1  0  0  0
 12 13  2  0  0  0
 12100  1  0  0  0
 13 14  1  0  0  0
 13 31  1  0  0  0
 14 15  2  0  0  0
 14101  1  0  0  0
 15102  1  0  0  0
 16 17  2  0  0  0
 16 21  1  0  0  0
 16 31  1  0  0  0
 17 18  1  0  0  0
 17103  1  0  0  0
 18 19  2  0  0  0
 18104  1  0  0  0
 19 20  1  0  0  0
 19 24  1  0  0  0
 20 21  2  0  0  0
 20105  1  0  0  0
 21 23  1  0  0  0
 22 28  1  0  0  0
 22 32  2  0  0  0
 26 27  1  0  0  0
 28106  1  0  0  0
 28107  1  0  0  0
 29108  1  0  0  0
 29109  1  0  0  0
 33 34  1  0  0  0
 33 66  1  0  0  0
 33 70  2  0  0  0
 34 36  1  0  0  0
 34 59  1  0  0  0
 34110  1  0  0  0
 35 44  2  0  0  0
 35 45  1  0  0  0
 35 68  1  0  0  0
 36 56  1  0  0  0
 36111  1  0  0  0
 37 39  1  0  0  0
 37 47  1  0  0  0
 37 66  1  0  0  0
 37112  1  0  0  0
 38 43  2  0  0  0
 38 46  1  0  0  0
 38 47  1  0  0  0
 39 64  1  0  0  0
 39 67  2  0  0  0
 40 52  1  0  0  0
 40 53  2  0  0  0
 40 58  1  0  0  0
 41113  1  0  0  0
 41114  1  0  0  0
 41115  1  0  0  0
 41 48  1  0  0  0
 42 43  1  0  0  0
 42 66  1  0  0  0
 42116  1  0  0  0
 42117  1  0  0  0
 43 44  1  0  0  0
 44118  1  0  0  0
 45 46  2  0  0  0
 45119  1  0  0  0
 46120  1  0  0  0
 47121  1  0  0  0
 47122  1  0  0  0
 48 56  1  0  0  0
 48 65  1  0  0  0
 48123  1  0  0  0
 49 50  1  0  0  0
 49 53  1  0  0  0
 49 64  1  0  0  0
 49124  1  0  0  0
 50 51  1  0  0  0
 50125  1  0  0  0
 50126  1  0  0  0
 51 52  1  0  0  0
 51127  1  0  0  0
 51128  1  0  0  0
 52129  1  0  0  0
 52130  1  0  0  0
 53 54  1  0  0  0
 54 55  2  0  0  0
 54131  1  0  0  0
 55 57  1  0  0  0
 55132  1  0  0  0
 56 69  2  0  0  0
 57 58  2  0  0  0
 57133  1  0  0  0
 58134  1  0  0  0
 59 60  1  0  0  0
 59 61  1  0  0  0
 59 62  1  0  0  0
 60135  1  0  0  0
 60136  1  0  0  0
 60137  1  0  0  0
 61138  1  0  0  0
 61139  1  0  0  0
 61140  1  0  0  0
 62141  1  0  0  0
 62142  1  0  0  0
 62143  1  0  0  0
 63 65  1  0  0  0
 63144  1  0  0  0
 63145  1  0  0  0
 63146  1  0  0  0
 64147  1  0  0  0
 65148  1  0  0  0
 68 80  1  0  0  0
 71 72  2  0  0  0
 71 74  1  0  0  0
 71149  1  0  0  0
 72 75  1  0  0  0
 72150  1  0  0  0
 73 74  2  0  0  0
 73 76  1  0  0  0
 73151  1  0  0  0
 74 85  1  0  0  0
 75 76  2  0  0  0
 75 84  1  0  0  0
 76 86  1  0  0  0
 77 78  1  0  0  0
 77 80  1  0  0  0
 77152  1  0  0  0
 77153  1  0  0  0
 78 81  1  0  0  0
 78154  1  0  0  0
 78155  1  0  0  0
 79 80  1  0  0  0
 79 88  1  0  0  0
 79156  1  0  0  0
 79157  1  0  0  0
 80158  1  0  0  0
 81 82  1  0  0  0
 81 88  1  0  0  0
 81159  1  0  0  0
 82160  1  0  0  0
 82161  1  0  0  0
 82162  1  0  0  0
 83 87  1  0  0  0
 83163  1  0  0  0
 83164  1  0  0  0
 83165  1  0  0  0
 84 87  1  0  0  0
 84166  1  0  0  0
 84167  1  0  0  0
 85168  1  0  0  0
 85169  1  0  0  0
 85 88  1  0  0  0
 86 89  1  0  0  0
 86170  1  0  0  0
 86171  1  0  0  0
 88172  1  0  0  0
 89173  1  0  0  0
 89174  1  0  0  0
 89175  1  0  0  0
M  CHG  2  88   1  89   1
M  ISO  4   1 100  68 101  80 101  87 100
M  END
> <chiral flag>
0

> <version>
0

> <s_m_source_file>
/data/baiqing/PycharmProjects/Reinvent-master-3.2/result/LINK_invent/BTK/process_docking_weight1_custom_product_contain_oxygen_bond_distance_aromatic_linkinvent_7_9_3/rearranged_h_0031.sdf

> <i_m_source_file_index>
78

> <r_mmod_Potential_Energy-OPLS-2005>
-217.880828857422

> <r_mmod_Stretch_Energy-OPLS-2005>
56.4868812561035

> <r_mmod_Bend_Energy-OPLS-2005>
132.755828857422

> <r_mmod_Torsional_Energy-OPLS-2005>
294.969879150391

> <r_mmod_Improper_Torsional_Energy-OPLS-2005>
5.84349346160889

> <r_mmod_Van_der_Waal_Energy-OPLS-2005>
156.213790893555

> <r_mmod_Electrostatic_Energy-OPLS-2005>
40.766300201416

> <r_mmod_Solvation_Energy-OPLS-2005>
-923.028564453125

> <b_mmod_Minimization_Converged-OPLS-2005>
0

> <r_mmod_RMS_Derivative-OPLS-2005>
2.49022006988525

$$$$
78
                    3D
 Structure written by MMmdl.
155164  0  0  1  0            999 V2000
  -30.6157  -14.6459   20.5067 C   0  0  0  0  0  0
  -30.4409  -12.3968   19.4563 C   0  0  0  0  0  0
  -29.5098  -12.5125   18.2281 C   0  0  0  0  0  0
  -28.0326  -12.3484   18.6386 C   0  0  0  0  0  0
  -27.6556  -13.2167   19.8684 C   0  0  2  0  0  0
  -28.6994  -13.0653   20.9984 C   0  0  0  0  0  0
  -25.2565  -13.8169   20.5684 C   0  0  0  0  0  0
  -24.1829  -13.0436   20.9183 C   0  0  0  0  0  0
  -24.6399  -11.6908   20.8738 C   0  0  0  0  0  0
  -23.9067  -10.4292   21.0404 C   0  0  0  0  0  0
  -24.3617   -9.4207   21.9184 C   0  0  0  0  0  0
  -23.6291   -8.2243   22.0755 C   0  0  0  0  0  0
  -22.4273   -8.0281   21.3544 C   0  0  0  0  0  0
  -21.9909   -9.0256   20.4647 C   0  0  0  0  0  0
  -22.7239  -10.2134   20.3056 C   0  0  0  0  0  0
  -21.6853   -6.0736   22.5279 C   0  0  0  0  0  0
  -21.4014   -6.5640   23.8212 C   0  0  0  0  0  0
  -21.3659   -5.6793   24.9174 C   0  0  0  0  0  0
  -21.6044   -4.3055   24.7225 C   0  0  0  0  0  0
  -21.8819   -3.8148   23.4346 C   0  0  0  0  0  0
  -21.9192   -4.6964   22.3402 C   0  0  0  0  0  0
  -22.7852  -13.5231   21.1848 C   0  0  0  0  0  0
  -22.1660   -4.2150   21.0980 F   0  0  0  0  0  0
  -21.5629   -3.4539   25.7737 F   0  0  0  0  0  0
  -30.0162  -13.4138   20.4400 N   0  0  0  0  0  0
  -26.3001  -12.9353   20.3343 N   0  0  0  0  0  0
  -25.9330  -11.6506   20.5768 N   0  0  0  0  0  0
  -22.0496  -12.8224   22.0407 N   0  0  0  0  0  0
  -25.4275  -15.1887   20.4087 N   0  0  0  0  0  0
  -31.7632  -14.8233   20.0870 O   0  0  0  0  0  0
  -21.6638   -6.8878   21.4241 O   0  0  0  0  0  0
  -22.3533  -14.5536   20.6697 O   0  0  0  0  0  0
  -24.6264  -31.8594   23.2025 C   0  0  0  0  0  0
  -25.9111  -32.4776   23.8354 C   0  0  1  0  0  0
  -27.2246  -27.3143   20.1148 C   0  0  0  0  0  0
  -25.5924  -33.8578   24.2280 N   0  0  0  0  0  0
  -23.4201  -30.4834   21.5451 C   0  0  2  0  0  0
  -24.8665  -28.9388   20.1098 C   0  0  0  0  0  0
  -22.7475  -29.4622   22.4934 C   0  0  0  0  0  0
  -18.0286  -28.1383   22.8487 C   0  0  0  0  0  0
  -24.1490  -36.7293   23.2639 C   0  0  0  0  0  0
  -25.9617  -30.7878   21.3753 C   0  0  0  0  0  0
  -26.0347  -29.4152   20.7169 C   0  0  0  0  0  0
  -27.2147  -28.6136   20.7116 C   0  0  0  0  0  0
  -26.0345  -26.8977   19.4745 C   0  0  0  0  0  0
  -24.8685  -27.6853   19.4804 C   0  0  0  0  0  0
  -23.6346  -29.8190   20.1600 C   0  0  0  0  0  0
  -25.4114  -36.3084   24.0330 C   0  0  1  0  0  0
  -20.5886  -28.3688   23.1282 C   0  0  2  0  0  0
  -20.6775  -26.9411   22.5410 C   0  0  0  0  0  0
  -19.5751  -26.6383   21.5213 C   0  0  0  0  0  0
  -18.1930  -26.7926   22.1625 C   0  0  0  0  0  0
  -19.1539  -28.8852   23.2880 C   0  0  0  0  0  0
  -18.9462  -30.1454   23.8897 C   0  0  0  0  0  0
  -17.6462  -30.6585   24.0564 C   0  0  0  0  0  0
  -25.9051  -34.9451   23.5106 C   0  0  0  0  0  0
  -16.5353  -29.9085   23.6330 C   0  0  0  0  0  0
  -16.7274  -28.6502   23.0352 C   0  0  0  0  0  0
  -26.4494  -31.6586   25.0725 C   0  0  0  0  0  0
  -25.3727  -31.3723   26.1453 C   0  0  0  0  0  0
  -27.0340  -30.3011   24.6182 C   0  0  0  0  0  0
  -27.6054  -32.4323   25.7494 C   0  0  0  0  0  0
  -27.5579  -37.1802   24.8465 C   0  0  0  0  0  0
  -21.4189  -29.3042   22.3677 N   0  0  0  0  0  0
  -26.4293  -37.3778   23.9407 N   0  0  0  0  0  0
  -24.6881  -31.0603   22.0977 N   0  0  0  0  0  0
  -23.4198  -28.8161   23.3013 O   0  0  0  0  0  0
  -28.3477  -26.4705   20.1809 O   0  0  0  0  0  0
  -26.5621  -34.8918   22.4673 O   0  0  0  0  0  0
  -23.5427  -32.1394   23.7352 O   0  0  0  0  0  0
  -29.0650  -19.3636   21.5770 C   0  0  0  0  0  0
  -30.6894  -17.8477   19.8797 C   0  0  0  0  0  0
  -29.8808  -20.0876   20.6674 C   0  0  0  0  0  0
  -29.8924  -17.1351   20.8148 C   0  0  0  0  0  0
  -29.0584  -17.9381   21.6414 C   0  0  0  0  0  0
  -30.6828  -19.2770   19.8024 C   0  0  0  0  0  0
  -27.8072  -22.8269   20.9786 C   0  0  0  0  0  0
  -27.2402  -24.2505   20.8614 C   0  0  0  0  0  0
  -29.4855  -24.0993   20.0767 C   0  0  0  0  0  0
  -28.2103  -25.0090   19.9351 C   0  0  2  0  0  0
  -30.0826  -21.6569   20.7902 C   0  0  0  0  0  0
  -29.0580  -22.7307   20.4985 N   0  0  0  0  0  0
  -29.8234  -15.6740   20.9425 N   0  0  0  0  0  0
  -27.1677  -21.9187   21.5125 O   0  0  0  0  0  0
  -28.0214  -17.1708   22.7921 Cl  0  0  0  0  0  0
  -31.7273  -20.0098   18.6361 Cl  0  0  0  0  0  0
  -31.4818  -12.5250   19.1544 H   0  0  0  0  0  0
  -30.3788  -11.3994   19.8943 H   0  0  0  0  0  0
  -29.7754  -11.7628   17.4816 H   0  0  0  0  0  0
  -29.6508  -13.4832   17.7498 H   0  0  0  0  0  0
  -27.8698  -11.2947   18.8683 H   0  0  0  0  0  0
  -27.3782  -12.5799   17.7975 H   0  0  0  0  0  0
  -27.6763  -14.2536   19.5324 H   0  0  0  0  0  0
  -28.7117  -12.0406   21.3730 H   0  0  0  0  0  0
  -28.4401  -13.6883   21.8557 H   0  0  0  0  0  0
  -25.2763   -9.5683   22.4756 H   0  0  0  0  0  0
  -24.0001   -7.4635   22.7474 H   0  0  0  0  0  0
  -21.0841   -8.8775   19.8952 H   0  0  0  0  0  0
  -22.3699  -10.9673   19.6164 H   0  0  0  0  0  0
  -21.2007   -7.6148   23.9716 H   0  0  0  0  0  0
  -21.1481   -6.0523   25.9077 H   0  0  0  0  0  0
  -22.0598   -2.7610   23.2846 H   0  0  0  0  0  0
  -22.4110  -11.9883   22.4792 H   0  0  0  0  0  0
  -21.1116  -13.1254   22.2619 H   0  0  0  0  0  0
  -24.6642  -15.8449   20.5297 H   0  0  0  0  0  0
  -26.2838  -15.6314   20.1020 H   0  0  0  0  0  0
  -26.7176  -32.5443   23.1099 H   0  0  0  0  0  0
  -25.0072  -33.9723   25.0425 H   0  0  0  0  0  0
  -22.7140  -31.3041   21.4022 H   0  0  0  0  0  0
  -23.3752  -35.9626   23.3305 H   0  0  0  0  0  0
  -24.3580  -36.8912   22.2053 H   0  0  0  0  0  0
  -23.7245  -37.6497   23.6659 H   0  0  0  0  0  0
  -26.0948  -31.5512   20.6075 H   0  0  0  0  0  0
  -26.8417  -30.8354   22.0051 H   0  0  0  0  0  0
  -28.1096  -28.9730   21.2001 H   0  0  0  0  0  0
  -25.9722  -25.9470   18.9687 H   0  0  0  0  0  0
  -23.9744  -27.3167   18.9967 H   0  0  0  0  0  0
  -23.7534  -30.5958   19.4038 H   0  0  0  0  0  0
  -22.7544  -29.2485   19.8579 H   0  0  0  0  0  0
  -25.1295  -36.1938   25.0823 H   0  0  0  0  0  0
  -20.9979  -28.3263   24.1402 H   0  0  0  0  0  0
  -20.5679  -26.2298   23.3610 H   0  0  0  0  0  0
  -21.6643  -26.7440   22.1201 H   0  0  0  0  0  0
  -19.6914  -25.6295   21.1240 H   0  0  0  0  0  0
  -19.6688  -27.3195   20.6745 H   0  0  0  0  0  0
  -17.4200  -26.6676   21.4027 H   0  0  0  0  0  0
  -18.0328  -26.0065   22.9019 H   0  0  0  0  0  0
  -19.7938  -30.7269   24.2266 H   0  0  0  0  0  0
  -17.5017  -31.6266   24.5165 H   0  0  0  0  0  0
  -15.5354  -30.2988   23.7652 H   0  0  0  0  0  0
  -15.8673  -28.0823   22.7066 H   0  0  0  0  0  0
  -24.5904  -30.7069   25.7781 H   0  0  0  0  0  0
  -24.8914  -32.2888   26.4876 H   0  0  0  0  0  0
  -25.8052  -30.8903   27.0229 H   0  0  0  0  0  0
  -26.2915  -29.6760   24.1206 H   0  0  0  0  0  0
  -27.4039  -29.7268   25.4686 H   0  0  0  0  0  0
  -27.8782  -30.4299   23.9405 H   0  0  0  0  0  0
  -27.2667  -33.3625   26.2065 H   0  0  0  0  0  0
  -28.3865  -32.6879   25.0322 H   0  0  0  0  0  0
  -28.0719  -31.8452   26.5415 H   0  0  0  0  0  0
  -28.2599  -38.0097   24.7510 H   0  0  0  0  0  0
  -28.1075  -36.2629   24.6295 H   0  0  0  0  0  0
  -27.2296  -37.1455   25.8868 H   0  0  0  0  0  0
  -20.9366  -29.8770   21.6892 H   0  0  0  0  0  0
  -26.0176  -38.2855   24.1403 H   0  0  0  0  0  0
  -28.4589  -19.9049   22.2873 H   0  0  0  0  0  0
  -31.3290  -17.3007   19.2031 H   0  0  0  0  0  0
  -27.2247  -24.6972   21.8553 H   0  0  0  0  0  0
  -26.2202  -24.2301   20.4801 H   0  0  0  0  0  0
  -30.1476  -24.5040   20.8435 H   0  0  0  0  0  0
  -30.0509  -24.0640   19.1449 H   0  0  0  0  0  0
  -27.8706  -24.8812   18.9063 H   0  0  0  0  0  0
  -30.9778  -21.9364   20.2382 H   0  0  0  0  0  0
  -30.3696  -21.8187   21.8299 H   0  0  0  0  0  0
  -28.9825  -15.3543   21.3998 H   0  0  0  0  0  0
  1 25  1  0  0  0
  1 30  2  0  0  0
  1 83  1  0  0  0
  2  3  1  0  0  0
  2 25  1  0  0  0
  2 87  1  0  0  0
  2 88  1  0  0  0
  3  4  1  0  0  0
  3 89  1  0  0  0
  3 90  1  0  0  0
  4  5  1  0  0  0
  4 91  1  0  0  0
  4 92  1  0  0  0
  5  6  1  0  0  0
  5 26  1  0  0  0
  5 93  1  0  0  0
  6 25  1  0  0  0
  6 94  1  0  0  0
  6 95  1  0  0  0
  7  8  2  0  0  0
  7 26  1  0  0  0
  7 29  1  0  0  0
  8  9  1  0  0  0
  8 22  1  0  0  0
  9 10  1  0  0  0
  9 27  2  0  0  0
 10 11  2  0  0  0
 10 15  1  0  0  0
 11 12  1  0  0  0
 11 96  1  0  0  0
 12 13  2  0  0  0
 12 97  1  0  0  0
 13 14  1  0  0  0
 13 31  1  0  0  0
 14 15  2  0  0  0
 14 98  1  0  0  0
 15 99  1  0  0  0
 16 17  2  0  0  0
 16 21  1  0  0  0
 16 31  1  0  0  0
 17 18  1  0  0  0
 17100  1  0  0  0
 18 19  2  0  0  0
 18101  1  0  0  0
 19 20  1  0  0  0
 19 24  1  0  0  0
 20 21  2  0  0  0
 20102  1  0  0  0
 21 23  1  0  0  0
 22 28  1  0  0  0
 22 32  2  0  0  0
 26 27  1  0  0  0
 28103  1  0  0  0
 28104  1  0  0  0
 29105  1  0  0  0
 29106  1  0  0  0
 33 34  1  0  0  0
 33 66  1  0  0  0
 33 70  2  0  0  0
 34 36  1  0  0  0
 34 59  1  0  0  0
 34107  1  0  0  0
 35 44  2  0  0  0
 35 45  1  0  0  0
 35 68  1  0  0  0
 36 56  1  0  0  0
 36108  1  0  0  0
 37 39  1  0  0  0
 37 47  1  0  0  0
 37 66  1  0  0  0
 37109  1  0  0  0
 38 43  2  0  0  0
 38 46  1  0  0  0
 38 47  1  0  0  0
 39 64  1  0  0  0
 39 67  2  0  0  0
 40 52  1  0  0  0
 40 53  2  0  0  0
 40 58  1  0  0  0
 41110  1  0  0  0
 41111  1  0  0  0
 41112  1  0  0  0
 41 48  1  0  0  0
 42 43  1  0  0  0
 42 66  1  0  0  0
 42113  1  0  0  0
 42114  1  0  0  0
 43 44  1  0  0  0
 44115  1  0  0  0
 45 46  2  0  0  0
 45116  1  0  0  0
 46117  1  0  0  0
 47118  1  0  0  0
 47119  1  0  0  0
 48 56  1  0  0  0
 48 65  1  0  0  0
 48120  1  0  0  0
 49 50  1  0  0  0
 49 53  1  0  0  0
 49 64  1  0  0  0
 49121  1  0  0  0
 50 51  1  0  0  0
 50122  1  0  0  0
 50123  1  0  0  0
 51 52  1  0  0  0
 51124  1  0  0  0
 51125  1  0  0  0
 52126  1  0  0  0
 52127  1  0  0  0
 53 54  1  0  0  0
 54 55  2  0  0  0
 54128  1  0  0  0
 55 57  1  0  0  0
 55129  1  0  0  0
 56 69  2  0  0  0
 57 58  2  0  0  0
 57130  1  0  0  0
 58131  1  0  0  0
 59 60  1  0  0  0
 59 61  1  0  0  0
 59 62  1  0  0  0
 60132  1  0  0  0
 60133  1  0  0  0
 60134  1  0  0  0
 61135  1  0  0  0
 61136  1  0  0  0
 61137  1  0  0  0
 62138  1  0  0  0
 62139  1  0  0  0
 62140  1  0  0  0
 63 65  1  0  0  0
 63141  1  0  0  0
 63142  1  0  0  0
 63143  1  0  0  0
 64144  1  0  0  0
 65145  1  0  0  0
 68 80  1  0  0  0
 71 73  2  0  0  0
 71 75  1  0  0  0
 71146  1  0  0  0
 72 74  1  0  0  0
 72 76  2  0  0  0
 72147  1  0  0  0
 73 76  1  0  0  0
 73 81  1  0  0  0
 74 75  2  0  0  0
 74 83  1  0  0  0
 75 85  1  0  0  0
 76 86  1  0  0  0
 77 78  1  0  0  0
 77 82  1  0  0  0
 77 84  2  0  0  0
 78 80  1  0  0  0
 78148  1  0  0  0
 78149  1  0  0  0
 79 80  1  0  0  0
 79 82  1  0  0  0
 79150  1  0  0  0
 79151  1  0  0  0
 80152  1  0  0  0
 81 82  1  0  0  0
 81153  1  0  0  0
 81154  1  0  0  0
 83155  1  0  0  0
M  ISO  4   1 100  68 101  80 101  83 100
M  END
> <chiral flag>
0

> <version>
0

> <s_m_source_file>
/data/baiqing/PycharmProjects/Reinvent-master-3.2/result/LINK_invent/BTK/process_docking_weight1_custom_product_contain_oxygen_bond_distance_aromatic_linkinvent_7_9_3/rearranged_h_0031.sdf

> <i_m_source_file_index>
79

> <r_mmod_Potential_Energy-OPLS-2005>
42.4451484680176

> <r_mmod_Stretch_Energy-OPLS-2005>
82.1140823364258

> <r_mmod_Bend_Energy-OPLS-2005>
183.713943481445

> <r_mmod_Torsional_Energy-OPLS-2005>
239.057357788086

> <r_mmod_Improper_Torsional_Energy-OPLS-2005>
6.02524995803833

> <r_mmod_Van_der_Waal_Energy-OPLS-2005>
136.578353881836

> <r_mmod_Electrostatic_Energy-OPLS-2005>
-428.049102783203

> <r_mmod_Solvation_Energy-OPLS-2005>
-227.177795410156

> <b_mmod_Minimization_Converged-OPLS-2005>
0

> <r_mmod_RMS_Derivative-OPLS-2005>
0.19585719704628

$$$$
79
                    3D
 Structure written by MMmdl.
167176  0  0  1  0            999 V2000
  -30.5900  -14.6655   20.4458 C   0  0  0  0  0  0
  -30.4439  -12.4020   19.4383 C   0  0  0  0  0  0
  -29.5039  -12.4946   18.2135 C   0  0  0  0  0  0
  -28.0275  -12.3353   18.6326 C   0  0  0  0  0  0
  -27.6523  -13.2117   19.8573 C   0  0  2  0  0  0
  -28.7019  -13.0711   20.9826 C   0  0  0  0  0  0
  -25.2593  -13.8164   20.5682 C   0  0  0  0  0  0
  -24.1849  -13.0440   20.9191 C   0  0  0  0  0  0
  -24.6400  -11.6909   20.8739 C   0  0  0  0  0  0
  -23.9050  -10.4301   21.0411 C   0  0  0  0  0  0
  -24.3604   -9.4222   21.9189 C   0  0  0  0  0  0
  -23.6292   -8.2251   22.0749 C   0  0  0  0  0  0
  -22.4275   -8.0276   21.3542 C   0  0  0  0  0  0
  -21.9904   -9.0247   20.4644 C   0  0  0  0  0  0
  -22.7219  -10.2139   20.3063 C   0  0  0  0  0  0
  -21.6854   -6.0732   22.5274 C   0  0  0  0  0  0
  -21.4007   -6.5638   23.8205 C   0  0  0  0  0  0
  -21.3664   -5.6793   24.9171 C   0  0  0  0  0  0
  -21.6047   -4.3054   24.7228 C   0  0  0  0  0  0
  -21.8819   -3.8146   23.4350 C   0  0  0  0  0  0
  -21.9200   -4.6961   22.3407 C   0  0  0  0  0  0
  -22.7879  -13.5245   21.1851 C   0  0  0  0  0  0
  -22.1667   -4.2149   21.0986 F   0  0  0  0  0  0
  -21.5641   -3.4537   25.7742 F   0  0  0  0  0  0
  -30.0114  -13.4227   20.4124 N   0  0  0  0  0  0
  -26.2997  -12.9326   20.3300 N   0  0  0  0  0  0
  -25.9326  -11.6489   20.5742 N   0  0  0  0  0  0
  -22.0513  -12.8239   22.0397 N   0  0  0  0  0  0
  -25.4330  -15.1873   20.4080 N   0  0  0  0  0  0
  -31.7654  -14.8256   20.1104 O   0  0  0  0  0  0
  -21.6638   -6.8872   21.4237 O   0  0  0  0  0  0
  -22.3579  -14.5558   20.6707 O   0  0  0  0  0  0
  -24.6195  -31.8574   23.1970 C   0  0  0  0  0  0
  -25.9038  -32.4786   23.8285 C   0  0  1  0  0  0
  -27.2264  -27.3386   20.1056 C   0  0  0  0  0  0
  -25.5830  -33.8584   24.2212 N   0  0  0  0  0  0
  -23.4123  -30.4751   21.5414 C   0  0  2  0  0  0
  -24.8576  -28.9165   20.1206 C   0  0  0  0  0  0
  -22.7438  -29.4570   22.4942 C   0  0  0  0  0  0
  -18.0281  -28.1392   22.8475 C   0  0  0  0  0  0
  -24.1492  -36.7304   23.2644 C   0  0  0  0  0  0
  -25.9477  -30.7889   21.3651 C   0  0  0  0  0  0
  -26.0215  -29.4117   20.7214 C   0  0  0  0  0  0
  -27.2092  -28.6314   20.7037 C   0  0  0  0  0  0
  -26.0428  -26.8742   19.5004 C   0  0  0  0  0  0
  -24.8656  -27.6515   19.5057 C   0  0  0  0  0  0
  -23.6263  -29.7995   20.1616 C   0  0  0  0  0  0
  -25.4120  -36.3090   24.0331 C   0  0  1  0  0  0
  -20.5873  -28.3667   23.1314 C   0  0  2  0  0  0
  -20.6778  -26.9389   22.5421 C   0  0  0  0  0  0
  -19.5756  -26.6387   21.5215 C   0  0  0  0  0  0
  -18.1930  -26.7932   22.1626 C   0  0  0  0  0  0
  -19.1526  -28.8845   23.2893 C   0  0  0  0  0  0
  -18.9487  -30.1456   23.8891 C   0  0  0  0  0  0
  -17.6486  -30.6588   24.0572 C   0  0  0  0  0  0
  -25.9047  -34.9466   23.5102 C   0  0  0  0  0  0
  -16.5365  -29.9095   23.6345 C   0  0  0  0  0  0
  -16.7275  -28.6534   23.0320 C   0  0  0  0  0  0
  -26.4459  -31.6612   25.0650 C   0  0  0  0  0  0
  -25.3698  -31.3759   26.1400 C   0  0  0  0  0  0
  -27.0313  -30.3069   24.6040 C   0  0  0  0  0  0
  -27.6009  -32.4362   25.7398 C   0  0  0  0  0  0
  -27.5590  -37.1798   24.8473 C   0  0  0  0  0  0
  -21.4162  -29.3007   22.3697 N   0  0  0  0  0  0
  -26.4313  -37.3781   23.9411 N   0  0  0  0  0  0
  -24.6792  -31.0567   22.0930 N   0  0  0  0  0  0
  -23.4180  -28.8130   23.3022 O   0  0  0  0  0  0
  -28.4085  -26.6095   20.0117 O   0  0  0  0  0  0
  -26.5679  -34.8950   22.4708 O   0  0  0  0  0  0
  -23.5387  -32.1379   23.7330 O   0  0  0  0  0  0
  -29.9395  -19.1844   19.0411 C   0  0  0  0  0  0
  -28.4994  -19.3143   20.9470 C   0  0  0  0  0  0
  -29.0621  -19.9740   19.8261 C   0  0  0  0  0  0
  -30.2194  -17.8083   19.3023 C   0  0  0  0  0  0
  -28.7872  -17.9427   21.2431 C   0  0  0  0  0  0
  -29.6461  -17.1375   20.4284 C   0  0  0  0  0  0
  -29.4579  -22.7653   21.4059 C   0  0  0  0  0  0
  -30.7167  -22.2904   21.3792 C   0  0  0  0  0  0
  -28.8762  -23.6846   22.4854 C   0  0  0  0  0  0
  -28.2216  -24.9820   21.9298 C   0  0  0  0  0  0
  -28.1623  -23.9419   19.6058 C   0  0  0  0  0  0
  -28.5780  -25.2145   20.4547 C   0  0  1  0  0  0
  -31.0893  -17.0961   18.2834 C   0  0  0  0  0  0
  -28.1235  -17.3208   22.4623 C   0  0  0  0  0  0
  -28.6842  -21.4305   19.3345 C   0  0  0  0  0  0
  -29.7333  -15.6986   20.7394 N   0  0  0  0  0  0
  -28.4861  -22.6067   20.2795 N   0  3  1  0  0  0
  -31.4807  -12.5438   19.1277 H   0  0  0  0  0  0
  -30.3995  -11.4090   19.8870 H   0  0  0  0  0  0
  -29.7631  -11.7274   17.4825 H   0  0  0  0  0  0
  -29.6412  -13.4525   17.7078 H   0  0  0  0  0  0
  -27.8660  -11.2816   18.8634 H   0  0  0  0  0  0
  -27.3679  -12.5633   17.7940 H   0  0  0  0  0  0
  -27.6638  -14.2447   19.5096 H   0  0  0  0  0  0
  -28.7281  -12.0480   21.3577 H   0  0  0  0  0  0
  -28.4497  -13.6951   21.8416 H   0  0  0  0  0  0
  -25.2756   -9.5704   22.4756 H   0  0  0  0  0  0
  -24.0012   -7.4641   22.7463 H   0  0  0  0  0  0
  -21.0834   -8.8751   19.8946 H   0  0  0  0  0  0
  -22.3667  -10.9670   19.6170 H   0  0  0  0  0  0
  -21.1974   -7.6143   23.9700 H   0  0  0  0  0  0
  -21.1488   -6.0529   25.9072 H   0  0  0  0  0  0
  -22.0595   -2.7606   23.2847 H   0  0  0  0  0  0
  -22.4117  -11.9914   22.4820 H   0  0  0  0  0  0
  -21.1119  -13.1246   22.2570 H   0  0  0  0  0  0
  -24.6627  -15.8388   20.5079 H   0  0  0  0  0  0
  -26.2731  -15.6214   20.0472 H   0  0  0  0  0  0
  -26.7072  -32.5449   23.1014 H   0  0  0  0  0  0
  -24.9805  -33.9727   25.0233 H   0  0  0  0  0  0
  -22.7038  -31.2930   21.3889 H   0  0  0  0  0  0
  -23.3765  -35.9636   23.3343 H   0  0  0  0  0  0
  -24.3566  -36.8910   22.2050 H   0  0  0  0  0  0
  -23.7272  -37.6514   23.6683 H   0  0  0  0  0  0
  -26.0682  -31.5431   20.5847 H   0  0  0  0  0  0
  -26.8315  -30.8476   21.9891 H   0  0  0  0  0  0
  -28.1145  -29.0110   21.1546 H   0  0  0  0  0  0
  -26.0345  -25.9231   18.9886 H   0  0  0  0  0  0
  -23.9758  -27.2719   19.0202 H   0  0  0  0  0  0
  -23.7465  -30.5687   19.3981 H   0  0  0  0  0  0
  -22.7456  -29.2289   19.8660 H   0  0  0  0  0  0
  -25.1308  -36.1928   25.0826 H   0  0  0  0  0  0
  -20.9968  -28.3246   24.1440 H   0  0  0  0  0  0
  -20.5720  -26.2242   23.3592 H   0  0  0  0  0  0
  -21.6641  -26.7446   22.1175 H   0  0  0  0  0  0
  -19.6914  -25.6315   21.1225 H   0  0  0  0  0  0
  -19.6729  -27.3197   20.6739 H   0  0  0  0  0  0
  -17.4205  -26.6680   21.4019 H   0  0  0  0  0  0
  -18.0338  -26.0082   22.9044 H   0  0  0  0  0  0
  -19.7976  -30.7274   24.2226 H   0  0  0  0  0  0
  -17.5067  -31.6266   24.5182 H   0  0  0  0  0  0
  -15.5379  -30.3010   23.7679 H   0  0  0  0  0  0
  -15.8671  -28.0893   22.6961 H   0  0  0  0  0  0
  -24.5857  -30.7111   25.7759 H   0  0  0  0  0  0
  -24.8891  -32.2922   26.4823 H   0  0  0  0  0  0
  -25.8017  -30.8954   27.0177 H   0  0  0  0  0  0
  -26.2870  -29.6838   24.1064 H   0  0  0  0  0  0
  -27.4087  -29.7323   25.4501 H   0  0  0  0  0  0
  -27.8704  -30.4414   23.9210 H   0  0  0  0  0  0
  -27.2590  -33.3684   26.1926 H   0  0  0  0  0  0
  -28.3799  -32.6893   25.0183 H   0  0  0  0  0  0
  -28.0689  -31.8519   26.5328 H   0  0  0  0  0  0
  -28.2585  -38.0110   24.7504 H   0  0  0  0  0  0
  -28.1085  -36.2633   24.6303 H   0  0  0  0  0  0
  -27.2294  -37.1440   25.8869 H   0  0  0  0  0  0
  -20.9340  -29.8755   21.6922 H   0  0  0  0  0  0
  -26.0211  -38.2863   24.1421 H   0  0  0  0  0  0
  -30.3695  -19.6349   18.1576 H   0  0  0  0  0  0
  -27.8125  -19.8569   21.5819 H   0  0  0  0  0  0
  -31.3998  -22.4840   22.1932 H   0  0  0  0  0  0
  -31.0969  -21.7123   20.5495 H   0  0  0  0  0  0
  -29.6920  -23.9645   23.1527 H   0  0  0  0  0  0
  -28.1668  -23.1327   23.1021 H   0  0  0  0  0  0
  -28.5518  -25.8327   22.5255 H   0  0  0  0  0  0
  -27.1367  -24.9398   22.0346 H   0  0  0  0  0  0
  -28.6582  -23.9986   18.6366 H   0  0  0  0  0  0
  -27.0911  -23.9595   19.4040 H   0  0  0  0  0  0
  -29.6675  -25.1863   20.4229 H   0  0  0  0  0  0
  -31.1942  -17.6840   17.3717 H   0  0  0  0  0  0
  -30.6490  -16.1427   17.9978 H   0  0  0  0  0  0
  -32.0910  -16.9364   18.6806 H   0  0  0  0  0  0
  -27.5070  -18.0372   23.0053 H   0  0  0  0  0  0
  -28.8852  -16.9512   23.1495 H   0  0  0  0  0  0
  -27.4840  -16.4859   22.1749 H   0  0  0  0  0  0
  -27.7744  -21.3364   18.7409 H   0  0  0  0  0  0
  -29.4554  -21.7344   18.6254 H   0  0  0  0  0  0
  -28.9024  -15.3483   21.1879 H   0  0  0  0  0  0
  -27.6123  -22.3666   20.7233 H   0  0  0  0  0  0
  1 25  1  0  0  0
  1 30  2  0  0  0
  1 86  1  0  0  0
  2  3  1  0  0  0
  2 25  1  0  0  0
  2 88  1  0  0  0
  2 89  1  0  0  0
  3  4  1  0  0  0
  3 90  1  0  0  0
  3 91  1  0  0  0
  4  5  1  0  0  0
  4 92  1  0  0  0
  4 93  1  0  0  0
  5  6  1  0  0  0
  5 26  1  0  0  0
  5 94  1  0  0  0
  6 25  1  0  0  0
  6 95  1  0  0  0
  6 96  1  0  0  0
  7  8  2  0  0  0
  7 26  1  0  0  0
  7 29  1  0  0  0
  8  9  1  0  0  0
  8 22  1  0  0  0
  9 10  1  0  0  0
  9 27  2  0  0  0
 10 11  2  0  0  0
 10 15  1  0  0  0
 11 12  1  0  0  0
 11 97  1  0  0  0
 12 13  2  0  0  0
 12 98  1  0  0  0
 13 14  1  0  0  0
 13 31  1  0  0  0
 14 15  2  0  0  0
 14 99  1  0  0  0
 15100  1  0  0  0
 16 17  2  0  0  0
 16 21  1  0  0  0
 16 31  1  0  0  0
 17 18  1  0  0  0
 17101  1  0  0  0
 18 19  2  0  0  0
 18102  1  0  0  0
 19 20  1  0  0  0
 19 24  1  0  0  0
 20 21  2  0  0  0
 20103  1  0  0  0
 21 23  1  0  0  0
 22 28  1  0  0  0
 22 32  2  0  0  0
 26 27  1  0  0  0
 28104  1  0  0  0
 28105  1  0  0  0
 29106  1  0  0  0
 29107  1  0  0  0
 33 34  1  0  0  0
 33 66  1  0  0  0
 33 70  2  0  0  0
 34 36  1  0  0  0
 34 59  1  0  0  0
 34108  1  0  0  0
 35 44  2  0  0  0
 35 45  1  0  0  0
 35 68  1  0  0  0
 36 56  1  0  0  0
 36109  1  0  0  0
 37 39  1  0  0  0
 37 47  1  0  0  0
 37 66  1  0  0  0
 37110  1  0  0  0
 38 43  2  0  0  0
 38 46  1  0  0  0
 38 47  1  0  0  0
 39 64  1  0  0  0
 39 67  2  0  0  0
 40 52  1  0  0  0
 40 53  2  0  0  0
 40 58  1  0  0  0
 41111  1  0  0  0
 41112  1  0  0  0
 41113  1  0  0  0
 41 48  1  0  0  0
 42 43  1  0  0  0
 42 66  1  0  0  0
 42114  1  0  0  0
 42115  1  0  0  0
 43 44  1  0  0  0
 44116  1  0  0  0
 45 46  2  0  0  0
 45117  1  0  0  0
 46118  1  0  0  0
 47119  1  0  0  0
 47120  1  0  0  0
 48 56  1  0  0  0
 48 65  1  0  0  0
 48121  1  0  0  0
 49 50  1  0  0  0
 49 53  1  0  0  0
 49 64  1  0  0  0
 49122  1  0  0  0
 50 51  1  0  0  0
 50123  1  0  0  0
 50124  1  0  0  0
 51 52  1  0  0  0
 51125  1  0  0  0
 51126  1  0  0  0
 52127  1  0  0  0
 52128  1  0  0  0
 53 54  1  0  0  0
 54 55  2  0  0  0
 54129  1  0  0  0
 55 57  1  0  0  0
 55130  1  0  0  0
 56 69  2  0  0  0
 57 58  2  0  0  0
 57131  1  0  0  0
 58132  1  0  0  0
 59 60  1  0  0  0
 59 61  1  0  0  0
 59 62  1  0  0  0
 60133  1  0  0  0
 60134  1  0  0  0
 60135  1  0  0  0
 61136  1  0  0  0
 61137  1  0  0  0
 61138  1  0  0  0
 62139  1  0  0  0
 62140  1  0  0  0
 62141  1  0  0  0
 63 65  1  0  0  0
 63142  1  0  0  0
 63143  1  0  0  0
 63144  1  0  0  0
 64145  1  0  0  0
 65146  1  0  0  0
 68 82  1  0  0  0
 71 73  2  0  0  0
 71 74  1  0  0  0
 71147  1  0  0  0
 72 73  1  0  0  0
 72 75  2  0  0  0
 72148  1  0  0  0
 73 85  1  0  0  0
 74 76  2  0  0  0
 74 83  1  0  0  0
 75 76  1  0  0  0
 75 84  1  0  0  0
 76 86  1  0  0  0
 77 78  2  0  0  0
 77 79  1  0  0  0
 77 87  1  0  0  0
 78149  1  0  0  0
 78150  1  0  0  0
 79 80  1  0  0  0
 79151  1  0  0  0
 79152  1  0  0  0
 80 82  1  0  0  0
 80153  1  0  0  0
 80154  1  0  0  0
 81 82  1  0  0  0
 81 87  1  0  0  0
 81155  1  0  0  0
 81156  1  0  0  0
 82157  1  0  0  0
 83158  1  0  0  0
 83159  1  0  0  0
 83160  1  0  0  0
 84161  1  0  0  0
 84162  1  0  0  0
 84163  1  0  0  0
 85164  1  0  0  0
 85165  1  0  0  0
 85 87  1  0  0  0
 86166  1  0  0  0
 87167  1  0  0  0
M  CHG  1  87   1
M  ISO  4   1 100  68 101  82 101  86 100
M  END
> <chiral flag>
0

> <version>
0

> <s_m_source_file>
/data/baiqing/PycharmProjects/Reinvent-master-3.2/result/LINK_invent/BTK/process_docking_weight1_custom_product_contain_oxygen_bond_distance_aromatic_linkinvent_7_9_3/rearranged_h_0031.sdf

> <i_m_source_file_index>
80

> <r_mmod_Potential_Energy-OPLS-2005>
9.98843479156494

> <r_mmod_Stretch_Energy-OPLS-2005>
81.3332443237305

> <r_mmod_Bend_Energy-OPLS-2005>
195.764724731445

> <r_mmod_Torsional_Energy-OPLS-2005>
268.014984130859

> <r_mmod_Improper_Torsional_Energy-OPLS-2005>
5.29421281814575

> <r_mmod_Van_der_Waal_Energy-OPLS-2005>
147.080261230469

> <r_mmod_Electrostatic_Energy-OPLS-2005>
-312.776031494141

> <r_mmod_Solvation_Energy-OPLS-2005>
-420.314208984375

> <b_mmod_Minimization_Converged-OPLS-2005>
0

> <r_mmod_RMS_Derivative-OPLS-2005>
3.23923587799072

$$$$
80
                    3D
 Structure written by MMmdl.
161170  0  0  1  0            999 V2000
  -30.5445  -14.8492   20.3767 C   0  0  0  0  0  0
  -30.4485  -12.4897   19.5123 C   0  0  0  0  0  0
  -29.5297  -12.4339   18.2700 C   0  0  0  0  0  0
  -28.0458  -12.3022   18.6757 C   0  0  0  0  0  0
  -27.6418  -13.2182   19.8644 C   0  0  2  0  0  0
  -28.6904  -13.2007   20.9958 C   0  0  0  0  0  0
  -25.2534  -13.8165   20.5739 C   0  0  0  0  0  0
  -24.1794  -13.0438   20.9231 C   0  0  0  0  0  0
  -24.6361  -11.6905   20.8790 C   0  0  0  0  0  0
  -23.9026  -10.4296   21.0435 C   0  0  0  0  0  0
  -24.3587   -9.4217   21.9202 C   0  0  0  0  0  0
  -23.6288   -8.2239   22.0752 C   0  0  0  0  0  0
  -22.4270   -8.0277   21.3542 C   0  0  0  0  0  0
  -21.9896   -9.0251   20.4650 C   0  0  0  0  0  0
  -22.7203  -10.2143   20.3073 C   0  0  0  0  0  0
  -21.6856   -6.0736   22.5273 C   0  0  0  0  0  0
  -21.4007   -6.5645   23.8200 C   0  0  0  0  0  0
  -21.3660   -5.6799   24.9169 C   0  0  0  0  0  0
  -21.6053   -4.3058   24.7218 C   0  0  0  0  0  0
  -21.8822   -3.8145   23.4334 C   0  0  0  0  0  0
  -21.9192   -4.6963   22.3389 C   0  0  0  0  0  0
  -22.7819  -13.5237   21.1892 C   0  0  0  0  0  0
  -22.1660   -4.2149   21.0964 F   0  0  0  0  0  0
  -21.5644   -3.4541   25.7731 F   0  0  0  0  0  0
  -29.9767  -13.5851   20.3985 N   0  0  0  0  0  0
  -26.2946  -12.9323   20.3396 N   0  0  0  0  0  0
  -25.9301  -11.6490   20.5863 N   0  0  0  0  0  0
  -22.0462  -12.8218   22.0440 N   0  0  0  0  0  0
  -25.4269  -15.1891   20.4127 N   0  0  0  0  0  0
  -31.7253  -14.9632   20.0297 O   0  0  0  0  0  0
  -21.6632   -6.8882   21.4237 O   0  0  0  0  0  0
  -22.3507  -14.5548   20.6752 O   0  0  0  0  0  0
  -24.6300  -31.8496   23.1924 C   0  0  0  0  0  0
  -25.9120  -32.4722   23.8283 C   0  0  1  0  0  0
  -27.2362  -27.2420   20.1385 C   0  0  0  0  0  0
  -25.5917  -33.8527   24.2215 N   0  0  0  0  0  0
  -23.4291  -30.4652   21.5330 C   0  0  2  0  0  0
  -24.8820  -28.8992   20.1001 C   0  0  0  0  0  0
  -22.7501  -29.4557   22.4889 C   0  0  0  0  0  0
  -18.0290  -28.1389   22.8481 C   0  0  0  0  0  0
  -24.1493  -36.7271   23.2643 C   0  0  0  0  0  0
  -25.9711  -30.7560   21.3731 C   0  0  0  0  0  0
  -26.0447  -29.3745   20.7171 C   0  0  0  0  0  0
  -27.2140  -28.5531   20.7286 C   0  0  0  0  0  0
  -26.0591  -26.8286   19.4824 C   0  0  0  0  0  0
  -24.8960  -27.6383   19.4712 C   0  0  0  0  0  0
  -23.6491  -29.7866   20.1505 C   0  0  0  0  0  0
  -25.4122  -36.3050   24.0321 C   0  0  1  0  0  0
  -20.5891  -28.3692   23.1282 C   0  0  2  0  0  0
  -20.6772  -26.9405   22.5428 C   0  0  0  0  0  0
  -19.5758  -26.6380   21.5218 C   0  0  0  0  0  0
  -18.1932  -26.7938   22.1612 C   0  0  0  0  0  0
  -19.1542  -28.8858   23.2878 C   0  0  0  0  0  0
  -18.9463  -30.1461   23.8892 C   0  0  0  0  0  0
  -17.6461  -30.6588   24.0556 C   0  0  0  0  0  0
  -25.9057  -34.9422   23.5079 C   0  0  0  0  0  0
  -16.5353  -29.9081   23.6331 C   0  0  0  0  0  0
  -16.7276  -28.6500   23.0351 C   0  0  0  0  0  0
  -26.4497  -31.6571   25.0688 C   0  0  0  0  0  0
  -25.3728  -31.3729   26.1420 C   0  0  0  0  0  0
  -27.0334  -30.2981   24.6191 C   0  0  0  0  0  0
  -27.6052  -32.4321   25.7455 C   0  0  0  0  0  0
  -27.5585  -37.1784   24.8462 C   0  0  0  0  0  0
  -21.4204  -29.3021   22.3654 N   0  0  0  0  0  0
  -26.4293  -37.3754   23.9410 N   0  0  0  0  0  0
  -24.6952  -31.0442   22.0897 N   0  0  0  0  0  0
  -23.4200  -28.8122   23.3005 O   0  0  0  0  0  0
  -28.3579  -26.3980   20.3128 O   0  0  0  0  0  0
  -26.5634  -34.8905   22.4651 O   0  0  0  0  0  0
  -23.5450  -32.1330   23.7219 O   0  0  0  0  0  0
  -28.6727  -19.7916   18.7298 C   0  0  0  0  0  0
  -28.4957  -18.5404   18.1229 C   0  0  0  0  0  0
  -29.3481  -19.9177   19.9525 C   0  0  0  0  0  0
  -29.7500  -18.6483   20.6028 C   0  0  0  0  0  0
  -29.5542  -17.3138   19.9972 C   0  0  0  0  0  0
  -28.9456  -17.3430   18.7088 C   0  0  0  0  0  0
  -30.0698  -23.6886   21.2747 C   0  0  0  0  0  0
  -30.7010  -23.6220   22.4591 C   0  0  0  0  0  0
  -30.1285  -24.8206   20.2521 C   0  0  0  0  0  0
  -28.1297  -23.5607   19.9872 C   0  0  0  0  0  0
  -28.7086  -25.0522   19.7153 C   0  0  1  0  0  0
  -30.4451  -18.7171   21.9509 C   0  0  0  0  0  0
  -29.8552  -21.4197   20.2596 C   0  0  0  0  0  0
  -29.7489  -15.9680   20.6620 N   0  0  0  0  0  0
  -29.0898  -22.6713   20.7948 N   0  3  1  0  0  0
  -28.6696  -15.7912   17.6493 Br  0  0  0  0  0  0
  -31.4869  -12.6273   19.2067 H   0  0  0  0  0  0
  -30.4258  -11.5401   20.0494 H   0  0  0  0  0  0
  -29.8105  -11.5860   17.6441 H   0  0  0  0  0  0
  -29.6894  -13.3117   17.6502 H   0  0  0  0  0  0
  -27.8907  -11.2597   18.9574 H   0  0  0  0  0  0
  -27.3949  -12.4844   17.8199 H   0  0  0  0  0  0
  -27.6121  -14.2302   19.4810 H   0  0  0  0  0  0
  -28.7560  -12.2106   21.4496 H   0  0  0  0  0  0
  -28.4101  -13.8845   21.7988 H   0  0  0  0  0  0
  -25.2735   -9.5695   22.4773 H   0  0  0  0  0  0
  -24.0013   -7.4624   22.7450 H   0  0  0  0  0  0
  -21.0834   -8.8753   19.8953 H   0  0  0  0  0  0
  -22.3655  -10.9681   19.6177 H   0  0  0  0  0  0
  -21.1982   -7.6152   23.9701 H   0  0  0  0  0  0
  -21.1491   -6.0524   25.9077 H   0  0  0  0  0  0
  -22.0602   -2.7610   23.2811 H   0  0  0  0  0  0
  -22.4054  -11.9832   22.4767 H   0  0  0  0  0  0
  -21.1107  -13.1272   22.2709 H   0  0  0  0  0  0
  -24.6632  -15.8485   20.5117 H   0  0  0  0  0  0
  -26.2696  -15.6115   20.0450 H   0  0  0  0  0  0
  -26.7177  -32.5361   23.1010 H   0  0  0  0  0  0
  -25.0066  -33.9661   25.0363 H   0  0  0  0  0  0
  -22.7258  -31.2863   21.3811 H   0  0  0  0  0  0
  -23.3759  -35.9602   23.3293 H   0  0  0  0  0  0
  -24.3584  -36.8910   22.2063 H   0  0  0  0  0  0
  -23.7245  -37.6464   23.6677 H   0  0  0  0  0  0
  -26.1110  -31.5162   20.6030 H   0  0  0  0  0  0
  -26.8478  -30.8082   22.0075 H   0  0  0  0  0  0
  -28.0982  -28.9043   21.2424 H   0  0  0  0  0  0
  -26.0163  -25.8532   19.0191 H   0  0  0  0  0  0
  -24.0029  -27.2710   18.9846 H   0  0  0  0  0  0
  -23.7683  -30.5585   19.3892 H   0  0  0  0  0  0
  -22.7689  -29.2144   19.8507 H   0  0  0  0  0  0
  -25.1311  -36.1883   25.0813 H   0  0  0  0  0  0
  -20.9989  -28.3277   24.1403 H   0  0  0  0  0  0
  -20.5662  -26.2298   23.3634 H   0  0  0  0  0  0
  -21.6644  -26.7418   22.1230 H   0  0  0  0  0  0
  -19.6916  -25.6288   21.1257 H   0  0  0  0  0  0
  -19.6717  -27.3183   20.6746 H   0  0  0  0  0  0
  -17.4216  -26.6704   21.3998 H   0  0  0  0  0  0
  -18.0306  -26.0079   22.9001 H   0  0  0  0  0  0
  -19.7936  -30.7276   24.2264 H   0  0  0  0  0  0
  -17.5010  -31.6268   24.5157 H   0  0  0  0  0  0
  -15.5347  -30.2972   23.7664 H   0  0  0  0  0  0
  -15.8681  -28.0813   22.7068 H   0  0  0  0  0  0
  -24.5924  -30.7043   25.7769 H   0  0  0  0  0  0
  -24.8889  -32.2894   26.4806 H   0  0  0  0  0  0
  -25.8062  -30.8956   27.0218 H   0  0  0  0  0  0
  -26.2905  -29.6727   24.1230 H   0  0  0  0  0  0
  -27.4016  -29.7253   25.4712 H   0  0  0  0  0  0
  -27.8788  -30.4235   23.9423 H   0  0  0  0  0  0
  -27.2657  -33.3626   26.2016 H   0  0  0  0  0  0
  -28.3865  -32.6876   25.0284 H   0  0  0  0  0  0
  -28.0721  -31.8461   26.5383 H   0  0  0  0  0  0
  -28.2594  -38.0088   24.7504 H   0  0  0  0  0  0
  -28.1083  -36.2614   24.6281 H   0  0  0  0  0  0
  -27.2304  -37.1434   25.8866 H   0  0  0  0  0  0
  -20.9397  -29.8716   21.6832 H   0  0  0  0  0  0
  -26.0165  -38.2826   24.1410 H   0  0  0  0  0  0
  -28.3663  -20.6734   18.1841 H   0  0  0  0  0  0
  -28.0218  -18.4982   17.1532 H   0  0  0  0  0  0
  -31.3714  -24.4095   22.7721 H   0  0  0  0  0  0
  -30.5624  -22.7915   23.1353 H   0  0  0  0  0  0
  -30.7883  -24.5130   19.4393 H   0  0  0  0  0  0
  -30.5626  -25.7226   20.6861 H   0  0  0  0  0  0
  -27.9155  -23.0671   19.0399 H   0  0  0  0  0  0
  -27.1811  -23.6364   20.5178 H   0  0  0  0  0  0
  -28.7497  -25.2132   18.6378 H   0  0  0  0  0  0
  -31.5151  -18.8766   21.8185 H   0  0  0  0  0  0
  -30.3099  -17.7977   22.5208 H   0  0  0  0  0  0
  -30.0487  -19.5324   22.5550 H   0  0  0  0  0  0
  -30.3489  -21.7550   19.3466 H   0  0  0  0  0  0
  -30.6875  -21.2702   20.9474 H   0  0  0  0  0  0
  -28.9127  -15.6743   21.1438 H   0  0  0  0  0  0
  -28.5620  -22.3370   21.5867 H   0  0  0  0  0  0
  1 25  1  0  0  0
  1 30  2  0  0  0
  1 84  1  0  0  0
  2  3  1  0  0  0
  2 25  1  0  0  0
  2 87  1  0  0  0
  2 88  1  0  0  0
  3  4  1  0  0  0
  3 89  1  0  0  0
  3 90  1  0  0  0
  4  5  1  0  0  0
  4 91  1  0  0  0
  4 92  1  0  0  0
  5  6  1  0  0  0
  5 26  1  0  0  0
  5 93  1  0  0  0
  6 25  1  0  0  0
  6 94  1  0  0  0
  6 95  1  0  0  0
  7  8  2  0  0  0
  7 26  1  0  0  0
  7 29  1  0  0  0
  8  9  1  0  0  0
  8 22  1  0  0  0
  9 10  1  0  0  0
  9 27  2  0  0  0
 10 11  2  0  0  0
 10 15  1  0  0  0
 11 12  1  0  0  0
 11 96  1  0  0  0
 12 13  2  0  0  0
 12 97  1  0  0  0
 13 14  1  0  0  0
 13 31  1  0  0  0
 14 15  2  0  0  0
 14 98  1  0  0  0
 15 99  1  0  0  0
 16 17  2  0  0  0
 16 21  1  0  0  0
 16 31  1  0  0  0
 17 18  1  0  0  0
 17100  1  0  0  0
 18 19  2  0  0  0
 18101  1  0  0  0
 19 20  1  0  0  0
 19 24  1  0  0  0
 20 21  2  0  0  0
 20102  1  0  0  0
 21 23  1  0  0  0
 22 28  1  0  0  0
 22 32  2  0  0  0
 26 27  1  0  0  0
 28103  1  0  0  0
 28104  1  0  0  0
 29105  1  0  0  0
 29106  1  0  0  0
 33 34  1  0  0  0
 33 66  1  0  0  0
 33 70  2  0  0  0
 34 36  1  0  0  0
 34 59  1  0  0  0
 34107  1  0  0  0
 35 44  2  0  0  0
 35 45  1  0  0  0
 35 68  1  0  0  0
 36 56  1  0  0  0
 36108  1  0  0  0
 37 39  1  0  0  0
 37 47  1  0  0  0
 37 66  1  0  0  0
 37109  1  0  0  0
 38 43  2  0  0  0
 38 46  1  0  0  0
 38 47  1  0  0  0
 39 64  1  0  0  0
 39 67  2  0  0  0
 40 52  1  0  0  0
 40 53  2  0  0  0
 40 58  1  0  0  0
 41110  1  0  0  0
 41111  1  0  0  0
 41112  1  0  0  0
 41 48  1  0  0  0
 42 43  1  0  0  0
 42 66  1  0  0  0
 42113  1  0  0  0
 42114  1  0  0  0
 43 44  1  0  0  0
 44115  1  0  0  0
 45 46  2  0  0  0
 45116  1  0  0  0
 46117  1  0  0  0
 47118  1  0  0  0
 47119  1  0  0  0
 48 56  1  0  0  0
 48 65  1  0  0  0
 48120  1  0  0  0
 49 50  1  0  0  0
 49 53  1  0  0  0
 49 64  1  0  0  0
 49121  1  0  0  0
 50 51  1  0  0  0
 50122  1  0  0  0
 50123  1  0  0  0
 51 52  1  0  0  0
 51124  1  0  0  0
 51125  1  0  0  0
 52126  1  0  0  0
 52127  1  0  0  0
 53 54  1  0  0  0
 54 55  2  0  0  0
 54128  1  0  0  0
 55 57  1  0  0  0
 55129  1  0  0  0
 56 69  2  0  0  0
 57 58  2  0  0  0
 57130  1  0  0  0
 58131  1  0  0  0
 59 60  1  0  0  0
 59 61  1  0  0  0
 59 62  1  0  0  0
 60132  1  0  0  0
 60133  1  0  0  0
 60134  1  0  0  0
 61135  1  0  0  0
 61136  1  0  0  0
 61137  1  0  0  0
 62138  1  0  0  0
 62139  1  0  0  0
 62140  1  0  0  0
 63 65  1  0  0  0
 63141  1  0  0  0
 63142  1  0  0  0
 63143  1  0  0  0
 64144  1  0  0  0
 65145  1  0  0  0
 68 81  1  0  0  0
 71 72  2  0  0  0
 71 73  1  0  0  0
 71146  1  0  0  0
 72 76  1  0  0  0
 72147  1  0  0  0
 73 74  2  0  0  0
 73 83  1  0  0  0
 74 75  1  0  0  0
 74 82  1  0  0  0
 75 76  2  0  0  0
 75 84  1  0  0  0
 76 86  1  0  0  0
 77 78  2  0  0  0
 77 79  1  0  0  0
 77 85  1  0  0  0
 78148  1  0  0  0
 78149  1  0  0  0
 79 81  1  0  0  0
 79150  1  0  0  0
 79151  1  0  0  0
 80 81  1  0  0  0
 80 85  1  0  0  0
 80152  1  0  0  0
 80153  1  0  0  0
 81154  1  0  0  0
 82155  1  0  0  0
 82156  1  0  0  0
 82157  1  0  0  0
 83158  1  0  0  0
 83159  1  0  0  0
 83 85  1  0  0  0
 84160  1  0  0  0
 85161  1  0  0  0
M  CHG  1  85   1
M  ISO  4   1 100  68 101  81 101  84 100
M  END
> <chiral flag>
0

> <version>
0

> <s_m_source_file>
/data/baiqing/PycharmProjects/Reinvent-master-3.2/result/LINK_invent/BTK/process_docking_weight1_custom_product_contain_oxygen_bond_distance_aromatic_linkinvent_7_9_3/rearranged_h_0031.sdf

> <i_m_source_file_index>
81

> <r_mmod_Potential_Energy-OPLS-2005>
292.305969238281

> <r_mmod_Stretch_Energy-OPLS-2005>
159.174606323242

> <r_mmod_Bend_Energy-OPLS-2005>
321.960601806641

> <r_mmod_Torsional_Energy-OPLS-2005>
297.116394042969

> <r_mmod_Improper_Torsional_Energy-OPLS-2005>
8.076491355896

> <r_mmod_Van_der_Waal_Energy-OPLS-2005>
120.354080200195

> <r_mmod_Electrostatic_Energy-OPLS-2005>
-291.261840820312

> <r_mmod_Solvation_Energy-OPLS-2005>
-447.811920166016

> <b_mmod_Minimization_Converged-OPLS-2005>
0

> <r_mmod_RMS_Derivative-OPLS-2005>
1.78385317325592

$$$$
81
                    3D
 Structure written by MMmdl.
163172  0  0  1  0            999 V2000
  -30.7379  -14.4574   20.5997 C   0  0  0  0  0  0
  -30.4093  -12.3133   19.4109 C   0  0  0  0  0  0
  -29.4809  -12.5020   18.1954 C   0  0  0  0  0  0
  -28.0055  -12.3647   18.6160 C   0  0  0  0  0  0
  -27.6591  -13.2095   19.8705 C   0  0  2  0  0  0
  -28.7034  -13.0017   20.9897 C   0  0  0  0  0  0
  -25.2601  -13.8179   20.5695 C   0  0  0  0  0  0
  -24.1842  -13.0440   20.9178 C   0  0  0  0  0  0
  -24.6404  -11.6913   20.8739 C   0  0  0  0  0  0
  -23.9072  -10.4298   21.0426 C   0  0  0  0  0  0
  -24.3621   -9.4204   21.9190 C   0  0  0  0  0  0
  -23.6289   -8.2255   22.0775 C   0  0  0  0  0  0
  -22.4282   -8.0292   21.3545 C   0  0  0  0  0  0
  -21.9908   -9.0272   20.4648 C   0  0  0  0  0  0
  -22.7256  -10.2150   20.3051 C   0  0  0  0  0  0
  -21.6836   -6.0738   22.5277 C   0  0  0  0  0  0
  -21.4032   -6.5653   23.8212 C   0  0  0  0  0  0
  -21.3650   -5.6804   24.9169 C   0  0  0  0  0  0
  -21.6040   -4.3058   24.7239 C   0  0  0  0  0  0
  -21.8810   -3.8148   23.4354 C   0  0  0  0  0  0
  -21.9213   -4.6971   22.3398 C   0  0  0  0  0  0
  -22.7863  -13.5248   21.1834 C   0  0  0  0  0  0
  -22.1655   -4.2152   21.0973 F   0  0  0  0  0  0
  -21.5633   -3.4532   25.7757 F   0  0  0  0  0  0
  -30.0305  -13.3056   20.4292 N   0  0  0  0  0  0
  -26.3012  -12.9349   20.3374 N   0  0  0  0  0  0
  -25.9321  -11.6503   20.5761 N   0  0  0  0  0  0
  -22.0494  -12.8229   22.0390 N   0  0  0  0  0  0
  -25.4354  -15.1898   20.4140 N   0  0  0  0  0  0
  -31.8413  -14.6428   20.0798 O   0  0  0  0  0  0
  -21.6637   -6.8896   21.4236 O   0  0  0  0  0  0
  -22.3543  -14.5566   20.6716 O   0  0  0  0  0  0
  -24.6194  -31.8675   23.2077 C   0  0  0  0  0  0
  -25.9066  -32.4819   23.8370 C   0  0  1  0  0  0
  -27.2370  -27.3913   20.1095 C   0  0  0  0  0  0
  -25.5908  -33.8612   24.2312 N   0  0  0  0  0  0
  -23.4103  -30.4866   21.5501 C   0  0  2  0  0  0
  -24.8616  -28.9567   20.1068 C   0  0  0  0  0  0
  -22.7450  -29.4641   22.4985 C   0  0  0  0  0  0
  -18.0289  -28.1358   22.8483 C   0  0  0  0  0  0
  -24.1507  -36.7281   23.2636 C   0  0  0  0  0  0
  -25.9458  -30.8195   21.3692 C   0  0  0  0  0  0
  -26.0259  -29.4554   20.7057 C   0  0  0  0  0  0
  -27.2186  -28.6806   20.7025 C   0  0  0  0  0  0
  -26.0597  -26.9405   19.4666 C   0  0  0  0  0  0
  -24.8765  -27.7017   19.4788 C   0  0  0  0  0  0
  -23.6202  -29.8195   20.1649 C   0  0  0  0  0  0
  -25.4121  -36.3092   24.0331 C   0  0  1  0  0  0
  -20.5861  -28.3672   23.1293 C   0  0  2  0  0  0
  -20.6786  -26.9399   22.5413 C   0  0  0  0  0  0
  -19.5756  -26.6373   21.5208 C   0  0  0  0  0  0
  -18.1925  -26.7918   22.1612 C   0  0  0  0  0  0
  -19.1534  -28.8818   23.2889 C   0  0  0  0  0  0
  -18.9470  -30.1415   23.8888 C   0  0  0  0  0  0
  -17.6483  -30.6570   24.0534 C   0  0  0  0  0  0
  -25.9044  -34.9475   23.5127 C   0  0  0  0  0  0
  -16.5381  -29.9058   23.6311 C   0  0  0  0  0  0
  -16.7267  -28.6471   23.0338 C   0  0  0  0  0  0
  -26.4484  -31.6630   25.0727 C   0  0  0  0  0  0
  -25.3725  -31.3681   26.1454 C   0  0  0  0  0  0
  -27.0365  -30.3078   24.6105 C   0  0  0  0  0  0
  -27.6055  -32.4370   25.7479 C   0  0  0  0  0  0
  -27.5602  -37.1781   24.8447 C   0  0  0  0  0  0
  -21.4167  -29.3040   22.3723 N   0  0  0  0  0  0
  -26.4322  -37.3764   23.9389 N   0  0  0  0  0  0
  -24.6767  -31.0711   22.1009 N   0  0  0  0  0  0
  -23.4202  -28.8184   23.3041 O   0  0  0  0  0  0
  -28.3371  -26.5419   20.2046 O   0  0  0  0  0  0
  -26.5633  -34.8952   22.4700 O   0  0  0  0  0  0
  -23.5382  -32.1474   23.7441 O   0  0  0  0  0  0
  -30.9107  -18.4889   20.3110 C   0  0  0  0  0  0
  -29.8508  -20.2752   22.1921 C   0  0  0  0  0  0
  -30.8129  -19.8719   20.0040 C   0  0  0  0  0  0
  -30.5253  -17.9900   21.5764 C   0  0  0  0  0  0
  -30.3060  -20.7909   20.9603 C   0  0  0  0  0  0
  -29.9598  -18.9023   22.5055 C   0  0  0  0  0  0
  -31.1765  -23.1103   21.2931 C   0  0  0  0  0  0
  -32.3645  -22.8255   21.8538 C   0  0  0  0  0  0
  -30.5357  -24.4910   21.2893 C   0  0  0  0  0  0
  -29.0211  -22.8389   20.4129 C   0  0  0  0  0  0
  -29.0410  -24.1719   21.2064 C   0  0  2  0  0  0
  -31.3097  -20.3675   18.6575 C   0  0  0  0  0  0
  -30.8801  -16.5410   21.9773 C   0  0  0  0  0  0
  -27.9866  -25.2801   20.8516 C   0  0  0  0  0  0
  -30.3008  -22.1913   20.7207 N   0  0  0  0  0  0
  -30.1596  -15.4204   21.3432 N   0  0  0  0  0  0
  -29.4317  -18.3836   24.0686 Cl  0  0  0  0  0  0
  -31.4535  -12.3990   19.1051 H   0  0  0  0  0  0
  -30.3028  -11.3052   19.8161 H   0  0  0  0  0  0
  -29.7135  -11.7637   17.4248 H   0  0  0  0  0  0
  -29.6527  -13.4819   17.7460 H   0  0  0  0  0  0
  -27.8173  -11.3091   18.8180 H   0  0  0  0  0  0
  -27.3520  -12.6391   17.7892 H   0  0  0  0  0  0
  -27.7013  -14.2561   19.5691 H   0  0  0  0  0  0
  -28.6829  -11.9696   21.3407 H   0  0  0  0  0  0
  -28.4636  -13.6104   21.8607 H   0  0  0  0  0  0
  -25.2751   -9.5697   22.4765 H   0  0  0  0  0  0
  -24.0000   -7.4650   22.7492 H   0  0  0  0  0  0
  -21.0843   -8.8785   19.8931 H   0  0  0  0  0  0
  -22.3700  -10.9695   19.6168 H   0  0  0  0  0  0
  -21.2008   -7.6162   23.9717 H   0  0  0  0  0  0
  -21.1468   -6.0531   25.9085 H   0  0  0  0  0  0
  -22.0602   -2.7611   23.2847 H   0  0  0  0  0  0
  -22.4093  -11.9864   22.4728 H   0  0  0  0  0  0
  -21.1119  -13.1263   22.2644 H   0  0  0  0  0  0
  -24.6824  -15.8566   20.5506 H   0  0  0  0  0  0
  -26.3078  -15.6210   20.1316 H   0  0  0  0  0  0
  -26.7155  -32.5508   23.1168 H   0  0  0  0  0  0
  -25.0008  -33.9764   25.0417 H   0  0  0  0  0  0
  -22.7008  -31.3060   21.4121 H   0  0  0  0  0  0
  -23.3799  -35.9586   23.3267 H   0  0  0  0  0  0
  -24.3575  -36.8922   22.2052 H   0  0  0  0  0  0
  -23.7272  -37.6467   23.6713 H   0  0  0  0  0  0
  -26.0705  -31.5909   20.6079 H   0  0  0  0  0  0
  -26.8259  -30.8657   21.9990 H   0  0  0  0  0  0
  -28.1080  -29.0416   21.1996 H   0  0  0  0  0  0
  -26.0380  -25.9804   18.9741 H   0  0  0  0  0  0
  -23.9833  -27.3185   19.0027 H   0  0  0  0  0  0
  -23.7193  -30.5965   19.4023 H   0  0  0  0  0  0
  -22.7480  -29.2255   19.8801 H   0  0  0  0  0  0
  -25.1337  -36.1946   25.0828 H   0  0  0  0  0  0
  -20.9958  -28.3285   24.1409 H   0  0  0  0  0  0
  -20.5652  -26.2277   23.3600 H   0  0  0  0  0  0
  -21.6664  -26.7438   22.1220 H   0  0  0  0  0  0
  -19.6913  -25.6271   21.1243 H   0  0  0  0  0  0
  -19.6725  -27.3175   20.6726 H   0  0  0  0  0  0
  -17.4217  -26.6647   21.4018 H   0  0  0  0  0  0
  -18.0311  -26.0052   22.8979 H   0  0  0  0  0  0
  -19.7954  -30.7190   24.2315 H   0  0  0  0  0  0
  -17.5052  -31.6258   24.5155 H   0  0  0  0  0  0
  -15.5365  -30.2968   23.7648 H   0  0  0  0  0  0
  -15.8656  -28.0794   22.7078 H   0  0  0  0  0  0
  -24.5935  -30.7016   25.7728 H   0  0  0  0  0  0
  -24.8876  -32.2826   26.4919 H   0  0  0  0  0  0
  -25.8068  -30.8837   27.0212 H   0  0  0  0  0  0
  -26.2952  -29.6741   24.1244 H   0  0  0  0  0  0
  -27.4244  -29.7400   25.4561 H   0  0  0  0  0  0
  -27.8719  -30.4365   23.9206 H   0  0  0  0  0  0
  -27.2679  -33.3685   26.2034 H   0  0  0  0  0  0
  -28.3866  -32.6899   25.0289 H   0  0  0  0  0  0
  -28.0727  -31.8504   26.5405 H   0  0  0  0  0  0
  -28.2606  -38.0102   24.7574 H   0  0  0  0  0  0
  -28.1163  -36.2662   24.6250 H   0  0  0  0  0  0
  -27.2311  -37.1322   25.8842 H   0  0  0  0  0  0
  -20.9358  -29.8747   21.6900 H   0  0  0  0  0  0
  -26.0225  -38.2839   24.1421 H   0  0  0  0  0  0
  -31.3378  -17.8072   19.5876 H   0  0  0  0  0  0
  -29.4604  -20.9519   22.9386 H   0  0  0  0  0  0
  -32.9619  -23.5989   22.3204 H   0  0  0  0  0  0
  -32.7610  -21.8177   21.8666 H   0  0  0  0  0  0
  -30.8825  -25.0467   20.4196 H   0  0  0  0  0  0
  -30.7827  -25.0566   22.1881 H   0  0  0  0  0  0
  -28.9732  -23.0293   19.3399 H   0  0  0  0  0  0
  -28.1677  -22.2116   20.6760 H   0  0  0  0  0  0
  -28.7627  -23.8670   22.2182 H   0  0  0  0  0  0
  -31.6230  -19.5450   18.0109 H   0  0  0  0  0  0
  -32.1546  -21.0444   18.7894 H   0  0  0  0  0  0
  -30.5157  -20.9105   18.1446 H   0  0  0  0  0  0
  -30.7730  -16.3999   23.0515 H   0  0  0  0  0  0
  -31.9542  -16.4369   21.8189 H   0  0  0  0  0  0
  -27.5246  -25.5632   21.7992 H   0  0  0  0  0  0
  -27.1940  -24.7670   20.3095 H   0  0  0  0  0  0
  -29.2292  -15.2246   21.6858 H   0  0  0  0  0  0
  1 25  1  0  0  0
  1 30  2  0  0  0
  1 86  1  0  0  0
  2  3  1  0  0  0
  2 25  1  0  0  0
  2 88  1  0  0  0
  2 89  1  0  0  0
  3  4  1  0  0  0
  3 90  1  0  0  0
  3 91  1  0  0  0
  4  5  1  0  0  0
  4 92  1  0  0  0
  4 93  1  0  0  0
  5  6  1  0  0  0
  5 26  1  0  0  0
  5 94  1  0  0  0
  6 25  1  0  0  0
  6 95  1  0  0  0
  6 96  1  0  0  0
  7  8  2  0  0  0
  7 26  1  0  0  0
  7 29  1  0  0  0
  8  9  1  0  0  0
  8 22  1  0  0  0
  9 10  1  0  0  0
  9 27  2  0  0  0
 10 11  2  0  0  0
 10 15  1  0  0  0
 11 12  1  0  0  0
 11 97  1  0  0  0
 12 13  2  0  0  0
 12 98  1  0  0  0
 13 14  1  0  0  0
 13 31  1  0  0  0
 14 15  2  0  0  0
 14 99  1  0  0  0
 15100  1  0  0  0
 16 17  2  0  0  0
 16 21  1  0  0  0
 16 31  1  0  0  0
 17 18  1  0  0  0
 17101  1  0  0  0
 18 19  2  0  0  0
 18102  1  0  0  0
 19 20  1  0  0  0
 19 24  1  0  0  0
 20 21  2  0  0  0
 20103  1  0  0  0
 21 23  1  0  0  0
 22 28  1  0  0  0
 22 32  2  0  0  0
 26 27  1  0  0  0
 28104  1  0  0  0
 28105  1  0  0  0
 29106  1  0  0  0
 29107  1  0  0  0
 33 34  1  0  0  0
 33 66  1  0  0  0
 33 70  2  0  0  0
 34 36  1  0  0  0
 34 59  1  0  0  0
 34108  1  0  0  0
 35 44  2  0  0  0
 35 45  1  0  0  0
 35 68  1  0  0  0
 36 56  1  0  0  0
 36109  1  0  0  0
 37 39  1  0  0  0
 37 47  1  0  0  0
 37 66  1  0  0  0
 37110  1  0  0  0
 38 43  2  0  0  0
 38 46  1  0  0  0
 38 47  1  0  0  0
 39 64  1  0  0  0
 39 67  2  0  0  0
 40 52  1  0  0  0
 40 53  2  0  0  0
 40 58  1  0  0  0
 41111  1  0  0  0
 41112  1  0  0  0
 41113  1  0  0  0
 41 48  1  0  0  0
 42 43  1  0  0  0
 42 66  1  0  0  0
 42114  1  0  0  0
 42115  1  0  0  0
 43 44  1  0  0  0
 44116  1  0  0  0
 45 46  2  0  0  0
 45117  1  0  0  0
 46118  1  0  0  0
 47119  1  0  0  0
 47120  1  0  0  0
 48 56  1  0  0  0
 48 65  1  0  0  0
 48121  1  0  0  0
 49 50  1  0  0  0
 49 53  1  0  0  0
 49 64  1  0  0  0
 49122  1  0  0  0
 50 51  1  0  0  0
 50123  1  0  0  0
 50124  1  0  0  0
 51 52  1  0  0  0
 51125  1  0  0  0
 51126  1  0  0  0
 52127  1  0  0  0
 52128  1  0  0  0
 53 54  1  0  0  0
 54 55  2  0  0  0
 54129  1  0  0  0
 55 57  1  0  0  0
 55130  1  0  0  0
 56 69  2  0  0  0
 57 58  2  0  0  0
 57131  1  0  0  0
 58132  1  0  0  0
 59 60  1  0  0  0
 59 61  1  0  0  0
 59 62  1  0  0  0
 60133  1  0  0  0
 60134  1  0  0  0
 60135  1  0  0  0
 61136  1  0  0  0
 61137  1  0  0  0
 61138  1  0  0  0
 62139  1  0  0  0
 62140  1  0  0  0
 62141  1  0  0  0
 63 65  1  0  0  0
 63142  1  0  0  0
 63143  1  0  0  0
 63144  1  0  0  0
 64145  1  0  0  0
 65146  1  0  0  0
 68 84  1  0  0  0
 71 73  2  0  0  0
 71 74  1  0  0  0
 71147  1  0  0  0
 72 75  2  0  0  0
 72 76  1  0  0  0
 72148  1  0  0  0
 73 75  1  0  0  0
 73 82  1  0  0  0
 74 76  2  0  0  0
 74 83  1  0  0  0
 75 85  1  0  0  0
 76 87  1  0  0  0
 77 78  2  0  0  0
 77 79  1  0  0  0
 77 85  1  0  0  0
 78149  1  0  0  0
 78150  1  0  0  0
 79 81  1  0  0  0
 79151  1  0  0  0
 79152  1  0  0  0
 80 81  1  0  0  0
 80 85  1  0  0  0
 80153  1  0  0  0
 80154  1  0  0  0
 81 84  1  0  0  0
 81155  1  0  0  0
 82156  1  0  0  0
 82157  1  0  0  0
 82158  1  0  0  0
 83 86  1  0  0  0
 83159  1  0  0  0
 83160  1  0  0  0
 84161  1  0  0  0
 84162  1  0  0  0
 86163  1  0  0  0
M  ISO  4   1 100  68 101  84 101  86 100
M  END
> <chiral flag>
0

> <version>
0

> <s_m_source_file>
/data/baiqing/PycharmProjects/Reinvent-master-3.2/result/LINK_invent/BTK/process_docking_weight1_custom_product_contain_oxygen_bond_distance_aromatic_linkinvent_7_9_3/rearranged_h_0031.sdf

> <i_m_source_file_index>
82

> <r_mmod_Potential_Energy-OPLS-2005>
31.8244285583496

> <r_mmod_Stretch_Energy-OPLS-2005>
47.1683197021484

> <r_mmod_Bend_Energy-OPLS-2005>
159.604522705078

> <r_mmod_Torsional_Energy-OPLS-2005>
286.846557617188

> <r_mmod_Improper_Torsional_Energy-OPLS-2005>
5.28624296188354

> <r_mmod_Van_der_Waal_Energy-OPLS-2005>
148.779937744141

> <r_mmod_Electrostatic_Energy-OPLS-2005>
-435.506622314453

> <r_mmod_Solvation_Energy-OPLS-2005>
-201.250610351562

> <b_mmod_Minimization_Converged-OPLS-2005>
0

> <r_mmod_RMS_Derivative-OPLS-2005>
4.71850633621216

$$$$
82
                    3D
 Structure written by MMmdl.
160169  0  0  1  0            999 V2000
  -30.7317  -14.5108   20.5791 C   0  0  0  0  0  0
  -30.4125  -12.3420   19.4275 C   0  0  0  0  0  0
  -29.4861  -12.5040   18.2060 C   0  0  0  0  0  0
  -28.0130  -12.3426   18.6261 C   0  0  0  0  0  0
  -27.6490  -13.2035   19.8641 C   0  0  2  0  0  0
  -28.6960  -13.0483   20.9917 C   0  0  0  0  0  0
  -25.2526  -13.8151   20.5661 C   0  0  0  0  0  0
  -24.1806  -13.0427   20.9192 C   0  0  0  0  0  0
  -24.6364  -11.6897   20.8763 C   0  0  0  0  0  0
  -23.9043  -10.4291   21.0423 C   0  0  0  0  0  0
  -24.3600   -9.4197   21.9191 C   0  0  0  0  0  0
  -23.6289   -8.2227   22.0750 C   0  0  0  0  0  0
  -22.4273   -8.0264   21.3542 C   0  0  0  0  0  0
  -21.9900   -9.0238   20.4644 C   0  0  0  0  0  0
  -22.7224  -10.2122   20.3063 C   0  0  0  0  0  0
  -21.6848   -6.0733   22.5284 C   0  0  0  0  0  0
  -21.4008   -6.5638   23.8216 C   0  0  0  0  0  0
  -21.3655   -5.6792   24.9175 C   0  0  0  0  0  0
  -21.6041   -4.3057   24.7230 C   0  0  0  0  0  0
  -21.8821   -3.8144   23.4353 C   0  0  0  0  0  0
  -21.9192   -4.6961   22.3407 C   0  0  0  0  0  0
  -22.7834  -13.5224   21.1862 C   0  0  0  0  0  0
  -22.1669   -4.2140   21.0988 F   0  0  0  0  0  0
  -21.5641   -3.4542   25.7745 F   0  0  0  0  0  0
  -30.0199  -13.3542   20.4273 N   0  0  0  0  0  0
  -26.2951  -12.9317   20.3344 N   0  0  0  0  0  0
  -25.9281  -11.6484   20.5785 N   0  0  0  0  0  0
  -22.0490  -12.8223   22.0434 N   0  0  0  0  0  0
  -25.4216  -15.1871   20.3988 N   0  0  0  0  0  0
  -31.8718  -14.6373   20.1344 O   0  0  0  0  0  0
  -21.6642   -6.8862   21.4241 O   0  0  0  0  0  0
  -22.3528  -14.5534   20.6706 O   0  0  0  0  0  0
  -24.6176  -31.8653   23.2085 C   0  0  0  0  0  0
  -25.9055  -32.4809   23.8394 C   0  0  1  0  0  0
  -27.2253  -27.3871   20.1122 C   0  0  0  0  0  0
  -25.5896  -33.8616   24.2317 N   0  0  0  0  0  0
  -23.4092  -30.4896   21.5500 C   0  0  2  0  0  0
  -24.8532  -28.9568   20.1148 C   0  0  0  0  0  0
  -22.7433  -29.4630   22.4963 C   0  0  0  0  0  0
  -18.0280  -28.1361   22.8559 C   0  0  0  0  0  0
  -24.1481  -36.7310   23.2644 C   0  0  0  0  0  0
  -25.9423  -30.8208   21.3686 C   0  0  0  0  0  0
  -26.0178  -29.4531   20.7121 C   0  0  0  0  0  0
  -27.2065  -28.6798   20.6990 C   0  0  0  0  0  0
  -26.0352  -26.9199   19.5054 C   0  0  0  0  0  0
  -24.8598  -27.6925   19.5071 C   0  0  0  0  0  0
  -23.6202  -29.8283   20.1623 C   0  0  0  0  0  0
  -25.4108  -36.3110   24.0327 C   0  0  1  0  0  0
  -20.5889  -28.3644   23.1291 C   0  0  2  0  0  0
  -20.6802  -26.9403   22.5321 C   0  0  0  0  0  0
  -19.5684  -26.6335   21.5231 C   0  0  0  0  0  0
  -18.1922  -26.7869   22.1773 C   0  0  0  0  0  0
  -19.1553  -28.8823   23.2909 C   0  0  0  0  0  0
  -18.9508  -30.1448   23.8868 C   0  0  0  0  0  0
  -17.6518  -30.6590   24.0564 C   0  0  0  0  0  0
  -25.9036  -34.9476   23.5123 C   0  0  0  0  0  0
  -16.5397  -29.9099   23.6349 C   0  0  0  0  0  0
  -16.7284  -28.6493   23.0412 C   0  0  0  0  0  0
  -26.4470  -31.6598   25.0741 C   0  0  0  0  0  0
  -25.3736  -31.3700   26.1488 C   0  0  0  0  0  0
  -27.0309  -30.3039   24.6142 C   0  0  0  0  0  0
  -27.6038  -32.4325   25.7509 C   0  0  0  0  0  0
  -27.5572  -37.1819   24.8474 C   0  0  0  0  0  0
  -21.4161  -29.3036   22.3719 N   0  0  0  0  0  0
  -26.4297  -37.3789   23.9401 N   0  0  0  0  0  0
  -24.6750  -31.0732   22.1012 N   0  0  0  0  0  0
  -23.4189  -28.8132   23.2992 O   0  0  0  0  0  0
  -28.3842  -26.6178   20.1487 O   0  0  0  0  0  0
  -26.5608  -34.8937   22.4694 O   0  0  0  0  0  0
  -23.5355  -32.1410   23.7454 O   0  0  0  0  0  0
  -28.2488  -18.5713   21.6638 C   0  0  0  0  0  0
  -29.6330  -20.0288   19.7234 C   0  0  0  0  0  0
  -28.0393  -19.9721   21.5527 C   0  0  0  0  0  0
  -29.0918  -17.8682   20.7722 C   0  0  0  0  0  0
  -28.6873  -20.7161   20.5264 C   0  0  0  0  0  0
  -29.8276  -18.6295   19.8303 C   0  0  0  0  0  0
  -29.5351  -24.3437   20.2069 C   0  0  0  0  0  0
  -27.7209  -24.3864   21.1596 C   0  0  0  0  0  0
  -28.2673  -25.1790   19.9607 C   0  0  2  0  0  0
  -27.0485  -20.6256   22.5037 C   0  0  0  0  0  0
  -29.0283  -16.3224   20.7214 C   0  0  0  0  0  0
  -28.2354  -22.1473   20.1176 C   0  0  0  0  0  0
  -30.1722  -15.5508   21.2359 N   0  0  0  0  0  0
  -28.7221  -23.3279   20.9117 N   0  3  1  0  0  0
  -30.9062  -17.8579   18.7224 Cl  0  0  0  0  0  0
  -31.4550  -12.4318   19.1181 H   0  0  0  0  0  0
  -30.3164  -11.3414   19.8520 H   0  0  0  0  0  0
  -29.7379  -11.7689   17.4402 H   0  0  0  0  0  0
  -29.6347  -13.4865   17.7527 H   0  0  0  0  0  0
  -27.8453  -11.2889   18.8475 H   0  0  0  0  0  0
  -27.3555  -12.5869   17.7902 H   0  0  0  0  0  0
  -27.6614  -14.2334   19.5194 H   0  0  0  0  0  0
  -28.6915  -12.0290   21.3804 H   0  0  0  0  0  0
  -28.4513  -13.6884   21.8406 H   0  0  0  0  0  0
  -25.2746   -9.5679   22.4760 H   0  0  0  0  0  0
  -24.0008   -7.4614   22.7452 H   0  0  0  0  0  0
  -21.0834   -8.8750   19.8947 H   0  0  0  0  0  0
  -22.3681  -10.9656   19.6170 H   0  0  0  0  0  0
  -21.2006   -7.6142   23.9726 H   0  0  0  0  0  0
  -21.1471   -6.0514   25.9074 H   0  0  0  0  0  0
  -22.0604   -2.7601   23.2853 H   0  0  0  0  0  0
  -22.4103  -11.9874   22.4805 H   0  0  0  0  0  0
  -21.1091  -13.1214   22.2630 H   0  0  0  0  0  0
  -24.6436  -15.8320   20.4760 H   0  0  0  0  0  0
  -26.2557  -15.6211   20.0291 H   0  0  0  0  0  0
  -26.7121  -32.5512   23.1153 H   0  0  0  0  0  0
  -25.0032  -33.9767   25.0450 H   0  0  0  0  0  0
  -22.7001  -31.3079   21.4112 H   0  0  0  0  0  0
  -23.3739  -35.9648   23.3332 H   0  0  0  0  0  0
  -24.3564  -36.8910   22.2057 H   0  0  0  0  0  0
  -23.7247  -37.6526   23.6644 H   0  0  0  0  0  0
  -26.0656  -31.5882   20.6028 H   0  0  0  0  0  0
  -26.8261  -30.8673   21.9947 H   0  0  0  0  0  0
  -28.1053  -29.0620   21.1630 H   0  0  0  0  0  0
  -25.9785  -25.9567   19.0238 H   0  0  0  0  0  0
  -23.9642  -27.3068   19.0427 H   0  0  0  0  0  0
  -23.7353  -30.6055   19.4070 H   0  0  0  0  0  0
  -22.7416  -29.2548   19.8602 H   0  0  0  0  0  0
  -25.1285  -36.1981   25.0814 H   0  0  0  0  0  0
  -20.9999  -28.3170   24.1410 H   0  0  0  0  0  0
  -20.5861  -26.2249   23.3504 H   0  0  0  0  0  0
  -21.6652  -26.7515   22.1019 H   0  0  0  0  0  0
  -19.6818  -25.6226   21.1288 H   0  0  0  0  0  0
  -19.6517  -27.3097   20.6716 H   0  0  0  0  0  0
  -17.4095  -26.6572   21.4285 H   0  0  0  0  0  0
  -18.0421  -26.0059   22.9236 H   0  0  0  0  0  0
  -19.7995  -30.7286   24.2178 H   0  0  0  0  0  0
  -17.5131  -31.6298   24.5128 H   0  0  0  0  0  0
  -15.5404  -30.3023   23.7666 H   0  0  0  0  0  0
  -15.8704  -28.0765   22.7151 H   0  0  0  0  0  0
  -24.5890  -30.7064   25.7832 H   0  0  0  0  0  0
  -24.8947  -32.2856   26.4972 H   0  0  0  0  0  0
  -25.8096  -30.8850   27.0234 H   0  0  0  0  0  0
  -26.2871  -29.6809   24.1171 H   0  0  0  0  0  0
  -27.4046  -29.7269   25.4608 H   0  0  0  0  0  0
  -27.8708  -30.4349   23.9321 H   0  0  0  0  0  0
  -27.2626  -33.3609   26.2109 H   0  0  0  0  0  0
  -28.3833  -32.6922   25.0330 H   0  0  0  0  0  0
  -28.0716  -31.8449   26.5424 H   0  0  0  0  0  0
  -28.2616  -38.0092   24.7488 H   0  0  0  0  0  0
  -28.1047  -36.2627   24.6339 H   0  0  0  0  0  0
  -27.2290  -37.1516   25.8880 H   0  0  0  0  0  0
  -20.9297  -29.8816   21.7019 H   0  0  0  0  0  0
  -26.0193  -38.2872   24.1397 H   0  0  0  0  0  0
  -27.6847  -18.0118   22.3964 H   0  0  0  0  0  0
  -30.1519  -20.5590   18.9376 H   0  0  0  0  0  0
  -30.2421  -24.8343   20.8788 H   0  0  0  0  0  0
  -30.0368  -23.9932   19.3045 H   0  0  0  0  0  0
  -26.6760  -24.0869   21.0733 H   0  0  0  0  0  0
  -27.8989  -24.8896   22.1104 H   0  0  0  0  0  0
  -27.8276  -24.8940   19.0035 H   0  0  0  0  0  0
  -26.8185  -19.9677   23.3437 H   0  0  0  0  0  0
  -26.1085  -20.8487   21.9970 H   0  0  0  0  0  0
  -27.4513  -21.5482   22.9209 H   0  0  0  0  0  0
  -28.8623  -16.0630   19.6749 H   0  0  0  0  0  0
  -28.1373  -15.9954   21.2570 H   0  0  0  0  0  0
  -27.1464  -22.1306   20.1378 H   0  0  0  0  0  0
  -28.4735  -22.2965   19.0644 H   0  0  0  0  0  0
  -30.8781  -16.1647   21.6135 H   0  0  0  0  0  0
  -29.1600  -23.0221   21.7673 H   0  0  0  0  0  0
  1 25  1  0  0  0
  1 30  2  0  0  0
  1 83  1  0  0  0
  2  3  1  0  0  0
  2 25  1  0  0  0
  2 86  1  0  0  0
  2 87  1  0  0  0
  3  4  1  0  0  0
  3 88  1  0  0  0
  3 89  1  0  0  0
  4  5  1  0  0  0
  4 90  1  0  0  0
  4 91  1  0  0  0
  5  6  1  0  0  0
  5 26  1  0  0  0
  5 92  1  0  0  0
  6 25  1  0  0  0
  6 93  1  0  0  0
  6 94  1  0  0  0
  7  8  2  0  0  0
  7 26  1  0  0  0
  7 29  1  0  0  0
  8  9  1  0  0  0
  8 22  1  0  0  0
  9 10  1  0  0  0
  9 27  2  0  0  0
 10 11  2  0  0  0
 10 15  1  0  0  0
 11 12  1  0  0  0
 11 95  1  0  0  0
 12 13  2  0  0  0
 12 96  1  0  0  0
 13 14  1  0  0  0
 13 31  1  0  0  0
 14 15  2  0  0  0
 14 97  1  0  0  0
 15 98  1  0  0  0
 16 17  2  0  0  0
 16 21  1  0  0  0
 16 31  1  0  0  0
 17 18  1  0  0  0
 17 99  1  0  0  0
 18 19  2  0  0  0
 18100  1  0  0  0
 19 20  1  0  0  0
 19 24  1  0  0  0
 20 21  2  0  0  0
 20101  1  0  0  0
 21 23  1  0  0  0
 22 28  1  0  0  0
 22 32  2  0  0  0
 26 27  1  0  0  0
 28102  1  0  0  0
 28103  1  0  0  0
 29104  1  0  0  0
 29105  1  0  0  0
 33 34  1  0  0  0
 33 66  1  0  0  0
 33 70  2  0  0  0
 34 36  1  0  0  0
 34 59  1  0  0  0
 34106  1  0  0  0
 35 44  2  0  0  0
 35 45  1  0  0  0
 35 68  1  0  0  0
 36 56  1  0  0  0
 36107  1  0  0  0
 37 39  1  0  0  0
 37 47  1  0  0  0
 37 66  1  0  0  0
 37108  1  0  0  0
 38 43  2  0  0  0
 38 46  1  0  0  0
 38 47  1  0  0  0
 39 64  1  0  0  0
 39 67  2  0  0  0
 40 52  1  0  0  0
 40 53  2  0  0  0
 40 58  1  0  0  0
 41109  1  0  0  0
 41110  1  0  0  0
 41111  1  0  0  0
 41 48  1  0  0  0
 42 43  1  0  0  0
 42 66  1  0  0  0
 42112  1  0  0  0
 42113  1  0  0  0
 43 44  1  0  0  0
 44114  1  0  0  0
 45 46  2  0  0  0
 45115  1  0  0  0
 46116  1  0  0  0
 47117  1  0  0  0
 47118  1  0  0  0
 48 56  1  0  0  0
 48 65  1  0  0  0
 48119  1  0  0  0
 49 50  1  0  0  0
 49 53  1  0  0  0
 49 64  1  0  0  0
 49120  1  0  0  0
 50 51  1  0  0  0
 50121  1  0  0  0
 50122  1  0  0  0
 51 52  1  0  0  0
 51123  1  0  0  0
 51124  1  0  0  0
 52125  1  0  0  0
 52126  1  0  0  0
 53 54  1  0  0  0
 54 55  2  0  0  0
 54127  1  0  0  0
 55 57  1  0  0  0
 55128  1  0  0  0
 56 69  2  0  0  0
 57 58  2  0  0  0
 57129  1  0  0  0
 58130  1  0  0  0
 59 60  1  0  0  0
 59 61  1  0  0  0
 59 62  1  0  0  0
 60131  1  0  0  0
 60132  1  0  0  0
 60133  1  0  0  0
 61134  1  0  0  0
 61135  1  0  0  0
 61136  1  0  0  0
 62137  1  0  0  0
 62138  1  0  0  0
 62139  1  0  0  0
 63 65  1  0  0  0
 63140  1  0  0  0
 63141  1  0  0  0
 63142  1  0  0  0
 64143  1  0  0  0
 65144  1  0  0  0
 68 79  1  0  0  0
 71 73  2  0  0  0
 71 74  1  0  0  0
 71145  1  0  0  0
 72 75  2  0  0  0
 72 76  1  0  0  0
 72146  1  0  0  0
 73 75  1  0  0  0
 73 80  1  0  0  0
 74 76  2  0  0  0
 74 81  1  0  0  0
 75 82  1  0  0  0
 76 85  1  0  0  0
 77 79  1  0  0  0
 77 84  1  0  0  0
 77147  1  0  0  0
 77148  1  0  0  0
 78 79  1  0  0  0
 78 84  1  0  0  0
 78149  1  0  0  0
 78150  1  0  0  0
 79151  1  0  0  0
 80152  1  0  0  0
 80153  1  0  0  0
 80154  1  0  0  0
 81 83  1  0  0  0
 81155  1  0  0  0
 81156  1  0  0  0
 82157  1  0  0  0
 82158  1  0  0  0
 82 84  1  0  0  0
 83159  1  0  0  0
 84160  1  0  0  0
M  CHG  1  84   1
M  ISO  4   1 100  68 101  79 101  83 100
M  END
> <chiral flag>
0

> <version>
0

> <s_m_source_file>
/data/baiqing/PycharmProjects/Reinvent-master-3.2/result/LINK_invent/BTK/process_docking_weight1_custom_product_contain_oxygen_bond_distance_aromatic_linkinvent_7_9_3/rearranged_h_0031.sdf

> <i_m_source_file_index>
83

> <r_mmod_Potential_Energy-OPLS-2005>
-168.466888427734

> <r_mmod_Stretch_Energy-OPLS-2005>
49.445987701416

> <r_mmod_Bend_Energy-OPLS-2005>
137.316818237305

> <r_mmod_Torsional_Energy-OPLS-2005>
287.66748046875

> <r_mmod_Improper_Torsional_Energy-OPLS-2005>
8.270263671875

> <r_mmod_Van_der_Waal_Energy-OPLS-2005>
143.059204101562

> <r_mmod_Electrostatic_Energy-OPLS-2005>
-341.864837646484

> <r_mmod_Solvation_Energy-OPLS-2005>
-474.386474609375

> <b_mmod_Minimization_Converged-OPLS-2005>
0

> <r_mmod_RMS_Derivative-OPLS-2005>
2.8830132484436

$$$$
83
                    3D
 Structure written by MMmdl.
163172  0  0  1  0            999 V2000
  -30.6099  -14.7499   20.4713 C   0  0  0  0  0  0
  -30.4338  -12.4643   19.4603 C   0  0  0  0  0  0
  -29.5044  -12.5028   18.2277 C   0  0  0  0  0  0
  -28.0327  -12.3214   18.6489 C   0  0  0  0  0  0
  -27.6380  -13.2279   19.8450 C   0  0  2  0  0  0
  -28.6865  -13.1714   20.9762 C   0  0  0  0  0  0
  -25.2501  -13.8188   20.5701 C   0  0  0  0  0  0
  -24.1795  -13.0437   20.9217 C   0  0  0  0  0  0
  -24.6387  -11.6914   20.8762 C   0  0  0  0  0  0
  -23.9067  -10.4293   21.0416 C   0  0  0  0  0  0
  -24.3619   -9.4203   21.9189 C   0  0  0  0  0  0
  -23.6296   -8.2239   22.0753 C   0  0  0  0  0  0
  -22.4276   -8.0284   21.3546 C   0  0  0  0  0  0
  -21.9916   -9.0255   20.4644 C   0  0  0  0  0  0
  -22.7244  -10.2135   20.3058 C   0  0  0  0  0  0
  -21.6851   -6.0740   22.5281 C   0  0  0  0  0  0
  -21.4013   -6.5642   23.8214 C   0  0  0  0  0  0
  -21.3660   -5.6795   24.9176 C   0  0  0  0  0  0
  -21.6040   -4.3057   24.7227 C   0  0  0  0  0  0
  -21.8820   -3.8149   23.4346 C   0  0  0  0  0  0
  -21.9192   -4.6967   22.3401 C   0  0  0  0  0  0
  -22.7817  -13.5217   21.1878 C   0  0  0  0  0  0
  -22.1660   -4.2153   21.0981 F   0  0  0  0  0  0
  -21.5629   -3.4541   25.7739 F   0  0  0  0  0  0
  -29.9803  -13.5291   20.3824 N   0  0  0  0  0  0
  -26.2918  -12.9384   20.3273 N   0  0  0  0  0  0
  -25.9313  -11.6531   20.5756 N   0  0  0  0  0  0
  -22.0469  -12.8202   22.0433 N   0  0  0  0  0  0
  -25.4189  -15.1915   20.4116 N   0  0  0  0  0  0
  -31.8146  -14.8357   20.2156 O   0  0  0  0  0  0
  -21.6641   -6.8881   21.4241 O   0  0  0  0  0  0
  -22.3506  -14.5528   20.6729 O   0  0  0  0  0  0
  -24.6329  -31.8551   23.1999 C   0  0  0  0  0  0
  -25.9157  -32.4753   23.8337 C   0  0  1  0  0  0
  -27.2131  -27.2415   20.1399 C   0  0  0  0  0  0
  -25.5948  -33.8557   24.2257 N   0  0  0  0  0  0
  -23.4295  -30.4781   21.5454 C   0  0  2  0  0  0
  -24.8763  -28.9219   20.1177 C   0  0  0  0  0  0
  -22.7515  -29.4589   22.4936 C   0  0  0  0  0  0
  -18.0288  -28.1372   22.8473 C   0  0  0  0  0  0
  -24.1497  -36.7284   23.2641 C   0  0  0  0  0  0
  -25.9774  -30.7594   21.3863 C   0  0  0  0  0  0
  -26.0485  -29.3786   20.7331 C   0  0  0  0  0  0
  -27.2211  -28.5516   20.7333 C   0  0  0  0  0  0
  -26.0259  -26.8731   19.4716 C   0  0  0  0  0  0
  -24.8712  -27.6768   19.4745 C   0  0  0  0  0  0
  -23.6499  -29.8143   20.1612 C   0  0  0  0  0  0
  -25.4119  -36.3069   24.0326 C   0  0  1  0  0  0
  -20.5884  -28.3680   23.1266 C   0  0  2  0  0  0
  -20.6779  -26.9400   22.5398 C   0  0  0  0  0  0
  -19.5758  -26.6366   21.5201 C   0  0  0  0  0  0
  -18.1934  -26.7909   22.1608 C   0  0  0  0  0  0
  -19.1541  -28.8846   23.2856 C   0  0  0  0  0  0
  -18.9470  -30.1444   23.8869 C   0  0  0  0  0  0
  -17.6469  -30.6576   24.0553 C   0  0  0  0  0  0
  -25.9068  -34.9439   23.5095 C   0  0  0  0  0  0
  -16.5359  -29.9069   23.6337 C   0  0  0  0  0  0
  -16.7274  -28.6488   23.0345 C   0  0  0  0  0  0
  -26.4510  -31.6586   25.0733 C   0  0  0  0  0  0
  -25.3721  -31.3744   26.1451 C   0  0  0  0  0  0
  -27.0368  -30.3006   24.6239 C   0  0  0  0  0  0
  -27.6058  -32.4341   25.7502 C   0  0  0  0  0  0
  -27.5587  -37.1790   24.8458 C   0  0  0  0  0  0
  -21.4219  -29.3034   22.3675 N   0  0  0  0  0  0
  -26.4287  -37.3770   23.9417 N   0  0  0  0  0  0
  -24.6989  -31.0493   22.0997 N   0  0  0  0  0  0
  -23.4212  -28.8118   23.3029 O   0  0  0  0  0  0
  -28.3141  -26.3493   20.1197 O   0  0  0  0  0  0
  -26.5636  -34.8907   22.4664 O   0  0  0  0  0  0
  -23.5479  -32.1382   23.7288 O   0  0  0  0  0  0
  -31.1053  -17.5217   21.9073 C   0  0  0  0  0  0
  -29.5508  -18.4972   20.3248 C   0  0  0  0  0  0
  -31.4604  -18.8202   22.3303 C   0  0  0  0  0  0
  -29.9145  -19.8615   20.7030 C   0  0  0  0  0  0
  -30.9169  -19.9805   21.7091 C   0  0  0  0  0  0
  -30.1633  -17.2992   20.8858 C   0  0  0  0  0  0
  -27.0167  -24.0230   20.2439 C   0  0  0  0  0  0
  -27.3730  -22.5758   20.6989 C   0  0  0  0  0  0
  -29.3331  -23.8319   20.2795 C   0  0  0  0  0  0
  -28.2110  -24.9177   20.6229 C   0  0  1  0  0  0
  -32.4513  -18.9323   23.4799 C   0  0  0  0  0  0
  -31.4485  -21.3550   22.1129 C   0  0  0  0  0  0
  -29.3886  -21.1754   19.9380 C   0  0  0  0  0  0
  -29.8176  -15.8920   20.5549 N   0  0  0  0  0  0
  -28.8518  -22.4293   20.6741 N   0  3  2  0  0  0
  -31.4716  -12.6001   19.1522 H   0  0  0  0  0  0
  -30.3898  -11.4911   19.9513 H   0  0  0  0  0  0
  -29.7884  -11.7270   17.5152 H   0  0  0  0  0  0
  -29.6216  -13.4549   17.7078 H   0  0  0  0  0  0
  -27.8964  -11.2740   18.9199 H   0  0  0  0  0  0
  -27.3709  -12.5025   17.8013 H   0  0  0  0  0  0
  -27.6274  -14.2459   19.4556 H   0  0  0  0  0  0
  -28.7292  -12.1758   21.4201 H   0  0  0  0  0  0
  -28.4228  -13.8574   21.7832 H   0  0  0  0  0  0
  -25.2763   -9.5680   22.4768 H   0  0  0  0  0  0
  -24.0003   -7.4629   22.7471 H   0  0  0  0  0  0
  -21.0851   -8.8776   19.8948 H   0  0  0  0  0  0
  -22.3704  -10.9676   19.6172 H   0  0  0  0  0  0
  -21.2006   -7.6152   23.9719 H   0  0  0  0  0  0
  -21.1480   -6.0526   25.9080 H   0  0  0  0  0  0
  -22.0597   -2.7614   23.2847 H   0  0  0  0  0  0
  -22.4088  -11.9855   22.4800 H   0  0  0  0  0  0
  -21.1084  -13.1214   22.2648 H   0  0  0  0  0  0
  -24.6501  -15.8427   20.5259 H   0  0  0  0  0  0
  -26.2628  -15.6351   20.0748 H   0  0  0  0  0  0
  -26.7228  -32.5394   23.1078 H   0  0  0  0  0  0
  -25.0060  -33.9678   25.0383 H   0  0  0  0  0  0
  -22.7262  -31.3008   21.4009 H   0  0  0  0  0  0
  -23.3758  -35.9619   23.3285 H   0  0  0  0  0  0
  -24.3585  -36.8922   22.2060 H   0  0  0  0  0  0
  -23.7252  -37.6476   23.6677 H   0  0  0  0  0  0
  -26.1175  -31.5188   20.6157 H   0  0  0  0  0  0
  -26.8546  -30.8089   22.0197 H   0  0  0  0  0  0
  -28.1213  -28.9005   21.2185 H   0  0  0  0  0  0
  -25.9709  -25.9502   18.9191 H   0  0  0  0  0  0
  -23.9818  -27.3306   18.9658 H   0  0  0  0  0  0
  -23.7826  -30.5932   19.4095 H   0  0  0  0  0  0
  -22.7663  -29.2532   19.8524 H   0  0  0  0  0  0
  -25.1302  -36.1917   25.0817 H   0  0  0  0  0  0
  -20.9957  -28.3252   24.1391 H   0  0  0  0  0  0
  -20.5685  -26.2286   23.3597 H   0  0  0  0  0  0
  -21.6648  -26.7425   22.1193 H   0  0  0  0  0  0
  -19.6931  -25.6275   21.1233 H   0  0  0  0  0  0
  -19.6704  -27.3175   20.6730 H   0  0  0  0  0  0
  -17.4206  -26.6645   21.4009 H   0  0  0  0  0  0
  -18.0334  -26.0054   22.9005 H   0  0  0  0  0  0
  -19.7955  -30.7256   24.2223 H   0  0  0  0  0  0
  -17.5034  -31.6258   24.5150 H   0  0  0  0  0  0
  -15.5360  -30.2965   23.7680 H   0  0  0  0  0  0
  -15.8668  -28.0812   22.7059 H   0  0  0  0  0  0
  -24.5888  -30.7104   25.7772 H   0  0  0  0  0  0
  -24.8915  -32.2917   26.4862 H   0  0  0  0  0  0
  -25.8022  -30.8923   27.0239 H   0  0  0  0  0  0
  -26.2961  -29.6736   24.1267 H   0  0  0  0  0  0
  -27.4042  -29.7291   25.4767 H   0  0  0  0  0  0
  -27.8841  -30.4259   23.9496 H   0  0  0  0  0  0
  -27.2668  -33.3662   26.2033 H   0  0  0  0  0  0
  -28.3885  -32.6871   25.0334 H   0  0  0  0  0  0
  -28.0710  -31.8500   26.5448 H   0  0  0  0  0  0
  -28.2569  -38.0121   24.7543 H   0  0  0  0  0  0
  -28.1113  -36.2652   24.6233 H   0  0  0  0  0  0
  -27.2302  -37.1368   25.8855 H   0  0  0  0  0  0
  -20.9410  -29.8777   21.6897 H   0  0  0  0  0  0
  -26.0167  -38.2834   24.1445 H   0  0  0  0  0  0
  -31.5584  -16.6720   22.3987 H   0  0  0  0  0  0
  -28.8114  -18.3705   19.5469 H   0  0  0  0  0  0
  -26.0799  -24.3583   20.6872 H   0  0  0  0  0  0
  -26.8949  -24.0134   19.1603 H   0  0  0  0  0  0
  -26.8612  -21.8377   20.0800 H   0  0  0  0  0  0
  -27.0417  -22.4114   21.7246 H   0  0  0  0  0  0
  -30.2775  -24.0721   20.7675 H   0  0  0  0  0  0
  -29.5178  -23.8497   19.2049 H   0  0  0  0  0  0
  -28.1916  -25.0185   21.7094 H   0  0  0  0  0  0
  -32.6218  -17.9677   23.9590 H   0  0  0  0  0  0
  -32.0760  -19.6100   24.2478 H   0  0  0  0  0  0
  -33.4149  -19.3000   23.1278 H   0  0  0  0  0  0
  -31.5323  -22.0258   21.2592 H   0  0  0  0  0  0
  -32.4545  -21.3128   22.5276 H   0  0  0  0  0  0
  -30.8050  -21.8118   22.8640 H   0  0  0  0  0  0
  -28.6581  -20.8604   19.1932 H   0  0  0  0  0  0
  -30.2354  -21.5080   19.3364 H   0  0  0  0  0  0
  -28.8329  -15.7142   20.4347 H   0  0  0  0  0  0
  -29.1169  -22.3003   21.6393 H   0  0  0  0  0  0
  1 25  1  0  0  0
  1 30  2  0  0  0
  1 84  1  0  0  0
  2  3  1  0  0  0
  2 25  1  0  0  0
  2 86  1  0  0  0
  2 87  1  0  0  0
  3  4  1  0  0  0
  3 88  1  0  0  0
  3 89  1  0  0  0
  4  5  1  0  0  0
  4 90  1  0  0  0
  4 91  1  0  0  0
  5  6  1  0  0  0
  5 26  1  0  0  0
  5 92  1  0  0  0
  6 25  1  0  0  0
  6 93  1  0  0  0
  6 94  1  0  0  0
  7  8  2  0  0  0
  7 26  1  0  0  0
  7 29  1  0  0  0
  8  9  1  0  0  0
  8 22  1  0  0  0
  9 10  1  0  0  0
  9 27  2  0  0  0
 10 11  2  0  0  0
 10 15  1  0  0  0
 11 12  1  0  0  0
 11 95  1  0  0  0
 12 13  2  0  0  0
 12 96  1  0  0  0
 13 14  1  0  0  0
 13 31  1  0  0  0
 14 15  2  0  0  0
 14 97  1  0  0  0
 15 98  1  0  0  0
 16 17  2  0  0  0
 16 21  1  0  0  0
 16 31  1  0  0  0
 17 18  1  0  0  0
 17 99  1  0  0  0
 18 19  2  0  0  0
 18100  1  0  0  0
 19 20  1  0  0  0
 19 24  1  0  0  0
 20 21  2  0  0  0
 20101  1  0  0  0
 21 23  1  0  0  0
 22 28  1  0  0  0
 22 32  2  0  0  0
 26 27  1  0  0  0
 28102  1  0  0  0
 28103  1  0  0  0
 29104  1  0  0  0
 29105  1  0  0  0
 33 34  1  0  0  0
 33 66  1  0  0  0
 33 70  2  0  0  0
 34 36  1  0  0  0
 34 59  1  0  0  0
 34106  1  0  0  0
 35 44  2  0  0  0
 35 45  1  0  0  0
 35 68  1  0  0  0
 36 56  1  0  0  0
 36107  1  0  0  0
 37 39  1  0  0  0
 37 47  1  0  0  0
 37 66  1  0  0  0
 37108  1  0  0  0
 38 43  2  0  0  0
 38 46  1  0  0  0
 38 47  1  0  0  0
 39 64  1  0  0  0
 39 67  2  0  0  0
 40 52  1  0  0  0
 40 53  2  0  0  0
 40 58  1  0  0  0
 41109  1  0  0  0
 41110  1  0  0  0
 41111  1  0  0  0
 41 48  1  0  0  0
 42 43  1  0  0  0
 42 66  1  0  0  0
 42112  1  0  0  0
 42113  1  0  0  0
 43 44  1  0  0  0
 44114  1  0  0  0
 45 46  2  0  0  0
 45115  1  0  0  0
 46116  1  0  0  0
 47117  1  0  0  0
 47118  1  0  0  0
 48 56  1  0  0  0
 48 65  1  0  0  0
 48119  1  0  0  0
 49 50  1  0  0  0
 49 53  1  0  0  0
 49 64  1  0  0  0
 49120  1  0  0  0
 50 51  1  0  0  0
 50121  1  0  0  0
 50122  1  0  0  0
 51 52  1  0  0  0
 51123  1  0  0  0
 51124  1  0  0  0
 52125  1  0  0  0
 52126  1  0  0  0
 53 54  1  0  0  0
 54 55  2  0  0  0
 54127  1  0  0  0
 55 57  1  0  0  0
 55128  1  0  0  0
 56 69  2  0  0  0
 57 58  2  0  0  0
 57129  1  0  0  0
 58130  1  0  0  0
 59 60  1  0  0  0
 59 61  1  0  0  0
 59 62  1  0  0  0
 60131  1  0  0  0
 60132  1  0  0  0
 60133  1  0  0  0
 61134  1  0  0  0
 61135  1  0  0  0
 61136  1  0  0  0
 62137  1  0  0  0
 62138  1  0  0  0
 62139  1  0  0  0
 63 65  1  0  0  0
 63140  1  0  0  0
 63141  1  0  0  0
 63142  1  0  0  0
 64143  1  0  0  0
 65144  1  0  0  0
 68 80  1  0  0  0
 71 73  2  0  0  0
 71 76  1  0  0  0
 71145  1  0  0  0
 72 74  1  0  0  0
 72 76  2  0  0  0
 72146  1  0  0  0
 73 75  1  0  0  0
 73 81  1  0  0  0
 74 75  2  0  0  0
 74 83  1  0  0  0
 75 82  1  0  0  0
 76 84  1  0  0  0
 77 78  1  0  0  0
 77 80  1  0  0  0
 77147  1  0  0  0
 77148  1  0  0  0
 78 85  1  0  0  0
 78149  1  0  0  0
 78150  1  0  0  0
 79 80  1  0  0  0
 79 85  1  0  0  0
 79151  1  0  0  0
 79152  1  0  0  0
 80153  1  0  0  0
 81154  1  0  0  0
 81155  1  0  0  0
 81156  1  0  0  0
 82157  1  0  0  0
 82158  1  0  0  0
 82159  1  0  0  0
 83160  1  0  0  0
 83161  1  0  0  0
 83 85  1  0  0  0
 84162  1  0  0  0
 85163  1  0  0  0
M  CHG  1  85   1
M  ISO  4   1 100  68 101  80 101  84 100
M  END
> <chiral flag>
0

> <version>
0

> <s_m_source_file>
/data/baiqing/PycharmProjects/Reinvent-master-3.2/result/LINK_invent/BTK/process_docking_weight1_custom_product_contain_oxygen_bond_distance_aromatic_linkinvent_7_9_3/rearranged_h_0031.sdf

> <i_m_source_file_index>
84

> <r_mmod_Potential_Energy-OPLS-2005>
150.719299316406

> <r_mmod_Stretch_Energy-OPLS-2005>
129.623931884766

> <r_mmod_Bend_Energy-OPLS-2005>
206.222518920898

> <r_mmod_Torsional_Energy-OPLS-2005>
298.269348144531

> <r_mmod_Improper_Torsional_Energy-OPLS-2005>
7.97713422775269

> <r_mmod_Van_der_Waal_Energy-OPLS-2005>
141.513092041016

> <r_mmod_Electrostatic_Energy-OPLS-2005>
-282.874664306641

> <r_mmod_Solvation_Energy-OPLS-2005>
-440.851165771484

> <b_mmod_Minimization_Converged-OPLS-2005>
0

> <r_mmod_RMS_Derivative-OPLS-2005>
1.35589647293091

$$$$
84
                    3D
 Structure written by MMmdl.
157166  0  0  1  0            999 V2000
  -30.5435  -14.9514   20.3946 C   0  0  0  0  0  0
  -30.4431  -12.5864   19.4991 C   0  0  0  0  0  0
  -29.5235  -12.5121   18.2574 C   0  0  0  0  0  0
  -28.0574  -12.3083   18.6795 C   0  0  0  0  0  0
  -27.6319  -13.2480   19.8367 C   0  0  2  0  0  0
  -28.6741  -13.2824   20.9752 C   0  0  0  0  0  0
  -25.2466  -13.8209   20.5676 C   0  0  0  0  0  0
  -24.1782  -13.0426   20.9220 C   0  0  0  0  0  0
  -24.6394  -11.6915   20.8744 C   0  0  0  0  0  0
  -23.9081  -10.4275   21.0394 C   0  0  0  0  0  0
  -24.3617   -9.4185   21.9168 C   0  0  0  0  0  0
  -23.6274   -8.2232   22.0741 C   0  0  0  0  0  0
  -22.4255   -8.0279   21.3541 C   0  0  0  0  0  0
  -21.9906   -9.0265   20.4655 C   0  0  0  0  0  0
  -22.7254  -10.2128   20.3051 C   0  0  0  0  0  0
  -21.6856   -6.0724   22.5268 C   0  0  0  0  0  0
  -21.4031   -6.5628   23.8207 C   0  0  0  0  0  0
  -21.3655   -5.6775   24.9164 C   0  0  0  0  0  0
  -21.6035   -4.3037   24.7218 C   0  0  0  0  0  0
  -21.8816   -3.8132   23.4335 C   0  0  0  0  0  0
  -21.9197   -4.6946   22.3396 C   0  0  0  0  0  0
  -22.7798  -13.5192   21.1870 C   0  0  0  0  0  0
  -22.1651   -4.2129   21.0969 F   0  0  0  0  0  0
  -21.5626   -3.4520   25.7729 F   0  0  0  0  0  0
  -29.9491  -13.6895   20.3747 N   0  0  0  0  0  0
  -26.2892  -12.9440   20.3227 N   0  0  0  0  0  0
  -25.9329  -11.6573   20.5737 N   0  0  0  0  0  0
  -22.0439  -12.8200   22.0419 N   0  0  0  0  0  0
  -25.4139  -15.1925   20.4022 N   0  0  0  0  0  0
  -31.7578  -14.9883   20.1682 O   0  0  0  0  0  0
  -21.6617   -6.8872   21.4241 O   0  0  0  0  0  0
  -22.3476  -14.5485   20.6683 O   0  0  0  0  0  0
  -24.6409  -31.8467   23.1884 C   0  0  0  0  0  0
  -25.9198  -32.4700   23.8276 C   0  0  1  0  0  0
  -27.2185  -27.1458   20.1661 C   0  0  0  0  0  0
  -25.5962  -33.8500   24.2217 N   0  0  0  0  0  0
  -23.4439  -30.4659   21.5306 C   0  0  2  0  0  0
  -24.8946  -28.8847   20.1171 C   0  0  0  0  0  0
  -22.7546  -29.4580   22.4836 C   0  0  0  0  0  0
  -18.0309  -28.1396   22.8466 C   0  0  0  0  0  0
  -24.1495  -36.7246   23.2639 C   0  0  0  0  0  0
  -25.9976  -30.7241   21.3849 C   0  0  0  0  0  0
  -26.0700  -29.3329   20.7333 C   0  0  0  0  0  0
  -27.2350  -28.4794   20.7392 C   0  0  0  0  0  0
  -26.0230  -26.7969   19.5044 C   0  0  0  0  0  0
  -24.8821  -27.6290   19.4882 C   0  0  0  0  0  0
  -23.6724  -29.7892   20.1523 C   0  0  0  0  0  0
  -25.4125  -36.3033   24.0325 C   0  0  1  0  0  0
  -20.5916  -28.3733   23.1220 C   0  0  2  0  0  0
  -20.6789  -26.9435   22.5397 C   0  0  0  0  0  0
  -19.5775  -26.6386   21.5190 C   0  0  0  0  0  0
  -18.1953  -26.7935   22.1602 C   0  0  0  0  0  0
  -19.1559  -28.8876   23.2841 C   0  0  0  0  0  0
  -18.9484  -30.1461   23.8885 C   0  0  0  0  0  0
  -17.6482  -30.6591   24.0553 C   0  0  0  0  0  0
  -25.9070  -34.9407   23.5073 C   0  0  0  0  0  0
  -16.5373  -29.9085   23.6329 C   0  0  0  0  0  0
  -16.7293  -28.6497   23.0359 C   0  0  0  0  0  0
  -26.4541  -31.6552   25.0703 C   0  0  0  0  0  0
  -25.3744  -31.3734   26.1412 C   0  0  0  0  0  0
  -27.0377  -30.2944   24.6268 C   0  0  0  0  0  0
  -27.6105  -32.4286   25.7467 C   0  0  0  0  0  0
  -27.5588  -37.1778   24.8467 C   0  0  0  0  0  0
  -21.4241  -29.3067   22.3591 N   0  0  0  0  0  0
  -26.4290  -37.3751   23.9417 N   0  0  0  0  0  0
  -24.7132  -31.0341   22.0900 N   0  0  0  0  0  0
  -23.4201  -28.8141   23.2991 O   0  0  0  0  0  0
  -28.2827  -26.1779   20.1874 O   0  0  0  0  0  0
  -26.5639  -34.8903   22.4645 O   0  0  0  0  0  0
  -23.5533  -32.1333   23.7123 O   0  0  0  0  0  0
  -29.3602  -18.8633   20.5111 C   0  0  0  0  0  0
  -30.7845  -19.0931   18.1892 C   0  0  0  0  0  0
  -29.4854  -20.2494   19.9498 C   0  0  0  0  0  0
  -30.2920  -20.2770   18.7795 C   0  0  0  0  0  0
  -30.5680  -17.7956   18.6993 C   0  0  0  0  0  0
  -29.9233  -17.5909   19.9530 C   0  0  0  0  0  0
  -27.6562  -22.2164   19.7105 C   0  0  0  0  0  0
  -28.8097  -21.6701   20.5040 C   0  0  2  0  0  0
  -28.6892  -23.2891   19.9922 C   0  0  2  0  0  0
  -30.6423  -21.5731   18.0692 C   0  0  0  0  0  0
  -30.9885  -16.6598   17.7770 C   0  0  0  0  0  0
  -28.0519  -24.7007   20.6193 C   0  0  0  0  0  0
  -29.7648  -16.1482   20.4923 N   0  0  0  0  0  0
  -31.4755  -12.7464   19.1822 H   0  0  0  0  0  0
  -30.4435  -11.6369   20.0370 H   0  0  0  0  0  0
  -29.8385  -11.7006   17.5997 H   0  0  0  0  0  0
  -29.6158  -13.4297   17.6746 H   0  0  0  0  0  0
  -27.9491  -11.2704   18.9952 H   0  0  0  0  0  0
  -27.3948  -12.4360   17.8232 H   0  0  0  0  0  0
  -27.5985  -14.2469   19.4002 H   0  0  0  0  0  0
  -28.7629  -12.3086   21.4599 H   0  0  0  0  0  0
  -28.3755  -13.9910   21.7509 H   0  0  0  0  0  0
  -25.2757   -9.5652   22.4752 H   0  0  0  0  0  0
  -23.9971   -7.4610   22.7454 H   0  0  0  0  0  0
  -21.0837   -8.8813   19.8959 H   0  0  0  0  0  0
  -22.3722  -10.9671   19.6161 H   0  0  0  0  0  0
  -21.2044   -7.6139   23.9707 H   0  0  0  0  0  0
  -21.1474   -6.0500   25.9066 H   0  0  0  0  0  0
  -22.0608   -2.7593   23.2829 H   0  0  0  0  0  0
  -22.4040  -11.9872   22.4858 H   0  0  0  0  0  0
  -21.1073  -13.1255   22.2630 H   0  0  0  0  0  0
  -24.6401  -15.8424   20.4914 H   0  0  0  0  0  0
  -26.2427  -15.6176   20.0052 H   0  0  0  0  0  0
  -26.7254  -32.5331   23.0992 H   0  0  0  0  0  0
  -25.0136  -33.9619   25.0385 H   0  0  0  0  0  0
  -22.7447  -31.2901   21.3723 H   0  0  0  0  0  0
  -23.3771  -35.9561   23.3279 H   0  0  0  0  0  0
  -24.3591  -36.8897   22.2059 H   0  0  0  0  0  0
  -23.7228  -37.6432   23.6677 H   0  0  0  0  0  0
  -26.1509  -31.4776   20.6113 H   0  0  0  0  0  0
  -26.8684  -30.7795   22.0261 H   0  0  0  0  0  0
  -28.1314  -28.8186   21.2378 H   0  0  0  0  0  0
  -25.9619  -25.8396   19.0043 H   0  0  0  0  0  0
  -23.9846  -27.2842   18.9922 H   0  0  0  0  0  0
  -23.8121  -30.5588   19.3914 H   0  0  0  0  0  0
  -22.7890  -29.2274   19.8424 H   0  0  0  0  0  0
  -25.1310  -36.1866   25.0815 H   0  0  0  0  0  0
  -21.0015  -28.3331   24.1335 H   0  0  0  0  0  0
  -20.5646  -26.2360   23.3624 H   0  0  0  0  0  0
  -21.6669  -26.7418   22.1236 H   0  0  0  0  0  0
  -19.6941  -25.6283   21.1257 H   0  0  0  0  0  0
  -19.6724  -27.3158   20.6689 H   0  0  0  0  0  0
  -17.4233  -26.6671   21.3997 H   0  0  0  0  0  0
  -18.0358  -26.0078   22.9000 H   0  0  0  0  0  0
  -19.7961  -30.7259   24.2272 H   0  0  0  0  0  0
  -17.5049  -31.6273   24.5148 H   0  0  0  0  0  0
  -15.5377  -30.2986   23.7656 H   0  0  0  0  0  0
  -15.8694  -28.0798   22.7100 H   0  0  0  0  0  0
  -24.5926  -30.7079   25.7733 H   0  0  0  0  0  0
  -24.8922  -32.2902   26.4803 H   0  0  0  0  0  0
  -25.8044  -30.8932   27.0211 H   0  0  0  0  0  0
  -26.2966  -29.6670   24.1300 H   0  0  0  0  0  0
  -27.4009  -29.7249   25.4834 H   0  0  0  0  0  0
  -27.8879  -30.4157   23.9552 H   0  0  0  0  0  0
  -27.2749  -33.3609   26.2013 H   0  0  0  0  0  0
  -28.3928  -32.6803   25.0292 H   0  0  0  0  0  0
  -28.0763  -31.8425   26.5402 H   0  0  0  0  0  0
  -28.2598  -38.0086   24.7522 H   0  0  0  0  0  0
  -28.1093  -36.2614   24.6268 H   0  0  0  0  0  0
  -27.2315  -37.1401   25.8876 H   0  0  0  0  0  0
  -20.9443  -29.8775   21.6767 H   0  0  0  0  0  0
  -26.0160  -38.2823   24.1423 H   0  0  0  0  0  0
  -28.7827  -18.7796   21.4201 H   0  0  0  0  0  0
  -31.3327  -19.1822   17.2597 H   0  0  0  0  0  0
  -26.7082  -22.2598   20.2415 H   0  0  0  0  0  0
  -27.5628  -21.9192   18.6678 H   0  0  0  0  0  0
  -28.6483  -21.5389   21.5724 H   0  0  0  0  0  0
  -29.3743  -23.5534   19.1956 H   0  0  0  0  0  0
  -31.3468  -21.4165   17.2509 H   0  0  0  0  0  0
  -31.1175  -22.2723   18.7559 H   0  0  0  0  0  0
  -29.7543  -22.0248   17.6295 H   0  0  0  0  0  0
  -30.9602  -16.9769   16.7345 H   0  0  0  0  0  0
  -30.3106  -15.8099   17.8393 H   0  0  0  0  0  0
  -32.0063  -16.3382   17.9920 H   0  0  0  0  0  0
  -28.3489  -24.6990   21.6681 H   0  0  0  0  0  0
  -26.9736  -24.5539   20.6801 H   0  0  0  0  0  0
  -28.8588  -15.9715   20.8998 H   0  0  0  0  0  0
  1 25  1  0  0  0
  1 30  2  0  0  0
  1 83  1  0  0  0
  2  3  1  0  0  0
  2 25  1  0  0  0
  2 84  1  0  0  0
  2 85  1  0  0  0
  3  4  1  0  0  0
  3 86  1  0  0  0
  3 87  1  0  0  0
  4  5  1  0  0  0
  4 88  1  0  0  0
  4 89  1  0  0  0
  5  6  1  0  0  0
  5 26  1  0  0  0
  5 90  1  0  0  0
  6 25  1  0  0  0
  6 91  1  0  0  0
  6 92  1  0  0  0
  7  8  2  0  0  0
  7 26  1  0  0  0
  7 29  1  0  0  0
  8  9  1  0  0  0
  8 22  1  0  0  0
  9 10  1  0  0  0
  9 27  2  0  0  0
 10 11  2  0  0  0
 10 15  1  0  0  0
 11 12  1  0  0  0
 11 93  1  0  0  0
 12 13  2  0  0  0
 12 94  1  0  0  0
 13 14  1  0  0  0
 13 31  1  0  0  0
 14 15  2  0  0  0
 14 95  1  0  0  0
 15 96  1  0  0  0
 16 17  2  0  0  0
 16 21  1  0  0  0
 16 31  1  0  0  0
 17 18  1  0  0  0
 17 97  1  0  0  0
 18 19  2  0  0  0
 18 98  1  0  0  0
 19 20  1  0  0  0
 19 24  1  0  0  0
 20 21  2  0  0  0
 20 99  1  0  0  0
 21 23  1  0  0  0
 22 28  1  0  0  0
 22 32  2  0  0  0
 26 27  1  0  0  0
 28100  1  0  0  0
 28101  1  0  0  0
 29102  1  0  0  0
 29103  1  0  0  0
 33 34  1  0  0  0
 33 66  1  0  0  0
 33 70  2  0  0  0
 34 36  1  0  0  0
 34 59  1  0  0  0
 34104  1  0  0  0
 35 44  2  0  0  0
 35 45  1  0  0  0
 35 68  1  0  0  0
 36 56  1  0  0  0
 36105  1  0  0  0
 37 39  1  0  0  0
 37 47  1  0  0  0
 37 66  1  0  0  0
 37106  1  0  0  0
 38 43  2  0  0  0
 38 46  1  0  0  0
 38 47  1  0  0  0
 39 64  1  0  0  0
 39 67  2  0  0  0
 40 52  1  0  0  0
 40 53  2  0  0  0
 40 58  1  0  0  0
 41107  1  0  0  0
 41108  1  0  0  0
 41109  1  0  0  0
 41 48  1  0  0  0
 42 43  1  0  0  0
 42 66  1  0  0  0
 42110  1  0  0  0
 42111  1  0  0  0
 43 44  1  0  0  0
 44112  1  0  0  0
 45 46  2  0  0  0
 45113  1  0  0  0
 46114  1  0  0  0
 47115  1  0  0  0
 47116  1  0  0  0
 48 56  1  0  0  0
 48 65  1  0  0  0
 48117  1  0  0  0
 49 50  1  0  0  0
 49 53  1  0  0  0
 49 64  1  0  0  0
 49118  1  0  0  0
 50 51  1  0  0  0
 50119  1  0  0  0
 50120  1  0  0  0
 51 52  1  0  0  0
 51121  1  0  0  0
 51122  1  0  0  0
 52123  1  0  0  0
 52124  1  0  0  0
 53 54  1  0  0  0
 54 55  2  0  0  0
 54125  1  0  0  0
 55 57  1  0  0  0
 55126  1  0  0  0
 56 69  2  0  0  0
 57 58  2  0  0  0
 57127  1  0  0  0
 58128  1  0  0  0
 59 60  1  0  0  0
 59 61  1  0  0  0
 59 62  1  0  0  0
 60129  1  0  0  0
 60130  1  0  0  0
 60131  1  0  0  0
 61132  1  0  0  0
 61133  1  0  0  0
 61134  1  0  0  0
 62135  1  0  0  0
 62136  1  0  0  0
 62137  1  0  0  0
 63 65  1  0  0  0
 63138  1  0  0  0
 63139  1  0  0  0
 63140  1  0  0  0
 64141  1  0  0  0
 65142  1  0  0  0
 68 82  1  0  0  0
 71 73  2  0  0  0
 71 76  1  0  0  0
 71143  1  0  0  0
 72 74  2  0  0  0
 72 75  1  0  0  0
 72144  1  0  0  0
 73 74  1  0  0  0
 73 78  1  0  0  0
 74 80  1  0  0  0
 75 76  2  0  0  0
 75 81  1  0  0  0
 76 83  1  0  0  0
 77 78  1  0  0  0
 77 79  1  0  0  0
 77145  1  0  0  0
 77146  1  0  0  0
 78 79  1  0  0  0
 78147  1  0  0  0
 79 82  1  0  0  0
 79148  1  0  0  0
 80149  1  0  0  0
 80150  1  0  0  0
 80151  1  0  0  0
 81152  1  0  0  0
 81153  1  0  0  0
 81154  1  0  0  0
 82155  1  0  0  0
 82156  1  0  0  0
 83157  1  0  0  0
M  ISO  4   1 100  68 101  82 101  83 100
M  END
> <chiral flag>
0

> <version>
0

> <s_m_source_file>
/data/baiqing/PycharmProjects/Reinvent-master-3.2/result/LINK_invent/BTK/process_docking_weight1_custom_product_contain_oxygen_bond_distance_aromatic_linkinvent_7_9_3/rearranged_h_0031.sdf

> <i_m_source_file_index>
85

> <r_mmod_Potential_Energy-OPLS-2005>
568.716674804688

> <r_mmod_Stretch_Energy-OPLS-2005>
288.876861572266

> <r_mmod_Bend_Energy-OPLS-2005>
256.538543701172

> <r_mmod_Torsional_Energy-OPLS-2005>
287.834716796875

> <r_mmod_Improper_Torsional_Energy-OPLS-2005>
4.73352432250977

> <r_mmod_Van_der_Waal_Energy-OPLS-2005>
141.492370605469

> <r_mmod_Electrostatic_Energy-OPLS-2005>
-393.805480957031

> <r_mmod_Solvation_Energy-OPLS-2005>
-203.981048583984

> <b_mmod_Minimization_Converged-OPLS-2005>
0

> <r_mmod_RMS_Derivative-OPLS-2005>
2.60364031791687

$$$$
85
                    3D
 Structure written by MMmdl.
167176  0  0  1  0            999 V2000
  -30.5093  -15.0475   20.4125 C   0  0  0  0  0  0
  -30.4250  -12.6594   19.5063 C   0  0  0  0  0  0
  -29.5210  -12.5512   18.2574 C   0  0  0  0  0  0
  -28.0579  -12.3102   18.6739 C   0  0  0  0  0  0
  -27.6132  -13.2557   19.8212 C   0  0  2  0  0  0
  -28.6475  -13.3427   20.9615 C   0  0  0  0  0  0
  -25.2408  -13.8204   20.5691 C   0  0  0  0  0  0
  -24.1740  -13.0427   20.9240 C   0  0  0  0  0  0
  -24.6361  -11.6915   20.8737 C   0  0  0  0  0  0
  -23.9056  -10.4284   21.0385 C   0  0  0  0  0  0
  -24.3617   -9.4213   21.9161 C   0  0  0  0  0  0
  -23.6319   -8.2237   22.0726 C   0  0  0  0  0  0
  -22.4294   -8.0264   21.3532 C   0  0  0  0  0  0
  -21.9927   -9.0225   20.4625 C   0  0  0  0  0  0
  -22.7233  -10.2115   20.3040 C   0  0  0  0  0  0
  -21.6855   -6.0741   22.5291 C   0  0  0  0  0  0
  -21.4013   -6.5649   23.8223 C   0  0  0  0  0  0
  -21.3646   -5.6797   24.9181 C   0  0  0  0  0  0
  -21.6042   -4.3064   24.7231 C   0  0  0  0  0  0
  -21.8810   -3.8155   23.4353 C   0  0  0  0  0  0
  -21.9192   -4.6970   22.3413 C   0  0  0  0  0  0
  -22.7769  -13.5213   21.1898 C   0  0  0  0  0  0
  -22.1661   -4.2158   21.0991 F   0  0  0  0  0  0
  -21.5627   -3.4540   25.7742 F   0  0  0  0  0  0
  -29.9076  -13.7813   20.3529 N   0  0  0  0  0  0
  -26.2792  -12.9444   20.3148 N   0  0  0  0  0  0
  -25.9285  -11.6571   20.5671 N   0  0  0  0  0  0
  -22.0421  -12.8187   22.0449 N   0  0  0  0  0  0
  -25.4111  -15.1930   20.4101 N   0  0  0  0  0  0
  -31.7246  -15.0438   20.1820 O   0  0  0  0  0  0
  -21.6640   -6.8874   21.4252 O   0  0  0  0  0  0
  -22.3464  -14.5518   20.6729 O   0  0  0  0  0  0
  -24.6491  -31.8395   23.1828 C   0  0  0  0  0  0
  -25.9268  -32.4665   23.8200 C   0  0  1  0  0  0
  -27.1910  -27.0775   20.1778 C   0  0  0  0  0  0
  -25.6021  -33.8469   24.2132 N   0  0  0  0  0  0
  -23.4524  -30.4602   21.5246 C   0  0  2  0  0  0
  -24.8983  -28.8786   20.0973 C   0  0  0  0  0  0
  -22.7582  -29.4544   22.4786 C   0  0  0  0  0  0
  -18.0319  -28.1424   22.8461 C   0  0  0  0  0  0
  -24.1493  -36.7219   23.2637 C   0  0  0  0  0  0
  -26.0086  -30.6926   21.3917 C   0  0  0  0  0  0
  -26.0697  -29.2990   20.7374 C   0  0  0  0  0  0
  -27.2137  -28.4107   20.7666 C   0  0  0  0  0  0
  -26.0129  -26.7868   19.4608 C   0  0  0  0  0  0
  -24.8872  -27.6408   19.4371 C   0  0  0  0  0  0
  -23.6798  -29.7878   20.1418 C   0  0  0  0  0  0
  -25.4129  -36.2995   24.0298 C   0  0  1  0  0  0
  -20.5931  -28.3758   23.1189 C   0  0  2  0  0  0
  -20.6806  -26.9464   22.5384 C   0  0  0  0  0  0
  -19.5778  -26.6399   21.5197 C   0  0  0  0  0  0
  -18.1956  -26.7959   22.1612 C   0  0  0  0  0  0
  -19.1583  -28.8911   23.2816 C   0  0  0  0  0  0
  -18.9498  -30.1495   23.8848 C   0  0  0  0  0  0
  -17.6497  -30.6610   24.0563 C   0  0  0  0  0  0
  -25.9096  -34.9389   23.5017 C   0  0  0  0  0  0
  -16.5382  -29.9100   23.6353 C   0  0  0  0  0  0
  -16.7308  -28.6533   23.0357 C   0  0  0  0  0  0
  -26.4563  -31.6568   25.0683 C   0  0  0  0  0  0
  -25.3712  -31.3818   26.1356 C   0  0  0  0  0  0
  -27.0444  -30.2944   24.6353 C   0  0  0  0  0  0
  -27.6083  -32.4339   25.7476 C   0  0  0  0  0  0
  -27.5555  -37.1770   24.8456 C   0  0  0  0  0  0
  -21.4280  -29.3065   22.3539 N   0  0  0  0  0  0
  -26.4265  -37.3733   23.9407 N   0  0  0  0  0  0
  -24.7224  -31.0220   22.0862 N   0  0  0  0  0  0
  -23.4217  -28.8108   23.2963 O   0  0  0  0  0  0
  -28.2132  -26.0581   20.3327 O   0  0  0  0  0  0
  -26.5647  -34.8911   22.4571 O   0  0  0  0  0  0
  -23.5611  -32.1279   23.7048 O   0  0  0  0  0  0
  -32.3030  -18.8617   20.0228 C   0  0  0  0  0  0
  -31.6721  -19.5981   19.0046 C   0  0  0  0  0  0
  -31.5520  -17.9491   20.7825 C   0  0  0  0  0  0
  -30.2608  -19.6372   18.9200 C   0  0  0  0  0  0
  -29.5290  -19.0839   20.0058 C   0  0  0  0  0  0
  -30.1734  -17.7976   20.5270 C   0  0  0  0  0  0
  -27.2261  -22.1469   20.2970 C   0  0  0  0  0  0
  -26.8315  -23.6648   20.2592 C   0  0  0  0  0  0
  -29.1286  -23.3190   20.5612 C   0  0  0  0  0  0
  -28.1139  -24.5077   20.0094 C   0  0  2  0  0  0
  -28.5874  -20.8699   15.6913 C   0  0  0  0  0  0
  -30.6862  -19.6068   15.8699 C   0  0  0  0  0  0
  -29.0982  -20.4295   20.9109 C   0  0  0  0  0  0
  -29.6181  -20.5741   17.8935 C   0  0  0  0  0  0
  -28.5431  -21.8806   20.4531 N   0  0  0  0  0  0
  -29.7573  -16.2889   20.4940 N   0  0  0  0  0  0
  -29.4262  -19.9939   16.5443 N   0  3  0  0  0  0
  -26.3645  -21.2691   20.2151 O   0  0  0  0  0  0
  -31.4585  -12.8178   19.1995 H   0  0  0  0  0  0
  -30.4249  -11.7232   20.0646 H   0  0  0  0  0  0
  -29.8687  -11.7512   17.6040 H   0  0  0  0  0  0
  -29.5876  -13.4727   17.6759 H   0  0  0  0  0  0
  -27.9729  -11.2728   18.9984 H   0  0  0  0  0  0
  -27.3928  -12.4113   17.8142 H   0  0  0  0  0  0
  -27.5575  -14.2439   19.3659 H   0  0  0  0  0  0
  -28.7590  -12.3851   21.4720 H   0  0  0  0  0  0
  -28.3201  -14.0604   21.7158 H   0  0  0  0  0  0
  -25.2747   -9.5722   22.4740 H   0  0  0  0  0  0
  -24.0027   -7.4634   22.7445 H   0  0  0  0  0  0
  -21.0850   -8.8731   19.8937 H   0  0  0  0  0  0
  -22.3663  -10.9646   19.6148 H   0  0  0  0  0  0
  -21.2010   -7.6155   23.9744 H   0  0  0  0  0  0
  -21.1475   -6.0516   25.9089 H   0  0  0  0  0  0
  -22.0604   -2.7619   23.2847 H   0  0  0  0  0  0
  -22.4037  -11.9862   22.4881 H   0  0  0  0  0  0
  -21.1023  -13.1171   22.2621 H   0  0  0  0  0  0
  -24.6430  -15.8472   20.5116 H   0  0  0  0  0  0
  -26.2514  -15.6252   20.0507 H   0  0  0  0  0  0
  -26.7335  -32.5245   23.0916 H   0  0  0  0  0  0
  -25.0274  -33.9551   25.0355 H   0  0  0  0  0  0
  -22.7608  -31.2910   21.3689 H   0  0  0  0  0  0
  -23.3765  -35.9540   23.3282 H   0  0  0  0  0  0
  -24.3578  -36.8870   22.2057 H   0  0  0  0  0  0
  -23.7253  -37.6413   23.6680 H   0  0  0  0  0  0
  -26.1799  -31.4451   20.6198 H   0  0  0  0  0  0
  -26.8742  -30.7382   22.0413 H   0  0  0  0  0  0
  -28.0961  -28.7170   21.3103 H   0  0  0  0  0  0
  -25.9287  -25.8558   18.9248 H   0  0  0  0  0  0
  -24.0019  -27.3291   18.8985 H   0  0  0  0  0  0
  -23.8240  -30.5584   19.3843 H   0  0  0  0  0  0
  -22.7911  -29.2357   19.8296 H   0  0  0  0  0  0
  -25.1341  -36.1775   25.0789 H   0  0  0  0  0  0
  -21.0036  -28.3384   24.1301 H   0  0  0  0  0  0
  -20.5702  -26.2402   23.3625 H   0  0  0  0  0  0
  -21.6674  -26.7471   22.1188 H   0  0  0  0  0  0
  -19.6934  -25.6292   21.1275 H   0  0  0  0  0  0
  -19.6698  -27.3167   20.6690 H   0  0  0  0  0  0
  -17.4227  -26.6699   21.4011 H   0  0  0  0  0  0
  -18.0348  -26.0111   22.9025 H   0  0  0  0  0  0
  -19.7981  -30.7323   24.2184 H   0  0  0  0  0  0
  -17.5066  -31.6283   24.5185 H   0  0  0  0  0  0
  -15.5389  -30.2999   23.7703 H   0  0  0  0  0  0
  -15.8708  -28.0845   22.7072 H   0  0  0  0  0  0
  -24.5888  -30.7174   25.7667 H   0  0  0  0  0  0
  -24.8913  -32.3039   26.4638 H   0  0  0  0  0  0
  -25.7960  -30.9077   27.0213 H   0  0  0  0  0  0
  -26.3095  -29.6632   24.1354 H   0  0  0  0  0  0
  -27.4010  -29.7292   25.4971 H   0  0  0  0  0  0
  -27.9021  -30.4144   23.9734 H   0  0  0  0  0  0
  -27.2681  -33.3680   26.1947 H   0  0  0  0  0  0
  -28.3964  -32.6820   25.0354 H   0  0  0  0  0  0
  -28.0672  -31.8531   26.5485 H   0  0  0  0  0  0
  -28.2573  -38.0072   24.7532 H   0  0  0  0  0  0
  -28.1063  -36.2606   24.6261 H   0  0  0  0  0  0
  -27.2280  -37.1402   25.8864 H   0  0  0  0  0  0
  -20.9493  -29.8784   21.6706 H   0  0  0  0  0  0
  -26.0109  -38.2788   24.1431 H   0  0  0  0  0  0
  -33.3791  -18.8865   20.1295 H   0  0  0  0  0  0
  -32.2800  -20.1867   18.3312 H   0  0  0  0  0  0
  -32.0941  -17.2199   21.3661 H   0  0  0  0  0  0
  -26.3687  -23.9146   21.2136 H   0  0  0  0  0  0
  -26.0798  -23.8099   19.4843 H   0  0  0  0  0  0
  -29.3237  -23.5073   21.6185 H   0  0  0  0  0  0
  -30.0948  -23.3776   20.0604 H   0  0  0  0  0  0
  -28.2384  -24.5041   18.9276 H   0  0  0  0  0  0
  -28.3798  -20.4009   14.7300 H   0  0  0  0  0  0
  -29.0808  -21.8267   15.4998 H   0  0  0  0  0  0
  -27.6235  -21.0765   16.1627 H   0  0  0  0  0  0
  -30.4997  -19.3012   14.8394 H   0  0  0  0  0  0
  -31.1553  -18.7619   16.3745 H   0  0  0  0  0  0
  -31.3943  -20.4356   15.8495 H   0  0  0  0  0  0
  -29.9848  -20.6608   21.5032 H   0  0  0  0  0  0
  -28.3895  -20.0585   21.6527 H   0  0  0  0  0  0
  -30.1904  -21.5030   17.8329 H   0  0  0  0  0  0
  -28.6207  -20.8424   18.2254 H   0  0  0  0  0  0
  -28.7597  -16.1381   20.5080 H   0  0  0  0  0  0
  -28.8967  -19.1466   16.6795 H   0  0  0  0  0  0
  1 25  1  0  0  0
  1 30  2  0  0  0
  1 86  1  0  0  0
  2  3  1  0  0  0
  2 25  1  0  0  0
  2 89  1  0  0  0
  2 90  1  0  0  0
  3  4  1  0  0  0
  3 91  1  0  0  0
  3 92  1  0  0  0
  4  5  1  0  0  0
  4 93  1  0  0  0
  4 94  1  0  0  0
  5  6  1  0  0  0
  5 26  1  0  0  0
  5 95  1  0  0  0
  6 25  1  0  0  0
  6 96  1  0  0  0
  6 97  1  0  0  0
  7  8  2  0  0  0
  7 26  1  0  0  0
  7 29  1  0  0  0
  8  9  1  0  0  0
  8 22  1  0  0  0
  9 10  1  0  0  0
  9 27  2  0  0  0
 10 11  2  0  0  0
 10 15  1  0  0  0
 11 12  1  0  0  0
 11 98  1  0  0  0
 12 13  2  0  0  0
 12 99  1  0  0  0
 13 14  1  0  0  0
 13 31  1  0  0  0
 14 15  2  0  0  0
 14100  1  0  0  0
 15101  1  0  0  0
 16 17  2  0  0  0
 16 21  1  0  0  0
 16 31  1  0  0  0
 17 18  1  0  0  0
 17102  1  0  0  0
 18 19  2  0  0  0
 18103  1  0  0  0
 19 20  1  0  0  0
 19 24  1  0  0  0
 20 21  2  0  0  0
 20104  1  0  0  0
 21 23  1  0  0  0
 22 28  1  0  0  0
 22 32  2  0  0  0
 26 27  1  0  0  0
 28105  1  0  0  0
 28106  1  0  0  0
 29107  1  0  0  0
 29108  1  0  0  0
 33 34  1  0  0  0
 33 66  1  0  0  0
 33 70  2  0  0  0
 34 36  1  0  0  0
 34 59  1  0  0  0
 34109  1  0  0  0
 35 44  2  0  0  0
 35 45  1  0  0  0
 35 68  1  0  0  0
 36 56  1  0  0  0
 36110  1  0  0  0
 37 39  1  0  0  0
 37 47  1  0  0  0
 37 66  1  0  0  0
 37111  1  0  0  0
 38 43  2  0  0  0
 38 46  1  0  0  0
 38 47  1  0  0  0
 39 64  1  0  0  0
 39 67  2  0  0  0
 40 52  1  0  0  0
 40 53  2  0  0  0
 40 58  1  0  0  0
 41112  1  0  0  0
 41113  1  0  0  0
 41114  1  0  0  0
 41 48  1  0  0  0
 42 43  1  0  0  0
 42 66  1  0  0  0
 42115  1  0  0  0
 42116  1  0  0  0
 43 44  1  0  0  0
 44117  1  0  0  0
 45 46  2  0  0  0
 45118  1  0  0  0
 46119  1  0  0  0
 47120  1  0  0  0
 47121  1  0  0  0
 48 56  1  0  0  0
 48 65  1  0  0  0
 48122  1  0  0  0
 49 50  1  0  0  0
 49 53  1  0  0  0
 49 64  1  0  0  0
 49123  1  0  0  0
 50 51  1  0  0  0
 50124  1  0  0  0
 50125  1  0  0  0
 51 52  1  0  0  0
 51126  1  0  0  0
 51127  1  0  0  0
 52128  1  0  0  0
 52129  1  0  0  0
 53 54  1  0  0  0
 54 55  2  0  0  0
 54130  1  0  0  0
 55 57  1  0  0  0
 55131  1  0  0  0
 56 69  2  0  0  0
 57 58  2  0  0  0
 57132  1  0  0  0
 58133  1  0  0  0
 59 60  1  0  0  0
 59 61  1  0  0  0
 59 62  1  0  0  0
 60134  1  0  0  0
 60135  1  0  0  0
 60136  1  0  0  0
 61137  1  0  0  0
 61138  1  0  0  0
 61139  1  0  0  0
 62140  1  0  0  0
 62141  1  0  0  0
 62142  1  0  0  0
 63 65  1  0  0  0
 63143  1  0  0  0
 63144  1  0  0  0
 63145  1  0  0  0
 64146  1  0  0  0
 65147  1  0  0  0
 68 80  1  0  0  0
 71 72  2  0  0  0
 71 73  1  0  0  0
 71148  1  0  0  0
 72 74  1  0  0  0
 72149  1  0  0  0
 73 76  2  0  0  0
 73150  1  0  0  0
 74 75  2  0  0  0
 74 84  1  0  0  0
 75 76  1  0  0  0
 75 83  1  0  0  0
 76 86  1  0  0  0
 77 78  1  0  0  0
 77 85  1  0  0  0
 77 88  2  0  0  0
 78 80  1  0  0  0
 78151  1  0  0  0
 78152  1  0  0  0
 79 80  1  0  0  0
 79 85  1  0  0  0
 79153  1  0  0  0
 79154  1  0  0  0
 80155  1  0  0  0
 81156  1  0  0  0
 81157  1  0  0  0
 81158  1  0  0  0
 81 87  1  0  0  0
 82 87  1  0  0  0
 82159  1  0  0  0
 82160  1  0  0  0
 82161  1  0  0  0
 83 85  1  0  0  0
 83162  1  0  0  0
 83163  1  0  0  0
 84 87  1  0  0  0
 84164  1  0  0  0
 84165  1  0  0  0
 86166  1  0  0  0
 87167  1  0  0  0
M  CHG  1  87   1
M  ISO  4   1 100  68 101  80 101  86 100
M  END
> <chiral flag>
0

> <version>
0

> <s_m_source_file>
/data/baiqing/PycharmProjects/Reinvent-master-3.2/result/LINK_invent/BTK/process_docking_weight1_custom_product_contain_oxygen_bond_distance_aromatic_linkinvent_7_9_3/rearranged_h_0031.sdf

> <i_m_source_file_index>
86

> <r_mmod_Potential_Energy-OPLS-2005>
797.25390625

> <r_mmod_Stretch_Energy-OPLS-2005>
332.740081787109

> <r_mmod_Bend_Energy-OPLS-2005>
374.411651611328

> <r_mmod_Torsional_Energy-OPLS-2005>
437.443054199219

> <r_mmod_Improper_Torsional_Energy-OPLS-2005>
32.2672424316406

> <r_mmod_Van_der_Waal_Energy-OPLS-2005>
138.255889892578

> <r_mmod_Electrostatic_Energy-OPLS-2005>
-314.399841308594

> <r_mmod_Solvation_Energy-OPLS-2005>
-469.404968261719

> <b_mmod_Minimization_Converged-OPLS-2005>
0

> <r_mmod_RMS_Derivative-OPLS-2005>
3.8333842754364

$$$$
86
                    3D
 Structure written by MMmdl.
159168  0  0  1  0            999 V2000
  -30.6525  -14.6626   20.4852 C   0  0  0  0  0  0
  -30.4222  -12.4083   19.4587 C   0  0  0  0  0  0
  -29.4990  -12.4922   18.2257 C   0  0  0  0  0  0
  -28.0255  -12.3291   18.6442 C   0  0  0  0  0  0
  -27.6418  -13.2253   19.8525 C   0  0  2  0  0  0
  -28.6870  -13.1362   20.9846 C   0  0  0  0  0  0
  -25.2504  -13.8177   20.5689 C   0  0  0  0  0  0
  -24.1790  -13.0433   20.9197 C   0  0  0  0  0  0
  -24.6378  -11.6913   20.8744 C   0  0  0  0  0  0
  -23.9059  -10.4286   21.0400 C   0  0  0  0  0  0
  -24.3612   -9.4209   21.9180 C   0  0  0  0  0  0
  -23.6294   -8.2241   22.0747 C   0  0  0  0  0  0
  -22.4279   -8.0274   21.3539 C   0  0  0  0  0  0
  -21.9912   -9.0242   20.4637 C   0  0  0  0  0  0
  -22.7234  -10.2126   20.3045 C   0  0  0  0  0  0
  -21.6851   -6.0730   22.5282 C   0  0  0  0  0  0
  -21.4010   -6.5638   23.8212 C   0  0  0  0  0  0
  -21.3658   -5.6792   24.9176 C   0  0  0  0  0  0
  -21.6047   -4.3057   24.7229 C   0  0  0  0  0  0
  -21.8819   -3.8145   23.4354 C   0  0  0  0  0  0
  -21.9198   -4.6956   22.3409 C   0  0  0  0  0  0
  -22.7818  -13.5218   21.1874 C   0  0  0  0  0  0
  -22.1664   -4.2142   21.0986 F   0  0  0  0  0  0
  -21.5631   -3.4540   25.7743 F   0  0  0  0  0  0
  -29.9926  -13.4641   20.4007 N   0  0  0  0  0  0
  -26.2933  -12.9378   20.3303 N   0  0  0  0  0  0
  -25.9308  -11.6527   20.5773 N   0  0  0  0  0  0
  -22.0476  -12.8188   22.0422 N   0  0  0  0  0  0
  -25.4195  -15.1888   20.4108 N   0  0  0  0  0  0
  -31.8400  -14.7414   20.1610 O   0  0  0  0  0  0
  -21.6643   -6.8872   21.4243 O   0  0  0  0  0  0
  -22.3499  -14.5539   20.6750 O   0  0  0  0  0  0
  -24.6266  -31.8576   23.1991 C   0  0  0  0  0  0
  -25.9113  -32.4763   23.8314 C   0  0  1  0  0  0
  -27.2225  -27.3059   20.1056 C   0  0  0  0  0  0
  -25.5934  -33.8558   24.2249 N   0  0  0  0  0  0
  -23.4179  -30.4823   21.5428 C   0  0  2  0  0  0
  -24.8591  -28.9256   20.1147 C   0  0  0  0  0  0
  -22.7455  -29.4634   22.4930 C   0  0  0  0  0  0
  -18.0284  -28.1391   22.8498 C   0  0  0  0  0  0
  -24.1475  -36.7255   23.2643 C   0  0  0  0  0  0
  -25.9585  -30.7858   21.3651 C   0  0  0  0  0  0
  -26.0296  -29.4112   20.7071 C   0  0  0  0  0  0
  -27.2117  -28.6151   20.6857 C   0  0  0  0  0  0
  -26.0132  -26.8525   19.5393 C   0  0  0  0  0  0
  -24.8517  -27.6509   19.5258 C   0  0  0  0  0  0
  -23.6301  -29.8113   20.1597 C   0  0  0  0  0  0
  -25.4107  -36.3060   24.0335 C   0  0  1  0  0  0
  -20.5883  -28.3686   23.1291 C   0  0  2  0  0  0
  -20.6770  -26.9409   22.5415 C   0  0  0  0  0  0
  -19.5745  -26.6388   21.5216 C   0  0  0  0  0  0
  -18.1924  -26.7942   22.1621 C   0  0  0  0  0  0
  -19.1540  -28.8853   23.2890 C   0  0  0  0  0  0
  -18.9465  -30.1458   23.8900 C   0  0  0  0  0  0
  -17.6470  -30.6600   24.0574 C   0  0  0  0  0  0
  -25.9054  -34.9443   23.5089 C   0  0  0  0  0  0
  -16.5355  -29.9110   23.6345 C   0  0  0  0  0  0
  -16.7275  -28.6525   23.0367 C   0  0  0  0  0  0
  -26.4495  -31.6586   25.0690 C   0  0  0  0  0  0
  -25.3740  -31.3735   26.1423 C   0  0  0  0  0  0
  -27.0352  -30.3026   24.6134 C   0  0  0  0  0  0
  -27.6044  -32.4329   25.7479 C   0  0  0  0  0  0
  -27.5569  -37.1777   24.8470 C   0  0  0  0  0  0
  -21.4173  -29.3042   22.3680 N   0  0  0  0  0  0
  -26.4271  -37.3768   23.9434 N   0  0  0  0  0  0
  -24.6871  -31.0585   22.0931 N   0  0  0  0  0  0
  -23.4179  -28.8178   23.3013 O   0  0  0  0  0  0
  -28.3966  -26.5366   20.1266 O   0  0  0  0  0  0
  -26.5612  -34.8928   22.4652 O   0  0  0  0  0  0
  -23.5434  -32.1363   23.7347 O   0  0  0  0  0  0
  -30.7466  -19.5846   20.1040 C   0  0  0  0  0  0
  -28.1152  -20.3229   20.5653 C   0  0  0  0  0  0
  -30.3299  -20.9281   19.8532 C   0  0  0  0  0  0
  -29.8869  -18.5646   20.5970 C   0  0  0  0  0  0
  -28.9794  -21.3405   20.0661 C   0  0  0  0  0  0
  -28.5464  -18.9800   20.8338 C   0  0  0  0  0  0
  -28.2233  -24.6202   18.2967 C   0  0  0  0  0  0
  -28.5238  -23.1000   18.3213 C   0  0  0  0  0  0
  -28.3318  -23.8451   20.5991 C   0  0  0  0  0  0
  -28.5919  -25.1184   19.7052 C   0  0  2  0  0  0
  -31.3906  -21.9080   19.3740 C   0  0  0  0  0  0
  -30.5248  -17.1728   21.0142 C   0  0  0  0  0  0
  -28.4775  -22.6511   19.7174 N   0  0  0  0  0  0
  -29.9326  -15.8035   20.7627 N   0  0  0  0  0  0
  -27.4103  -17.8592   21.4938 Cl  0  0  0  0  0  0
  -31.4641  -12.5164   19.1533 H   0  0  0  0  0  0
  -30.3513  -11.4272   19.9312 H   0  0  0  0  0  0
  -29.7665  -11.7228   17.5002 H   0  0  0  0  0  0
  -29.6362  -13.4505   17.7228 H   0  0  0  0  0  0
  -27.8740  -11.2801   18.9012 H   0  0  0  0  0  0
  -27.3666  -12.5297   17.7992 H   0  0  0  0  0  0
  -27.6450  -14.2507   19.4820 H   0  0  0  0  0  0
  -28.7065  -12.1349   21.4179 H   0  0  0  0  0  0
  -28.4344  -13.8173   21.7990 H   0  0  0  0  0  0
  -25.2752   -9.5689   22.4759 H   0  0  0  0  0  0
  -24.0004   -7.4628   22.7460 H   0  0  0  0  0  0
  -21.0849   -8.8754   19.8931 H   0  0  0  0  0  0
  -22.3689  -10.9660   19.6150 H   0  0  0  0  0  0
  -21.1990   -7.6144   23.9713 H   0  0  0  0  0  0
  -21.1481   -6.0522   25.9078 H   0  0  0  0  0  0
  -22.0598   -2.7606   23.2857 H   0  0  0  0  0  0
  -22.4110  -11.9834   22.4762 H   0  0  0  0  0  0
  -21.1094  -13.1188   22.2652 H   0  0  0  0  0  0
  -24.6620  -15.8465   20.5554 H   0  0  0  0  0  0
  -26.2852  -15.6413   20.1479 H   0  0  0  0  0  0
  -26.7176  -32.5420   23.1054 H   0  0  0  0  0  0
  -25.0133  -33.9688   25.0434 H   0  0  0  0  0  0
  -22.7139  -31.3052   21.3991 H   0  0  0  0  0  0
  -23.3760  -35.9563   23.3299 H   0  0  0  0  0  0
  -24.3568  -36.8865   22.2054 H   0  0  0  0  0  0
  -23.7201  -37.6446   23.6660 H   0  0  0  0  0  0
  -26.0894  -31.5482   20.5955 H   0  0  0  0  0  0
  -26.8399  -30.8343   21.9927 H   0  0  0  0  0  0
  -28.1179  -28.9915   21.1395 H   0  0  0  0  0  0
  -25.9172  -25.8630   19.1345 H   0  0  0  0  0  0
  -23.9438  -27.2621   19.0845 H   0  0  0  0  0  0
  -23.7544  -30.5838   19.3998 H   0  0  0  0  0  0
  -22.7468  -29.2446   19.8598 H   0  0  0  0  0  0
  -25.1296  -36.1878   25.0827 H   0  0  0  0  0  0
  -20.9982  -28.3238   24.1403 H   0  0  0  0  0  0
  -20.5653  -26.2292   23.3612 H   0  0  0  0  0  0
  -21.6641  -26.7436   22.1207 H   0  0  0  0  0  0
  -19.6903  -25.6301   21.1237 H   0  0  0  0  0  0
  -19.6687  -27.3209   20.6759 H   0  0  0  0  0  0
  -17.4200  -26.6707   21.4007 H   0  0  0  0  0  0
  -18.0310  -26.0080   22.9008 H   0  0  0  0  0  0
  -19.7941  -30.7280   24.2243 H   0  0  0  0  0  0
  -17.5042  -31.6281   24.5180 H   0  0  0  0  0  0
  -15.5364  -30.3027   23.7679 H   0  0  0  0  0  0
  -15.8664  -28.0863   22.7079 H   0  0  0  0  0  0
  -24.5946  -30.7030   25.7775 H   0  0  0  0  0  0
  -24.8898  -32.2907   26.4784 H   0  0  0  0  0  0
  -25.8082  -30.8982   27.0229 H   0  0  0  0  0  0
  -26.2921  -29.6765   24.1178 H   0  0  0  0  0  0
  -27.4098  -29.7280   25.4611 H   0  0  0  0  0  0
  -27.8763  -30.4335   23.9328 H   0  0  0  0  0  0
  -27.2652  -33.3651   26.2008 H   0  0  0  0  0  0
  -28.3895  -32.6840   25.0339 H   0  0  0  0  0  0
  -28.0666  -31.8485   26.5440 H   0  0  0  0  0  0
  -28.2568  -38.0090   24.7545 H   0  0  0  0  0  0
  -28.1075  -36.2623   24.6255 H   0  0  0  0  0  0
  -27.2299  -37.1367   25.8874 H   0  0  0  0  0  0
  -20.9333  -29.8781   21.6913 H   0  0  0  0  0  0
  -26.0136  -38.2823   24.1485 H   0  0  0  0  0  0
  -31.7866  -19.3381   19.9393 H   0  0  0  0  0  0
  -27.0802  -20.5713   20.7452 H   0  0  0  0  0  0
  -27.1736  -24.7449   18.0526 H   0  0  0  0  0  0
  -28.7907  -25.1329   17.5193 H   0  0  0  0  0  0
  -29.4992  -22.9107   17.8769 H   0  0  0  0  0  0
  -27.7923  -22.5531   17.7237 H   0  0  0  0  0  0
  -27.3188  -23.8680   21.0045 H   0  0  0  0  0  0
  -29.0239  -23.8050   21.4416 H   0  0  0  0  0  0
  -29.6827  -25.1268   19.6597 H   0  0  0  0  0  0
  -32.3707  -21.6507   19.7767 H   0  0  0  0  0  0
  -31.1718  -22.9282   19.6901 H   0  0  0  0  0  0
  -31.4640  -21.8881   18.2868 H   0  0  0  0  0  0
  -30.6594  -17.2322   22.0948 H   0  0  0  0  0  0
  -31.5424  -17.1732   20.6215 H   0  0  0  0  0  0
  -28.9477  -15.6935   20.9495 H   0  0  0  0  0  0
  1 25  1  0  0  0
  1 30  2  0  0  0
  1 84  1  0  0  0
  2  3  1  0  0  0
  2 25  1  0  0  0
  2 86  1  0  0  0
  2 87  1  0  0  0
  3  4  1  0  0  0
  3 88  1  0  0  0
  3 89  1  0  0  0
  4  5  1  0  0  0
  4 90  1  0  0  0
  4 91  1  0  0  0
  5  6  1  0  0  0
  5 26  1  0  0  0
  5 92  1  0  0  0
  6 25  1  0  0  0
  6 93  1  0  0  0
  6 94  1  0  0  0
  7  8  2  0  0  0
  7 26  1  0  0  0
  7 29  1  0  0  0
  8  9  1  0  0  0
  8 22  1  0  0  0
  9 10  1  0  0  0
  9 27  2  0  0  0
 10 11  2  0  0  0
 10 15  1  0  0  0
 11 12  1  0  0  0
 11 95  1  0  0  0
 12 13  2  0  0  0
 12 96  1  0  0  0
 13 14  1  0  0  0
 13 31  1  0  0  0
 14 15  2  0  0  0
 14 97  1  0  0  0
 15 98  1  0  0  0
 16 17  2  0  0  0
 16 21  1  0  0  0
 16 31  1  0  0  0
 17 18  1  0  0  0
 17 99  1  0  0  0
 18 19  2  0  0  0
 18100  1  0  0  0
 19 20  1  0  0  0
 19 24  1  0  0  0
 20 21  2  0  0  0
 20101  1  0  0  0
 21 23  1  0  0  0
 22 28  1  0  0  0
 22 32  2  0  0  0
 26 27  1  0  0  0
 28102  1  0  0  0
 28103  1  0  0  0
 29104  1  0  0  0
 29105  1  0  0  0
 33 34  1  0  0  0
 33 66  1  0  0  0
 33 70  2  0  0  0
 34 36  1  0  0  0
 34 59  1  0  0  0
 34106  1  0  0  0
 35 44  2  0  0  0
 35 45  1  0  0  0
 35 68  1  0  0  0
 36 56  1  0  0  0
 36107  1  0  0  0
 37 39  1  0  0  0
 37 47  1  0  0  0
 37 66  1  0  0  0
 37108  1  0  0  0
 38 43  2  0  0  0
 38 46  1  0  0  0
 38 47  1  0  0  0
 39 64  1  0  0  0
 39 67  2  0  0  0
 40 52  1  0  0  0
 40 53  2  0  0  0
 40 58  1  0  0  0
 41109  1  0  0  0
 41110  1  0  0  0
 41111  1  0  0  0
 41 48  1  0  0  0
 42 43  1  0  0  0
 42 66  1  0  0  0
 42112  1  0  0  0
 42113  1  0  0  0
 43 44  1  0  0  0
 44114  1  0  0  0
 45 46  2  0  0  0
 45115  1  0  0  0
 46116  1  0  0  0
 47117  1  0  0  0
 47118  1  0  0  0
 48 56  1  0  0  0
 48 65  1  0  0  0
 48119  1  0  0  0
 49 50  1  0  0  0
 49 53  1  0  0  0
 49 64  1  0  0  0
 49120  1  0  0  0
 50 51  1  0  0  0
 50121  1  0  0  0
 50122  1  0  0  0
 51 52  1  0  0  0
 51123  1  0  0  0
 51124  1  0  0  0
 52125  1  0  0  0
 52126  1  0  0  0
 53 54  1  0  0  0
 54 55  2  0  0  0
 54127  1  0  0  0
 55 57  1  0  0  0
 55128  1  0  0  0
 56 69  2  0  0  0
 57 58  2  0  0  0
 57129  1  0  0  0
 58130  1  0  0  0
 59 60  1  0  0  0
 59 61  1  0  0  0
 59 62  1  0  0  0
 60131  1  0  0  0
 60132  1  0  0  0
 60133  1  0  0  0
 61134  1  0  0  0
 61135  1  0  0  0
 61136  1  0  0  0
 62137  1  0  0  0
 62138  1  0  0  0
 62139  1  0  0  0
 63 65  1  0  0  0
 63140  1  0  0  0
 63141  1  0  0  0
 63142  1  0  0  0
 64143  1  0  0  0
 65144  1  0  0  0
 68 80  1  0  0  0
 71 73  2  0  0  0
 71 74  1  0  0  0
 71145  1  0  0  0
 72 75  2  0  0  0
 72 76  1  0  0  0
 72146  1  0  0  0
 73 75  1  0  0  0
 73 81  1  0  0  0
 74 76  2  0  0  0
 74 82  1  0  0  0
 75 83  1  0  0  0
 76 85  1  0  0  0
 77 78  1  0  0  0
 77 80  1  0  0  0
 77147  1  0  0  0
 77148  1  0  0  0
 78 83  1  0  0  0
 78149  1  0  0  0
 78150  1  0  0  0
 79 80  1  0  0  0
 79 83  1  0  0  0
 79151  1  0  0  0
 79152  1  0  0  0
 80153  1  0  0  0
 81154  1  0  0  0
 81155  1  0  0  0
 81156  1  0  0  0
 82 84  1  0  0  0
 82157  1  0  0  0
 82158  1  0  0  0
 84159  1  0  0  0
M  ISO  4   1 100  68 101  80 101  84 100
M  END
> <chiral flag>
0

> <version>
0

> <s_m_source_file>
/data/baiqing/PycharmProjects/Reinvent-master-3.2/result/LINK_invent/BTK/process_docking_weight1_custom_product_contain_oxygen_bond_distance_aromatic_linkinvent_7_9_3/rearranged_h_0031.sdf

> <i_m_source_file_index>
87

> <r_mmod_Potential_Energy-OPLS-2005>
174.472198486328

> <r_mmod_Stretch_Energy-OPLS-2005>
85.2266998291016

> <r_mmod_Bend_Energy-OPLS-2005>
242.464584350586

> <r_mmod_Torsional_Energy-OPLS-2005>
274.087432861328

> <r_mmod_Improper_Torsional_Energy-OPLS-2005>
6.16214799880981

> <r_mmod_Van_der_Waal_Energy-OPLS-2005>
135.963592529297

> <r_mmod_Electrostatic_Energy-OPLS-2005>
-413.389495849609

> <r_mmod_Solvation_Energy-OPLS-2005>
-209.098617553711

> <b_mmod_Minimization_Converged-OPLS-2005>
0

> <r_mmod_RMS_Derivative-OPLS-2005>
1.52439796924591

$$$$
87
                    3D
 Structure written by MMmdl.
160168  0  0  1  0            999 V2000
  -30.5912  -14.7606   20.4296 C   0  0  0  0  0  0
  -30.4277  -12.4568   19.4886 C   0  0  0  0  0  0
  -29.5150  -12.5138   18.2431 C   0  0  0  0  0  0
  -28.0400  -12.3341   18.6494 C   0  0  0  0  0  0
  -27.6403  -13.2323   19.8508 C   0  0  2  0  0  0
  -28.6793  -13.1741   20.9912 C   0  0  0  0  0  0
  -25.2506  -13.8199   20.5666 C   0  0  0  0  0  0
  -24.1801  -13.0438   20.9184 C   0  0  0  0  0  0
  -24.6391  -11.6916   20.8710 C   0  0  0  0  0  0
  -23.9071  -10.4294   21.0377 C   0  0  0  0  0  0
  -24.3621   -9.4224   21.9167 C   0  0  0  0  0  0
  -23.6305   -8.2260   22.0745 C   0  0  0  0  0  0
  -22.4290   -8.0285   21.3537 C   0  0  0  0  0  0
  -21.9916   -9.0252   20.4636 C   0  0  0  0  0  0
  -22.7235  -10.2133   20.3041 C   0  0  0  0  0  0
  -21.6870   -6.0734   22.5274 C   0  0  0  0  0  0
  -21.4018   -6.5628   23.8203 C   0  0  0  0  0  0
  -21.3671   -5.6777   24.9160 C   0  0  0  0  0  0
  -21.6060   -4.3041   24.7219 C   0  0  0  0  0  0
  -21.8826   -3.8145   23.4335 C   0  0  0  0  0  0
  -21.9199   -4.6960   22.3391 C   0  0  0  0  0  0
  -22.7825  -13.5224   21.1866 C   0  0  0  0  0  0
  -22.1668   -4.2143   21.0970 F   0  0  0  0  0  0
  -21.5645   -3.4527   25.7737 F   0  0  0  0  0  0
  -29.9832  -13.5238   20.4168 N   0  0  0  0  0  0
  -26.2923  -12.9399   20.3253 N   0  0  0  0  0  0
  -25.9319  -11.6541   20.5717 N   0  0  0  0  0  0
  -22.0488  -12.8196   22.0415 N   0  0  0  0  0  0
  -25.4214  -15.1921   20.4076 N   0  0  0  0  0  0
  -31.7815  -14.8461   20.1099 O   0  0  0  0  0  0
  -21.6671   -6.8876   21.4237 O   0  0  0  0  0  0
  -22.3505  -14.5537   20.6725 O   0  0  0  0  0  0
  -24.6302  -31.8532   23.1965 C   0  0  0  0  0  0
  -25.9130  -32.4742   23.8306 C   0  0  1  0  0  0
  -27.2240  -27.2604   20.1218 C   0  0  0  0  0  0
  -25.5928  -33.8546   24.2235 N   0  0  0  0  0  0
  -23.4261  -30.4751   21.5397 C   0  0  2  0  0  0
  -24.8703  -28.9146   20.1109 C   0  0  0  0  0  0
  -22.7491  -29.4600   22.4921 C   0  0  0  0  0  0
  -18.0283  -28.1379   22.8493 C   0  0  0  0  0  0
  -24.1489  -36.7276   23.2641 C   0  0  0  0  0  0
  -25.9695  -30.7684   21.3708 C   0  0  0  0  0  0
  -26.0405  -29.3893   20.7136 C   0  0  0  0  0  0
  -27.2150  -28.5742   20.7044 C   0  0  0  0  0  0
  -26.0190  -26.8361   19.5242 C   0  0  0  0  0  0
  -24.8645  -27.6466   19.5070 C   0  0  0  0  0  0
  -23.6411  -29.8017   20.1574 C   0  0  0  0  0  0
  -25.4121  -36.3065   24.0323 C   0  0  1  0  0  0
  -20.5889  -28.3686   23.1277 C   0  0  2  0  0  0
  -20.6771  -26.9405   22.5410 C   0  0  0  0  0  0
  -19.5745  -26.6380   21.5213 C   0  0  0  0  0  0
  -18.1928  -26.7924   22.1625 C   0  0  0  0  0  0
  -19.1539  -28.8850   23.2884 C   0  0  0  0  0  0
  -18.9462  -30.1452   23.8900 C   0  0  0  0  0  0
  -17.6461  -30.6588   24.0558 C   0  0  0  0  0  0
  -25.9059  -34.9435   23.5089 C   0  0  0  0  0  0
  -16.5351  -29.9085   23.6330 C   0  0  0  0  0  0
  -16.7270  -28.6498   23.0363 C   0  0  0  0  0  0
  -26.4498  -31.6573   25.0697 C   0  0  0  0  0  0
  -25.3720  -31.3718   26.1416 C   0  0  0  0  0  0
  -27.0341  -30.2993   24.6177 C   0  0  0  0  0  0
  -27.6045  -32.4310   25.7477 C   0  0  0  0  0  0
  -27.5582  -37.1795   24.8464 C   0  0  0  0  0  0
  -21.4199  -29.3039   22.3674 N   0  0  0  0  0  0
  -26.4290  -37.3770   23.9411 N   0  0  0  0  0  0
  -24.6947  -31.0512   22.0920 N   0  0  0  0  0  0
  -23.4197  -28.8149   23.3018 O   0  0  0  0  0  0
  -28.3747  -26.4420   20.1925 O   0  0  0  0  0  0
  -26.5642  -34.8914   22.4663 O   0  0  0  0  0  0
  -23.5461  -32.1343   23.7279 O   0  0  0  0  0  0
  -30.7062  -18.6711   18.1921 C   0  0  0  0  0  0
  -30.6353  -17.4305   18.8499 C   0  0  0  0  0  0
  -29.3017  -18.4886   20.5691 C   0  0  0  0  0  0
  -29.3684  -19.8075   19.9266 C   0  0  0  0  0  0
  -30.0863  -19.8402   18.6895 C   0  0  0  0  0  0
  -29.9295  -17.2715   20.0596 C   0  0  0  0  0  0
  -28.6631  -21.0828   20.5275 C   0  0  0  0  0  0
  -30.2219  -21.0837   17.8164 C   0  0  0  0  0  0
  -30.1686  -25.1163   19.6656 C   0  0  0  0  0  0
  -28.2152  -24.9330   18.1711 C   0  0  0  0  0  0
  -28.2287  -23.7027   20.4656 C   0  0  0  0  0  0
  -28.6293  -25.0545   19.6523 C   0  0  0  0  0  0
  -29.8145  -15.8997   20.6432 N   0  0  0  0  0  0
  -28.8260  -22.3613   20.0165 N   0  0  0  0  0  0
  -27.9403  -20.9246   21.5122 O   0  0  0  0  0  0
  -31.4719  -12.5725   19.1940 H   0  0  0  0  0  0
  -30.3594  -11.4809   19.9724 H   0  0  0  0  0  0
  -29.8043  -11.7455   17.5258 H   0  0  0  0  0  0
  -29.6459  -13.4711   17.7347 H   0  0  0  0  0  0
  -27.8981  -11.2830   18.9068 H   0  0  0  0  0  0
  -27.3877  -12.5278   17.7971 H   0  0  0  0  0  0
  -27.6336  -14.2538   19.4710 H   0  0  0  0  0  0
  -28.7114  -12.1798   21.4382 H   0  0  0  0  0  0
  -28.4056  -13.8604   21.7939 H   0  0  0  0  0  0
  -25.2766   -9.5713   22.4741 H   0  0  0  0  0  0
  -24.0020   -7.4655   22.7459 H   0  0  0  0  0  0
  -21.0861   -8.8767   19.8925 H   0  0  0  0  0  0
  -22.3692  -10.9675   19.6160 H   0  0  0  0  0  0
  -21.2005   -7.6137   23.9694 H   0  0  0  0  0  0
  -21.1491   -6.0514   25.9059 H   0  0  0  0  0  0
  -22.0596   -2.7609   23.2841 H   0  0  0  0  0  0
  -22.4129  -11.9853   22.4786 H   0  0  0  0  0  0
  -21.1099  -13.1190   22.2628 H   0  0  0  0  0  0
  -24.6528  -15.8464   20.5089 H   0  0  0  0  0  0
  -26.2719  -15.6299   20.0757 H   0  0  0  0  0  0
  -26.7193  -32.5392   23.1043 H   0  0  0  0  0  0
  -25.0057  -33.9668   25.0370 H   0  0  0  0  0  0
  -22.7227  -31.2975   21.3915 H   0  0  0  0  0  0
  -23.3759  -35.9598   23.3286 H   0  0  0  0  0  0
  -24.3579  -36.8919   22.2058 H   0  0  0  0  0  0
  -23.7227  -37.6466   23.6678 H   0  0  0  0  0  0
  -26.1054  -31.5287   20.6005 H   0  0  0  0  0  0
  -26.8486  -30.8193   22.0023 H   0  0  0  0  0  0
  -28.1147  -28.9380   21.1807 H   0  0  0  0  0  0
  -25.9277  -25.8524   19.1010 H   0  0  0  0  0  0
  -23.9608  -27.2702   19.0472 H   0  0  0  0  0  0
  -23.7617  -30.5716   19.3943 H   0  0  0  0  0  0
  -22.7596  -29.2305   19.8599 H   0  0  0  0  0  0
  -25.1310  -36.1903   25.0814 H   0  0  0  0  0  0
  -20.9982  -28.3259   24.1397 H   0  0  0  0  0  0
  -20.5659  -26.2304   23.3620 H   0  0  0  0  0  0
  -21.6643  -26.7426   22.1212 H   0  0  0  0  0  0
  -19.6909  -25.6289   21.1247 H   0  0  0  0  0  0
  -19.6683  -27.3191   20.6743 H   0  0  0  0  0  0
  -17.4202  -26.6673   21.4022 H   0  0  0  0  0  0
  -18.0324  -26.0057   22.9012 H   0  0  0  0  0  0
  -19.7938  -30.7266   24.2278 H   0  0  0  0  0  0
  -17.5014  -31.6271   24.5152 H   0  0  0  0  0  0
  -15.5353  -30.2990   23.7651 H   0  0  0  0  0  0
  -15.8668  -28.0812   22.7090 H   0  0  0  0  0  0
  -24.5909  -30.7053   25.7749 H   0  0  0  0  0  0
  -24.8896  -32.2880   26.4825 H   0  0  0  0  0  0
  -25.8036  -30.8911   27.0203 H   0  0  0  0  0  0
  -26.2921  -29.6739   24.1205 H   0  0  0  0  0  0
  -27.4031  -29.7259   25.4690 H   0  0  0  0  0  0
  -27.8791  -30.4272   23.9409 H   0  0  0  0  0  0
  -27.2655  -33.3614   26.2042 H   0  0  0  0  0  0
  -28.3871  -32.6860   25.0319 H   0  0  0  0  0  0
  -28.0695  -31.8439   26.5407 H   0  0  0  0  0  0
  -28.2595  -38.0097   24.7531 H   0  0  0  0  0  0
  -28.1084  -36.2634   24.6271 H   0  0  0  0  0  0
  -27.2298  -37.1418   25.8864 H   0  0  0  0  0  0
  -20.9389  -29.8760   21.6878 H   0  0  0  0  0  0
  -26.0166  -38.2840   24.1420 H   0  0  0  0  0  0
  -31.2467  -18.7076   17.2566 H   0  0  0  0  0  0
  -31.1138  -16.5868   18.3738 H   0  0  0  0  0  0
  -28.7396  -18.4140   21.4895 H   0  0  0  0  0  0
  -30.7407  -20.8640   16.8828 H   0  0  0  0  0  0
  -30.8010  -21.8579   18.3190 H   0  0  0  0  0  0
  -29.2428  -21.4778   17.5392 H   0  0  0  0  0  0
  -30.6278  -24.2380   19.2120 H   0  0  0  0  0  0
  -30.5510  -25.1956   20.6840 H   0  0  0  0  0  0
  -30.5337  -25.9841   19.1134 H   0  0  0  0  0  0
  -28.8220  -24.1916   17.6504 H   0  0  0  0  0  0
  -28.3398  -25.8785   17.6422 H   0  0  0  0  0  0
  -27.1873  -24.6002   18.0477 H   0  0  0  0  0  0
  -27.1430  -23.6012   20.4722 H   0  0  0  0  0  0
  -28.5065  -23.8393   21.5115 H   0  0  0  0  0  0
  -28.9447  -15.7149   21.1199 H   0  0  0  0  0  0
  -29.4334  -22.4113   19.2121 H   0  0  0  0  0  0
  1 25  1  0  0  0
  1 30  2  0  0  0
  1 83  1  0  0  0
  2  3  1  0  0  0
  2 25  1  0  0  0
  2 86  1  0  0  0
  2 87  1  0  0  0
  3  4  1  0  0  0
  3 88  1  0  0  0
  3 89  1  0  0  0
  4  5  1  0  0  0
  4 90  1  0  0  0
  4 91  1  0  0  0
  5  6  1  0  0  0
  5 26  1  0  0  0
  5 92  1  0  0  0
  6 25  1  0  0  0
  6 93  1  0  0  0
  6 94  1  0  0  0
  7  8  2  0  0  0
  7 26  1  0  0  0
  7 29  1  0  0  0
  8  9  1  0  0  0
  8 22  1  0  0  0
  9 10  1  0  0  0
  9 27  2  0  0  0
 10 11  2  0  0  0
 10 15  1  0  0  0
 11 12  1  0  0  0
 11 95  1  0  0  0
 12 13  2  0  0  0
 12 96  1  0  0  0
 13 14  1  0  0  0
 13 31  1  0  0  0
 14 15  2  0  0  0
 14 97  1  0  0  0
 15 98  1  0  0  0
 16 17  2  0  0  0
 16 21  1  0  0  0
 16 31  1  0  0  0
 17 18  1  0  0  0
 17 99  1  0  0  0
 18 19  2  0  0  0
 18100  1  0  0  0
 19 20  1  0  0  0
 19 24  1  0  0  0
 20 21  2  0  0  0
 20101  1  0  0  0
 21 23  1  0  0  0
 22 28  1  0  0  0
 22 32  2  0  0  0
 26 27  1  0  0  0
 28102  1  0  0  0
 28103  1  0  0  0
 29104  1  0  0  0
 29105  1  0  0  0
 33 34  1  0  0  0
 33 66  1  0  0  0
 33 70  2  0  0  0
 34 36  1  0  0  0
 34 59  1  0  0  0
 34106  1  0  0  0
 35 44  2  0  0  0
 35 45  1  0  0  0
 35 68  1  0  0  0
 36 56  1  0  0  0
 36107  1  0  0  0
 37 39  1  0  0  0
 37 47  1  0  0  0
 37 66  1  0  0  0
 37108  1  0  0  0
 38 43  2  0  0  0
 38 46  1  0  0  0
 38 47  1  0  0  0
 39 64  1  0  0  0
 39 67  2  0  0  0
 40 52  1  0  0  0
 40 53  2  0  0  0
 40 58  1  0  0  0
 41109  1  0  0  0
 41110  1  0  0  0
 41111  1  0  0  0
 41 48  1  0  0  0
 42 43  1  0  0  0
 42 66  1  0  0  0
 42112  1  0  0  0
 42113  1  0  0  0
 43 44  1  0  0  0
 44114  1  0  0  0
 45 46  2  0  0  0
 45115  1  0  0  0
 46116  1  0  0  0
 47117  1  0  0  0
 47118  1  0  0  0
 48 56  1  0  0  0
 48 65  1  0  0  0
 48119  1  0  0  0
 49 50  1  0  0  0
 49 53  1  0  0  0
 49 64  1  0  0  0
 49120  1  0  0  0
 50 51  1  0  0  0
 50121  1  0  0  0
 50122  1  0  0  0
 51 52  1  0  0  0
 51123  1  0  0  0
 51124  1  0  0  0
 52125  1  0  0  0
 52126  1  0  0  0
 53 54  1  0  0  0
 54 55  2  0  0  0
 54127  1  0  0  0
 55 57  1  0  0  0
 55128  1  0  0  0
 56 69  2  0  0  0
 57 58  2  0  0  0
 57129  1  0  0  0
 58130  1  0  0  0
 59 60  1  0  0  0
 59 61  1  0  0  0
 59 62  1  0  0  0
 60131  1  0  0  0
 60132  1  0  0  0
 60133  1  0  0  0
 61134  1  0  0  0
 61135  1  0  0  0
 61136  1  0  0  0
 62137  1  0  0  0
 62138  1  0  0  0
 62139  1  0  0  0
 63 65  1  0  0  0
 63140  1  0  0  0
 63141  1  0  0  0
 63142  1  0  0  0
 64143  1  0  0  0
 65144  1  0  0  0
 68 82  1  0  0  0
 71 72  2  0  0  0
 71 75  1  0  0  0
 71145  1  0  0  0
 72 76  1  0  0  0
 72146  1  0  0  0
 73 74  1  0  0  0
 73 76  2  0  0  0
 73147  1  0  0  0
 74 75  2  0  0  0
 74 77  1  0  0  0
 75 78  1  0  0  0
 76 83  1  0  0  0
 77 84  1  0  0  0
 77 85  2  0  0  0
 78148  1  0  0  0
 78149  1  0  0  0
 78150  1  0  0  0
 79151  1  0  0  0
 79152  1  0  0  0
 79153  1  0  0  0
 79 82  1  0  0  0
 80 82  1  0  0  0
 80154  1  0  0  0
 80155  1  0  0  0
 80156  1  0  0  0
 81 82  1  0  0  0
 81 84  1  0  0  0
 81157  1  0  0  0
 81158  1  0  0  0
 83159  1  0  0  0
 84160  1  0  0  0
M  ISO  4   1 100  68 101  82 101  83 100
M  END
> <chiral flag>
0

> <version>
0

> <s_m_source_file>
/data/baiqing/PycharmProjects/Reinvent-master-3.2/result/LINK_invent/BTK/process_docking_weight1_custom_product_contain_oxygen_bond_distance_aromatic_linkinvent_7_9_3/rearranged_h_0031.sdf

> <i_m_source_file_index>
88

> <r_mmod_Potential_Energy-OPLS-2005>
108.751335144043

> <r_mmod_Stretch_Energy-OPLS-2005>
135.23225402832

> <r_mmod_Bend_Energy-OPLS-2005>
205.814300537109

> <r_mmod_Torsional_Energy-OPLS-2005>
235.125137329102

> <r_mmod_Improper_Torsional_Energy-OPLS-2005>
4.41616439819336

> <r_mmod_Van_der_Waal_Energy-OPLS-2005>
146.212432861328

> <r_mmod_Electrostatic_Energy-OPLS-2005>
-477.133880615234

> <r_mmod_Solvation_Energy-OPLS-2005>
-225.539916992188

> <b_mmod_Minimization_Converged-OPLS-2005>
0

> <r_mmod_RMS_Derivative-OPLS-2005>
1.59585583209991

$$$$
88
                    3D
 Structure written by MMmdl.
159167  0  0  1  0            999 V2000
  -30.7135  -14.5374   20.5316 C   0  0  0  0  0  0
  -30.4104  -12.3459   19.4288 C   0  0  0  0  0  0
  -29.4862  -12.4926   18.2051 C   0  0  0  0  0  0
  -28.0127  -12.3355   18.6254 C   0  0  0  0  0  0
  -27.6436  -13.2096   19.8528 C   0  0  2  0  0  0
  -28.6907  -13.0812   20.9799 C   0  0  0  0  0  0
  -25.2533  -13.8154   20.5685 C   0  0  0  0  0  0
  -24.1807  -13.0427   20.9213 C   0  0  0  0  0  0
  -24.6370  -11.6899   20.8763 C   0  0  0  0  0  0
  -23.9048  -10.4283   21.0418 C   0  0  0  0  0  0
  -24.3606   -9.4202   21.9194 C   0  0  0  0  0  0
  -23.6290   -8.2236   22.0754 C   0  0  0  0  0  0
  -22.4274   -8.0272   21.3543 C   0  0  0  0  0  0
  -21.9906   -9.0243   20.4644 C   0  0  0  0  0  0
  -22.7227  -10.2125   20.3061 C   0  0  0  0  0  0
  -21.6853   -6.0735   22.5282 C   0  0  0  0  0  0
  -21.4008   -6.5639   23.8214 C   0  0  0  0  0  0
  -21.3656   -5.6793   24.9176 C   0  0  0  0  0  0
  -21.6045   -4.3056   24.7229 C   0  0  0  0  0  0
  -21.8817   -3.8148   23.4349 C   0  0  0  0  0  0
  -21.9192   -4.6965   22.3406 C   0  0  0  0  0  0
  -22.7830  -13.5225   21.1876 C   0  0  0  0  0  0
  -22.1664   -4.2152   21.0984 F   0  0  0  0  0  0
  -21.5631   -3.4538   25.7741 F   0  0  0  0  0  0
  -30.0086  -13.3761   20.4024 N   0  0  0  0  0  0
  -26.2935  -12.9318   20.3294 N   0  0  0  0  0  0
  -25.9290  -11.6484   20.5767 N   0  0  0  0  0  0
  -22.0470  -12.8207   22.0413 N   0  0  0  0  0  0
  -25.4230  -15.1870   20.4063 N   0  0  0  0  0  0
  -31.8935  -14.6080   20.1834 O   0  0  0  0  0  0
  -21.6635   -6.8872   21.4242 O   0  0  0  0  0  0
  -22.3526  -14.5542   20.6737 O   0  0  0  0  0  0
  -24.6175  -31.8663   23.2065 C   0  0  0  0  0  0
  -25.9061  -32.4814   23.8372 C   0  0  1  0  0  0
  -27.2255  -27.3981   20.1148 C   0  0  0  0  0  0
  -25.5912  -33.8610   24.2305 N   0  0  0  0  0  0
  -23.4060  -30.4887   21.5476 C   0  0  2  0  0  0
  -24.8519  -28.9459   20.1172 C   0  0  0  0  0  0
  -22.7427  -29.4651   22.4981 C   0  0  0  0  0  0
  -18.0280  -28.1376   22.8483 C   0  0  0  0  0  0
  -24.1490  -36.7305   23.2640 C   0  0  0  0  0  0
  -25.9369  -30.8219   21.3630 C   0  0  0  0  0  0
  -26.0137  -29.4523   20.7131 C   0  0  0  0  0  0
  -27.2064  -28.6883   20.7020 C   0  0  0  0  0  0
  -26.0484  -26.9124   19.5105 C   0  0  0  0  0  0
  -24.8662  -27.6775   19.5111 C   0  0  0  0  0  0
  -23.6164  -29.8183   20.1636 C   0  0  0  0  0  0
  -25.4110  -36.3100   24.0338 C   0  0  1  0  0  0
  -20.5873  -28.3663   23.1316 C   0  0  2  0  0  0
  -20.6768  -26.9399   22.5417 C   0  0  0  0  0  0
  -19.5748  -26.6383   21.5213 C   0  0  0  0  0  0
  -18.1925  -26.7921   22.1619 C   0  0  0  0  0  0
  -19.1530  -28.8833   23.2895 C   0  0  0  0  0  0
  -18.9462  -30.1435   23.8911 C   0  0  0  0  0  0
  -17.6466  -30.6584   24.0554 C   0  0  0  0  0  0
  -25.9044  -34.9474   23.5119 C   0  0  0  0  0  0
  -16.5355  -29.9081   23.6326 C   0  0  0  0  0  0
  -16.7267  -28.6500   23.0344 C   0  0  0  0  0  0
  -26.4474  -31.6594   25.0710 C   0  0  0  0  0  0
  -25.3726  -31.3714   26.1450 C   0  0  0  0  0  0
  -27.0309  -30.3043   24.6083 C   0  0  0  0  0  0
  -27.6048  -32.4310   25.7475 C   0  0  0  0  0  0
  -27.5579  -37.1804   24.8465 C   0  0  0  0  0  0
  -21.4152  -29.3029   22.3720 N   0  0  0  0  0  0
  -26.4292  -37.3784   23.9413 N   0  0  0  0  0  0
  -24.6720  -31.0741   22.0978 N   0  0  0  0  0  0
  -23.4198  -28.8202   23.3032 O   0  0  0  0  0  0
  -28.3818  -26.6419   20.0872 O   0  0  0  0  0  0
  -26.5605  -34.8923   22.4678 O   0  0  0  0  0  0
  -23.5362  -32.1433   23.7454 O   0  0  0  0  0  0
  -30.1369  -20.6634   19.1402 C   0  0  0  0  0  0
  -30.9876  -19.6148   18.7538 C   0  0  0  0  0  0
  -28.7115  -19.0468   20.2785 C   0  0  0  0  0  0
  -28.9728  -20.3971   19.8873 C   0  0  0  0  0  0
  -29.5600  -17.9655   19.8816 C   0  0  0  0  0  0
  -30.6914  -18.2794   19.0841 C   0  0  0  0  0  0
  -30.7196  -16.3819   22.1076 C   0  0  0  0  0  0
  -29.1727  -16.4871   20.1863 C   0  0  0  0  0  0
  -27.9651  -21.5466   20.1251 C   0  0  0  0  0  0
  -28.1132  -24.0902   19.9885 C   0  0  0  0  0  0
  -28.3788  -25.3889   20.8187 C   0  0  0  0  0  0
  -30.0724  -15.6392   21.0237 N   0  0  0  0  0  0
  -28.5340  -22.8163   20.6730 N   0  3  0  0  0  0
  -31.7017  -17.0601   18.4032 Cl  0  0  0  0  0  0
  -31.4546  -12.4339   19.1227 H   0  0  0  0  0  0
  -30.3130  -11.3530   19.8701 H   0  0  0  0  0  0
  -29.7395  -11.7480   17.4492 H   0  0  0  0  0  0
  -29.6356  -13.4676   17.7383 H   0  0  0  0  0  0
  -27.8473  -11.2826   18.8589 H   0  0  0  0  0  0
  -27.3539  -12.5654   17.7869 H   0  0  0  0  0  0
  -27.6504  -14.2373   19.4994 H   0  0  0  0  0  0
  -28.6866  -12.0749   21.3995 H   0  0  0  0  0  0
  -28.4507  -13.7532   21.8056 H   0  0  0  0  0  0
  -25.2749   -9.5684   22.4771 H   0  0  0  0  0  0
  -24.0006   -7.4623   22.7464 H   0  0  0  0  0  0
  -21.0848   -8.8753   19.8941 H   0  0  0  0  0  0
  -22.3688  -10.9666   19.6173 H   0  0  0  0  0  0
  -21.1996   -7.6148   23.9720 H   0  0  0  0  0  0
  -21.1482   -6.0522   25.9079 H   0  0  0  0  0  0
  -22.0602   -2.7611   23.2850 H   0  0  0  0  0  0
  -22.4076  -11.9854   22.4782 H   0  0  0  0  0  0
  -21.1082  -13.1219   22.2613 H   0  0  0  0  0  0
  -24.6518  -15.8377   20.5051 H   0  0  0  0  0  0
  -26.2646  -15.6215   20.0532 H   0  0  0  0  0  0
  -26.7132  -32.5519   23.1129 H   0  0  0  0  0  0
  -25.0061  -33.9763   25.0449 H   0  0  0  0  0  0
  -22.6955  -31.3060   21.4061 H   0  0  0  0  0  0
  -23.3758  -35.9630   23.3302 H   0  0  0  0  0  0
  -24.3589  -36.8920   22.2056 H   0  0  0  0  0  0
  -23.7235  -37.6501   23.6658 H   0  0  0  0  0  0
  -26.0501  -31.5853   20.5921 H   0  0  0  0  0  0
  -26.8243  -30.8792   21.9806 H   0  0  0  0  0  0
  -28.1072  -29.0789   21.1546 H   0  0  0  0  0  0
  -26.0388  -25.9460   19.0291 H   0  0  0  0  0  0
  -23.9735  -27.2843   19.0447 H   0  0  0  0  0  0
  -23.7290  -30.5927   19.4039 H   0  0  0  0  0  0
  -22.7380  -29.2422   19.8660 H   0  0  0  0  0  0
  -25.1286  -36.1959   25.0829 H   0  0  0  0  0  0
  -20.9946  -28.3225   24.1445 H   0  0  0  0  0  0
  -20.5683  -26.2267   23.3603 H   0  0  0  0  0  0
  -21.6640  -26.7448   22.1203 H   0  0  0  0  0  0
  -19.6919  -25.6299   21.1229 H   0  0  0  0  0  0
  -19.6699  -27.3201   20.6750 H   0  0  0  0  0  0
  -17.4198  -26.6679   21.4015 H   0  0  0  0  0  0
  -18.0316  -26.0056   22.9008 H   0  0  0  0  0  0
  -19.7945  -30.7234   24.2291 H   0  0  0  0  0  0
  -17.5032  -31.6270   24.5145 H   0  0  0  0  0  0
  -15.5357  -30.2986   23.7654 H   0  0  0  0  0  0
  -15.8670  -28.0826   22.7049 H   0  0  0  0  0  0
  -24.5897  -30.7069   25.7784 H   0  0  0  0  0  0
  -24.8920  -32.2876   26.4892 H   0  0  0  0  0  0
  -25.8062  -30.8884   27.0215 H   0  0  0  0  0  0
  -26.2851  -29.6803   24.1146 H   0  0  0  0  0  0
  -27.4109  -29.7285   25.4530 H   0  0  0  0  0  0
  -27.8674  -30.4381   23.9216 H   0  0  0  0  0  0
  -27.2681  -33.3629   26.2029 H   0  0  0  0  0  0
  -28.3873  -32.6829   25.0306 H   0  0  0  0  0  0
  -28.0686  -31.8438   26.5406 H   0  0  0  0  0  0
  -28.2586  -38.0104   24.7507 H   0  0  0  0  0  0
  -28.1075  -36.2636   24.6290 H   0  0  0  0  0  0
  -27.2297  -37.1454   25.8864 H   0  0  0  0  0  0
  -20.9313  -29.8751   21.6944 H   0  0  0  0  0  0
  -26.0185  -38.2864   24.1406 H   0  0  0  0  0  0
  -30.3623  -21.6665   18.8055 H   0  0  0  0  0  0
  -31.8527  -19.8305   18.1436 H   0  0  0  0  0  0
  -27.8092  -18.8262   20.8328 H   0  0  0  0  0  0
  -30.0185  -17.0640   22.5902 H   0  0  0  0  0  0
  -31.5604  -16.9659   21.7303 H   0  0  0  0  0  0
  -31.0992  -15.7060   22.8754 H   0  0  0  0  0  0
  -29.0222  -16.0053   19.2188 H   0  0  0  0  0  0
  -28.1935  -16.4792   20.6661 H   0  0  0  0  0  0
  -27.1700  -21.2087   20.7907 H   0  0  0  0  0  0
  -27.4834  -21.7485   19.1668 H   0  0  0  0  0  0
  -28.6469  -24.1522   19.0393 H   0  0  0  0  0  0
  -27.0515  -24.0366   19.7488 H   0  0  0  0  0  0
  -29.3717  -25.3161   21.2635 H   0  0  0  0  0  0
  -27.6879  -25.4430   21.6619 H   0  0  0  0  0  0
  -29.5386  -22.7432   20.6587 H   0  0  0  0  0  0
  -28.2616  -22.8513   21.6425 H   0  0  0  0  0  0
  1 25  1  0  0  0
  1 30  2  0  0  0
  1 82  1  0  0  0
  2  3  1  0  0  0
  2 25  1  0  0  0
  2 85  1  0  0  0
  2 86  1  0  0  0
  3  4  1  0  0  0
  3 87  1  0  0  0
  3 88  1  0  0  0
  4  5  1  0  0  0
  4 89  1  0  0  0
  4 90  1  0  0  0
  5  6  1  0  0  0
  5 26  1  0  0  0
  5 91  1  0  0  0
  6 25  1  0  0  0
  6 92  1  0  0  0
  6 93  1  0  0  0
  7  8  2  0  0  0
  7 26  1  0  0  0
  7 29  1  0  0  0
  8  9  1  0  0  0
  8 22  1  0  0  0
  9 10  1  0  0  0
  9 27  2  0  0  0
 10 11  2  0  0  0
 10 15  1  0  0  0
 11 12  1  0  0  0
 11 94  1  0  0  0
 12 13  2  0  0  0
 12 95  1  0  0  0
 13 14  1  0  0  0
 13 31  1  0  0  0
 14 15  2  0  0  0
 14 96  1  0  0  0
 15 97  1  0  0  0
 16 17  2  0  0  0
 16 21  1  0  0  0
 16 31  1  0  0  0
 17 18  1  0  0  0
 17 98  1  0  0  0
 18 19  2  0  0  0
 18 99  1  0  0  0
 19 20  1  0  0  0
 19 24  1  0  0  0
 20 21  2  0  0  0
 20100  1  0  0  0
 21 23  1  0  0  0
 22 28  1  0  0  0
 22 32  2  0  0  0
 26 27  1  0  0  0
 28101  1  0  0  0
 28102  1  0  0  0
 29103  1  0  0  0
 29104  1  0  0  0
 33 34  1  0  0  0
 33 66  1  0  0  0
 33 70  2  0  0  0
 34 36  1  0  0  0
 34 59  1  0  0  0
 34105  1  0  0  0
 35 44  2  0  0  0
 35 45  1  0  0  0
 35 68  1  0  0  0
 36 56  1  0  0  0
 36106  1  0  0  0
 37 39  1  0  0  0
 37 47  1  0  0  0
 37 66  1  0  0  0
 37107  1  0  0  0
 38 43  2  0  0  0
 38 46  1  0  0  0
 38 47  1  0  0  0
 39 64  1  0  0  0
 39 67  2  0  0  0
 40 52  1  0  0  0
 40 53  2  0  0  0
 40 58  1  0  0  0
 41108  1  0  0  0
 41109  1  0  0  0
 41110  1  0  0  0
 41 48  1  0  0  0
 42 43  1  0  0  0
 42 66  1  0  0  0
 42111  1  0  0  0
 42112  1  0  0  0
 43 44  1  0  0  0
 44113  1  0  0  0
 45 46  2  0  0  0
 45114  1  0  0  0
 46115  1  0  0  0
 47116  1  0  0  0
 47117  1  0  0  0
 48 56  1  0  0  0
 48 65  1  0  0  0
 48118  1  0  0  0
 49 50  1  0  0  0
 49 53  1  0  0  0
 49 64  1  0  0  0
 49119  1  0  0  0
 50 51  1  0  0  0
 50120  1  0  0  0
 50121  1  0  0  0
 51 52  1  0  0  0
 51122  1  0  0  0
 51123  1  0  0  0
 52124  1  0  0  0
 52125  1  0  0  0
 53 54  1  0  0  0
 54 55  2  0  0  0
 54126  1  0  0  0
 55 57  1  0  0  0
 55127  1  0  0  0
 56 69  2  0  0  0
 57 58  2  0  0  0
 57128  1  0  0  0
 58129  1  0  0  0
 59 60  1  0  0  0
 59 61  1  0  0  0
 59 62  1  0  0  0
 60130  1  0  0  0
 60131  1  0  0  0
 60132  1  0  0  0
 61133  1  0  0  0
 61134  1  0  0  0
 61135  1  0  0  0
 62136  1  0  0  0
 62137  1  0  0  0
 62138  1  0  0  0
 63 65  1  0  0  0
 63139  1  0  0  0
 63140  1  0  0  0
 63141  1  0  0  0
 64142  1  0  0  0
 65143  1  0  0  0
 68 81  1  0  0  0
 71 72  2  0  0  0
 71 74  1  0  0  0
 71144  1  0  0  0
 72 76  1  0  0  0
 72145  1  0  0  0
 73 74  2  0  0  0
 73 75  1  0  0  0
 73146  1  0  0  0
 74 79  1  0  0  0
 75 76  2  0  0  0
 75 78  1  0  0  0
 76 84  1  0  0  0
 77 82  1  0  0  0
 77147  1  0  0  0
 77148  1  0  0  0
 77149  1  0  0  0
 78 82  1  0  0  0
 78150  1  0  0  0
 78151  1  0  0  0
 79 83  1  0  0  0
 79152  1  0  0  0
 79153  1  0  0  0
 80 81  1  0  0  0
 80 83  1  0  0  0
 80154  1  0  0  0
 80155  1  0  0  0
 81156  1  0  0  0
 81157  1  0  0  0
 83158  1  0  0  0
 83159  1  0  0  0
M  CHG  1  83   1
M  ISO  4   1 100  68 101  81 101  82 100
M  END
> <chiral flag>
0

> <version>
0

> <s_m_source_file>
/data/baiqing/PycharmProjects/Reinvent-master-3.2/result/LINK_invent/BTK/process_docking_weight1_custom_product_contain_oxygen_bond_distance_aromatic_linkinvent_7_9_3/rearranged_h_0031.sdf

> <i_m_source_file_index>
89

> <r_mmod_Potential_Energy-OPLS-2005>
-28.2962856292725

> <r_mmod_Stretch_Energy-OPLS-2005>
51.3025283813477

> <r_mmod_Bend_Energy-OPLS-2005>
110.126342773438

> <r_mmod_Torsional_Energy-OPLS-2005>
301.270690917969

> <r_mmod_Improper_Torsional_Energy-OPLS-2005>
4.99306201934814

> <r_mmod_Van_der_Waal_Energy-OPLS-2005>
137.486267089844

> <r_mmod_Electrostatic_Energy-OPLS-2005>
-195.986434936523

> <r_mmod_Solvation_Energy-OPLS-2005>
-462.884429931641

> <b_mmod_Minimization_Converged-OPLS-2005>
0

> <r_mmod_RMS_Derivative-OPLS-2005>
1.26419043540955

$$$$
89
                    3D
 Structure written by MMmdl.
155164  0  0  1  0            999 V2000
  -30.6870  -14.5709   20.5620 C   0  0  0  0  0  0
  -30.4205  -12.3621   19.4696 C   0  0  0  0  0  0
  -29.5081  -12.5033   18.2310 C   0  0  0  0  0  0
  -28.0241  -12.3668   18.6286 C   0  0  0  0  0  0
  -27.6549  -13.2259   19.8677 C   0  0  2  0  0  0
  -28.6902  -13.0697   21.0070 C   0  0  0  0  0  0
  -25.2524  -13.8178   20.5667 C   0  0  0  0  0  0
  -24.1791  -13.0457   20.9135 C   0  0  0  0  0  0
  -24.6389  -11.6918   20.8706 C   0  0  0  0  0  0
  -23.9087  -10.4276   21.0402 C   0  0  0  0  0  0
  -24.3650   -9.4181   21.9166 C   0  0  0  0  0  0
  -23.6292   -8.2240   22.0754 C   0  0  0  0  0  0
  -22.4275   -8.0280   21.3532 C   0  0  0  0  0  0
  -21.9915   -9.0273   20.4665 C   0  0  0  0  0  0
  -22.7269  -10.2126   20.3046 C   0  0  0  0  0  0
  -21.6861   -6.0736   22.5259 C   0  0  0  0  0  0
  -21.4037   -6.5635   23.8196 C   0  0  0  0  0  0
  -21.3645   -5.6774   24.9144 C   0  0  0  0  0  0
  -21.6053   -4.3046   24.7199 C   0  0  0  0  0  0
  -21.8802   -3.8140   23.4317 C   0  0  0  0  0  0
  -21.9195   -4.6959   22.3383 C   0  0  0  0  0  0
  -22.7808  -13.5233   21.1788 C   0  0  0  0  0  0
  -22.1654   -4.2167   21.0955 F   0  0  0  0  0  0
  -21.5642   -3.4528   25.7704 F   0  0  0  0  0  0
  -30.0127  -13.3865   20.4515 N   0  0  0  0  0  0
  -26.2984  -12.9400   20.3319 N   0  0  0  0  0  0
  -25.9340  -11.6539   20.5768 N   0  0  0  0  0  0
  -22.0470  -12.8260   22.0361 N   0  0  0  0  0  0
  -25.4221  -15.1903   20.4086 N   0  0  0  0  0  0
  -31.8318  -14.6956   20.1195 O   0  0  0  0  0  0
  -21.6634   -6.8887   21.4224 O   0  0  0  0  0  0
  -22.3484  -14.5528   20.6623 O   0  0  0  0  0  0
  -24.6204  -31.8644   23.2047 C   0  0  0  0  0  0
  -25.9073  -32.4793   23.8368 C   0  0  1  0  0  0
  -27.2245  -27.3736   20.1107 C   0  0  0  0  0  0
  -25.5903  -33.8602   24.2281 N   0  0  0  0  0  0
  -23.4138  -30.4867   21.5445 C   0  0  2  0  0  0
  -24.8601  -28.9469   20.1137 C   0  0  0  0  0  0
  -22.7437  -29.4633   22.4919 C   0  0  0  0  0  0
  -18.0269  -28.1340   22.8496 C   0  0  0  0  0  0
  -24.1471  -36.7322   23.2622 C   0  0  0  0  0  0
  -25.9510  -30.8132   21.3702 C   0  0  0  0  0  0
  -26.0267  -29.4430   20.7138 C   0  0  0  0  0  0
  -27.2162  -28.6674   20.6983 C   0  0  0  0  0  0
  -26.0432  -26.9103   19.4979 C   0  0  0  0  0  0
  -24.8677  -27.6840   19.4991 C   0  0  0  0  0  0
  -23.6292  -29.8221   20.1581 C   0  0  0  0  0  0
  -25.4090  -36.3126   24.0325 C   0  0  1  0  0  0
  -20.5872  -28.3655   23.1284 C   0  0  2  0  0  0
  -20.6751  -26.9369   22.5413 C   0  0  0  0  0  0
  -19.5747  -26.6359   21.5210 C   0  0  0  0  0  0
  -18.1912  -26.7891   22.1615 C   0  0  0  0  0  0
  -19.1528  -28.8815   23.2896 C   0  0  0  0  0  0
  -18.9456  -30.1407   23.8930 C   0  0  0  0  0  0
  -17.6475  -30.6569   24.0541 C   0  0  0  0  0  0
  -25.9054  -34.9487   23.5104 C   0  0  0  0  0  0
  -16.5360  -29.9083   23.6287 C   0  0  0  0  0  0
  -16.7259  -28.6478   23.0362 C   0  0  0  0  0  0
  -26.4461  -31.6621   25.0745 C   0  0  0  0  0  0
  -25.3714  -31.3768   26.1501 C   0  0  0  0  0  0
  -27.0321  -30.3063   24.6188 C   0  0  0  0  0  0
  -27.6021  -32.4344   25.7519 C   0  0  0  0  0  0
  -27.5616  -37.1734   24.8392 C   0  0  0  0  0  0
  -21.4145  -29.3049   22.3691 N   0  0  0  0  0  0
  -26.4232  -37.3858   23.9487 N   0  0  0  0  0  0
  -24.6802  -31.0712   22.0968 N   0  0  0  0  0  0
  -23.4201  -28.8131   23.2922 O   0  0  0  0  0  0
  -28.3585  -26.5777   20.0872 O   0  0  0  0  0  0
  -26.5648  -34.8940   22.4683 O   0  0  0  0  0  0
  -23.5376  -32.1390   23.7415 O   0  0  0  0  0  0
  -28.5334  -20.7774   22.1899 C   0  0  0  0  0  0
  -28.4778  -19.6252   23.0011 C   0  0  0  0  0  0
  -29.7730  -19.4938   20.5396 C   0  0  0  0  0  0
  -29.1881  -20.7349   20.9428 C   0  0  0  0  0  0
  -29.7384  -18.3110   21.3458 C   0  0  0  0  0  0
  -29.0765  -18.4067   22.5994 C   0  0  0  0  0  0
  -29.5866  -24.4916   20.6928 C   0  0  0  0  0  0
  -27.5930  -24.0725   20.3658 C   0  0  0  0  0  0
  -28.3087  -25.3490   20.8756 C   0  0  2  0  0  0
  -29.2989  -21.9805   20.0194 C   0  0  0  0  0  0
  -30.5524  -17.0545   20.9015 C   0  0  0  0  0  0
  -28.8675  -23.3265   20.4867 N   0  0  0  0  0  0
  -30.0107  -15.6653   21.0116 N   0  0  0  0  0  0
  -30.7847  -24.7002   20.6633 O   0  0  0  0  0  0
  -29.0238  -17.0758   23.7036 Cl  0  0  0  0  0  0
  -31.4676  -12.4567   19.1818 H   0  0  0  0  0  0
  -30.3239  -11.3683   19.9072 H   0  0  0  0  0  0
  -29.7713  -11.7501   17.4880 H   0  0  0  0  0  0
  -29.6691  -13.4727   17.7551 H   0  0  0  0  0  0
  -27.8311  -11.3129   18.8333 H   0  0  0  0  0  0
  -27.3822  -12.6367   17.7881 H   0  0  0  0  0  0
  -27.6872  -14.2672   19.5390 H   0  0  0  0  0  0
  -28.6783  -12.0495   21.4009 H   0  0  0  0  0  0
  -28.4425  -13.7186   21.8478 H   0  0  0  0  0  0
  -25.2824   -9.5670   22.4696 H   0  0  0  0  0  0
  -24.0016   -7.4652   22.7504 H   0  0  0  0  0  0
  -21.0846   -8.8810   19.9001 H   0  0  0  0  0  0
  -22.3754  -10.9658   19.6128 H   0  0  0  0  0  0
  -21.2027   -7.6150   23.9703 H   0  0  0  0  0  0
  -21.1493   -6.0510   25.9061 H   0  0  0  0  0  0
  -22.0602   -2.7621   23.2788 H   0  0  0  0  0  0
  -22.4155  -11.9975   22.4783 H   0  0  0  0  0  0
  -21.1093  -13.1282   22.2594 H   0  0  0  0  0  0
  -24.6583  -15.8440   20.5405 H   0  0  0  0  0  0
  -26.2741  -15.6333   20.0893 H   0  0  0  0  0  0
  -26.7141  -32.5481   23.1130 H   0  0  0  0  0  0
  -24.9964  -33.9757   25.0380 H   0  0  0  0  0  0
  -22.7083  -31.3078   21.3971 H   0  0  0  0  0  0
  -23.3803  -35.9575   23.3107 H   0  0  0  0  0  0
  -24.3641  -36.9150   22.2087 H   0  0  0  0  0  0
  -23.7097  -37.6407   23.6767 H   0  0  0  0  0  0
  -26.0840  -31.5810   20.6076 H   0  0  0  0  0  0
  -26.8311  -30.8602   21.9994 H   0  0  0  0  0  0
  -28.1192  -29.0485   21.1570 H   0  0  0  0  0  0
  -26.0215  -25.9497   19.0096 H   0  0  0  0  0  0
  -23.9727  -27.3022   19.0280 H   0  0  0  0  0  0
  -23.7558  -30.5982   19.4031 H   0  0  0  0  0  0
  -22.7514  -29.2550   19.8451 H   0  0  0  0  0  0
  -25.1216  -36.1944   25.0806 H   0  0  0  0  0  0
  -20.9986  -28.3220   24.1395 H   0  0  0  0  0  0
  -20.5618  -26.2252   23.3605 H   0  0  0  0  0  0
  -21.6611  -26.7377   22.1237 H   0  0  0  0  0  0
  -19.6901  -25.6284   21.1220 H   0  0  0  0  0  0
  -19.6673  -27.3159   20.6727 H   0  0  0  0  0  0
  -17.4169  -26.6633   21.4014 H   0  0  0  0  0  0
  -18.0330  -26.0020   22.9000 H   0  0  0  0  0  0
  -19.7960  -30.7175   24.2364 H   0  0  0  0  0  0
  -17.5050  -31.6270   24.5110 H   0  0  0  0  0  0
  -15.5372  -30.3012   23.7605 H   0  0  0  0  0  0
  -15.8650  -28.0797   22.7119 H   0  0  0  0  0  0
  -24.5857  -30.7135   25.7865 H   0  0  0  0  0  0
  -24.8934  -32.2941   26.4947 H   0  0  0  0  0  0
  -25.8073  -30.8945   27.0272 H   0  0  0  0  0  0
  -26.2914  -29.6818   24.1187 H   0  0  0  0  0  0
  -27.4012  -29.7309   25.4693 H   0  0  0  0  0  0
  -27.8767  -30.4367   23.9426 H   0  0  0  0  0  0
  -27.2627  -33.3615   26.2150 H   0  0  0  0  0  0
  -28.3828  -32.6962   25.0367 H   0  0  0  0  0  0
  -28.0705  -31.8444   26.5416 H   0  0  0  0  0  0
  -28.2381  -38.0271   24.7869 H   0  0  0  0  0  0
  -28.1352  -36.2865   24.5649 H   0  0  0  0  0  0
  -27.2429  -37.0694   25.8779 H   0  0  0  0  0  0
  -20.9301  -29.8845   21.6987 H   0  0  0  0  0  0
  -26.0096  -38.2861   24.1785 H   0  0  0  0  0  0
  -28.0723  -21.6900   22.5385 H   0  0  0  0  0  0
  -27.9870  -19.6870   23.9625 H   0  0  0  0  0  0
  -30.2956  -19.4611   19.5912 H   0  0  0  0  0  0
  -26.8106  -23.7239   21.0438 H   0  0  0  0  0  0
  -27.2226  -24.1311   19.3418 H   0  0  0  0  0  0
  -28.0814  -25.5587   21.9218 H   0  0  0  0  0  0
  -28.7373  -21.7606   19.1116 H   0  0  0  0  0  0
  -30.3428  -22.0452   19.7065 H   0  0  0  0  0  0
  -31.4821  -17.0840   21.4711 H   0  0  0  0  0  0
  -30.8540  -17.2039   19.8631 H   0  0  0  0  0  0
  -29.0771  -15.5431   21.3755 H   0  0  0  0  0  0
  1 25  1  0  0  0
  1 30  2  0  0  0
  1 83  1  0  0  0
  2  3  1  0  0  0
  2 25  1  0  0  0
  2 86  1  0  0  0
  2 87  1  0  0  0
  3  4  1  0  0  0
  3 88  1  0  0  0
  3 89  1  0  0  0
  4  5  1  0  0  0
  4 90  1  0  0  0
  4 91  1  0  0  0
  5  6  1  0  0  0
  5 26  1  0  0  0
  5 92  1  0  0  0
  6 25  1  0  0  0
  6 93  1  0  0  0
  6 94  1  0  0  0
  7  8  2  0  0  0
  7 26  1  0  0  0
  7 29  1  0  0  0
  8  9  1  0  0  0
  8 22  1  0  0  0
  9 10  1  0  0  0
  9 27  2  0  0  0
 10 11  2  0  0  0
 10 15  1  0  0  0
 11 12  1  0  0  0
 11 95  1  0  0  0
 12 13  2  0  0  0
 12 96  1  0  0  0
 13 14  1  0  0  0
 13 31  1  0  0  0
 14 15  2  0  0  0
 14 97  1  0  0  0
 15 98  1  0  0  0
 16 17  2  0  0  0
 16 21  1  0  0  0
 16 31  1  0  0  0
 17 18  1  0  0  0
 17 99  1  0  0  0
 18 19  2  0  0  0
 18100  1  0  0  0
 19 20  1  0  0  0
 19 24  1  0  0  0
 20 21  2  0  0  0
 20101  1  0  0  0
 21 23  1  0  0  0
 22 28  1  0  0  0
 22 32  2  0  0  0
 26 27  1  0  0  0
 28102  1  0  0  0
 28103  1  0  0  0
 29104  1  0  0  0
 29105  1  0  0  0
 33 34  1  0  0  0
 33 66  1  0  0  0
 33 70  2  0  0  0
 34 36  1  0  0  0
 34 59  1  0  0  0
 34106  1  0  0  0
 35 44  2  0  0  0
 35 45  1  0  0  0
 35 68  1  0  0  0
 36 56  1  0  0  0
 36107  1  0  0  0
 37 39  1  0  0  0
 37 47  1  0  0  0
 37 66  1  0  0  0
 37108  1  0  0  0
 38 43  2  0  0  0
 38 46  1  0  0  0
 38 47  1  0  0  0
 39 64  1  0  0  0
 39 67  2  0  0  0
 40 52  1  0  0  0
 40 53  2  0  0  0
 40 58  1  0  0  0
 41109  1  0  0  0
 41110  1  0  0  0
 41111  1  0  0  0
 41 48  1  0  0  0
 42 43  1  0  0  0
 42 66  1  0  0  0
 42112  1  0  0  0
 42113  1  0  0  0
 43 44  1  0  0  0
 44114  1  0  0  0
 45 46  2  0  0  0
 45115  1  0  0  0
 46116  1  0  0  0
 47117  1  0  0  0
 47118  1  0  0  0
 48 56  1  0  0  0
 48 65  1  0  0  0
 48119  1  0  0  0
 49 50  1  0  0  0
 49 53  1  0  0  0
 49 64  1  0  0  0
 49120  1  0  0  0
 50 51  1  0  0  0
 50121  1  0  0  0
 50122  1  0  0  0
 51 52  1  0  0  0
 51123  1  0  0  0
 51124  1  0  0  0
 52125  1  0  0  0
 52126  1  0  0  0
 53 54  1  0  0  0
 54 55  2  0  0  0
 54127  1  0  0  0
 55 57  1  0  0  0
 55128  1  0  0  0
 56 69  2  0  0  0
 57 58  2  0  0  0
 57129  1  0  0  0
 58130  1  0  0  0
 59 60  1  0  0  0
 59 61  1  0  0  0
 59 62  1  0  0  0
 60131  1  0  0  0
 60132  1  0  0  0
 60133  1  0  0  0
 61134  1  0  0  0
 61135  1  0  0  0
 61136  1  0  0  0
 62137  1  0  0  0
 62138  1  0  0  0
 62139  1  0  0  0
 63 65  1  0  0  0
 63140  1  0  0  0
 63141  1  0  0  0
 63142  1  0  0  0
 64143  1  0  0  0
 65144  1  0  0  0
 68 79  1  0  0  0
 71 72  2  0  0  0
 71 74  1  0  0  0
 71145  1  0  0  0
 72 76  1  0  0  0
 72146  1  0  0  0
 73 74  2  0  0  0
 73 75  1  0  0  0
 73147  1  0  0  0
 74 80  1  0  0  0
 75 76  2  0  0  0
 75 81  1  0  0  0
 76 85  1  0  0  0
 77 79  1  0  0  0
 77 82  1  0  0  0
 77 84  2  0  0  0
 78 79  1  0  0  0
 78 82  1  0  0  0
 78148  1  0  0  0
 78149  1  0  0  0
 79150  1  0  0  0
 80 82  1  0  0  0
 80151  1  0  0  0
 80152  1  0  0  0
 81 83  1  0  0  0
 81153  1  0  0  0
 81154  1  0  0  0
 83155  1  0  0  0
M  ISO  4   1 100  68 101  79 101  83 100
M  END
> <chiral flag>
0

> <version>
0

> <s_m_source_file>
/data/baiqing/PycharmProjects/Reinvent-master-3.2/result/LINK_invent/BTK/process_docking_weight1_custom_product_contain_oxygen_bond_distance_aromatic_linkinvent_7_9_3/rearranged_h_0031.sdf

> <i_m_source_file_index>
90

> <r_mmod_Potential_Energy-OPLS-2005>
-33.9108352661133

> <r_mmod_Stretch_Energy-OPLS-2005>
57.1674995422363

> <r_mmod_Bend_Energy-OPLS-2005>
127.053604125977

> <r_mmod_Torsional_Energy-OPLS-2005>
228.852600097656

> <r_mmod_Improper_Torsional_Energy-OPLS-2005>
5.64344549179077

> <r_mmod_Van_der_Waal_Energy-OPLS-2005>
133.797805786133

> <r_mmod_Electrostatic_Energy-OPLS-2005>
-385.715881347656

> <r_mmod_Solvation_Energy-OPLS-2005>
-228.694091796875

> <b_mmod_Minimization_Converged-OPLS-2005>
0

> <r_mmod_RMS_Derivative-OPLS-2005>
5.02626132965088

$$$$
90
                    3D
 Structure written by MMmdl.
156164  0  0  1  0            999 V2000
  -30.6131  -14.6929   20.4630 C   0  0  0  0  0  0
  -30.4434  -12.4196   19.4444 C   0  0  0  0  0  0
  -29.5121  -12.5128   18.2193 C   0  0  0  0  0  0
  -28.0303  -12.3628   18.6238 C   0  0  0  0  0  0
  -27.6552  -13.2305   19.8578 C   0  0  2  0  0  0
  -28.7074  -13.1087   20.9827 C   0  0  0  0  0  0
  -25.2536  -13.8215   20.5569 C   0  0  0  0  0  0
  -24.1843  -13.0443   20.9125 C   0  0  0  0  0  0
  -24.6443  -11.6913   20.8728 C   0  0  0  0  0  0
  -23.9083  -10.4296   21.0385 C   0  0  0  0  0  0
  -24.3625   -9.4215   21.9172 C   0  0  0  0  0  0
  -23.6327   -8.2228   22.0736 C   0  0  0  0  0  0
  -22.4313   -8.0258   21.3503 C   0  0  0  0  0  0
  -21.9919   -9.0236   20.4610 C   0  0  0  0  0  0
  -22.7243  -10.2134   20.3032 C   0  0  0  0  0  0
  -21.6855   -6.0734   22.5303 C   0  0  0  0  0  0
  -21.4026   -6.5638   23.8233 C   0  0  0  0  0  0
  -21.3659   -5.6758   24.9171 C   0  0  0  0  0  0
  -21.6039   -4.3033   24.7209 C   0  0  0  0  0  0
  -21.8828   -3.8127   23.4326 C   0  0  0  0  0  0
  -21.9180   -4.6936   22.3396 C   0  0  0  0  0  0
  -22.7844  -13.5204   21.1751 C   0  0  0  0  0  0
  -22.1638   -4.2123   21.0959 F   0  0  0  0  0  0
  -21.5629   -3.4507   25.7720 F   0  0  0  0  0  0
  -30.0237  -13.4560   20.4122 N   0  0  0  0  0  0
  -26.3038  -12.9432   20.3302 N   0  0  0  0  0  0
  -25.9418  -11.6565   20.5807 N   0  0  0  0  0  0
  -22.0428  -12.8311   22.0365 N   0  0  0  0  0  0
  -25.4128  -15.1931   20.3911 N   0  0  0  0  0  0
  -31.7794  -14.8668   20.0871 O   0  0  0  0  0  0
  -21.6639   -6.8899   21.4260 O   0  0  0  0  0  0
  -22.3519  -14.5430   20.6459 O   0  0  0  0  0  0
  -24.6273  -31.8611   23.2003 C   0  0  0  0  0  0
  -25.9086  -32.4807   23.8370 C   0  0  1  0  0  0
  -27.2263  -27.3268   20.1008 C   0  0  0  0  0  0
  -25.5879  -33.8617   24.2254 N   0  0  0  0  0  0
  -23.4187  -30.4883   21.5457 C   0  0  2  0  0  0
  -24.8640  -28.9390   20.1175 C   0  0  0  0  0  0
  -22.7470  -29.4652   22.4909 C   0  0  0  0  0  0
  -18.0300  -28.1366   22.8472 C   0  0  0  0  0  0
  -24.1481  -36.7324   23.2614 C   0  0  0  0  0  0
  -25.9641  -30.7946   21.3732 C   0  0  0  0  0  0
  -26.0348  -29.4218   20.7130 C   0  0  0  0  0  0
  -27.2212  -28.6273   20.6915 C   0  0  0  0  0  0
  -26.0347  -26.9002   19.4750 C   0  0  0  0  0  0
  -24.8638  -27.6822   19.4937 C   0  0  0  0  0  0
  -23.6368  -29.8259   20.1631 C   0  0  0  0  0  0
  -25.4079  -36.3110   24.0339 C   0  0  1  0  0  0
  -20.5918  -28.3689   23.1274 C   0  0  2  0  0  0
  -20.6787  -26.9405   22.5401 C   0  0  0  0  0  0
  -19.5770  -26.6364   21.5197 C   0  0  0  0  0  0
  -18.1957  -26.7908   22.1614 C   0  0  0  0  0  0
  -19.1554  -28.8836   23.2882 C   0  0  0  0  0  0
  -18.9454  -30.1424   23.8898 C   0  0  0  0  0  0
  -17.6456  -30.6574   24.0559 C   0  0  0  0  0  0
  -25.9035  -34.9481   23.5098 C   0  0  0  0  0  0
  -16.5357  -29.9070   23.6312 C   0  0  0  0  0  0
  -16.7294  -28.6497   23.0337 C   0  0  0  0  0  0
  -26.4410  -31.6633   25.0768 C   0  0  0  0  0  0
  -25.3608  -31.3847   26.1498 C   0  0  0  0  0  0
  -27.0211  -30.3032   24.6244 C   0  0  0  0  0  0
  -27.5961  -32.4378   25.7566 C   0  0  0  0  0  0
  -27.5625  -37.1742   24.8379 C   0  0  0  0  0  0
  -21.4202  -29.3043   22.3657 N   0  0  0  0  0  0
  -26.4232  -37.3850   23.9486 N   0  0  0  0  0  0
  -24.6884  -31.0675   22.0937 N   0  0  0  0  0  0
  -23.4169  -28.8147   23.2972 O   0  0  0  0  0  0
  -28.3625  -26.5040   20.0872 O   0  0  0  0  0  0
  -26.5664  -34.8926   22.4700 O   0  0  0  0  0  0
  -23.5444  -32.1432   23.7330 O   0  0  0  0  0  0
  -28.3516  -19.2283   21.1568 C   0  0  0  0  0  0
  -30.5598  -18.0434   19.9067 C   0  0  0  0  0  0
  -29.1270  -20.0705   20.3194 C   0  0  0  0  0  0
  -29.7233  -17.1884   20.6870 C   0  0  0  0  0  0
  -30.2672  -19.4417   19.7334 C   0  0  0  0  0  0
  -28.6387  -17.8421   21.3365 C   0  0  0  0  0  0
  -30.5306  -22.7786   21.1528 C   0  0  0  0  0  0
  -28.6167  -21.5451   19.9972 C   0  0  0  0  0  0
  -29.1529  -24.0880   19.4605 C   0  0  0  0  0  0
  -28.2236  -25.0440   20.3355 C   0  0  0  0  0  0
  -29.7864  -15.7217   20.8359 N   0  0  0  0  0  0
  -29.6035  -22.7107   19.9819 N   0  3  1  0  0  0
  -31.0886  -20.1950   18.9597 F   0  0  0  0  0  0
  -27.5904  -16.9242   22.3553 Cl  0  0  0  0  0  0
  -31.4856  -12.5455   19.1417 H   0  0  0  0  0  0
  -30.3756  -11.4298   19.8994 H   0  0  0  0  0  0
  -29.7874  -11.7482   17.4938 H   0  0  0  0  0  0
  -29.6580  -13.4723   17.7214 H   0  0  0  0  0  0
  -27.8533  -11.3096   18.8416 H   0  0  0  0  0  0
  -27.3794  -12.6039   17.7812 H   0  0  0  0  0  0
  -27.6591  -14.2635   19.5092 H   0  0  0  0  0  0
  -28.7337  -12.0954   21.3805 H   0  0  0  0  0  0
  -28.4495  -13.7580   21.8219 H   0  0  0  0  0  0
  -25.2759   -9.5713   22.4747 H   0  0  0  0  0  0
  -24.0009   -7.4653   22.7529 H   0  0  0  0  0  0
  -21.0803   -8.8763   19.8993 H   0  0  0  0  0  0
  -22.3686  -10.9641   19.6121 H   0  0  0  0  0  0
  -21.2041   -7.6147   23.9748 H   0  0  0  0  0  0
  -21.1476   -6.0461   25.9082 H   0  0  0  0  0  0
  -22.0602   -2.7570   23.2802 H   0  0  0  0  0  0
  -22.3915  -12.0078   22.5017 H   0  0  0  0  0  0
  -21.1023  -13.1428   22.2359 H   0  0  0  0  0  0
  -24.6302  -15.8293   20.5139 H   0  0  0  0  0  0
  -26.2787  -15.6648   20.1633 H   0  0  0  0  0  0
  -26.7163  -32.5472   23.1142 H   0  0  0  0  0  0
  -24.9942  -33.9769   25.0336 H   0  0  0  0  0  0
  -22.7149  -31.3112   21.3986 H   0  0  0  0  0  0
  -23.3835  -35.9556   23.3060 H   0  0  0  0  0  0
  -24.3617  -36.9187   22.2076 H   0  0  0  0  0  0
  -23.7089  -37.6390   23.6784 H   0  0  0  0  0  0
  -26.1042  -31.5649   20.6136 H   0  0  0  0  0  0
  -26.8408  -30.8395   22.0087 H   0  0  0  0  0  0
  -28.1224  -29.0040   21.1567 H   0  0  0  0  0  0
  -26.0002  -25.9594   18.9478 H   0  0  0  0  0  0
  -23.9688  -27.3115   19.0157 H   0  0  0  0  0  0
  -23.7638  -30.6029   19.4080 H   0  0  0  0  0  0
  -22.7589  -29.2599   19.8521 H   0  0  0  0  0  0
  -25.1229  -36.1942   25.0840 H   0  0  0  0  0  0
  -21.0043  -28.3260   24.1385 H   0  0  0  0  0  0
  -20.5695  -26.2280   23.3597 H   0  0  0  0  0  0
  -21.6649  -26.7413   22.1187 H   0  0  0  0  0  0
  -19.6909  -25.6260   21.1257 H   0  0  0  0  0  0
  -19.6726  -27.3164   20.6716 H   0  0  0  0  0  0
  -17.4229  -26.6697   21.4020 H   0  0  0  0  0  0
  -18.0323  -26.0042   22.9003 H   0  0  0  0  0  0
  -19.7934  -30.7233   24.2296 H   0  0  0  0  0  0
  -17.5017  -31.6264   24.5142 H   0  0  0  0  0  0
  -15.5361  -30.2981   23.7579 H   0  0  0  0  0  0
  -15.8715  -28.0813   22.7014 H   0  0  0  0  0  0
  -24.5719  -30.7273   25.7812 H   0  0  0  0  0  0
  -24.8868  -32.3070   26.4915 H   0  0  0  0  0  0
  -25.7893  -30.8996   27.0291 H   0  0  0  0  0  0
  -26.2775  -29.6890   24.1150 H   0  0  0  0  0  0
  -27.3715  -29.7223   25.4790 H   0  0  0  0  0  0
  -27.8757  -30.4279   23.9586 H   0  0  0  0  0  0
  -27.2529  -33.3665   26.2168 H   0  0  0  0  0  0
  -28.3790  -32.6999   25.0425 H   0  0  0  0  0  0
  -28.0622  -31.8502   26.5496 H   0  0  0  0  0  0
  -28.2388  -38.0287   24.7837 H   0  0  0  0  0  0
  -28.1384  -36.2871   24.5683 H   0  0  0  0  0  0
  -27.2430  -37.0735   25.8767 H   0  0  0  0  0  0
  -20.9341  -29.8779   21.6920 H   0  0  0  0  0  0
  -26.0119  -38.2883   24.1716 H   0  0  0  0  0  0
  -27.4675  -19.6228   21.6400 H   0  0  0  0  0  0
  -31.4147  -17.6225   19.4005 H   0  0  0  0  0  0
  -30.9280  -21.7963   21.4190 H   0  0  0  0  0  0
  -30.0417  -23.1883   22.0369 H   0  0  0  0  0  0
  -31.4073  -23.4010   20.9409 H   0  0  0  0  0  0
  -27.8007  -21.7963   20.6869 H   0  0  0  0  0  0
  -28.1152  -21.4830   19.0218 H   0  0  0  0  0  0
  -30.0758  -24.6448   19.2746 H   0  0  0  0  0  0
  -28.7120  -23.9869   18.4641 H   0  0  0  0  0  0
  -28.4546  -24.9030   21.3916 H   0  0  0  0  0  0
  -27.1932  -24.6938   20.2456 H   0  0  0  0  0  0
  -28.9366  -15.3531   21.2299 H   0  0  0  0  0  0
  -30.2204  -22.4145   19.2374 H   0  0  0  0  0  0
  1 25  1  0  0  0
  1 30  2  0  0  0
  1 81  1  0  0  0
  2  3  1  0  0  0
  2 25  1  0  0  0
  2 85  1  0  0  0
  2 86  1  0  0  0
  3  4  1  0  0  0
  3 87  1  0  0  0
  3 88  1  0  0  0
  4  5  1  0  0  0
  4 89  1  0  0  0
  4 90  1  0  0  0
  5  6  1  0  0  0
  5 26  1  0  0  0
  5 91  1  0  0  0
  6 25  1  0  0  0
  6 92  1  0  0  0
  6 93  1  0  0  0
  7  8  2  0  0  0
  7 26  1  0  0  0
  7 29  1  0  0  0
  8  9  1  0  0  0
  8 22  1  0  0  0
  9 10  1  0  0  0
  9 27  2  0  0  0
 10 11  2  0  0  0
 10 15  1  0  0  0
 11 12  1  0  0  0
 11 94  1  0  0  0
 12 13  2  0  0  0
 12 95  1  0  0  0
 13 14  1  0  0  0
 13 31  1  0  0  0
 14 15  2  0  0  0
 14 96  1  0  0  0
 15 97  1  0  0  0
 16 17  2  0  0  0
 16 21  1  0  0  0
 16 31  1  0  0  0
 17 18  1  0  0  0
 17 98  1  0  0  0
 18 19  2  0  0  0
 18 99  1  0  0  0
 19 20  1  0  0  0
 19 24  1  0  0  0
 20 21  2  0  0  0
 20100  1  0  0  0
 21 23  1  0  0  0
 22 28  1  0  0  0
 22 32  2  0  0  0
 26 27  1  0  0  0
 28101  1  0  0  0
 28102  1  0  0  0
 29103  1  0  0  0
 29104  1  0  0  0
 33 34  1  0  0  0
 33 66  1  0  0  0
 33 70  2  0  0  0
 34 36  1  0  0  0
 34 59  1  0  0  0
 34105  1  0  0  0
 35 44  2  0  0  0
 35 45  1  0  0  0
 35 68  1  0  0  0
 36 56  1  0  0  0
 36106  1  0  0  0
 37 39  1  0  0  0
 37 47  1  0  0  0
 37 66  1  0  0  0
 37107  1  0  0  0
 38 43  2  0  0  0
 38 46  1  0  0  0
 38 47  1  0  0  0
 39 64  1  0  0  0
 39 67  2  0  0  0
 40 52  1  0  0  0
 40 53  2  0  0  0
 40 58  1  0  0  0
 41108  1  0  0  0
 41109  1  0  0  0
 41110  1  0  0  0
 41 48  1  0  0  0
 42 43  1  0  0  0
 42 66  1  0  0  0
 42111  1  0  0  0
 42112  1  0  0  0
 43 44  1  0  0  0
 44113  1  0  0  0
 45 46  2  0  0  0
 45114  1  0  0  0
 46115  1  0  0  0
 47116  1  0  0  0
 47117  1  0  0  0
 48 56  1  0  0  0
 48 65  1  0  0  0
 48118  1  0  0  0
 49 50  1  0  0  0
 49 53  1  0  0  0
 49 64  1  0  0  0
 49119  1  0  0  0
 50 51  1  0  0  0
 50120  1  0  0  0
 50121  1  0  0  0
 51 52  1  0  0  0
 51122  1  0  0  0
 51123  1  0  0  0
 52124  1  0  0  0
 52125  1  0  0  0
 53 54  1  0  0  0
 54 55  2  0  0  0
 54126  1  0  0  0
 55 57  1  0  0  0
 55127  1  0  0  0
 56 69  2  0  0  0
 57 58  2  0  0  0
 57128  1  0  0  0
 58129  1  0  0  0
 59 60  1  0  0  0
 59 61  1  0  0  0
 59 62  1  0  0  0
 60130  1  0  0  0
 60131  1  0  0  0
 60132  1  0  0  0
 61133  1  0  0  0
 61134  1  0  0  0
 61135  1  0  0  0
 62136  1  0  0  0
 62137  1  0  0  0
 62138  1  0  0  0
 63 65  1  0  0  0
 63139  1  0  0  0
 63140  1  0  0  0
 63141  1  0  0  0
 64142  1  0  0  0
 65143  1  0  0  0
 68 80  1  0  0  0
 71 73  2  0  0  0
 71 76  1  0  0  0
 71144  1  0  0  0
 72 74  1  0  0  0
 72 75  2  0  0  0
 72145  1  0  0  0
 73 75  1  0  0  0
 73 78  1  0  0  0
 74 76  2  0  0  0
 74 81  1  0  0  0
 75 83  1  0  0  0
 76 84  1  0  0  0
 77146  1  0  0  0
 77147  1  0  0  0
 77148  1  0  0  0
 77 82  1  0  0  0
 78 82  1  0  0  0
 78149  1  0  0  0
 78150  1  0  0  0
 79 80  1  0  0  0
 79 82  1  0  0  0
 79151  1  0  0  0
 79152  1  0  0  0
 80153  1  0  0  0
 80154  1  0  0  0
 81155  1  0  0  0
 82156  1  0  0  0
M  CHG  1  82   1
M  ISO  4   1 100  68 101  80 101  81 100
M  END
> <chiral flag>
0

> <version>
0

> <s_m_source_file>
/data/baiqing/PycharmProjects/Reinvent-master-3.2/result/LINK_invent/BTK/process_docking_weight1_custom_product_contain_oxygen_bond_distance_aromatic_linkinvent_7_9_3/rearranged_h_0031.sdf

> <i_m_source_file_index>
91

> <r_mmod_Potential_Energy-OPLS-2005>
-43.9880294799805

> <r_mmod_Stretch_Energy-OPLS-2005>
93.5482330322266

> <r_mmod_Bend_Energy-OPLS-2005>
178.5673828125

> <r_mmod_Torsional_Energy-OPLS-2005>
231.744323730469

> <r_mmod_Improper_Torsional_Energy-OPLS-2005>
3.80208134651184

> <r_mmod_Van_der_Waal_Energy-OPLS-2005>
132.299987792969

> <r_mmod_Electrostatic_Energy-OPLS-2005>
-304.042816162109

> <r_mmod_Solvation_Energy-OPLS-2005>
-435.672515869141

> <b_mmod_Minimization_Converged-OPLS-2005>
0

> <r_mmod_RMS_Derivative-OPLS-2005>
9.1631908416748

$$$$
91
                    3D
 Structure written by MMmdl.
164173  0  0  1  0            999 V2000
  -30.6715  -14.5137   20.5171 C   0  0  0  0  0  0
  -30.4162  -12.3102   19.4403 C   0  0  0  0  0  0
  -29.5017  -12.4984   18.2131 C   0  0  0  0  0  0
  -28.0204  -12.3578   18.6159 C   0  0  0  0  0  0
  -27.6540  -13.2077   19.8643 C   0  0  2  0  0  0
  -28.6932  -13.0154   20.9937 C   0  0  0  0  0  0
  -25.2570  -13.8176   20.5671 C   0  0  0  0  0  0
  -24.1827  -13.0443   20.9176 C   0  0  0  0  0  0
  -24.6395  -11.6925   20.8732 C   0  0  0  0  0  0
  -23.9055  -10.4304   21.0417 C   0  0  0  0  0  0
  -24.3607   -9.4205   21.9189 C   0  0  0  0  0  0
  -23.6277   -8.2242   22.0766 C   0  0  0  0  0  0
  -22.4252   -8.0291   21.3562 C   0  0  0  0  0  0
  -21.9901   -9.0265   20.4658 C   0  0  0  0  0  0
  -22.7228  -10.2142   20.3063 C   0  0  0  0  0  0
  -21.6853   -6.0736   22.5284 C   0  0  0  0  0  0
  -21.4011   -6.5636   23.8218 C   0  0  0  0  0  0
  -21.3659   -5.6787   24.9185 C   0  0  0  0  0  0
  -21.6040   -4.3055   24.7229 C   0  0  0  0  0  0
  -21.8811   -3.8143   23.4351 C   0  0  0  0  0  0
  -21.9191   -4.6968   22.3399 C   0  0  0  0  0  0
  -22.7845  -13.5258   21.1822 C   0  0  0  0  0  0
  -22.1654   -4.2156   21.0986 F   0  0  0  0  0  0
  -21.5639   -3.4532   25.7740 F   0  0  0  0  0  0
  -30.0245  -13.3168   20.4416 N   0  0  0  0  0  0
  -26.2975  -12.9331   20.3290 N   0  0  0  0  0  0
  -25.9305  -11.6491   20.5707 N   0  0  0  0  0  0
  -22.0460  -12.8283   22.0393 N   0  0  0  0  0  0
  -25.4315  -15.1890   20.4139 N   0  0  0  0  0  0
  -31.8387  -14.6455   20.1347 O   0  0  0  0  0  0
  -21.6634   -6.8871   21.4246 O   0  0  0  0  0  0
  -22.3549  -14.5566   20.6674 O   0  0  0  0  0  0
  -24.6212  -31.8638   23.2058 C   0  0  0  0  0  0
  -25.9115  -32.4776   23.8321 C   0  0  1  0  0  0
  -27.2169  -27.3894   20.0982 C   0  0  0  0  0  0
  -25.5958  -33.8578   24.2257 N   0  0  0  0  0  0
  -23.4078  -30.4969   21.5406 C   0  0  2  0  0  0
  -24.8493  -28.9600   20.1107 C   0  0  0  0  0  0
  -22.7416  -29.4707   22.4879 C   0  0  0  0  0  0
  -18.0314  -28.1393   22.8510 C   0  0  0  0  0  0
  -24.1515  -36.7319   23.2624 C   0  0  0  0  0  0
  -25.9385  -30.8188   21.3669 C   0  0  0  0  0  0
  -26.0111  -29.4495   20.7177 C   0  0  0  0  0  0
  -27.1938  -28.6654   20.7203 C   0  0  0  0  0  0
  -26.0419  -26.9482   19.4522 C   0  0  0  0  0  0
  -24.8612  -27.7099   19.4766 C   0  0  0  0  0  0
  -23.6174  -29.8329   20.1558 C   0  0  0  0  0  0
  -25.4125  -36.3063   24.0295 C   0  0  1  0  0  0
  -20.5899  -28.3740   23.1273 C   0  0  2  0  0  0
  -20.6813  -26.9460   22.5422 C   0  0  0  0  0  0
  -19.5794  -26.6354   21.5244 C   0  0  0  0  0  0
  -18.1988  -26.7910   22.1679 C   0  0  0  0  0  0
  -19.1550  -28.8877   23.2893 C   0  0  0  0  0  0
  -18.9461  -30.1477   23.8905 C   0  0  0  0  0  0
  -17.6456  -30.6613   24.0546 C   0  0  0  0  0  0
  -25.9056  -34.9440   23.5050 C   0  0  0  0  0  0
  -16.5369  -29.9105   23.6310 C   0  0  0  0  0  0
  -16.7292  -28.6522   23.0335 C   0  0  0  0  0  0
  -26.4521  -31.6565   25.0674 C   0  0  0  0  0  0
  -25.3769  -31.3731   26.1412 C   0  0  0  0  0  0
  -27.0350  -30.2978   24.6105 C   0  0  0  0  0  0
  -27.6080  -32.4286   25.7482 C   0  0  0  0  0  0
  -27.5568  -37.1812   24.8440 C   0  0  0  0  0  0
  -21.4135  -29.3097   22.3621 N   0  0  0  0  0  0
  -26.4289  -37.3755   23.9388 N   0  0  0  0  0  0
  -24.6729  -31.0752   22.0952 N   0  0  0  0  0  0
  -23.4184  -28.8232   23.2915 O   0  0  0  0  0  0
  -28.3714  -26.6217   20.1482 O   0  0  0  0  0  0
  -26.5591  -34.8901   22.4601 O   0  0  0  0  0  0
  -23.5405  -32.1385   23.7445 O   0  0  0  0  0  0
  -30.9498  -18.6914   19.0171 C   0  0  0  0  0  0
  -30.2891  -19.6993   19.7387 C   0  0  0  0  0  0
  -30.8263  -17.3456   19.3982 C   0  0  0  0  0  0
  -29.5030  -19.3754   20.8637 C   0  0  0  0  0  0
  -29.3918  -18.0002   21.2647 C   0  0  0  0  0  0
  -30.0586  -16.9660   20.5287 C   0  0  0  0  0  0
  -28.7253  -22.9046   20.8591 C   0  0  0  0  0  0
  -25.8672  -22.3964   20.7380 C   0  0  0  0  0  0
  -26.3462  -23.7253   20.1548 C   0  0  0  0  0  0
  -26.8813  -21.3020   20.4108 C   0  0  0  0  0  0
  -27.7827  -24.1303   20.5787 C   0  0  2  0  0  0
  -28.5596  -17.6532   22.4951 C   0  0  0  0  0  0
  -28.8672  -20.5317   21.6715 C   0  0  0  0  0  0
  -28.3947  -25.2550   19.6536 C   0  0  0  0  0  0
  -28.2146  -21.6369   20.9227 N   0  0  0  0  0  0
  -29.9123  -15.5733   20.8913 N   0  0  0  0  0  0
  -29.9101  -23.1245   21.1284 O   0  0  0  0  0  0
  -31.4658  -12.3914   19.1557 H   0  0  0  0  0  0
  -30.2990  -11.3081   19.8535 H   0  0  0  0  0  0
  -29.7519  -11.7711   17.4410 H   0  0  0  0  0  0
  -29.6705  -13.4809   17.7715 H   0  0  0  0  0  0
  -27.8337  -11.3024   18.8178 H   0  0  0  0  0  0
  -27.3761  -12.6233   17.7772 H   0  0  0  0  0  0
  -27.6904  -14.2522   19.5496 H   0  0  0  0  0  0
  -28.6712  -11.9858   21.3571 H   0  0  0  0  0  0
  -28.4524  -13.6389   21.8567 H   0  0  0  0  0  0
  -25.2762   -9.5694   22.4759 H   0  0  0  0  0  0
  -23.9994   -7.4646   22.7503 H   0  0  0  0  0  0
  -21.0815   -8.8777   19.8967 H   0  0  0  0  0  0
  -22.3678  -10.9686   19.6166 H   0  0  0  0  0  0
  -21.1998   -7.6151   23.9722 H   0  0  0  0  0  0
  -21.1489   -6.0526   25.9086 H   0  0  0  0  0  0
  -22.0588   -2.7613   23.2852 H   0  0  0  0  0  0
  -22.4045  -11.9950   22.4801 H   0  0  0  0  0  0
  -21.1097  -13.1372   22.2564 H   0  0  0  0  0  0
  -24.6677  -15.8452   20.5337 H   0  0  0  0  0  0
  -26.2822  -15.6305   20.0878 H   0  0  0  0  0  0
  -26.7172  -32.5490   23.1077 H   0  0  0  0  0  0
  -25.0175  -33.9720   25.0431 H   0  0  0  0  0  0
  -22.6993  -31.3150   21.3982 H   0  0  0  0  0  0
  -23.3729  -35.9701   23.3277 H   0  0  0  0  0  0
  -24.3606  -36.8955   22.2040 H   0  0  0  0  0  0
  -23.7331  -37.6540   23.6653 H   0  0  0  0  0  0
  -26.0438  -31.5829   20.5964 H   0  0  0  0  0  0
  -26.8283  -30.8735   21.9801 H   0  0  0  0  0  0
  -28.0851  -29.0285   21.2111 H   0  0  0  0  0  0
  -26.0063  -26.0190   18.9106 H   0  0  0  0  0  0
  -23.9712  -27.3360   18.9913 H   0  0  0  0  0  0
  -23.7286  -30.6015   19.3885 H   0  0  0  0  0  0
  -22.7399  -29.2540   19.8632 H   0  0  0  0  0  0
  -25.1313  -36.1877   25.0774 H   0  0  0  0  0  0
  -21.0018  -28.3362   24.1386 H   0  0  0  0  0  0
  -20.5755  -26.2381   23.3665 H   0  0  0  0  0  0
  -21.6691  -26.7486   22.1224 H   0  0  0  0  0  0
  -19.6972  -25.6242   21.1351 H   0  0  0  0  0  0
  -19.6725  -27.3103   20.6737 H   0  0  0  0  0  0
  -17.4220  -26.6590   21.4132 H   0  0  0  0  0  0
  -18.0420  -26.0088   22.9114 H   0  0  0  0  0  0
  -19.7932  -30.7297   24.2261 H   0  0  0  0  0  0
  -17.5028  -31.6298   24.5143 H   0  0  0  0  0  0
  -15.5376  -30.3007   23.7612 H   0  0  0  0  0  0
  -15.8706  -28.0833   22.7021 H   0  0  0  0  0  0
  -24.5950  -30.7065   25.7746 H   0  0  0  0  0  0
  -24.8989  -32.2933   26.4779 H   0  0  0  0  0  0
  -25.8122  -30.8951   27.0199 H   0  0  0  0  0  0
  -26.2896  -29.6738   24.1166 H   0  0  0  0  0  0
  -27.4058  -29.7231   25.4598 H   0  0  0  0  0  0
  -27.8755  -30.4225   23.9287 H   0  0  0  0  0  0
  -27.2662  -33.3555   26.2107 H   0  0  0  0  0  0
  -28.3926  -32.6898   25.0364 H   0  0  0  0  0  0
  -28.0721  -31.8381   26.5398 H   0  0  0  0  0  0
  -28.2565  -38.0127   24.7460 H   0  0  0  0  0  0
  -28.1085  -36.2641   24.6291 H   0  0  0  0  0  0
  -27.2274  -37.1479   25.8843 H   0  0  0  0  0  0
  -20.9253  -29.8859   21.6894 H   0  0  0  0  0  0
  -26.0151  -38.2816   24.1391 H   0  0  0  0  0  0
  -31.5623  -18.9537   18.1634 H   0  0  0  0  0  0
  -30.4165  -20.7307   19.4358 H   0  0  0  0  0  0
  -31.3390  -16.6139   18.7907 H   0  0  0  0  0  0
  -24.8959  -22.1328   20.3205 H   0  0  0  0  0  0
  -25.7288  -22.4785   21.8181 H   0  0  0  0  0  0
  -25.6421  -24.4939   20.4692 H   0  0  0  0  0  0
  -26.2888  -23.6639   19.0685 H   0  0  0  0  0  0
  -26.9453  -21.1611   19.3312 H   0  0  0  0  0  0
  -26.5176  -20.3529   20.8095 H   0  0  0  0  0  0
  -27.6914  -24.5756   21.5701 H   0  0  0  0  0  0
  -27.5039  -17.8451   22.2984 H   0  0  0  0  0  0
  -28.8631  -18.2720   23.3405 H   0  0  0  0  0  0
  -28.6550  -16.6184   22.8163 H   0  0  0  0  0  0
  -29.6314  -20.9245   22.3445 H   0  0  0  0  0  0
  -28.1104  -20.1491   22.3530 H   0  0  0  0  0  0
  -29.4500  -25.0449   19.4877 H   0  0  0  0  0  0
  -27.9821  -25.2039   18.6467 H   0  0  0  0  0  0
  -29.0424  -15.3298   21.3400 H   0  0  0  0  0  0
  1 25  1  0  0  0
  1 30  2  0  0  0
  1 86  1  0  0  0
  2  3  1  0  0  0
  2 25  1  0  0  0
  2 88  1  0  0  0
  2 89  1  0  0  0
  3  4  1  0  0  0
  3 90  1  0  0  0
  3 91  1  0  0  0
  4  5  1  0  0  0
  4 92  1  0  0  0
  4 93  1  0  0  0
  5  6  1  0  0  0
  5 26  1  0  0  0
  5 94  1  0  0  0
  6 25  1  0  0  0
  6 95  1  0  0  0
  6 96  1  0  0  0
  7  8  2  0  0  0
  7 26  1  0  0  0
  7 29  1  0  0  0
  8  9  1  0  0  0
  8 22  1  0  0  0
  9 10  1  0  0  0
  9 27  2  0  0  0
 10 11  2  0  0  0
 10 15  1  0  0  0
 11 12  1  0  0  0
 11 97  1  0  0  0
 12 13  2  0  0  0
 12 98  1  0  0  0
 13 14  1  0  0  0
 13 31  1  0  0  0
 14 15  2  0  0  0
 14 99  1  0  0  0
 15100  1  0  0  0
 16 17  2  0  0  0
 16 21  1  0  0  0
 16 31  1  0  0  0
 17 18  1  0  0  0
 17101  1  0  0  0
 18 19  2  0  0  0
 18102  1  0  0  0
 19 20  1  0  0  0
 19 24  1  0  0  0
 20 21  2  0  0  0
 20103  1  0  0  0
 21 23  1  0  0  0
 22 28  1  0  0  0
 22 32  2  0  0  0
 26 27  1  0  0  0
 28104  1  0  0  0
 28105  1  0  0  0
 29106  1  0  0  0
 29107  1  0  0  0
 33 34  1  0  0  0
 33 66  1  0  0  0
 33 70  2  0  0  0
 34 36  1  0  0  0
 34 59  1  0  0  0
 34108  1  0  0  0
 35 44  2  0  0  0
 35 45  1  0  0  0
 35 68  1  0  0  0
 36 56  1  0  0  0
 36109  1  0  0  0
 37 39  1  0  0  0
 37 47  1  0  0  0
 37 66  1  0  0  0
 37110  1  0  0  0
 38 43  2  0  0  0
 38 46  1  0  0  0
 38 47  1  0  0  0
 39 64  1  0  0  0
 39 67  2  0  0  0
 40 52  1  0  0  0
 40 53  2  0  0  0
 40 58  1  0  0  0
 41111  1  0  0  0
 41112  1  0  0  0
 41113  1  0  0  0
 41 48  1  0  0  0
 42 43  1  0  0  0
 42 66  1  0  0  0
 42114  1  0  0  0
 42115  1  0  0  0
 43 44  1  0  0  0
 44116  1  0  0  0
 45 46  2  0  0  0
 45117  1  0  0  0
 46118  1  0  0  0
 47119  1  0  0  0
 47120  1  0  0  0
 48 56  1  0  0  0
 48 65  1  0  0  0
 48121  1  0  0  0
 49 50  1  0  0  0
 49 53  1  0  0  0
 49 64  1  0  0  0
 49122  1  0  0  0
 50 51  1  0  0  0
 50123  1  0  0  0
 50124  1  0  0  0
 51 52  1  0  0  0
 51125  1  0  0  0
 51126  1  0  0  0
 52127  1  0  0  0
 52128  1  0  0  0
 53 54  1  0  0  0
 54 55  2  0  0  0
 54129  1  0  0  0
 55 57  1  0  0  0
 55130  1  0  0  0
 56 69  2  0  0  0
 57 58  2  0  0  0
 57131  1  0  0  0
 58132  1  0  0  0
 59 60  1  0  0  0
 59 61  1  0  0  0
 59 62  1  0  0  0
 60133  1  0  0  0
 60134  1  0  0  0
 60135  1  0  0  0
 61136  1  0  0  0
 61137  1  0  0  0
 61138  1  0  0  0
 62139  1  0  0  0
 62140  1  0  0  0
 62141  1  0  0  0
 63 65  1  0  0  0
 63142  1  0  0  0
 63143  1  0  0  0
 63144  1  0  0  0
 64145  1  0  0  0
 65146  1  0  0  0
 68 84  1  0  0  0
 71 72  2  0  0  0
 71 73  1  0  0  0
 71147  1  0  0  0
 72 74  1  0  0  0
 72148  1  0  0  0
 73 76  2  0  0  0
 73149  1  0  0  0
 74 75  2  0  0  0
 74 83  1  0  0  0
 75 76  1  0  0  0
 75 82  1  0  0  0
 76 86  1  0  0  0
 77 81  1  0  0  0
 77 85  1  0  0  0
 77 87  2  0  0  0
 78 79  1  0  0  0
 78 80  1  0  0  0
 78150  1  0  0  0
 78151  1  0  0  0
 79 81  1  0  0  0
 79152  1  0  0  0
 79153  1  0  0  0
 80 85  1  0  0  0
 80154  1  0  0  0
 80155  1  0  0  0
 81 84  1  0  0  0
 81156  1  0  0  0
 82157  1  0  0  0
 82158  1  0  0  0
 82159  1  0  0  0
 83 85  1  0  0  0
 83160  1  0  0  0
 83161  1  0  0  0
 84162  1  0  0  0
 84163  1  0  0  0
 86164  1  0  0  0
M  ISO  4   1 100  68 101  84 101  86 100
M  END
> <chiral flag>
0

> <version>
0

> <s_m_source_file>
/data/baiqing/PycharmProjects/Reinvent-master-3.2/result/LINK_invent/BTK/process_docking_weight1_custom_product_contain_oxygen_bond_distance_aromatic_linkinvent_7_9_3/rearranged_h_0031.sdf

> <i_m_source_file_index>
92

> <r_mmod_Potential_Energy-OPLS-2005>
18.1315670013428

> <r_mmod_Stretch_Energy-OPLS-2005>
56.5560989379883

> <r_mmod_Bend_Energy-OPLS-2005>
122.861175537109

> <r_mmod_Torsional_Energy-OPLS-2005>
241.167419433594

> <r_mmod_Improper_Torsional_Energy-OPLS-2005>
5.3214259147644

> <r_mmod_Van_der_Waal_Energy-OPLS-2005>
171.265884399414

> <r_mmod_Electrostatic_Energy-OPLS-2005>
-375.763458251953

> <r_mmod_Solvation_Energy-OPLS-2005>
-225.708938598633

> <b_mmod_Minimization_Converged-OPLS-2005>
0

> <r_mmod_RMS_Derivative-OPLS-2005>
4.53924131393433

$$$$
92
                    3D
 Structure written by MMmdl.
160169  0  0  1  0            999 V2000
  -30.5880  -14.7136   20.4894 C   0  0  0  0  0  0
  -30.4461  -12.4374   19.4650 C   0  0  0  0  0  0
  -29.5141  -12.5161   18.2337 C   0  0  0  0  0  0
  -28.0383  -12.3411   18.6452 C   0  0  0  0  0  0
  -27.6520  -13.2213   19.8632 C   0  0  2  0  0  0
  -28.6966  -13.0998   20.9955 C   0  0  0  0  0  0
  -25.2557  -13.8178   20.5694 C   0  0  0  0  0  0
  -24.1827  -13.0440   20.9198 C   0  0  0  0  0  0
  -24.6400  -11.6912   20.8742 C   0  0  0  0  0  0
  -23.9069  -10.4294   21.0405 C   0  0  0  0  0  0
  -24.3618   -9.4208   21.9182 C   0  0  0  0  0  0
  -23.6291   -8.2245   22.0754 C   0  0  0  0  0  0
  -22.4273   -8.0283   21.3545 C   0  0  0  0  0  0
  -21.9908   -9.0259   20.4648 C   0  0  0  0  0  0
  -22.7240  -10.2136   20.3056 C   0  0  0  0  0  0
  -21.6853   -6.0735   22.5278 C   0  0  0  0  0  0
  -21.4015   -6.5639   23.8212 C   0  0  0  0  0  0
  -21.3659   -5.6792   24.9174 C   0  0  0  0  0  0
  -21.6043   -4.3055   24.7225 C   0  0  0  0  0  0
  -21.8819   -3.8147   23.4346 C   0  0  0  0  0  0
  -21.9193   -4.6963   22.3402 C   0  0  0  0  0  0
  -22.7849  -13.5232   21.1857 C   0  0  0  0  0  0
  -22.1661   -4.2148   21.0979 F   0  0  0  0  0  0
  -21.5627   -3.4539   25.7738 F   0  0  0  0  0  0
  -30.0058  -13.4675   20.4319 N   0  0  0  0  0  0
  -26.2986  -12.9364   20.3320 N   0  0  0  0  0  0
  -25.9331  -11.6516   20.5759 N   0  0  0  0  0  0
  -22.0488  -12.8226   22.0414 N   0  0  0  0  0  0
  -25.4268  -15.1898   20.4104 N   0  0  0  0  0  0
  -31.7447  -14.8848   20.0912 O   0  0  0  0  0  0
  -21.6639   -6.8879   21.4240 O   0  0  0  0  0  0
  -22.3535  -14.5539   20.6705 O   0  0  0  0  0  0
  -24.6307  -31.8563   23.2003 C   0  0  0  0  0  0
  -25.9137  -32.4760   23.8343 C   0  0  1  0  0  0
  -27.2192  -27.2670   20.1272 C   0  0  0  0  0  0
  -25.5936  -33.8563   24.2265 N   0  0  0  0  0  0
  -23.4269  -30.4799   21.5436 C   0  0  2  0  0  0
  -24.8744  -28.9305   20.1102 C   0  0  0  0  0  0
  -22.7499  -29.4606   22.4916 C   0  0  0  0  0  0
  -18.0292  -28.1387   22.8485 C   0  0  0  0  0  0
  -24.1489  -36.7285   23.2639 C   0  0  0  0  0  0
  -25.9731  -30.7693   21.3820 C   0  0  0  0  0  0
  -26.0450  -29.3926   20.7246 C   0  0  0  0  0  0
  -27.2189  -28.5726   20.7247 C   0  0  0  0  0  0
  -26.0316  -26.8871   19.4596 C   0  0  0  0  0  0
  -24.8729  -27.6853   19.4667 C   0  0  0  0  0  0
  -23.6451  -29.8164   20.1589 C   0  0  0  0  0  0
  -25.4115  -36.3073   24.0326 C   0  0  1  0  0  0
  -20.5895  -28.3697   23.1269 C   0  0  2  0  0  0
  -20.6779  -26.9414   22.5408 C   0  0  0  0  0  0
  -19.5754  -26.6384   21.5211 C   0  0  0  0  0  0
  -18.1935  -26.7931   22.1624 C   0  0  0  0  0  0
  -19.1546  -28.8860   23.2873 C   0  0  0  0  0  0
  -18.9466  -30.1461   23.8891 C   0  0  0  0  0  0
  -17.6464  -30.6588   24.0562 C   0  0  0  0  0  0
  -25.9056  -34.9442   23.5098 C   0  0  0  0  0  0
  -16.5356  -29.9085   23.6330 C   0  0  0  0  0  0
  -16.7278  -28.6502   23.0352 C   0  0  0  0  0  0
  -26.4505  -31.6584   25.0731 C   0  0  0  0  0  0
  -25.3727  -31.3739   26.1450 C   0  0  0  0  0  0
  -27.0354  -30.2999   24.6222 C   0  0  0  0  0  0
  -27.6058  -32.4328   25.7503 C   0  0  0  0  0  0
  -27.5578  -37.1800   24.8467 C   0  0  0  0  0  0
  -21.4207  -29.3045   22.3659 N   0  0  0  0  0  0
  -26.4292  -37.3769   23.9406 N   0  0  0  0  0  0
  -24.6958  -31.0529   22.0981 N   0  0  0  0  0  0
  -23.4203  -28.8139   23.3007 O   0  0  0  0  0  0
  -28.3175  -26.3754   20.1851 O   0  0  0  0  0  0
  -26.5624  -34.8914   22.4665 O   0  0  0  0  0  0
  -23.5457  -32.1385   23.7298 O   0  0  0  0  0  0
  -30.4624  -19.4041   19.7529 C   0  0  0  0  0  0
  -30.5270  -17.9744   19.8262 C   0  0  0  0  0  0
  -29.6967  -20.2153   20.6453 C   0  0  0  0  0  0
  -28.9592  -19.4717   21.6251 C   0  0  0  0  0  0
  -29.0050  -18.0235   21.6856 C   0  0  0  0  0  0
  -29.8080  -17.2322   20.7997 C   0  0  0  0  0  0
  -28.6435  -23.9946   21.3361 C   0  0  0  0  0  0
  -28.9733  -23.9123   19.3594 C   0  0  0  0  0  0
  -28.0768  -24.8845   20.1911 C   0  0  2  0  0  0
  -28.1300  -20.2251   22.6611 C   0  0  0  0  0  0
  -28.1849  -17.2705   22.7351 C   0  0  0  0  0  0
  -29.8929  -21.8127   20.6457 C   0  0  0  0  0  0
  -29.7690  -15.7516   20.8880 N   0  0  0  0  0  0
  -28.7802  -22.8429   20.3879 N   0  3  1  0  0  0
  -31.4845  -12.5789   19.1605 H   0  0  0  0  0  0
  -30.4016  -11.4470   19.9206 H   0  0  0  0  0  0
  -29.7903  -11.7558   17.5018 H   0  0  0  0  0  0
  -29.6433  -13.4791   17.7373 H   0  0  0  0  0  0
  -27.8873  -11.2889   18.8893 H   0  0  0  0  0  0
  -27.3820  -12.5539   17.8005 H   0  0  0  0  0  0
  -27.6624  -14.2528   19.5101 H   0  0  0  0  0  0
  -28.7254  -12.0806   21.3835 H   0  0  0  0  0  0
  -28.4283  -13.7315   21.8435 H   0  0  0  0  0  0
  -25.2762   -9.5683   22.4758 H   0  0  0  0  0  0
  -24.0000   -7.4635   22.7473 H   0  0  0  0  0  0
  -21.0838   -8.8779   19.8955 H   0  0  0  0  0  0
  -22.3698  -10.9675   19.6166 H   0  0  0  0  0  0
  -21.2009   -7.6147   23.9715 H   0  0  0  0  0  0
  -21.1479   -6.0522   25.9076 H   0  0  0  0  0  0
  -22.0599   -2.7609   23.2848 H   0  0  0  0  0  0
  -22.4099  -11.9886   22.4802 H   0  0  0  0  0  0
  -21.1107  -13.1254   22.2616 H   0  0  0  0  0  0
  -24.6561  -15.8412   20.5113 H   0  0  0  0  0  0
  -26.2684  -15.6265   20.0569 H   0  0  0  0  0  0
  -26.7201  -32.5413   23.1082 H   0  0  0  0  0  0
  -25.0085  -33.9702   25.0412 H   0  0  0  0  0  0
  -22.7230  -31.3022   21.3989 H   0  0  0  0  0  0
  -23.3750  -35.9620   23.3306 H   0  0  0  0  0  0
  -24.3577  -36.8903   22.2052 H   0  0  0  0  0  0
  -23.7244  -37.6489   23.6660 H   0  0  0  0  0  0
  -26.1131  -31.5297   20.6126 H   0  0  0  0  0  0
  -26.8503  -30.8172   22.0154 H   0  0  0  0  0  0
  -28.1127  -28.9200   21.2237 H   0  0  0  0  0  0
  -25.9676  -25.9579   18.9147 H   0  0  0  0  0  0
  -23.9824  -27.3340   18.9636 H   0  0  0  0  0  0
  -23.7695  -30.5940   19.4044 H   0  0  0  0  0  0
  -22.7635  -29.2502   19.8530 H   0  0  0  0  0  0
  -25.1296  -36.1923   25.0819 H   0  0  0  0  0  0
  -20.9989  -28.3277   24.1389 H   0  0  0  0  0  0
  -20.5675  -26.2308   23.3614 H   0  0  0  0  0  0
  -21.6647  -26.7436   22.1203 H   0  0  0  0  0  0
  -19.6914  -25.6293   21.1245 H   0  0  0  0  0  0
  -19.6690  -27.3191   20.6738 H   0  0  0  0  0  0
  -17.4203  -26.6677   21.4028 H   0  0  0  0  0  0
  -18.0335  -26.0075   22.9022 H   0  0  0  0  0  0
  -19.7941  -30.7280   24.2257 H   0  0  0  0  0  0
  -17.5018  -31.6267   24.5166 H   0  0  0  0  0  0
  -15.5356  -30.2984   23.7658 H   0  0  0  0  0  0
  -15.8679  -28.0819   22.7070 H   0  0  0  0  0  0
  -24.5907  -30.7079   25.7783 H   0  0  0  0  0  0
  -24.8912  -32.2910   26.4854 H   0  0  0  0  0  0
  -25.8043  -30.8935   27.0239 H   0  0  0  0  0  0
  -26.2941  -29.6743   24.1235 H   0  0  0  0  0  0
  -27.4018  -29.7266   25.4749 H   0  0  0  0  0  0
  -27.8828  -30.4269   23.9482 H   0  0  0  0  0  0
  -27.2664  -33.3631   26.2070 H   0  0  0  0  0  0
  -28.3874  -32.6883   25.0337 H   0  0  0  0  0  0
  -28.0720  -31.8462   26.5429 H   0  0  0  0  0  0
  -28.2602  -38.0091   24.7502 H   0  0  0  0  0  0
  -28.1068  -36.2621   24.6309 H   0  0  0  0  0  0
  -27.2295  -37.1469   25.8870 H   0  0  0  0  0  0
  -20.9391  -29.8775   21.6871 H   0  0  0  0  0  0
  -26.0173  -38.2846   24.1399 H   0  0  0  0  0  0
  -31.0696  -19.8899   19.0013 H   0  0  0  0  0  0
  -31.1426  -17.4481   19.1099 H   0  0  0  0  0  0
  -27.9421  -23.8104   22.1499 H   0  0  0  0  0  0
  -29.6012  -24.3527   21.7215 H   0  0  0  0  0  0
  -30.0088  -24.2500   19.2757 H   0  0  0  0  0  0
  -28.5685  -23.6519   18.3815 H   0  0  0  0  0  0
  -27.0267  -24.6198   20.0750 H   0  0  0  0  0  0
  -28.1050  -21.2998   22.5099 H   0  0  0  0  0  0
  -28.5324  -20.0594   23.6611 H   0  0  0  0  0  0
  -27.0946  -19.8823   22.6451 H   0  0  0  0  0  0
  -27.8482  -17.8833   23.5677 H   0  0  0  0  0  0
  -28.7695  -16.4676   23.1847 H   0  0  0  0  0  0
  -27.3019  -16.8284   22.2727 H   0  0  0  0  0  0
  -30.6923  -22.0333   19.9386 H   0  0  0  0  0  0
  -30.3311  -22.0512   21.6149 H   0  0  0  0  0  0
  -28.9186  -15.4011   21.2999 H   0  0  0  0  0  0
  -27.8925  -22.3858   20.2498 H   0  0  0  0  0  0
  1 25  1  0  0  0
  1 30  2  0  0  0
  1 83  1  0  0  0
  2  3  1  0  0  0
  2 25  1  0  0  0
  2 85  1  0  0  0
  2 86  1  0  0  0
  3  4  1  0  0  0
  3 87  1  0  0  0
  3 88  1  0  0  0
  4  5  1  0  0  0
  4 89  1  0  0  0
  4 90  1  0  0  0
  5  6  1  0  0  0
  5 26  1  0  0  0
  5 91  1  0  0  0
  6 25  1  0  0  0
  6 92  1  0  0  0
  6 93  1  0  0  0
  7  8  2  0  0  0
  7 26  1  0  0  0
  7 29  1  0  0  0
  8  9  1  0  0  0
  8 22  1  0  0  0
  9 10  1  0  0  0
  9 27  2  0  0  0
 10 11  2  0  0  0
 10 15  1  0  0  0
 11 12  1  0  0  0
 11 94  1  0  0  0
 12 13  2  0  0  0
 12 95  1  0  0  0
 13 14  1  0  0  0
 13 31  1  0  0  0
 14 15  2  0  0  0
 14 96  1  0  0  0
 15 97  1  0  0  0
 16 17  2  0  0  0
 16 21  1  0  0  0
 16 31  1  0  0  0
 17 18  1  0  0  0
 17 98  1  0  0  0
 18 19  2  0  0  0
 18 99  1  0  0  0
 19 20  1  0  0  0
 19 24  1  0  0  0
 20 21  2  0  0  0
 20100  1  0  0  0
 21 23  1  0  0  0
 22 28  1  0  0  0
 22 32  2  0  0  0
 26 27  1  0  0  0
 28101  1  0  0  0
 28102  1  0  0  0
 29103  1  0  0  0
 29104  1  0  0  0
 33 34  1  0  0  0
 33 66  1  0  0  0
 33 70  2  0  0  0
 34 36  1  0  0  0
 34 59  1  0  0  0
 34105  1  0  0  0
 35 44  2  0  0  0
 35 45  1  0  0  0
 35 68  1  0  0  0
 36 56  1  0  0  0
 36106  1  0  0  0
 37 39  1  0  0  0
 37 47  1  0  0  0
 37 66  1  0  0  0
 37107  1  0  0  0
 38 43  2  0  0  0
 38 46  1  0  0  0
 38 47  1  0  0  0
 39 64  1  0  0  0
 39 67  2  0  0  0
 40 52  1  0  0  0
 40 53  2  0  0  0
 40 58  1  0  0  0
 41108  1  0  0  0
 41109  1  0  0  0
 41110  1  0  0  0
 41 48  1  0  0  0
 42 43  1  0  0  0
 42 66  1  0  0  0
 42111  1  0  0  0
 42112  1  0  0  0
 43 44  1  0  0  0
 44113  1  0  0  0
 45 46  2  0  0  0
 45114  1  0  0  0
 46115  1  0  0  0
 47116  1  0  0  0
 47117  1  0  0  0
 48 56  1  0  0  0
 48 65  1  0  0  0
 48118  1  0  0  0
 49 50  1  0  0  0
 49 53  1  0  0  0
 49 64  1  0  0  0
 49119  1  0  0  0
 50 51  1  0  0  0
 50120  1  0  0  0
 50121  1  0  0  0
 51 52  1  0  0  0
 51122  1  0  0  0
 51123  1  0  0  0
 52124  1  0  0  0
 52125  1  0  0  0
 53 54  1  0  0  0
 54 55  2  0  0  0
 54126  1  0  0  0
 55 57  1  0  0  0
 55127  1  0  0  0
 56 69  2  0  0  0
 57 58  2  0  0  0
 57128  1  0  0  0
 58129  1  0  0  0
 59 60  1  0  0  0
 59 61  1  0  0  0
 59 62  1  0  0  0
 60130  1  0  0  0
 60131  1  0  0  0
 60132  1  0  0  0
 61133  1  0  0  0
 61134  1  0  0  0
 61135  1  0  0  0
 62136  1  0  0  0
 62137  1  0  0  0
 62138  1  0  0  0
 63 65  1  0  0  0
 63139  1  0  0  0
 63140  1  0  0  0
 63141  1  0  0  0
 64142  1  0  0  0
 65143  1  0  0  0
 68 79  1  0  0  0
 71 72  2  0  0  0
 71 73  1  0  0  0
 71144  1  0  0  0
 72 76  1  0  0  0
 72145  1  0  0  0
 73 74  2  0  0  0
 73 82  1  0  0  0
 74 75  1  0  0  0
 74 80  1  0  0  0
 75 76  2  0  0  0
 75 81  1  0  0  0
 76 83  1  0  0  0
 77 79  1  0  0  0
 77 84  1  0  0  0
 77146  1  0  0  0
 77147  1  0  0  0
 78 79  1  0  0  0
 78 84  1  0  0  0
 78148  1  0  0  0
 78149  1  0  0  0
 79150  1  0  0  0
 80151  1  0  0  0
 80152  1  0  0  0
 80153  1  0  0  0
 81154  1  0  0  0
 81155  1  0  0  0
 81156  1  0  0  0
 82157  1  0  0  0
 82158  1  0  0  0
 82 84  1  0  0  0
 83159  1  0  0  0
 84160  1  0  0  0
M  CHG  1  84   1
M  ISO  4   1 100  68 101  79 101  83 100
M  END
> <chiral flag>
0

> <version>
0

> <s_m_source_file>
/data/baiqing/PycharmProjects/Reinvent-master-3.2/result/LINK_invent/BTK/process_docking_weight1_custom_product_contain_oxygen_bond_distance_aromatic_linkinvent_7_9_3/rearranged_h_0031.sdf

> <i_m_source_file_index>
93

> <r_mmod_Potential_Energy-OPLS-2005>
-34.4125442504883

> <r_mmod_Stretch_Energy-OPLS-2005>
113.487281799316

> <r_mmod_Bend_Energy-OPLS-2005>
195.607864379883

> <r_mmod_Torsional_Energy-OPLS-2005>
236.901306152344

> <r_mmod_Improper_Torsional_Energy-OPLS-2005>
4.56417942047119

> <r_mmod_Van_der_Waal_Energy-OPLS-2005>
150.55517578125

> <r_mmod_Electrostatic_Energy-OPLS-2005>
-340.453521728516

> <r_mmod_Solvation_Energy-OPLS-2005>
-470.798217773438

> <b_mmod_Minimization_Converged-OPLS-2005>
0

> <r_mmod_RMS_Derivative-OPLS-2005>
0.246427938342094

$$$$
93
                    3D
 Structure written by MMmdl.
152161  0  0  1  0            999 V2000
  -30.5110  -15.0572   20.4025 C   0  0  0  0  0  0
  -30.4398  -12.6640   19.5018 C   0  0  0  0  0  0
  -29.5236  -12.5403   18.2618 C   0  0  0  0  0  0
  -28.0619  -12.3064   18.6860 C   0  0  0  0  0  0
  -27.6213  -13.2572   19.8289 C   0  0  2  0  0  0
  -28.6635  -13.3415   20.9632 C   0  0  0  0  0  0
  -25.2429  -13.8226   20.5723 C   0  0  0  0  0  0
  -24.1762  -13.0435   20.9242 C   0  0  0  0  0  0
  -24.6394  -11.6926   20.8760 C   0  0  0  0  0  0
  -23.9084  -10.4292   21.0409 C   0  0  0  0  0  0
  -24.3631   -9.4205   21.9186 C   0  0  0  0  0  0
  -23.6301   -8.2242   22.0755 C   0  0  0  0  0  0
  -22.4282   -8.0282   21.3545 C   0  0  0  0  0  0
  -21.9922   -9.0257   20.4646 C   0  0  0  0  0  0
  -22.7256  -10.2133   20.3057 C   0  0  0  0  0  0
  -21.6855   -6.0737   22.5279 C   0  0  0  0  0  0
  -21.4016   -6.5641   23.8212 C   0  0  0  0  0  0
  -21.3660   -5.6793   24.9174 C   0  0  0  0  0  0
  -21.6044   -4.3056   24.7224 C   0  0  0  0  0  0
  -21.8819   -3.8148   23.4345 C   0  0  0  0  0  0
  -21.9193   -4.6964   22.3402 C   0  0  0  0  0  0
  -22.7781  -13.5198   21.1893 C   0  0  0  0  0  0
  -22.1661   -4.2150   21.0979 F   0  0  0  0  0  0
  -21.5628   -3.4539   25.7737 F   0  0  0  0  0  0
  -29.9211  -13.7847   20.3473 N   0  0  0  0  0  0
  -26.2853  -12.9473   20.3225 N   0  0  0  0  0  0
  -25.9327  -11.6594   20.5733 N   0  0  0  0  0  0
  -22.0436  -12.8183   22.0448 N   0  0  0  0  0  0
  -25.4064  -15.1959   20.4151 N   0  0  0  0  0  0
  -31.7288  -15.0808   20.1856 O   0  0  0  0  0  0
  -21.6642   -6.8881   21.4241 O   0  0  0  0  0  0
  -22.3460  -14.5499   20.6734 O   0  0  0  0  0  0
  -24.6506  -31.8369   23.1818 C   0  0  0  0  0  0
  -25.9245  -32.4657   23.8234 C   0  0  1  0  0  0
  -27.2140  -27.0563   20.1680 C   0  0  0  0  0  0
  -25.5964  -33.8466   24.2147 N   0  0  0  0  0  0
  -23.4578  -30.4537   21.5294 C   0  0  2  0  0  0
  -24.9073  -28.8638   20.1152 C   0  0  0  0  0  0
  -22.7602  -29.4512   22.4838 C   0  0  0  0  0  0
  -18.0310  -28.1401   22.8473 C   0  0  0  0  0  0
  -24.1493  -36.7238   23.2645 C   0  0  0  0  0  0
  -26.0193  -30.6853   21.3922 C   0  0  0  0  0  0
  -26.0883  -29.2877   20.7372 C   0  0  0  0  0  0
  -27.2418  -28.4033   20.7400 C   0  0  0  0  0  0
  -26.0068  -26.7551   19.5031 C   0  0  0  0  0  0
  -24.8839  -27.6134   19.4802 C   0  0  0  0  0  0
  -23.6890  -29.7772   20.1520 C   0  0  0  0  0  0
  -25.4130  -36.3009   24.0309 C   0  0  1  0  0  0
  -20.5927  -28.3734   23.1220 C   0  0  2  0  0  0
  -20.6794  -26.9430   22.5404 C   0  0  0  0  0  0
  -19.5767  -26.6381   21.5214 C   0  0  0  0  0  0
  -18.1948  -26.7936   22.1624 C   0  0  0  0  0  0
  -19.1569  -28.8886   23.2836 C   0  0  0  0  0  0
  -18.9482  -30.1480   23.8866 C   0  0  0  0  0  0
  -17.6478  -30.6595   24.0558 C   0  0  0  0  0  0
  -25.9084  -34.9387   23.5042 C   0  0  0  0  0  0
  -16.5369  -29.9086   23.6339 C   0  0  0  0  0  0
  -16.7294  -28.6505   23.0359 C   0  0  0  0  0  0
  -26.4540  -31.6552   25.0707 C   0  0  0  0  0  0
  -25.3700  -31.3764   26.1386 C   0  0  0  0  0  0
  -27.0419  -30.2937   24.6347 C   0  0  0  0  0  0
  -27.6053  -32.4337   25.7501 C   0  0  0  0  0  0
  -27.5571  -37.1781   24.8469 C   0  0  0  0  0  0
  -21.4286  -29.3047   22.3584 N   0  0  0  0  0  0
  -26.4289  -37.3728   23.9401 N   0  0  0  0  0  0
  -24.7297  -31.0155   22.0889 N   0  0  0  0  0  0
  -23.4210  -28.8068   23.3022 O   0  0  0  0  0  0
  -28.2628  -26.0405   20.2027 O   0  0  0  0  0  0
  -26.5680  -34.8898   22.4627 O   0  0  0  0  0  0
  -23.5607  -32.1282   23.6992 O   0  0  0  0  0  0
  -31.7437  -19.5150   21.0999 C   0  0  0  0  0  0
  -30.8802  -20.6138   20.8887 C   0  0  0  0  0  0
  -31.3479  -18.1700   20.9258 C   0  0  0  0  0  0
  -29.5396  -20.4692   20.4676 C   0  0  0  0  0  0
  -30.0410  -17.8073   20.5342 C   0  0  0  0  0  0
  -29.1490  -19.0113   20.3117 C   0  0  0  0  0  0
  -27.7484  -22.0902   19.4204 C   0  0  0  0  0  0
  -27.3691  -23.6098   19.2486 C   0  0  0  0  0  0
  -29.1896  -23.2905   20.6711 C   0  0  0  0  0  0
  -28.0512  -24.4608   20.3566 C   0  0  1  0  0  0
  -28.7873  -21.8362   20.2528 N   0  0  0  0  0  0
  -29.7296  -16.2746   20.4534 N   0  0  0  0  0  0
  -27.1221  -21.2238   18.8047 O   0  0  0  0  0  0
  -27.8716  -18.7398   19.9558 F   0  0  0  0  0  0
  -31.4678  -12.8387   19.1810 H   0  0  0  0  0  0
  -30.4600  -11.7304   20.0663 H   0  0  0  0  0  0
  -29.8626  -11.7278   17.6177 H   0  0  0  0  0  0
  -29.5902  -13.4524   17.6666 H   0  0  0  0  0  0
  -27.9798  -11.2712   19.0192 H   0  0  0  0  0  0
  -27.3952  -12.4043   17.8284 H   0  0  0  0  0  0
  -27.5650  -14.2460   19.3726 H   0  0  0  0  0  0
  -28.7811  -12.3814   21.4680 H   0  0  0  0  0  0
  -28.3449  -14.0568   21.7232 H   0  0  0  0  0  0
  -25.2773   -9.5679   22.4764 H   0  0  0  0  0  0
  -24.0006   -7.4633   22.7477 H   0  0  0  0  0  0
  -21.0853   -8.8780   19.8952 H   0  0  0  0  0  0
  -22.3715  -10.9674   19.6168 H   0  0  0  0  0  0
  -21.2010   -7.6149   23.9716 H   0  0  0  0  0  0
  -21.1481   -6.0523   25.9076 H   0  0  0  0  0  0
  -22.0598   -2.7610   23.2846 H   0  0  0  0  0  0
  -22.4066  -11.9852   22.4839 H   0  0  0  0  0  0
  -21.1049  -13.1193   22.2652 H   0  0  0  0  0  0
  -24.6334  -15.8426   20.5294 H   0  0  0  0  0  0
  -26.2423  -15.6429   20.0630 H   0  0  0  0  0  0
  -26.7310  -32.5236   23.0955 H   0  0  0  0  0  0
  -25.0077  -33.9567   25.0273 H   0  0  0  0  0  0
  -22.7643  -31.2817   21.3687 H   0  0  0  0  0  0
  -23.3758  -35.9568   23.3305 H   0  0  0  0  0  0
  -24.3569  -36.8878   22.2060 H   0  0  0  0  0  0
  -23.7252  -37.6432   23.6692 H   0  0  0  0  0  0
  -26.1839  -31.4338   20.6158 H   0  0  0  0  0  0
  -26.8861  -30.7385   22.0392 H   0  0  0  0  0  0
  -28.1428  -28.7275   21.2415 H   0  0  0  0  0  0
  -25.9037  -25.8121   18.9943 H   0  0  0  0  0  0
  -23.9862  -27.2859   18.9739 H   0  0  0  0  0  0
  -23.8347  -30.5489   19.3951 H   0  0  0  0  0  0
  -22.8013  -29.2250   19.8382 H   0  0  0  0  0  0
  -25.1324  -36.1828   25.0801 H   0  0  0  0  0  0
  -21.0016  -28.3330   24.1343 H   0  0  0  0  0  0
  -20.5687  -26.2348   23.3630 H   0  0  0  0  0  0
  -21.6658  -26.7429   22.1202 H   0  0  0  0  0  0
  -19.6929  -25.6284   21.1264 H   0  0  0  0  0  0
  -19.6704  -27.3174   20.6730 H   0  0  0  0  0  0
  -17.4217  -26.6680   21.4027 H   0  0  0  0  0  0
  -18.0346  -26.0086   22.9028 H   0  0  0  0  0  0
  -19.7958  -30.7305   24.2221 H   0  0  0  0  0  0
  -17.5030  -31.6271   24.5166 H   0  0  0  0  0  0
  -15.5368  -30.2978   23.7682 H   0  0  0  0  0  0
  -15.8694  -28.0814   22.7093 H   0  0  0  0  0  0
  -24.5892  -30.7101   25.7700 H   0  0  0  0  0  0
  -24.8875  -32.2953   26.4727 H   0  0  0  0  0  0
  -25.7960  -30.8991   27.0219 H   0  0  0  0  0  0
  -26.3057  -29.6639   24.1339 H   0  0  0  0  0  0
  -27.3988  -29.7263   25.4952 H   0  0  0  0  0  0
  -27.8982  -30.4153   23.9710 H   0  0  0  0  0  0
  -27.2636  -33.3667   26.1994 H   0  0  0  0  0  0
  -28.3908  -32.6851   25.0360 H   0  0  0  0  0  0
  -28.0674  -31.8519   26.5487 H   0  0  0  0  0  0
  -28.2593  -38.0071   24.7491 H   0  0  0  0  0  0
  -28.1062  -36.2598   24.6333 H   0  0  0  0  0  0
  -27.2282  -37.1471   25.8871 H   0  0  0  0  0  0
  -20.9515  -29.8747   21.6740 H   0  0  0  0  0  0
  -26.0150  -38.2796   24.1389 H   0  0  0  0  0  0
  -32.7597  -19.7138   21.4126 H   0  0  0  0  0  0
  -31.2862  -21.6030   21.0444 H   0  0  0  0  0  0
  -32.0834  -17.4054   21.1272 H   0  0  0  0  0  0
  -26.2850  -23.7065   19.2780 H   0  0  0  0  0  0
  -27.7076  -23.9335   18.2646 H   0  0  0  0  0  0
  -29.4546  -23.3046   21.7284 H   0  0  0  0  0  0
  -30.1005  -23.5412   20.1261 H   0  0  0  0  0  0
  -27.3721  -24.4097   21.2090 H   0  0  0  0  0  0
  -28.7401  -16.0815   20.4415 H   0  0  0  0  0  0
  1 25  1  0  0  0
  1 30  2  0  0  0
  1 82  1  0  0  0
  2  3  1  0  0  0
  2 25  1  0  0  0
  2 85  1  0  0  0
  2 86  1  0  0  0
  3  4  1  0  0  0
  3 87  1  0  0  0
  3 88  1  0  0  0
  4  5  1  0  0  0
  4 89  1  0  0  0
  4 90  1  0  0  0
  5  6  1  0  0  0
  5 26  1  0  0  0
  5 91  1  0  0  0
  6 25  1  0  0  0
  6 92  1  0  0  0
  6 93  1  0  0  0
  7  8  2  0  0  0
  7 26  1  0  0  0
  7 29  1  0  0  0
  8  9  1  0  0  0
  8 22  1  0  0  0
  9 10  1  0  0  0
  9 27  2  0  0  0
 10 11  2  0  0  0
 10 15  1  0  0  0
 11 12  1  0  0  0
 11 94  1  0  0  0
 12 13  2  0  0  0
 12 95  1  0  0  0
 13 14  1  0  0  0
 13 31  1  0  0  0
 14 15  2  0  0  0
 14 96  1  0  0  0
 15 97  1  0  0  0
 16 17  2  0  0  0
 16 21  1  0  0  0
 16 31  1  0  0  0
 17 18  1  0  0  0
 17 98  1  0  0  0
 18 19  2  0  0  0
 18 99  1  0  0  0
 19 20  1  0  0  0
 19 24  1  0  0  0
 20 21  2  0  0  0
 20100  1  0  0  0
 21 23  1  0  0  0
 22 28  1  0  0  0
 22 32  2  0  0  0
 26 27  1  0  0  0
 28101  1  0  0  0
 28102  1  0  0  0
 29103  1  0  0  0
 29104  1  0  0  0
 33 34  1  0  0  0
 33 66  1  0  0  0
 33 70  2  0  0  0
 34 36  1  0  0  0
 34 59  1  0  0  0
 34105  1  0  0  0
 35 44  2  0  0  0
 35 45  1  0  0  0
 35 68  1  0  0  0
 36 56  1  0  0  0
 36106  1  0  0  0
 37 39  1  0  0  0
 37 47  1  0  0  0
 37 66  1  0  0  0
 37107  1  0  0  0
 38 43  2  0  0  0
 38 46  1  0  0  0
 38 47  1  0  0  0
 39 64  1  0  0  0
 39 67  2  0  0  0
 40 52  1  0  0  0
 40 53  2  0  0  0
 40 58  1  0  0  0
 41108  1  0  0  0
 41109  1  0  0  0
 41110  1  0  0  0
 41 48  1  0  0  0
 42 43  1  0  0  0
 42 66  1  0  0  0
 42111  1  0  0  0
 42112  1  0  0  0
 43 44  1  0  0  0
 44113  1  0  0  0
 45 46  2  0  0  0
 45114  1  0  0  0
 46115  1  0  0  0
 47116  1  0  0  0
 47117  1  0  0  0
 48 56  1  0  0  0
 48 65  1  0  0  0
 48118  1  0  0  0
 49 50  1  0  0  0
 49 53  1  0  0  0
 49 64  1  0  0  0
 49119  1  0  0  0
 50 51  1  0  0  0
 50120  1  0  0  0
 50121  1  0  0  0
 51 52  1  0  0  0
 51122  1  0  0  0
 51123  1  0  0  0
 52124  1  0  0  0
 52125  1  0  0  0
 53 54  1  0  0  0
 54 55  2  0  0  0
 54126  1  0  0  0
 55 57  1  0  0  0
 55127  1  0  0  0
 56 69  2  0  0  0
 57 58  2  0  0  0
 57128  1  0  0  0
 58129  1  0  0  0
 59 60  1  0  0  0
 59 61  1  0  0  0
 59 62  1  0  0  0
 60130  1  0  0  0
 60131  1  0  0  0
 60132  1  0  0  0
 61133  1  0  0  0
 61134  1  0  0  0
 61135  1  0  0  0
 62136  1  0  0  0
 62137  1  0  0  0
 62138  1  0  0  0
 63 65  1  0  0  0
 63139  1  0  0  0
 63140  1  0  0  0
 63141  1  0  0  0
 64142  1  0  0  0
 65143  1  0  0  0
 68 80  1  0  0  0
 71 72  2  0  0  0
 71 73  1  0  0  0
 71144  1  0  0  0
 72 74  1  0  0  0
 72145  1  0  0  0
 73 75  2  0  0  0
 73146  1  0  0  0
 74 76  2  0  0  0
 74 81  1  0  0  0
 75 76  1  0  0  0
 75 82  1  0  0  0
 76 84  1  0  0  0
 77 78  1  0  0  0
 77 81  1  0  0  0
 77 83  2  0  0  0
 78 80  1  0  0  0
 78147  1  0  0  0
 78148  1  0  0  0
 79 80  1  0  0  0
 79 81  1  0  0  0
 79149  1  0  0  0
 79150  1  0  0  0
 80151  1  0  0  0
 82152  1  0  0  0
M  ISO  4   1 100  68 101  80 101  82 100
M  END
> <chiral flag>
0

> <version>
0

> <s_m_source_file>
/data/baiqing/PycharmProjects/Reinvent-master-3.2/result/LINK_invent/BTK/process_docking_weight1_custom_product_contain_oxygen_bond_distance_aromatic_linkinvent_7_9_3/rearranged_h_0031.sdf

> <i_m_source_file_index>
94

> <r_mmod_Potential_Energy-OPLS-2005>
695.407897949219

> <r_mmod_Stretch_Energy-OPLS-2005>
333.488525390625

> <r_mmod_Bend_Energy-OPLS-2005>
323.994934082031

> <r_mmod_Torsional_Energy-OPLS-2005>
260.513427734375

> <r_mmod_Improper_Torsional_Energy-OPLS-2005>
5.68145275115967

> <r_mmod_Van_der_Waal_Energy-OPLS-2005>
124.243728637695

> <r_mmod_Electrostatic_Energy-OPLS-2005>
-400.752136230469

> <r_mmod_Solvation_Energy-OPLS-2005>
-221.850524902344

> <b_mmod_Minimization_Converged-OPLS-2005>
0

> <r_mmod_RMS_Derivative-OPLS-2005>
0.130830407142639

$$$$
94
                    3D
 Structure written by MMmdl.
161170  0  0  1  0            999 V2000
  -30.5727  -14.6570   20.5110 C   0  0  0  0  0  0
  -30.4454  -12.4076   19.4475 C   0  0  0  0  0  0
  -29.5052  -12.5206   18.2243 C   0  0  0  0  0  0
  -28.0354  -12.3292   18.6455 C   0  0  0  0  0  0
  -27.6549  -13.2028   19.8683 C   0  0  2  0  0  0
  -28.6950  -13.0312   20.9982 C   0  0  0  0  0  0
  -25.2560  -13.8120   20.5607 C   0  0  0  0  0  0
  -24.1818  -13.0433   20.9127 C   0  0  0  0  0  0
  -24.6357  -11.6884   20.8743 C   0  0  0  0  0  0
  -23.9034  -10.4283   21.0433 C   0  0  0  0  0  0
  -24.3608   -9.4197   21.9209 C   0  0  0  0  0  0
  -23.6282   -8.2239   22.0770 C   0  0  0  0  0  0
  -22.4270   -8.0285   21.3556 C   0  0  0  0  0  0
  -21.9900   -9.0251   20.4657 C   0  0  0  0  0  0
  -22.7214  -10.2119   20.3069 C   0  0  0  0  0  0
  -21.6840   -6.0728   22.5262 C   0  0  0  0  0  0
  -21.4022   -6.5632   23.8197 C   0  0  0  0  0  0
  -21.3665   -5.6785   24.9166 C   0  0  0  0  0  0
  -21.6048   -4.3047   24.7222 C   0  0  0  0  0  0
  -21.8837   -3.8131   23.4342 C   0  0  0  0  0  0
  -21.9212   -4.6955   22.3400 C   0  0  0  0  0  0
  -22.7846  -13.5243   21.1813 C   0  0  0  0  0  0
  -22.1678   -4.2142   21.0975 F   0  0  0  0  0  0
  -21.5636   -3.4545   25.7743 F   0  0  0  0  0  0
  -30.0077  -13.4069   20.4454 N   0  0  0  0  0  0
  -26.2972  -12.9278   20.3284 N   0  0  0  0  0  0
  -25.9270  -11.6462   20.5750 N   0  0  0  0  0  0
  -22.0496  -12.8258   22.0373 N   0  0  0  0  0  0
  -25.4361  -15.1823   20.3944 N   0  0  0  0  0  0
  -31.7075  -14.8704   20.0712 O   0  0  0  0  0  0
  -21.6637   -6.8880   21.4227 O   0  0  0  0  0  0
  -22.3557  -14.5587   20.6694 O   0  0  0  0  0  0
  -24.6223  -31.8628   23.1958 C   0  0  0  0  0  0
  -25.9087  -32.4776   23.8314 C   0  0  1  0  0  0
  -27.2336  -27.3426   20.1044 C   0  0  0  0  0  0
  -25.5903  -33.8566   24.2265 N   0  0  0  0  0  0
  -23.4166  -30.4820   21.5394 C   0  0  2  0  0  0
  -24.8633  -28.9322   20.1127 C   0  0  0  0  0  0
  -22.7464  -29.4635   22.4924 C   0  0  0  0  0  0
  -18.0303  -28.1398   22.8463 C   0  0  0  0  0  0
  -24.1503  -36.7273   23.2636 C   0  0  0  0  0  0
  -25.9521  -30.8074   21.3526 C   0  0  0  0  0  0
  -26.0339  -29.4315   20.7002 C   0  0  0  0  0  0
  -27.2265  -28.6511   20.6781 C   0  0  0  0  0  0
  -26.0410  -26.8848   19.5062 C   0  0  0  0  0  0
  -24.8673  -27.6633   19.5103 C   0  0  0  0  0  0
  -23.6287  -29.8100   20.1577 C   0  0  0  0  0  0
  -25.4121  -36.3073   24.0335 C   0  0  1  0  0  0
  -20.5889  -28.3694   23.1277 C   0  0  2  0  0  0
  -20.6775  -26.9413   22.5415 C   0  0  0  0  0  0
  -19.5771  -26.6382   21.5205 C   0  0  0  0  0  0
  -18.1949  -26.7932   22.1617 C   0  0  0  0  0  0
  -19.1550  -28.8874   23.2858 C   0  0  0  0  0  0
  -18.9483  -30.1463   23.8880 C   0  0  0  0  0  0
  -17.6489  -30.6597   24.0557 C   0  0  0  0  0  0
  -25.9072  -34.9443   23.5119 C   0  0  0  0  0  0
  -16.5382  -29.9099   23.6306 C   0  0  0  0  0  0
  -16.7293  -28.6523   23.0317 C   0  0  0  0  0  0
  -26.4457  -31.6519   25.0646 C   0  0  0  0  0  0
  -25.3697  -31.3646   26.1384 C   0  0  0  0  0  0
  -27.0221  -30.2939   24.5978 C   0  0  0  0  0  0
  -27.6048  -32.4165   25.7454 C   0  0  0  0  0  0
  -27.5586  -37.1807   24.8484 C   0  0  0  0  0  0
  -21.4186  -29.3042   22.3664 N   0  0  0  0  0  0
  -26.4304  -37.3769   23.9417 N   0  0  0  0  0  0
  -24.6834  -31.0663   22.0877 N   0  0  0  0  0  0
  -23.4197  -28.8187   23.3014 O   0  0  0  0  0  0
  -28.3641  -26.5193   20.0997 O   0  0  0  0  0  0
  -26.5662  -34.8921   22.4694 O   0  0  0  0  0  0
  -23.5391  -32.1401   23.7296 O   0  0  0  0  0  0
  -29.7864  -19.2088   19.4643 C   0  0  0  0  0  0
  -30.1072  -17.8218   19.6616 C   0  0  0  0  0  0
  -28.8397  -17.8503   21.6858 C   0  0  0  0  0  0
  -28.9719  -19.9694   20.3638 C   0  0  0  0  0  0
  -28.5019  -19.2304   21.5029 C   0  0  0  0  0  0
  -29.6324  -17.0943   20.7845 C   0  0  0  0  0  0
  -29.5581  -23.2487   21.4634 C   0  0  0  0  0  0
  -30.1781  -22.5102   22.3986 C   0  0  0  0  0  0
  -29.2428  -24.7431   21.5612 C   0  0  0  0  0  0
  -28.4632  -23.9418   19.4413 C   0  0  0  0  0  0
  -28.2205  -25.0927   20.4825 C   0  0  2  0  0  0
  -28.3968  -21.4114   19.9665 C   0  0  0  0  0  0
  -27.5028  -19.8252   22.5014 C   0  0  0  0  0  0
  -29.7628  -15.6464   21.0137 N   0  0  0  0  0  0
  -29.1358  -22.7522   20.1103 N   0  3  2  0  0  0
  -27.4909  -19.1477   23.6513 F   0  0  0  0  0  0
  -27.7630  -21.0943   22.7960 F   0  0  0  0  0  0
  -26.2840  -19.7627   21.9705 F   0  0  0  0  0  0
  -31.4814  -12.5621   19.1428 H   0  0  0  0  0  0
  -30.4066  -11.4044   19.8748 H   0  0  0  0  0  0
  -29.7739  -11.7853   17.4630 H   0  0  0  0  0  0
  -29.6291  -13.4995   17.7599 H   0  0  0  0  0  0
  -27.8898  -11.2752   18.8928 H   0  0  0  0  0  0
  -27.3682  -12.5366   17.8100 H   0  0  0  0  0  0
  -27.6819  -14.2401   19.5325 H   0  0  0  0  0  0
  -28.7123  -11.9899   21.3329 H   0  0  0  0  0  0
  -28.4292  -13.6141   21.8792 H   0  0  0  0  0  0
  -25.2778   -9.5663   22.4748 H   0  0  0  0  0  0
  -24.0001   -7.4627   22.7469 H   0  0  0  0  0  0
  -21.0858   -8.8768   19.8938 H   0  0  0  0  0  0
  -22.3714  -10.9668   19.6172 H   0  0  0  0  0  0
  -21.2010   -7.6136   23.9704 H   0  0  0  0  0  0
  -21.1459   -6.0510   25.9068 H   0  0  0  0  0  0
  -22.0617   -2.7590   23.2840 H   0  0  0  0  0  0
  -22.4152  -11.9939   22.4773 H   0  0  0  0  0  0
  -21.1115  -13.1268   22.2610 H   0  0  0  0  0  0
  -24.6658  -15.8381   20.4551 H   0  0  0  0  0  0
  -26.2887  -15.6002   20.0458 H   0  0  0  0  0  0
  -26.7169  -32.5473   23.1086 H   0  0  0  0  0  0
  -24.9939  -33.9704   25.0332 H   0  0  0  0  0  0
  -22.7089  -31.2997   21.3904 H   0  0  0  0  0  0
  -23.3768  -35.9615   23.3323 H   0  0  0  0  0  0
  -24.3620  -36.8858   22.2056 H   0  0  0  0  0  0
  -23.7261  -37.6478   23.6641 H   0  0  0  0  0  0
  -26.0669  -31.5721   20.5815 H   0  0  0  0  0  0
  -26.8386  -30.8682   21.9719 H   0  0  0  0  0  0
  -28.1341  -29.0406   21.1200 H   0  0  0  0  0  0
  -26.0131  -25.9148   19.0309 H   0  0  0  0  0  0
  -23.9690  -27.2720   19.0506 H   0  0  0  0  0  0
  -23.7428  -30.5835   19.3978 H   0  0  0  0  0  0
  -22.7507  -29.2375   19.8553 H   0  0  0  0  0  0
  -25.1294  -36.1931   25.0830 H   0  0  0  0  0  0
  -20.9996  -28.3297   24.1395 H   0  0  0  0  0  0
  -20.5661  -26.2327   23.3627 H   0  0  0  0  0  0
  -21.6653  -26.7428   22.1245 H   0  0  0  0  0  0
  -19.6947  -25.6287   21.1259 H   0  0  0  0  0  0
  -19.6719  -27.3166   20.6714 H   0  0  0  0  0  0
  -17.4200  -26.6649   21.4022 H   0  0  0  0  0  0
  -18.0370  -26.0084   22.9036 H   0  0  0  0  0  0
  -19.7968  -30.7258   24.2250 H   0  0  0  0  0  0
  -17.5060  -31.6276   24.5157 H   0  0  0  0  0  0
  -15.5384  -30.3017   23.7622 H   0  0  0  0  0  0
  -15.8695  -28.0856   22.7009 H   0  0  0  0  0  0
  -24.5904  -30.6943   25.7724 H   0  0  0  0  0  0
  -24.8832  -32.2799   26.4772 H   0  0  0  0  0  0
  -25.8037  -30.8868   27.0181 H   0  0  0  0  0  0
  -26.2713  -29.6775   24.1009 H   0  0  0  0  0  0
  -27.3953  -29.7090   25.4396 H   0  0  0  0  0  0
  -27.8594  -30.4219   23.9112 H   0  0  0  0  0  0
  -27.2693  -33.3440   26.2096 H   0  0  0  0  0  0
  -28.3877  -32.6722   25.0309 H   0  0  0  0  0  0
  -28.0670  -31.8191   26.5325 H   0  0  0  0  0  0
  -28.2617  -38.0084   24.7478 H   0  0  0  0  0  0
  -28.1057  -36.2613   24.6359 H   0  0  0  0  0  0
  -27.2310  -37.1503   25.8887 H   0  0  0  0  0  0
  -20.9368  -29.8763   21.6865 H   0  0  0  0  0  0
  -26.0179  -38.2845   24.1397 H   0  0  0  0  0  0
  -30.1142  -19.6682   18.5428 H   0  0  0  0  0  0
  -30.6734  -17.3026   18.9003 H   0  0  0  0  0  0
  -28.4165  -17.3344   22.5344 H   0  0  0  0  0  0
  -30.4547  -22.9561   23.3441 H   0  0  0  0  0  0
  -30.4048  -21.4633   22.2592 H   0  0  0  0  0  0
  -30.1638  -25.3010   21.3837 H   0  0  0  0  0  0
  -28.8821  -25.0203   22.5539 H   0  0  0  0  0  0
  -29.1169  -24.3047   18.6467 H   0  0  0  0  0  0
  -27.5220  -23.6662   18.9631 H   0  0  0  0  0  0
  -27.2335  -24.9328   20.9220 H   0  0  0  0  0  0
  -27.4073  -21.5328   20.4025 H   0  0  0  0  0  0
  -28.1926  -21.3261   18.8960 H   0  0  0  0  0  0
  -29.0011  -15.2513   21.5450 H   0  0  0  0  0  0
  -29.9771  -22.6221   19.5653 H   0  0  0  0  0  0
  1 25  1  0  0  0
  1 30  2  0  0  0
  1 84  1  0  0  0
  2  3  1  0  0  0
  2 25  1  0  0  0
  2 89  1  0  0  0
  2 90  1  0  0  0
  3  4  1  0  0  0
  3 91  1  0  0  0
  3 92  1  0  0  0
  4  5  1  0  0  0
  4 93  1  0  0  0
  4 94  1  0  0  0
  5  6  1  0  0  0
  5 26  1  0  0  0
  5 95  1  0  0  0
  6 25  1  0  0  0
  6 96  1  0  0  0
  6 97  1  0  0  0
  7  8  2  0  0  0
  7 26  1  0  0  0
  7 29  1  0  0  0
  8  9  1  0  0  0
  8 22  1  0  0  0
  9 10  1  0  0  0
  9 27  2  0  0  0
 10 11  2  0  0  0
 10 15  1  0  0  0
 11 12  1  0  0  0
 11 98  1  0  0  0
 12 13  2  0  0  0
 12 99  1  0  0  0
 13 14  1  0  0  0
 13 31  1  0  0  0
 14 15  2  0  0  0
 14100  1  0  0  0
 15101  1  0  0  0
 16 17  2  0  0  0
 16 21  1  0  0  0
 16 31  1  0  0  0
 17 18  1  0  0  0
 17102  1  0  0  0
 18 19  2  0  0  0
 18103  1  0  0  0
 19 20  1  0  0  0
 19 24  1  0  0  0
 20 21  2  0  0  0
 20104  1  0  0  0
 21 23  1  0  0  0
 22 28  1  0  0  0
 22 32  2  0  0  0
 26 27  1  0  0  0
 28105  1  0  0  0
 28106  1  0  0  0
 29107  1  0  0  0
 29108  1  0  0  0
 33 34  1  0  0  0
 33 66  1  0  0  0
 33 70  2  0  0  0
 34 36  1  0  0  0
 34 59  1  0  0  0
 34109  1  0  0  0
 35 44  2  0  0  0
 35 45  1  0  0  0
 35 68  1  0  0  0
 36 56  1  0  0  0
 36110  1  0  0  0
 37 39  1  0  0  0
 37 47  1  0  0  0
 37 66  1  0  0  0
 37111  1  0  0  0
 38 43  2  0  0  0
 38 46  1  0  0  0
 38 47  1  0  0  0
 39 64  1  0  0  0
 39 67  2  0  0  0
 40 52  1  0  0  0
 40 53  2  0  0  0
 40 58  1  0  0  0
 41112  1  0  0  0
 41113  1  0  0  0
 41114  1  0  0  0
 41 48  1  0  0  0
 42 43  1  0  0  0
 42 66  1  0  0  0
 42115  1  0  0  0
 42116  1  0  0  0
 43 44  1  0  0  0
 44117  1  0  0  0
 45 46  2  0  0  0
 45118  1  0  0  0
 46119  1  0  0  0
 47120  1  0  0  0
 47121  1  0  0  0
 48 56  1  0  0  0
 48 65  1  0  0  0
 48122  1  0  0  0
 49 50  1  0  0  0
 49 53  1  0  0  0
 49 64  1  0  0  0
 49123  1  0  0  0
 50 51  1  0  0  0
 50124  1  0  0  0
 50125  1  0  0  0
 51 52  1  0  0  0
 51126  1  0  0  0
 51127  1  0  0  0
 52128  1  0  0  0
 52129  1  0  0  0
 53 54  1  0  0  0
 54 55  2  0  0  0
 54130  1  0  0  0
 55 57  1  0  0  0
 55131  1  0  0  0
 56 69  2  0  0  0
 57 58  2  0  0  0
 57132  1  0  0  0
 58133  1  0  0  0
 59 60  1  0  0  0
 59 61  1  0  0  0
 59 62  1  0  0  0
 60134  1  0  0  0
 60135  1  0  0  0
 60136  1  0  0  0
 61137  1  0  0  0
 61138  1  0  0  0
 61139  1  0  0  0
 62140  1  0  0  0
 62141  1  0  0  0
 62142  1  0  0  0
 63 65  1  0  0  0
 63143  1  0  0  0
 63144  1  0  0  0
 63145  1  0  0  0
 64146  1  0  0  0
 65147  1  0  0  0
 68 81  1  0  0  0
 71 72  2  0  0  0
 71 74  1  0  0  0
 71148  1  0  0  0
 72 76  1  0  0  0
 72149  1  0  0  0
 73 75  1  0  0  0
 73 76  2  0  0  0
 73150  1  0  0  0
 74 75  2  0  0  0
 74 82  1  0  0  0
 75 83  1  0  0  0
 76 84  1  0  0  0
 77 78  2  0  0  0
 77 79  1  0  0  0
 77 85  1  0  0  0
 78151  1  0  0  0
 78152  1  0  0  0
 79 81  1  0  0  0
 79153  1  0  0  0
 79154  1  0  0  0
 80 81  1  0  0  0
 80 85  1  0  0  0
 80155  1  0  0  0
 80156  1  0  0  0
 81157  1  0  0  0
 82158  1  0  0  0
 82159  1  0  0  0
 82 85  1  0  0  0
 83 86  1  0  0  0
 83 87  1  0  0  0
 83 88  1  0  0  0
 84160  1  0  0  0
 85161  1  0  0  0
M  CHG  1  85   1
M  ISO  4   1 100  68 101  81 101  84 100
M  END
> <chiral flag>
0

> <version>
0

> <s_m_source_file>
/data/baiqing/PycharmProjects/Reinvent-master-3.2/result/LINK_invent/BTK/process_docking_weight1_custom_product_contain_oxygen_bond_distance_aromatic_linkinvent_7_9_3/rearranged_h_0031.sdf

> <i_m_source_file_index>
95

> <r_mmod_Potential_Energy-OPLS-2005>
21.8189582824707

> <r_mmod_Stretch_Energy-OPLS-2005>
91.7678680419922

> <r_mmod_Bend_Energy-OPLS-2005>
189.774307250977

> <r_mmod_Torsional_Energy-OPLS-2005>
264.067749023438

> <r_mmod_Improper_Torsional_Energy-OPLS-2005>
5.99017524719238

> <r_mmod_Van_der_Waal_Energy-OPLS-2005>
136.838882446289

> <r_mmod_Electrostatic_Energy-OPLS-2005>
-278.188140869141

> <r_mmod_Solvation_Energy-OPLS-2005>
-435.181610107422

> <b_mmod_Minimization_Converged-OPLS-2005>
0

> <r_mmod_RMS_Derivative-OPLS-2005>
4.63848686218262

$$$$
95
                    3D
 Structure written by MMmdl.
173182  0  0  1  0            999 V2000
  -30.7310  -14.4965   20.6098 C   0  0  0  0  0  0
  -30.4297  -12.3286   19.4411 C   0  0  0  0  0  0
  -29.5095  -12.5053   18.2214 C   0  0  0  0  0  0
  -28.0326  -12.3620   18.6313 C   0  0  0  0  0  0
  -27.6588  -13.2154   19.8758 C   0  0  2  0  0  0
  -28.7012  -13.0325   20.9977 C   0  0  0  0  0  0
  -25.2531  -13.8116   20.5505 C   0  0  0  0  0  0
  -24.1844  -13.0428   20.9139 C   0  0  0  0  0  0
  -24.6436  -11.6876   20.8758 C   0  0  0  0  0  0
  -23.9067  -10.4293   21.0438 C   0  0  0  0  0  0
  -24.3628   -9.4173   21.9164 C   0  0  0  0  0  0
  -23.6312   -8.2206   22.0731 C   0  0  0  0  0  0
  -22.4274   -8.0264   21.3533 C   0  0  0  0  0  0
  -21.9923   -9.0245   20.4616 C   0  0  0  0  0  0
  -22.7268  -10.2133   20.3039 C   0  0  0  0  0  0
  -21.6843   -6.0719   22.5284 C   0  0  0  0  0  0
  -21.4000   -6.5598   23.8224 C   0  0  0  0  0  0
  -21.3667   -5.6754   24.9186 C   0  0  0  0  0  0
  -21.6053   -4.3018   24.7239 C   0  0  0  0  0  0
  -21.8820   -3.8109   23.4358 C   0  0  0  0  0  0
  -21.9175   -4.6935   22.3407 C   0  0  0  0  0  0
  -22.7862  -13.5193   21.1874 C   0  0  0  0  0  0
  -22.1617   -4.2112   21.0990 F   0  0  0  0  0  0
  -21.5654   -3.4507   25.7761 F   0  0  0  0  0  0
  -30.0285  -13.3400   20.4410 N   0  0  0  0  0  0
  -26.2990  -12.9302   20.3332 N   0  0  0  0  0  0
  -25.9364  -11.6443   20.5771 N   0  0  0  0  0  0
  -22.0575  -12.8113   22.0395 N   0  0  0  0  0  0
  -25.4197  -15.1791   20.3621 N   0  0  0  0  0  0
  -31.8572  -14.6583   20.1316 O   0  0  0  0  0  0
  -21.6591   -6.8902   21.4270 O   0  0  0  0  0  0
  -22.3482  -14.5533   20.6851 O   0  0  0  0  0  0
  -24.6325  -31.8732   23.2132 C   0  0  0  0  0  0
  -25.9149  -32.4926   23.8418 C   0  0  1  0  0  0
  -27.2607  -27.4502   20.1218 C   0  0  0  0  0  0
  -25.5917  -33.8688   24.2347 N   0  0  0  0  0  0
  -23.4409  -30.4831   21.5789 C   0  0  2  0  0  0
  -24.8650  -28.9427   20.1319 C   0  0  0  0  0  0
  -22.7933  -29.4629   22.5425 C   0  0  0  0  0  0
  -18.0038  -28.1087   22.8684 C   0  0  0  0  0  0
  -24.1443  -36.7360   23.2630 C   0  0  0  0  0  0
  -25.9467  -30.8455   21.3566 C   0  0  0  0  0  0
  -26.0227  -29.4731   20.7190 C   0  0  0  0  0  0
  -27.2214  -28.7322   20.7173 C   0  0  0  0  0  0
  -26.0936  -26.9346   19.5244 C   0  0  0  0  0  0
  -24.8895  -27.6683   19.5325 C   0  0  0  0  0  0
  -23.6275  -29.8026   20.1932 C   0  0  0  0  0  0
  -25.4079  -36.3145   24.0298 C   0  0  1  0  0  0
  -20.4985  -28.4369   22.8093 C   0  0  2  0  0  0
  -20.7165  -26.9447   22.5318 C   0  0  0  0  0  0
  -19.5771  -26.4614   21.6004 C   0  0  0  0  0  0
  -18.1608  -26.7556   22.1606 C   0  0  0  0  0  0
  -19.1283  -28.8684   23.2694 C   0  0  0  0  0  0
  -18.9534  -30.1154   23.9074 C   0  0  0  0  0  0
  -17.6597  -30.6306   24.1035 C   0  0  0  0  0  0
  -25.9055  -34.9526   23.5126 C   0  0  0  0  0  0
  -16.5380  -29.8890   23.6835 C   0  0  0  0  0  0
  -16.7102  -28.6236   23.0859 C   0  0  0  0  0  0
  -26.4564  -31.6702   25.0754 C   0  0  0  0  0  0
  -25.3833  -31.3910   26.1555 C   0  0  0  0  0  0
  -27.0255  -30.3068   24.6123 C   0  0  0  0  0  0
  -27.6233  -32.4354   25.7382 C   0  0  0  0  0  0
  -27.5536  -37.1839   24.8427 C   0  0  0  0  0  0
  -21.4715  -29.4330   22.4476 N   0  0  0  0  0  0
  -26.4257  -37.3831   23.9386 N   0  0  0  0  0  0
  -24.6980  -31.0761   22.1111 N   0  0  0  0  0  0
  -23.4575  -28.7344   23.2831 O   0  0  0  0  0  0
  -28.4374  -26.7383   20.1075 O   0  0  0  0  0  0
  -26.5610  -34.8960   22.4682 O   0  0  0  0  0  0
  -23.5481  -32.1388   23.7483 O   0  0  0  0  0  0
  -29.7304  -19.9871   22.3008 C   0  0  0  0  0  0
  -29.8518  -18.5917   22.0913 C   0  0  0  0  0  0
  -28.8920  -20.8225   21.5319 C   0  0  0  0  0  0
  -28.1205  -20.2050   20.4962 C   0  0  0  0  0  0
  -28.1641  -18.7746   20.3446 C   0  0  0  0  0  0
  -29.0712  -17.9394   21.0956 C   0  0  0  0  0  0
  -27.1041  -24.0540   22.1180 C   0  0  0  0  0  0
  -25.9556  -23.5451   22.6006 C   0  0  0  0  0  0
  -27.6197  -25.4765   22.2213 C   0  0  0  0  0  0
  -28.6911  -24.2966   20.3419 C   0  0  0  0  0  0
  -28.6214  -25.6617   21.0565 C   0  0  2  0  0  0
  -30.8408  -17.8584   22.9817 C   0  0  0  0  0  0
  -27.2738  -21.0452   19.5142 C   0  0  0  0  0  0
  -25.7290  -18.2541   20.0392 C   0  0  0  0  0  0
  -27.1288  -18.1475   19.4098 C   0  0  0  0  0  0
  -29.0975  -16.3870   20.8273 C   0  0  0  0  0  0
  -28.9408  -22.3319   21.9160 C   0  0  0  0  0  0
  -30.1699  -15.4949   21.3406 N   0  0  0  0  0  0
  -28.0359  -23.3027   21.2335 N   0  3  2  0  0  0
  -31.4831  -12.4084   19.1557 H   0  0  0  0  0  0
  -30.3172  -11.3250   19.8730 H   0  0  0  0  0  0
  -29.7629  -11.7795   17.4438 H   0  0  0  0  0  0
  -29.6812  -13.4857   17.7809 H   0  0  0  0  0  0
  -27.8538  -11.3097   18.8521 H   0  0  0  0  0  0
  -27.3782  -12.6233   17.7956 H   0  0  0  0  0  0
  -27.6787  -14.2569   19.5588 H   0  0  0  0  0  0
  -28.6797  -12.0009   21.3529 H   0  0  0  0  0  0
  -28.4642  -13.6499   21.8651 H   0  0  0  0  0  0
  -25.2806   -9.5628   22.4699 H   0  0  0  0  0  0
  -24.0005   -7.4586   22.7423 H   0  0  0  0  0  0
  -21.0865   -8.8777   19.8941 H   0  0  0  0  0  0
  -22.3704  -10.9647   19.6121 H   0  0  0  0  0  0
  -21.1954   -7.6094   23.9718 H   0  0  0  0  0  0
  -21.1507   -6.0477   25.9096 H   0  0  0  0  0  0
  -22.0607   -2.7570   23.2854 H   0  0  0  0  0  0
  -22.4246  -11.9796   22.4777 H   0  0  0  0  0  0
  -21.1272  -13.1199   22.2729 H   0  0  0  0  0  0
  -24.6392  -15.8208   20.4434 H   0  0  0  0  0  0
  -26.2613  -15.6332   20.0275 H   0  0  0  0  0  0
  -26.7198  -32.5678   23.1144 H   0  0  0  0  0  0
  -24.9872  -33.9860   25.0377 H   0  0  0  0  0  0
  -22.7344  -31.3020   21.4332 H   0  0  0  0  0  0
  -23.3682  -35.9727   23.3345 H   0  0  0  0  0  0
  -24.3492  -36.9006   22.2030 H   0  0  0  0  0  0
  -23.7240  -37.6561   23.6696 H   0  0  0  0  0  0
  -26.0111  -31.5943   20.5674 H   0  0  0  0  0  0
  -26.8572  -30.9368   21.9406 H   0  0  0  0  0  0
  -28.1172  -29.1258   21.1740 H   0  0  0  0  0  0
  -26.1141  -25.9650   19.0533 H   0  0  0  0  0  0
  -23.9988  -27.2502   19.0799 H   0  0  0  0  0  0
  -23.7278  -30.5671   19.4272 H   0  0  0  0  0  0
  -22.7492  -29.2147   19.9115 H   0  0  0  0  0  0
  -25.1240  -36.1980   25.0795 H   0  0  0  0  0  0
  -20.1895  -28.6738   21.7893 H   0  0  0  0  0  0
  -20.6897  -26.3902   23.4715 H   0  0  0  0  0  0
  -21.6895  -26.7734   22.0717 H   0  0  0  0  0  0
  -19.6602  -25.3948   21.4013 H   0  0  0  0  0  0
  -19.6973  -26.9393   20.6295 H   0  0  0  0  0  0
  -17.4547  -26.6954   21.3310 H   0  0  0  0  0  0
  -17.8690  -25.9687   22.8596 H   0  0  0  0  0  0
  -19.8140  -30.7000   24.1993 H   0  0  0  0  0  0
  -17.5350  -31.5991   24.5735 H   0  0  0  0  0  0
  -15.5462  -30.2971   23.8224 H   0  0  0  0  0  0
  -15.8431  -28.0526   22.7800 H   0  0  0  0  0  0
  -24.5993  -30.7265   25.7939 H   0  0  0  0  0  0
  -24.9031  -32.3149   26.4784 H   0  0  0  0  0  0
  -25.8149  -30.9177   27.0403 H   0  0  0  0  0  0
  -27.4089  -29.7277   25.4538 H   0  0  0  0  0  0
  -27.8598  -30.4272   23.9260 H   0  0  0  0  0  0
  -26.2795  -29.6949   24.1045 H   0  0  0  0  0  0
  -27.2969  -33.3713   26.1930 H   0  0  0  0  0  0
  -28.3905  -32.6923   25.0082 H   0  0  0  0  0  0
  -28.1072  -31.8508   26.5210 H   0  0  0  0  0  0
  -28.2561  -38.0122   24.7472 H   0  0  0  0  0  0
  -28.1034  -36.2657   24.6265 H   0  0  0  0  0  0
  -27.2270  -37.1500   25.8837 H   0  0  0  0  0  0
  -21.0775  -30.1999   21.9291 H   0  0  0  0  0  0
  -26.0131  -38.2896   24.1475 H   0  0  0  0  0  0
  -30.3445  -20.4590   23.0585 H   0  0  0  0  0  0
  -25.2718  -24.1514   23.1818 H   0  0  0  0  0  0
  -25.6634  -22.5135   22.4182 H   0  0  0  0  0  0
  -28.1419  -25.5934   23.1767 H   0  0  0  0  0  0
  -26.7896  -26.1764   22.2379 H   0  0  0  0  0  0
  -29.7150  -24.0390   20.0634 H   0  0  0  0  0  0
  -28.1286  -24.3428   19.4057 H   0  0  0  0  0  0
  -29.5886  -25.8454   21.5249 H   0  0  0  0  0  0
  -31.1963  -18.4909   23.8002 H   0  0  0  0  0  0
  -31.7170  -17.5729   22.3979 H   0  0  0  0  0  0
  -30.3795  -16.9768   23.4225 H   0  0  0  0  0  0
  -26.5005  -20.5096   18.9654 H   0  0  0  0  0  0
  -26.6814  -21.8184   19.9990 H   0  0  0  0  0  0
  -27.9152  -21.4600   18.7283 H   0  0  0  0  0  0
  -24.9856  -17.8605   19.3483 H   0  0  0  0  0  0
  -25.4342  -19.2748   20.2818 H   0  0  0  0  0  0
  -25.6621  -17.7258   20.9935 H   0  0  0  0  0  0
  -27.3306  -17.1157   19.1592 H   0  0  0  0  0  0
  -27.1655  -18.6412   18.4391 H   0  0  0  0  0  0
  -29.0972  -16.2478   19.7481 H   0  0  0  0  0  0
  -28.1552  -15.9868   21.2059 H   0  0  0  0  0  0
  -29.9730  -22.6913   21.8570 H   0  0  0  0  0  0
  -28.7050  -22.3609   22.9815 H   0  0  0  0  0  0
  -30.8660  -16.0397   21.8255 H   0  0  0  0  0  0
  -27.4712  -22.7141   20.6341 H   0  0  0  0  0  0
  1 25  1  0  0  0
  1 30  2  0  0  0
  1 88  1  0  0  0
  2  3  1  0  0  0
  2 25  1  0  0  0
  2 90  1  0  0  0
  2 91  1  0  0  0
  3  4  1  0  0  0
  3 92  1  0  0  0
  3 93  1  0  0  0
  4  5  1  0  0  0
  4 94  1  0  0  0
  4 95  1  0  0  0
  5  6  1  0  0  0
  5 26  1  0  0  0
  5 96  1  0  0  0
  6 25  1  0  0  0
  6 97  1  0  0  0
  6 98  1  0  0  0
  7  8  2  0  0  0
  7 26  1  0  0  0
  7 29  1  0  0  0
  8  9  1  0  0  0
  8 22  1  0  0  0
  9 10  1  0  0  0
  9 27  2  0  0  0
 10 11  2  0  0  0
 10 15  1  0  0  0
 11 12  1  0  0  0
 11 99  1  0  0  0
 12 13  2  0  0  0
 12100  1  0  0  0
 13 14  1  0  0  0
 13 31  1  0  0  0
 14 15  2  0  0  0
 14101  1  0  0  0
 15102  1  0  0  0
 16 17  2  0  0  0
 16 21  1  0  0  0
 16 31  1  0  0  0
 17 18  1  0  0  0
 17103  1  0  0  0
 18 19  2  0  0  0
 18104  1  0  0  0
 19 20  1  0  0  0
 19 24  1  0  0  0
 20 21  2  0  0  0
 20105  1  0  0  0
 21 23  1  0  0  0
 22 28  1  0  0  0
 22 32  2  0  0  0
 26 27  1  0  0  0
 28106  1  0  0  0
 28107  1  0  0  0
 29108  1  0  0  0
 29109  1  0  0  0
 33 34  1  0  0  0
 33 66  1  0  0  0
 33 70  2  0  0  0
 34 36  1  0  0  0
 34 59  1  0  0  0
 34110  1  0  0  0
 35 44  2  0  0  0
 35 45  1  0  0  0
 35 68  1  0  0  0
 36 56  1  0  0  0
 36111  1  0  0  0
 37 39  1  0  0  0
 37 47  1  0  0  0
 37 66  1  0  0  0
 37112  1  0  0  0
 38 43  2  0  0  0
 38 46  1  0  0  0
 38 47  1  0  0  0
 39 64  1  0  0  0
 39 67  2  0  0  0
 40 52  1  0  0  0
 40 53  2  0  0  0
 40 58  1  0  0  0
 41113  1  0  0  0
 41114  1  0  0  0
 41115  1  0  0  0
 41 48  1  0  0  0
 42 43  1  0  0  0
 42 66  1  0  0  0
 42116  1  0  0  0
 42117  1  0  0  0
 43 44  1  0  0  0
 44118  1  0  0  0
 45 46  2  0  0  0
 45119  1  0  0  0
 46120  1  0  0  0
 47121  1  0  0  0
 47122  1  0  0  0
 48 56  1  0  0  0
 48 65  1  0  0  0
 48123  1  0  0  0
 49 50  1  0  0  0
 49 53  1  0  0  0
 49 64  1  0  0  0
 49124  1  0  0  0
 50 51  1  0  0  0
 50125  1  0  0  0
 50126  1  0  0  0
 51 52  1  0  0  0
 51127  1  0  0  0
 51128  1  0  0  0
 52129  1  0  0  0
 52130  1  0  0  0
 53 54  1  0  0  0
 54 55  2  0  0  0
 54131  1  0  0  0
 55 57  1  0  0  0
 55132  1  0  0  0
 56 69  2  0  0  0
 57 58  2  0  0  0
 57133  1  0  0  0
 58134  1  0  0  0
 59 60  1  0  0  0
 59 61  1  0  0  0
 59 62  1  0  0  0
 60135  1  0  0  0
 60136  1  0  0  0
 60137  1  0  0  0
 61138  1  0  0  0
 61139  1  0  0  0
 61140  1  0  0  0
 62141  1  0  0  0
 62142  1  0  0  0
 62143  1  0  0  0
 63 65  1  0  0  0
 63144  1  0  0  0
 63145  1  0  0  0
 63146  1  0  0  0
 64147  1  0  0  0
 65148  1  0  0  0
 68 81  1  0  0  0
 71 72  2  0  0  0
 71 73  1  0  0  0
 71149  1  0  0  0
 72 76  1  0  0  0
 72 82  1  0  0  0
 73 74  2  0  0  0
 73 87  1  0  0  0
 74 75  1  0  0  0
 74 83  1  0  0  0
 75 76  2  0  0  0
 75 85  1  0  0  0
 76 86  1  0  0  0
 77 78  2  0  0  0
 77 79  1  0  0  0
 77 89  1  0  0  0
 78150  1  0  0  0
 78151  1  0  0  0
 79 81  1  0  0  0
 79152  1  0  0  0
 79153  1  0  0  0
 80 81  1  0  0  0
 80 89  1  0  0  0
 80154  1  0  0  0
 80155  1  0  0  0
 81156  1  0  0  0
 82157  1  0  0  0
 82158  1  0  0  0
 82159  1  0  0  0
 83160  1  0  0  0
 83161  1  0  0  0
 83162  1  0  0  0
 84 85  1  0  0  0
 84163  1  0  0  0
 84164  1  0  0  0
 84165  1  0  0  0
 85166  1  0  0  0
 85167  1  0  0  0
 86 88  1  0  0  0
 86168  1  0  0  0
 86169  1  0  0  0
 87170  1  0  0  0
 87171  1  0  0  0
 87 89  1  0  0  0
 88172  1  0  0  0
 89173  1  0  0  0
M  CHG  1  89   1
M  ISO  4   1 100  68 101  81 101  88 100
M  END
> <chiral flag>
0

> <version>
0

> <s_m_source_file>
/data/baiqing/PycharmProjects/Reinvent-master-3.2/result/LINK_invent/BTK/process_docking_weight1_custom_product_contain_oxygen_bond_distance_aromatic_linkinvent_7_9_3/rearranged_h_0031.sdf

> <i_m_source_file_index>
96

> <r_mmod_Potential_Energy-OPLS-2005>
159.827606201172

> <r_mmod_Stretch_Energy-OPLS-2005>
57.5071220397949

> <r_mmod_Bend_Energy-OPLS-2005>
283.426361083984

> <r_mmod_Torsional_Energy-OPLS-2005>
343.271209716797

> <r_mmod_Improper_Torsional_Energy-OPLS-2005>
7.67826461791992

> <r_mmod_Van_der_Waal_Energy-OPLS-2005>
178.60041809082

> <r_mmod_Electrostatic_Energy-OPLS-2005>
-334.564910888672

> <r_mmod_Solvation_Energy-OPLS-2005>
-409.887054443359

> <b_mmod_Minimization_Converged-OPLS-2005>
0

> <r_mmod_RMS_Derivative-OPLS-2005>
12.3073654174805

$$$$
