0
                    3D
 Structure written by MMmdl.
153161  0  0  1  0            999 V2000
  -30.6065  -14.7639   20.5255 C   0  0  0  0  0  0
  -30.4487  -12.4810   19.4803 C   0  0  0  0  0  0
  -29.5161  -12.5439   18.2477 C   0  0  0  0  0  0
  -28.0424  -12.3592   18.6587 C   0  0  0  0  0  0
  -27.6523  -13.2366   19.8782 C   0  0  2  0  0  0
  -28.7041  -13.1217   21.0090 C   0  0  0  0  0  0
  -25.2346  -13.8084   20.5470 C   0  0  0  0  0  0
  -24.1706  -13.0330   20.9087 C   0  0  0  0  0  0
  -24.6396  -11.6855   20.8748 C   0  0  0  0  0  0
  -23.9085  -10.4240   21.0410 C   0  0  0  0  0  0
  -24.3626   -9.4166   21.9196 C   0  0  0  0  0  0
  -23.6289   -8.2211   22.0762 C   0  0  0  0  0  0
  -22.4272   -8.0261   21.3547 C   0  0  0  0  0  0
  -21.9914   -9.0233   20.4645 C   0  0  0  0  0  0
  -22.7257  -10.2099   20.3054 C   0  0  0  0  0  0
  -21.6845   -6.0727   22.5281 C   0  0  0  0  0  0
  -21.4008   -6.5632   23.8214 C   0  0  0  0  0  0
  -21.3658   -5.6787   24.9177 C   0  0  0  0  0  0
  -21.6045   -4.3051   24.7228 C   0  0  0  0  0  0
  -21.8820   -3.8141   23.4349 C   0  0  0  0  0  0
  -21.9190   -4.6956   22.3404 C   0  0  0  0  0  0
  -22.7738  -13.5120   21.1798 C   0  0  0  0  0  0
  -22.1659   -4.2143   21.0982 F   0  0  0  0  0  0
  -21.5632   -3.4535   25.7741 F   0  0  0  0  0  0
  -30.0125  -13.5140   20.4552 N   0  0  0  0  0  0
  -26.2970  -12.9408   20.3431 N   0  0  0  0  0  0
  -25.9374  -11.6537   20.5896 N   0  0  0  0  0  0
  -22.0430  -12.8137   22.0411 N   0  0  0  0  0  0
  -25.3703  -15.1747   20.3565 N   0  0  0  0  0  0
  -31.7082  -14.9474   19.9999 O   0  0  0  0  0  0
  -21.6627   -6.8867   21.4243 O   0  0  0  0  0  0
  -22.3415  -14.5451   20.6702 O   0  0  0  0  0  0
  -24.6324  -31.8531   23.1949 C   0  0  0  0  0  0
  -25.9142  -32.4743   23.8307 C   0  0  1  0  0  0
  -27.2339  -27.2514   20.1441 C   0  0  0  0  0  0
  -25.5930  -33.8544   24.2233 N   0  0  0  0  0  0
  -23.4312  -30.4722   21.5380 C   0  0  2  0  0  0
  -24.8826  -28.9097   20.1160 C   0  0  0  0  0  0
  -22.7509  -29.4591   22.4905 C   0  0  0  0  0  0
  -18.0294  -28.1392   22.8482 C   0  0  0  0  0  0
  -24.1491  -36.7280   23.2641 C   0  0  0  0  0  0
  -25.9765  -30.7643   21.3747 C   0  0  0  0  0  0
  -26.0536  -29.3829   20.7226 C   0  0  0  0  0  0
  -27.2336  -28.5690   20.7190 C   0  0  0  0  0  0
  -26.0402  -26.8432   19.5128 C   0  0  0  0  0  0
  -24.8812  -27.6478   19.4990 C   0  0  0  0  0  0
  -23.6524  -29.7979   20.1575 C   0  0  0  0  0  0
  -25.4119  -36.3061   24.0322 C   0  0  1  0  0  0
  -20.5897  -28.3706   23.1266 C   0  0  2  0  0  0
  -20.6783  -26.9421   22.5410 C   0  0  0  0  0  0
  -19.5759  -26.6387   21.5213 C   0  0  0  0  0  0
  -18.1938  -26.7933   22.1623 C   0  0  0  0  0  0
  -19.1547  -28.8865   23.2868 C   0  0  0  0  0  0
  -18.9468  -30.1464   23.8890 C   0  0  0  0  0  0
  -17.6468  -30.6592   24.0563 C   0  0  0  0  0  0
  -25.9059  -34.9432   23.5082 C   0  0  0  0  0  0
  -16.5358  -29.9090   23.6332 C   0  0  0  0  0  0
  -16.7280  -28.6506   23.0354 C   0  0  0  0  0  0
  -26.4505  -31.6576   25.0704 C   0  0  0  0  0  0
  -25.3723  -31.3733   26.1421 C   0  0  0  0  0  0
  -27.0358  -30.2991   24.6201 C   0  0  0  0  0  0
  -27.6048  -32.4325   25.7486 C   0  0  0  0  0  0
  -27.5576  -37.1797   24.8465 C   0  0  0  0  0  0
  -21.4214  -29.3047   22.3649 N   0  0  0  0  0  0
  -26.4290  -37.3763   23.9405 N   0  0  0  0  0  0
  -24.6990  -31.0485   22.0926 N   0  0  0  0  0  0
  -23.4196  -28.8144   23.3025 O   0  0  0  0  0  0
  -28.3404  -26.3667   20.1455 O   0  0  0  0  0  0
  -26.5637  -34.8915   22.4654 O   0  0  0  0  0  0
  -23.5471  -32.1354   23.7240 O   0  0  0  0  0  0
  -29.8755  -18.4161   20.5870 C   0  0  0  0  0  0
  -27.1347  -18.1489   21.0264 C   0  0  0  0  0  0
  -29.3519  -17.0895   20.9315 C   0  0  0  0  0  0
  -27.6308  -19.3920   20.5990 C   0  0  0  0  0  0
  -29.0297  -19.6210   20.4772 C   0  0  0  0  0  0
  -27.9830  -17.0523   21.2359 C   0  0  0  0  0  0
  -28.9176  -23.6469   19.9909 C   0  0  0  0  0  0
  -28.1763  -24.9483   20.6434 C   0  0  0  0  0  0
  -28.9792  -22.2224   20.7929 C   0  0  0  0  0  0
  -26.6905  -20.3621   20.2510 N   0  0  0  0  0  0
  -29.9740  -15.7659   21.2408 N   0  0  0  0  0  0
  -29.5046  -20.9445   20.1684 O   0  0  0  0  0  0
  -27.4703  -15.9144   21.7559 F   0  0  0  0  0  0
  -31.4857  -12.6225   19.1716 H   0  0  0  0  0  0
  -30.4133  -11.4911   19.9378 H   0  0  0  0  0  0
  -29.7995  -11.7826   17.5197 H   0  0  0  0  0  0
  -29.6376  -13.5059   17.7470 H   0  0  0  0  0  0
  -27.8972  -11.3061   18.9026 H   0  0  0  0  0  0
  -27.3838  -12.5692   17.8151 H   0  0  0  0  0  0
  -27.6557  -14.2698   19.5298 H   0  0  0  0  0  0
  -28.7454  -12.0981   21.3839 H   0  0  0  0  0  0
  -28.4297  -13.7292   21.8697 H   0  0  0  0  0  0
  -25.2769   -9.5642   22.4775 H   0  0  0  0  0  0
  -23.9989   -7.4601   22.7486 H   0  0  0  0  0  0
  -21.0845   -8.8758   19.8949 H   0  0  0  0  0  0
  -22.3725  -10.9639   19.6159 H   0  0  0  0  0  0
  -21.1997   -7.6140   23.9715 H   0  0  0  0  0  0
  -21.1481   -6.0518   25.9080 H   0  0  0  0  0  0
  -22.0601   -2.7603   23.2851 H   0  0  0  0  0  0
  -22.4061  -11.9797   22.4786 H   0  0  0  0  0  0
  -21.1067  -13.1182   22.2669 H   0  0  0  0  0  0
  -24.6065  -15.7816   20.6285 H   0  0  0  0  0  0
  -26.2793  -15.5817   20.5488 H   0  0  0  0  0  0
  -26.7210  -32.5396   23.1050 H   0  0  0  0  0  0
  -25.0068  -33.9674   25.0373 H   0  0  0  0  0  0
  -22.7285  -31.2941   21.3864 H   0  0  0  0  0  0
  -23.3751  -35.9615   23.3302 H   0  0  0  0  0  0
  -24.3578  -36.8907   22.2056 H   0  0  0  0  0  0
  -23.7250  -37.6481   23.6671 H   0  0  0  0  0  0
  -26.1130  -31.5221   20.6020 H   0  0  0  0  0  0
  -26.8541  -30.8185   22.0073 H   0  0  0  0  0  0
  -28.1335  -28.9323   21.1953 H   0  0  0  0  0  0
  -25.9973  -25.8766   19.0312 H   0  0  0  0  0  0
  -23.9861  -27.2796   19.0170 H   0  0  0  0  0  0
  -23.7782  -30.5696   19.3972 H   0  0  0  0  0  0
  -22.7716  -29.2295   19.8539 H   0  0  0  0  0  0
  -25.1305  -36.1900   25.0815 H   0  0  0  0  0  0
  -20.9989  -28.3290   24.1387 H   0  0  0  0  0  0
  -20.5686  -26.2317   23.3617 H   0  0  0  0  0  0
  -21.6651  -26.7449   22.1203 H   0  0  0  0  0  0
  -19.6923  -25.6296   21.1249 H   0  0  0  0  0  0
  -19.6697  -27.3191   20.6738 H   0  0  0  0  0  0
  -17.4209  -26.6677   21.4025 H   0  0  0  0  0  0
  -18.0340  -26.0078   22.9023 H   0  0  0  0  0  0
  -19.7945  -30.7281   24.2256 H   0  0  0  0  0  0
  -17.5023  -31.6271   24.5168 H   0  0  0  0  0  0
  -15.5359  -30.2991   23.7660 H   0  0  0  0  0  0
  -15.8679  -28.0824   22.7075 H   0  0  0  0  0  0
  -24.5900  -30.7081   25.7747 H   0  0  0  0  0  0
  -24.8914  -32.2907   26.4825 H   0  0  0  0  0  0
  -25.8036  -30.8923   27.0209 H   0  0  0  0  0  0
  -26.2945  -29.6729   24.1222 H   0  0  0  0  0  0
  -27.4032  -29.7264   25.4727 H   0  0  0  0  0  0
  -27.8823  -30.4260   23.9449 H   0  0  0  0  0  0
  -27.2643  -33.3630   26.2041 H   0  0  0  0  0  0
  -28.3873  -32.6880   25.0328 H   0  0  0  0  0  0
  -28.0699  -31.8466   26.5424 H   0  0  0  0  0  0
  -28.2596  -38.0092   24.7504 H   0  0  0  0  0  0
  -28.1072  -36.2621   24.6303 H   0  0  0  0  0  0
  -27.2292  -37.1458   25.8868 H   0  0  0  0  0  0
  -20.9408  -29.8753   21.6833 H   0  0  0  0  0  0
  -26.0165  -38.2835   24.1404 H   0  0  0  0  0  0
  -30.9400  -18.5253   20.4431 H   0  0  0  0  0  0
  -26.0766  -18.0161   21.1980 H   0  0  0  0  0  0
  -29.9448  -23.9309   19.7632 H   0  0  0  0  0  0
  -28.4529  -23.4642   19.0222 H   0  0  0  0  0  0
  -28.5027  -24.9926   21.6826 H   0  0  0  0  0  0
  -27.1150  -24.7095   20.7128 H   0  0  0  0  0  0
  -28.0248  -22.0798   21.2889 H   0  0  0  0  0  0
  -29.6466  -22.3923   21.6381 H   0  0  0  0  0  0
  -25.7490  -20.0556   20.0301 H   0  0  0  0  0  0
  -27.0120  -21.1009   19.6354 H   0  0  0  0  0  0
  -29.3251  -15.2802   21.8453 H   0  0  0  0  0  0
  1 25  1  0  0  0
  1 30  2  0  0  0
  1 81  1  0  0  0
  2  3  1  0  0  0
  2 25  1  0  0  0
  2 84  1  0  0  0
  2 85  1  0  0  0
  3  4  1  0  0  0
  3 86  1  0  0  0
  3 87  1  0  0  0
  4  5  1  0  0  0
  4 88  1  0  0  0
  4 89  1  0  0  0
  5  6  1  0  0  0
  5 26  1  0  0  0
  5 90  1  0  0  0
  6 25  1  0  0  0
  6 91  1  0  0  0
  6 92  1  0  0  0
  7  8  2  0  0  0
  7 26  1  0  0  0
  7 29  1  0  0  0
  8  9  1  0  0  0
  8 22  1  0  0  0
  9 10  1  0  0  0
  9 27  2  0  0  0
 10 11  2  0  0  0
 10 15  1  0  0  0
 11 12  1  0  0  0
 11 93  1  0  0  0
 12 13  2  0  0  0
 12 94  1  0  0  0
 13 14  1  0  0  0
 13 31  1  0  0  0
 14 15  2  0  0  0
 14 95  1  0  0  0
 15 96  1  0  0  0
 16 17  2  0  0  0
 16 21  1  0  0  0
 16 31  1  0  0  0
 17 18  1  0  0  0
 17 97  1  0  0  0
 18 19  2  0  0  0
 18 98  1  0  0  0
 19 20  1  0  0  0
 19 24  1  0  0  0
 20 21  2  0  0  0
 20 99  1  0  0  0
 21 23  1  0  0  0
 22 28  1  0  0  0
 22 32  2  0  0  0
 26 27  1  0  0  0
 28100  1  0  0  0
 28101  1  0  0  0
 29102  1  0  0  0
 29103  1  0  0  0
 33 34  1  0  0  0
 33 66  1  0  0  0
 33 70  2  0  0  0
 34 36  1  0  0  0
 34 59  1  0  0  0
 34104  1  0  0  0
 35 44  2  0  0  0
 35 45  1  0  0  0
 35 68  1  0  0  0
 36 56  1  0  0  0
 36105  1  0  0  0
 37 39  1  0  0  0
 37 47  1  0  0  0
 37 66  1  0  0  0
 37106  1  0  0  0
 38 43  2  0  0  0
 38 46  1  0  0  0
 38 47  1  0  0  0
 39 64  1  0  0  0
 39 67  2  0  0  0
 40 52  1  0  0  0
 40 53  2  0  0  0
 40 58  1  0  0  0
 41107  1  0  0  0
 41108  1  0  0  0
 41109  1  0  0  0
 41 48  1  0  0  0
 42 43  1  0  0  0
 42 66  1  0  0  0
 42110  1  0  0  0
 42111  1  0  0  0
 43 44  1  0  0  0
 44112  1  0  0  0
 45 46  2  0  0  0
 45113  1  0  0  0
 46114  1  0  0  0
 47115  1  0  0  0
 47116  1  0  0  0
 48 56  1  0  0  0
 48 65  1  0  0  0
 48117  1  0  0  0
 49 50  1  0  0  0
 49 53  1  0  0  0
 49 64  1  0  0  0
 49118  1  0  0  0
 50 51  1  0  0  0
 50119  1  0  0  0
 50120  1  0  0  0
 51 52  1  0  0  0
 51121  1  0  0  0
 51122  1  0  0  0
 52123  1  0  0  0
 52124  1  0  0  0
 53 54  1  0  0  0
 54 55  2  0  0  0
 54125  1  0  0  0
 55 57  1  0  0  0
 55126  1  0  0  0
 56 69  2  0  0  0
 57 58  2  0  0  0
 57127  1  0  0  0
 58128  1  0  0  0
 59 60  1  0  0  0
 59 61  1  0  0  0
 59 62  1  0  0  0
 60129  1  0  0  0
 60130  1  0  0  0
 60131  1  0  0  0
 61132  1  0  0  0
 61133  1  0  0  0
 61134  1  0  0  0
 62135  1  0  0  0
 62136  1  0  0  0
 62137  1  0  0  0
 63 65  1  0  0  0
 63138  1  0  0  0
 63139  1  0  0  0
 63140  1  0  0  0
 64141  1  0  0  0
 65142  1  0  0  0
 68 78  1  0  0  0
 71 73  2  0  0  0
 71 75  1  0  0  0
 71143  1  0  0  0
 72 74  1  0  0  0
 72 76  2  0  0  0
 72144  1  0  0  0
 73 76  1  0  0  0
 73 81  1  0  0  0
 74 75  2  0  0  0
 74 80  1  0  0  0
 75 82  1  0  0  0
 76 83  1  0  0  0
 77 78  1  0  0  0
 77 79  1  0  0  0
 77145  1  0  0  0
 77146  1  0  0  0
 78147  1  0  0  0
 78148  1  0  0  0
 79 82  1  0  0  0
 79149  1  0  0  0
 79150  1  0  0  0
 80151  1  0  0  0
 80152  1  0  0  0
 81153  1  0  0  0
M  ISO  4   1 100  68 101  78 101  81 100
M  END
> <chiral flag>
0

> <version>
0

> <s_m_source_file>
/data/baiqing/PycharmProjects/Reinvent-master-3.2/result/LINK_invent/BTK/process_docking_weight1_custom_product_contain_oxygen_bond_distance_aromatic_linkinvent_7_9_3/rearranged_h_0099.sdf

> <i_m_source_file_index>
1

> <r_mmod_Potential_Energy-OPLS-2005>
249.547348022461

> <r_mmod_Stretch_Energy-OPLS-2005>
150.2763671875

> <r_mmod_Bend_Energy-OPLS-2005>
229.158477783203

> <r_mmod_Torsional_Energy-OPLS-2005>
285.819244384766

> <r_mmod_Improper_Torsional_Energy-OPLS-2005>
14.9955997467041

> <r_mmod_Van_der_Waal_Energy-OPLS-2005>
146.962127685547

> <r_mmod_Electrostatic_Energy-OPLS-2005>
-451.345550537109

> <r_mmod_Solvation_Energy-OPLS-2005>
-215.582702636719

> <b_mmod_Minimization_Converged-OPLS-2005>
0

> <r_mmod_RMS_Derivative-OPLS-2005>
0.266173034906387

$$$$
1
                    3D
 Structure written by MMmdl.
160169  0  0  1  0            999 V2000
  -30.6159  -14.6464   20.5040 C   0  0  0  0  0  0
  -30.4442  -12.4023   19.4407 C   0  0  0  0  0  0
  -29.5082  -12.5122   18.2162 C   0  0  0  0  0  0
  -28.0300  -12.3480   18.6260 C   0  0  0  0  0  0
  -27.6522  -13.2142   19.8570 C   0  0  2  0  0  0
  -28.6998  -13.0679   20.9837 C   0  0  0  0  0  0
  -25.2553  -13.8167   20.5660 C   0  0  0  0  0  0
  -24.1818  -13.0430   20.9167 C   0  0  0  0  0  0
  -24.6378  -11.6903   20.8716 C   0  0  0  0  0  0
  -23.9042  -10.4283   21.0393 C   0  0  0  0  0  0
  -24.3602   -9.4197   21.9180 C   0  0  0  0  0  0
  -23.6283   -8.2227   22.0755 C   0  0  0  0  0  0
  -22.4272   -8.0260   21.3542 C   0  0  0  0  0  0
  -21.9899   -9.0225   20.4646 C   0  0  0  0  0  0
  -22.7213  -10.2109   20.3045 C   0  0  0  0  0  0
  -21.6847   -6.0728   22.5287 C   0  0  0  0  0  0
  -21.4007   -6.5640   23.8216 C   0  0  0  0  0  0
  -21.3649   -5.6784   24.9175 C   0  0  0  0  0  0
  -21.6039   -4.3048   24.7221 C   0  0  0  0  0  0
  -21.8834   -3.8148   23.4342 C   0  0  0  0  0  0
  -21.9196   -4.6963   22.3400 C   0  0  0  0  0  0
  -22.7841  -13.5220   21.1836 C   0  0  0  0  0  0
  -22.1666   -4.2158   21.0976 F   0  0  0  0  0  0
  -21.5619   -3.4522   25.7724 F   0  0  0  0  0  0
  -30.0139  -13.4177   20.4207 N   0  0  0  0  0  0
  -26.2983  -12.9347   20.3281 N   0  0  0  0  0  0
  -25.9307  -11.6502   20.5722 N   0  0  0  0  0  0
  -22.0481  -12.8244   22.0416 N   0  0  0  0  0  0
  -25.4175  -15.1903   20.4122 N   0  0  0  0  0  0
  -31.7892  -14.8170   20.1586 O   0  0  0  0  0  0
  -21.6627   -6.8872   21.4254 O   0  0  0  0  0  0
  -22.3516  -14.5505   20.6643 O   0  0  0  0  0  0
  -24.6295  -31.8602   23.2050 C   0  0  0  0  0  0
  -25.9146  -32.4766   23.8372 C   0  0  1  0  0  0
  -27.2142  -27.3142   20.1019 C   0  0  0  0  0  0
  -25.5963  -33.8566   24.2306 N   0  0  0  0  0  0
  -23.4200  -30.4891   21.5483 C   0  0  2  0  0  0
  -24.8610  -28.9461   20.1098 C   0  0  0  0  0  0
  -22.7469  -29.4654   22.4946 C   0  0  0  0  0  0
  -18.0285  -28.1381   22.8487 C   0  0  0  0  0  0
  -24.1485  -36.7271   23.2641 C   0  0  0  0  0  0
  -25.9646  -30.7869   21.3776 C   0  0  0  0  0  0
  -26.0343  -29.4172   20.7131 C   0  0  0  0  0  0
  -27.2135  -28.6128   20.7001 C   0  0  0  0  0  0
  -26.0135  -26.9006   19.4755 C   0  0  0  0  0  0
  -24.8531  -27.6923   19.4835 C   0  0  0  0  0  0
  -23.6312  -29.8281   20.1622 C   0  0  0  0  0  0
  -25.4107  -36.3073   24.0346 C   0  0  1  0  0  0
  -20.5884  -28.3692   23.1267 C   0  0  2  0  0  0
  -20.6765  -26.9420   22.5397 C   0  0  0  0  0  0
  -19.5749  -26.6389   21.5195 C   0  0  0  0  0  0
  -18.1932  -26.7927   22.1607 C   0  0  0  0  0  0
  -19.1537  -28.8851   23.2872 C   0  0  0  0  0  0
  -18.9461  -30.1448   23.8900 C   0  0  0  0  0  0
  -17.6459  -30.6587   24.0555 C   0  0  0  0  0  0
  -25.9059  -34.9448   23.5119 C   0  0  0  0  0  0
  -16.5349  -29.9079   23.6337 C   0  0  0  0  0  0
  -16.7270  -28.6490   23.0371 C   0  0  0  0  0  0
  -26.4529  -31.6568   25.0744 C   0  0  0  0  0  0
  -25.3756  -31.3687   26.1458 C   0  0  0  0  0  0
  -27.0376  -30.2993   24.6207 C   0  0  0  0  0  0
  -27.6115  -32.4284   25.7498 C   0  0  0  0  0  0
  -27.5586  -37.1782   24.8467 C   0  0  0  0  0  0
  -21.4182  -29.3050   22.3664 N   0  0  0  0  0  0
  -26.4281  -37.3777   23.9435 N   0  0  0  0  0  0
  -24.6906  -31.0616   22.0998 N   0  0  0  0  0  0
  -23.4193  -28.8201   23.3028 O   0  0  0  0  0  0
  -28.3274  -26.4541   20.1497 O   0  0  0  0  0  0
  -26.5609  -34.8921   22.4678 O   0  0  0  0  0  0
  -23.5461  -32.1410   23.7376 O   0  0  0  0  0  0
  -28.8174  -19.2987   20.0551 C   0  0  0  0  0  0
  -30.9620  -17.9061   21.2077 C   0  0  0  0  0  0
  -29.8490  -20.0890   20.6329 C   0  0  0  0  0  0
  -28.8383  -17.8682   20.0763 C   0  0  0  0  0  0
  -30.9366  -19.3366   21.1926 C   0  0  0  0  0  0
  -29.9058  -17.1366   20.6612 C   0  0  0  0  0  0
  -29.4672  -23.6951   21.7332 C   0  0  0  0  0  0
  -30.1726  -22.3201   21.8303 C   0  0  0  0  0  0
  -28.9208  -22.4124   19.8259 C   0  0  0  0  0  0
  -29.1969  -23.9120   20.2426 C   0  0  1  0  0  0
  -28.0962  -25.0093   19.8945 C   0  0  0  0  0  0
  -29.8032  -21.5419   20.6431 N   0  0  0  0  0  0
  -27.7856  -17.1525   19.5010 N   0  0  0  0  0  0
  -32.0374  -20.0020   21.7317 N   0  0  0  0  0  0
  -29.7763  -15.6869   20.7901 N   0  0  0  0  0  0
  -31.4810  -12.5462   19.1317 H   0  0  0  0  0  0
  -30.3950  -11.4044   19.8785 H   0  0  0  0  0  0
  -29.7795  -11.7642   17.4702 H   0  0  0  0  0  0
  -29.6446  -13.4831   17.7362 H   0  0  0  0  0  0
  -27.8601  -11.2938   18.8468 H   0  0  0  0  0  0
  -27.3789  -12.5867   17.7838 H   0  0  0  0  0  0
  -27.6666  -14.2488   19.5176 H   0  0  0  0  0  0
  -28.7144  -12.0450   21.3612 H   0  0  0  0  0  0
  -28.4431  -13.6986   21.8360 H   0  0  0  0  0  0
  -25.2734   -9.5682   22.4770 H   0  0  0  0  0  0
  -23.9985   -7.4625   22.7489 H   0  0  0  0  0  0
  -21.0817   -8.8720   19.8971 H   0  0  0  0  0  0
  -22.3642  -10.9638   19.6153 H   0  0  0  0  0  0
  -21.2000   -7.6154   23.9712 H   0  0  0  0  0  0
  -21.1454   -6.0519   25.9075 H   0  0  0  0  0  0
  -22.0626   -2.7616   23.2820 H   0  0  0  0  0  0
  -22.4071  -11.9873   22.4782 H   0  0  0  0  0  0
  -21.1114  -13.1302   22.2629 H   0  0  0  0  0  0
  -24.6350  -15.8253   20.5208 H   0  0  0  0  0  0
  -26.2682  -15.6730   20.1316 H   0  0  0  0  0  0
  -26.7213  -32.5427   23.1115 H   0  0  0  0  0  0
  -25.0150  -33.9701   25.0477 H   0  0  0  0  0  0
  -22.7161  -31.3124   21.4097 H   0  0  0  0  0  0
  -23.3770  -35.9576   23.3264 H   0  0  0  0  0  0
  -24.3598  -36.8922   22.2068 H   0  0  0  0  0  0
  -23.7199  -37.6455   23.6664 H   0  0  0  0  0  0
  -26.1014  -31.5527   20.6131 H   0  0  0  0  0  0
  -26.8439  -30.8270   22.0094 H   0  0  0  0  0  0
  -28.1131  -28.9675   21.1822 H   0  0  0  0  0  0
  -25.9305  -25.9459   18.9780 H   0  0  0  0  0  0
  -23.9527  -27.3266   19.0082 H   0  0  0  0  0  0
  -23.7469  -30.6069   19.4070 H   0  0  0  0  0  0
  -22.7487  -29.2584   19.8639 H   0  0  0  0  0  0
  -25.1275  -36.1927   25.0837 H   0  0  0  0  0  0
  -20.9987  -28.3263   24.1377 H   0  0  0  0  0  0
  -20.5649  -26.2312   23.3595 H   0  0  0  0  0  0
  -21.6636  -26.7440   22.1198 H   0  0  0  0  0  0
  -19.6911  -25.6291   21.1245 H   0  0  0  0  0  0
  -19.6702  -27.3181   20.6709 H   0  0  0  0  0  0
  -17.4208  -26.6681   21.4003 H   0  0  0  0  0  0
  -18.0340  -26.0059   22.8994 H   0  0  0  0  0  0
  -19.7937  -30.7248   24.2290 H   0  0  0  0  0  0
  -17.5021  -31.6278   24.5132 H   0  0  0  0  0  0
  -15.5351  -30.2978   23.7662 H   0  0  0  0  0  0
  -15.8665  -28.0796   22.7109 H   0  0  0  0  0  0
  -24.5957  -30.7016   25.7766 H   0  0  0  0  0  0
  -24.8917  -32.2835   26.4888 H   0  0  0  0  0  0
  -25.8084  -30.8861   27.0227 H   0  0  0  0  0  0
  -26.2947  -29.6718   24.1269 H   0  0  0  0  0  0
  -27.4107  -29.7283   25.4720 H   0  0  0  0  0  0
  -27.8806  -30.4274   23.9412 H   0  0  0  0  0  0
  -27.2774  -33.3608   26.2050 H   0  0  0  0  0  0
  -28.3929  -32.6784   25.0310 H   0  0  0  0  0  0
  -28.0762  -31.8405   26.5419 H   0  0  0  0  0  0
  -28.2570  -38.0113   24.7574 H   0  0  0  0  0  0
  -28.1115  -36.2655   24.6201 H   0  0  0  0  0  0
  -27.2322  -37.1315   25.8871 H   0  0  0  0  0  0
  -20.9364  -29.8758   21.6859 H   0  0  0  0  0  0
  -26.0165  -38.2851   24.1456 H   0  0  0  0  0  0
  -27.9754  -19.7964   19.5997 H   0  0  0  0  0  0
  -31.7895  -17.3927   21.6762 H   0  0  0  0  0  0
  -30.0623  -24.4987   22.1673 H   0  0  0  0  0  0
  -28.5225  -23.6617   22.2781 H   0  0  0  0  0  0
  -29.9072  -21.8039   22.7546 H   0  0  0  0  0  0
  -31.2501  -22.4860   21.8387 H   0  0  0  0  0  0
  -29.1010  -22.2614   18.7605 H   0  0  0  0  0  0
  -27.8777  -22.1545   20.0190 H   0  0  0  0  0  0
  -30.1297  -24.2156   19.7656 H   0  0  0  0  0  0
  -27.1848  -24.7032   20.4120 H   0  0  0  0  0  0
  -27.8901  -24.9044   18.8279 H   0  0  0  0  0  0
  -27.1466  -17.7006   18.9335 H   0  0  0  0  0  0
  -28.0873  -16.3324   18.9895 H   0  0  0  0  0  0
  -32.9283  -19.5195   21.7154 H   0  0  0  0  0  0
  -32.1140  -20.9668   21.4297 H   0  0  0  0  0  0
  -28.8209  -15.3940   20.9259 H   0  0  0  0  0  0
  1 25  1  0  0  0
  1 30  2  0  0  0
  1 85  1  0  0  0
  2  3  1  0  0  0
  2 25  1  0  0  0
  2 86  1  0  0  0
  2 87  1  0  0  0
  3  4  1  0  0  0
  3 88  1  0  0  0
  3 89  1  0  0  0
  4  5  1  0  0  0
  4 90  1  0  0  0
  4 91  1  0  0  0
  5  6  1  0  0  0
  5 26  1  0  0  0
  5 92  1  0  0  0
  6 25  1  0  0  0
  6 93  1  0  0  0
  6 94  1  0  0  0
  7  8  2  0  0  0
  7 26  1  0  0  0
  7 29  1  0  0  0
  8  9  1  0  0  0
  8 22  1  0  0  0
  9 10  1  0  0  0
  9 27  2  0  0  0
 10 11  2  0  0  0
 10 15  1  0  0  0
 11 12  1  0  0  0
 11 95  1  0  0  0
 12 13  2  0  0  0
 12 96  1  0  0  0
 13 14  1  0  0  0
 13 31  1  0  0  0
 14 15  2  0  0  0
 14 97  1  0  0  0
 15 98  1  0  0  0
 16 17  2  0  0  0
 16 21  1  0  0  0
 16 31  1  0  0  0
 17 18  1  0  0  0
 17 99  1  0  0  0
 18 19  2  0  0  0
 18100  1  0  0  0
 19 20  1  0  0  0
 19 24  1  0  0  0
 20 21  2  0  0  0
 20101  1  0  0  0
 21 23  1  0  0  0
 22 28  1  0  0  0
 22 32  2  0  0  0
 26 27  1  0  0  0
 28102  1  0  0  0
 28103  1  0  0  0
 29104  1  0  0  0
 29105  1  0  0  0
 33 34  1  0  0  0
 33 66  1  0  0  0
 33 70  2  0  0  0
 34 36  1  0  0  0
 34 59  1  0  0  0
 34106  1  0  0  0
 35 44  2  0  0  0
 35 45  1  0  0  0
 35 68  1  0  0  0
 36 56  1  0  0  0
 36107  1  0  0  0
 37 39  1  0  0  0
 37 47  1  0  0  0
 37 66  1  0  0  0
 37108  1  0  0  0
 38 43  2  0  0  0
 38 46  1  0  0  0
 38 47  1  0  0  0
 39 64  1  0  0  0
 39 67  2  0  0  0
 40 52  1  0  0  0
 40 53  2  0  0  0
 40 58  1  0  0  0
 41109  1  0  0  0
 41110  1  0  0  0
 41111  1  0  0  0
 41 48  1  0  0  0
 42 43  1  0  0  0
 42 66  1  0  0  0
 42112  1  0  0  0
 42113  1  0  0  0
 43 44  1  0  0  0
 44114  1  0  0  0
 45 46  2  0  0  0
 45115  1  0  0  0
 46116  1  0  0  0
 47117  1  0  0  0
 47118  1  0  0  0
 48 56  1  0  0  0
 48 65  1  0  0  0
 48119  1  0  0  0
 49 50  1  0  0  0
 49 53  1  0  0  0
 49 64  1  0  0  0
 49120  1  0  0  0
 50 51  1  0  0  0
 50121  1  0  0  0
 50122  1  0  0  0
 51 52  1  0  0  0
 51123  1  0  0  0
 51124  1  0  0  0
 52125  1  0  0  0
 52126  1  0  0  0
 53 54  1  0  0  0
 54 55  2  0  0  0
 54127  1  0  0  0
 55 57  1  0  0  0
 55128  1  0  0  0
 56 69  2  0  0  0
 57 58  2  0  0  0
 57129  1  0  0  0
 58130  1  0  0  0
 59 60  1  0  0  0
 59 61  1  0  0  0
 59 62  1  0  0  0
 60131  1  0  0  0
 60132  1  0  0  0
 60133  1  0  0  0
 61134  1  0  0  0
 61135  1  0  0  0
 61136  1  0  0  0
 62137  1  0  0  0
 62138  1  0  0  0
 62139  1  0  0  0
 63 65  1  0  0  0
 63140  1  0  0  0
 63141  1  0  0  0
 63142  1  0  0  0
 64143  1  0  0  0
 65144  1  0  0  0
 68 81  1  0  0  0
 71 73  2  0  0  0
 71 74  1  0  0  0
 71145  1  0  0  0
 72 75  2  0  0  0
 72 76  1  0  0  0
 72146  1  0  0  0
 73 75  1  0  0  0
 73 82  1  0  0  0
 74 76  2  0  0  0
 74 83  1  0  0  0
 75 84  1  0  0  0
 76 85  1  0  0  0
 77 78  1  0  0  0
 77 80  1  0  0  0
 77147  1  0  0  0
 77148  1  0  0  0
 78 82  1  0  0  0
 78149  1  0  0  0
 78150  1  0  0  0
 79 80  1  0  0  0
 79 82  1  0  0  0
 79151  1  0  0  0
 79152  1  0  0  0
 80 81  1  0  0  0
 80153  1  0  0  0
 81154  1  0  0  0
 81155  1  0  0  0
 83156  1  0  0  0
 83157  1  0  0  0
 84158  1  0  0  0
 84159  1  0  0  0
 85160  1  0  0  0
M  ISO  4   1 100  68 101  81 101  85 100
M  END
> <chiral flag>
0

> <version>
0

> <s_m_source_file>
/data/baiqing/PycharmProjects/Reinvent-master-3.2/result/LINK_invent/BTK/process_docking_weight1_custom_product_contain_oxygen_bond_distance_aromatic_linkinvent_7_9_3/rearranged_h_0099.sdf

> <i_m_source_file_index>
2

> <r_mmod_Potential_Energy-OPLS-2005>
38.2591934204102

> <r_mmod_Stretch_Energy-OPLS-2005>
79.7545394897461

> <r_mmod_Bend_Energy-OPLS-2005>
180.257659912109

> <r_mmod_Torsional_Energy-OPLS-2005>
290.666076660156

> <r_mmod_Improper_Torsional_Energy-OPLS-2005>
16.896312713623

> <r_mmod_Van_der_Waal_Energy-OPLS-2005>
150.187484741211

> <r_mmod_Electrostatic_Energy-OPLS-2005>
-498.501312255859

> <r_mmod_Solvation_Energy-OPLS-2005>
-233.072158813477

> <b_mmod_Minimization_Converged-OPLS-2005>
0

> <r_mmod_RMS_Derivative-OPLS-2005>
2.0045473575592

$$$$
2
                    3D
 Structure written by MMmdl.
157165  0  0  1  0            999 V2000
  -30.7207  -14.4744   20.4561 C   0  0  0  0  0  0
  -30.3985  -12.2709   19.4629 C   0  0  0  0  0  0
  -29.5011  -12.4761   18.2244 C   0  0  0  0  0  0
  -28.0160  -12.3614   18.6201 C   0  0  0  0  0  0
  -27.6528  -13.2189   19.8643 C   0  0  2  0  0  0
  -28.6900  -13.0600   20.9989 C   0  0  0  0  0  0
  -25.2523  -13.8207   20.5613 C   0  0  0  0  0  0
  -24.1801  -13.0478   20.9165 C   0  0  0  0  0  0
  -24.6362  -11.6945   20.8718 C   0  0  0  0  0  0
  -23.9033  -10.4325   21.0389 C   0  0  0  0  0  0
  -24.3594   -9.4245   21.9165 C   0  0  0  0  0  0
  -23.6286   -8.2266   22.0745 C   0  0  0  0  0  0
  -22.4263   -8.0281   21.3540 C   0  0  0  0  0  0
  -21.9891   -9.0253   20.4634 C   0  0  0  0  0  0
  -22.7205  -10.2147   20.3047 C   0  0  0  0  0  0
  -21.6872   -6.0722   22.5279 C   0  0  0  0  0  0
  -21.4010   -6.5622   23.8204 C   0  0  0  0  0  0
  -21.3675   -5.6781   24.9168 C   0  0  0  0  0  0
  -21.6063   -4.3042   24.7233 C   0  0  0  0  0  0
  -21.8815   -3.8133   23.4349 C   0  0  0  0  0  0
  -21.9196   -4.6948   22.3404 C   0  0  0  0  0  0
  -22.7814  -13.5261   21.1849 C   0  0  0  0  0  0
  -22.1657   -4.2128   21.0984 F   0  0  0  0  0  0
  -21.5658   -3.4526   25.7748 F   0  0  0  0  0  0
  -30.0239  -13.3071   20.4400 N   0  0  0  0  0  0
  -26.2960  -12.9396   20.3288 N   0  0  0  0  0  0
  -25.9286  -11.6551   20.5748 N   0  0  0  0  0  0
  -22.0462  -12.8231   22.0394 N   0  0  0  0  0  0
  -25.4244  -15.1917   20.3955 N   0  0  0  0  0  0
  -31.9210  -14.5043   20.1693 O   0  0  0  0  0  0
  -21.6653   -6.8858   21.4235 O   0  0  0  0  0  0
  -22.3481  -14.5572   20.6713 O   0  0  0  0  0  0
  -24.6118  -31.8683   23.2092 C   0  0  0  0  0  0
  -25.9020  -32.4821   23.8380 C   0  0  1  0  0  0
  -27.2265  -27.4329   20.0888 C   0  0  0  0  0  0
  -25.5885  -33.8622   24.2321 N   0  0  0  0  0  0
  -23.3968  -30.4958   21.5480 C   0  0  2  0  0  0
  -24.8391  -28.9586   20.1117 C   0  0  0  0  0  0
  -22.7360  -29.4690   22.4955 C   0  0  0  0  0  0
  -18.0263  -28.1384   22.8488 C   0  0  0  0  0  0
  -24.1481  -36.7343   23.2637 C   0  0  0  0  0  0
  -25.9248  -30.8329   21.3602 C   0  0  0  0  0  0
  -25.9977  -29.4659   20.7102 C   0  0  0  0  0  0
  -27.1887  -28.7080   20.6984 C   0  0  0  0  0  0
  -26.0445  -26.9343   19.4926 C   0  0  0  0  0  0
  -24.8573  -27.6907   19.5045 C   0  0  0  0  0  0
  -23.6035  -29.8302   20.1614 C   0  0  0  0  0  0
  -25.4098  -36.3131   24.0342 C   0  0  1  0  0  0
  -20.5849  -28.3680   23.1314 C   0  0  2  0  0  0
  -20.6756  -26.9418   22.5404 C   0  0  0  0  0  0
  -19.5745  -26.6396   21.5198 C   0  0  0  0  0  0
  -18.1920  -26.7933   22.1610 C   0  0  0  0  0  0
  -19.1510  -28.8840   23.2909 C   0  0  0  0  0  0
  -18.9443  -30.1446   23.8925 C   0  0  0  0  0  0
  -17.6446  -30.6588   24.0584 C   0  0  0  0  0  0
  -25.9026  -34.9483   23.5129 C   0  0  0  0  0  0
  -16.5338  -29.9097   23.6329 C   0  0  0  0  0  0
  -16.7256  -28.6518   23.0341 C   0  0  0  0  0  0
  -26.4442  -31.6598   25.0713 C   0  0  0  0  0  0
  -25.3714  -31.3684   26.1471 C   0  0  0  0  0  0
  -27.0273  -30.3049   24.6078 C   0  0  0  0  0  0
  -27.6040  -32.4295   25.7458 C   0  0  0  0  0  0
  -27.5583  -37.1807   24.8458 C   0  0  0  0  0  0
  -21.4085  -29.3063   22.3710 N   0  0  0  0  0  0
  -26.4288  -37.3812   23.9420 N   0  0  0  0  0  0
  -24.6628  -31.0795   22.0987 N   0  0  0  0  0  0
  -23.4149  -28.8233   23.2988 O   0  0  0  0  0  0
  -28.4214  -26.7412   20.1081 O   0  0  0  0  0  0
  -26.5589  -34.8931   22.4691 O   0  0  0  0  0  0
  -23.5321  -32.1422   23.7506 O   0  0  0  0  0  0
  -30.1170  -20.4755   20.5036 C   0  0  0  0  0  0
  -30.6710  -19.1973   20.3160 C   0  0  0  0  0  0
  -28.7253  -20.6137   20.6820 C   0  0  0  0  0  0
  -29.8094  -18.0629   20.3142 C   0  0  0  0  0  0
  -27.9790  -19.4195   20.7471 C   0  0  0  0  0  0
  -30.3187  -16.7243   19.8314 C   0  0  0  0  0  0
  -32.1765  -19.1020   20.0859 C   0  0  0  0  0  0
  -28.0509  -24.2871   20.4465 C   0  0  0  0  0  0
  -28.5346  -25.4357   19.5265 C   0  0  0  0  0  0
  -28.5491  -22.9075   19.9654 C   0  0  0  0  0  0
  -28.4828  -18.1844   20.5661 N   0  0  0  0  0  0
  -26.6152  -19.4819   20.9699 N   0  0  0  0  0  0
  -30.0024  -15.6144   20.5351 N   0  0  0  0  0  0
  -31.0095  -16.7112   18.8011 O   0  0  0  0  0  0
  -28.0957  -21.8425   20.8153 O   0  0  0  0  0  0
  -31.4527  -12.3076   19.1803 H   0  0  0  0  0  0
  -30.2456  -11.2780   19.8914 H   0  0  0  0  0  0
  -29.7414  -11.7392   17.4547 H   0  0  0  0  0  0
  -29.6934  -13.4554   17.7822 H   0  0  0  0  0  0
  -27.8037  -11.3091   18.8113 H   0  0  0  0  0  0
  -27.3830  -12.6475   17.7799 H   0  0  0  0  0  0
  -27.6816  -14.2580   19.5352 H   0  0  0  0  0  0
  -28.6472  -12.0531   21.4181 H   0  0  0  0  0  0
  -28.4694  -13.7447   21.8190 H   0  0  0  0  0  0
  -25.2752   -9.5740   22.4709 H   0  0  0  0  0  0
  -24.0029   -7.4657   22.7448 H   0  0  0  0  0  0
  -21.0835   -8.8746   19.8914 H   0  0  0  0  0  0
  -22.3660  -10.9659   19.6138 H   0  0  0  0  0  0
  -21.1971   -7.6127   23.9699 H   0  0  0  0  0  0
  -21.1517   -6.0512   25.9075 H   0  0  0  0  0  0
  -22.0582   -2.7592   23.2867 H   0  0  0  0  0  0
  -22.4114  -11.9905   22.4779 H   0  0  0  0  0  0
  -21.1073  -13.1216   22.2624 H   0  0  0  0  0  0
  -24.6563  -15.8461   20.4896 H   0  0  0  0  0  0
  -26.2804  -15.6275   20.0753 H   0  0  0  0  0  0
  -26.7085  -32.5522   23.1134 H   0  0  0  0  0  0
  -25.0045  -33.9788   25.0471 H   0  0  0  0  0  0
  -22.6890  -31.3159   21.4095 H   0  0  0  0  0  0
  -23.3742  -35.9677   23.3286 H   0  0  0  0  0  0
  -24.3585  -36.8970   22.2057 H   0  0  0  0  0  0
  -23.7218  -37.6539   23.6657 H   0  0  0  0  0  0
  -26.0333  -31.5963   20.5883 H   0  0  0  0  0  0
  -26.8148  -30.8886   21.9745 H   0  0  0  0  0  0
  -28.0846  -29.0965   21.1612 H   0  0  0  0  0  0
  -26.0158  -25.9674   19.0132 H   0  0  0  0  0  0
  -23.9641  -27.2926   19.0426 H   0  0  0  0  0  0
  -23.7153  -30.6075   19.4046 H   0  0  0  0  0  0
  -22.7223  -29.2593   19.8634 H   0  0  0  0  0  0
  -25.1256  -36.2004   25.0835 H   0  0  0  0  0  0
  -20.9959  -28.3246   24.1433 H   0  0  0  0  0  0
  -20.5656  -26.2277   23.3579 H   0  0  0  0  0  0
  -21.6626  -26.7466   22.1201 H   0  0  0  0  0  0
  -19.6921  -25.6314   21.1223 H   0  0  0  0  0  0
  -19.6700  -27.3201   20.6733 H   0  0  0  0  0  0
  -17.4180  -26.6663   21.4024 H   0  0  0  0  0  0
  -18.0357  -26.0073   22.9014 H   0  0  0  0  0  0
  -19.7920  -30.7255   24.2294 H   0  0  0  0  0  0
  -17.5013  -31.6277   24.5176 H   0  0  0  0  0  0
  -15.5344  -30.3025   23.7645 H   0  0  0  0  0  0
  -15.8647  -28.0867   22.7036 H   0  0  0  0  0  0
  -24.5893  -30.7022   25.7809 H   0  0  0  0  0  0
  -24.8888  -32.2824   26.4950 H   0  0  0  0  0  0
  -25.8072  -30.8833   27.0215 H   0  0  0  0  0  0
  -26.2811  -29.6808   24.1147 H   0  0  0  0  0  0
  -27.4069  -29.7290   25.4531 H   0  0  0  0  0  0
  -27.8632  -30.4387   23.9205 H   0  0  0  0  0  0
  -27.2696  -33.3591   26.2070 H   0  0  0  0  0  0
  -28.3819  -32.6843   25.0253 H   0  0  0  0  0  0
  -28.0734  -31.8385   26.5329 H   0  0  0  0  0  0
  -28.2575  -38.0127   24.7547 H   0  0  0  0  0  0
  -28.1085  -36.2658   24.6210 H   0  0  0  0  0  0
  -27.2312  -37.1384   25.8860 H   0  0  0  0  0  0
  -20.9194  -29.8808   21.6977 H   0  0  0  0  0  0
  -26.0182  -38.2890   24.1440 H   0  0  0  0  0  0
  -30.7713  -21.3331   20.4962 H   0  0  0  0  0  0
  -32.6817  -20.0202   20.3863 H   0  0  0  0  0  0
  -32.4037  -18.9370   19.0317 H   0  0  0  0  0  0
  -32.6142  -18.2876   20.6630 H   0  0  0  0  0  0
  -26.9631  -24.2883   20.5119 H   0  0  0  0  0  0
  -28.4230  -24.4569   21.4571 H   0  0  0  0  0  0
  -28.0711  -25.3834   18.5411 H   0  0  0  0  0  0
  -29.6011  -25.2994   19.3412 H   0  0  0  0  0  0
  -29.6337  -22.9667   19.9042 H   0  0  0  0  0  0
  -28.1922  -22.7173   18.9524 H   0  0  0  0  0  0
  -26.1990  -20.3913   20.8044 H   0  0  0  0  0  0
  -26.0507  -18.7017   20.6643 H   0  0  0  0  0  0
  -29.1710  -15.6605   21.1008 H   0  0  0  0  0  0
  1 25  1  0  0  0
  1 30  2  0  0  0
  1 83  1  0  0  0
  2  3  1  0  0  0
  2 25  1  0  0  0
  2 86  1  0  0  0
  2 87  1  0  0  0
  3  4  1  0  0  0
  3 88  1  0  0  0
  3 89  1  0  0  0
  4  5  1  0  0  0
  4 90  1  0  0  0
  4 91  1  0  0  0
  5  6  1  0  0  0
  5 26  1  0  0  0
  5 92  1  0  0  0
  6 25  1  0  0  0
  6 93  1  0  0  0
  6 94  1  0  0  0
  7  8  2  0  0  0
  7 26  1  0  0  0
  7 29  1  0  0  0
  8  9  1  0  0  0
  8 22  1  0  0  0
  9 10  1  0  0  0
  9 27  2  0  0  0
 10 11  2  0  0  0
 10 15  1  0  0  0
 11 12  1  0  0  0
 11 95  1  0  0  0
 12 13  2  0  0  0
 12 96  1  0  0  0
 13 14  1  0  0  0
 13 31  1  0  0  0
 14 15  2  0  0  0
 14 97  1  0  0  0
 15 98  1  0  0  0
 16 17  2  0  0  0
 16 21  1  0  0  0
 16 31  1  0  0  0
 17 18  1  0  0  0
 17 99  1  0  0  0
 18 19  2  0  0  0
 18100  1  0  0  0
 19 20  1  0  0  0
 19 24  1  0  0  0
 20 21  2  0  0  0
 20101  1  0  0  0
 21 23  1  0  0  0
 22 28  1  0  0  0
 22 32  2  0  0  0
 26 27  1  0  0  0
 28102  1  0  0  0
 28103  1  0  0  0
 29104  1  0  0  0
 29105  1  0  0  0
 33 34  1  0  0  0
 33 66  1  0  0  0
 33 70  2  0  0  0
 34 36  1  0  0  0
 34 59  1  0  0  0
 34106  1  0  0  0
 35 44  2  0  0  0
 35 45  1  0  0  0
 35 68  1  0  0  0
 36 56  1  0  0  0
 36107  1  0  0  0
 37 39  1  0  0  0
 37 47  1  0  0  0
 37 66  1  0  0  0
 37108  1  0  0  0
 38 43  2  0  0  0
 38 46  1  0  0  0
 38 47  1  0  0  0
 39 64  1  0  0  0
 39 67  2  0  0  0
 40 52  1  0  0  0
 40 53  2  0  0  0
 40 58  1  0  0  0
 41109  1  0  0  0
 41110  1  0  0  0
 41111  1  0  0  0
 41 48  1  0  0  0
 42 43  1  0  0  0
 42 66  1  0  0  0
 42112  1  0  0  0
 42113  1  0  0  0
 43 44  1  0  0  0
 44114  1  0  0  0
 45 46  2  0  0  0
 45115  1  0  0  0
 46116  1  0  0  0
 47117  1  0  0  0
 47118  1  0  0  0
 48 56  1  0  0  0
 48 65  1  0  0  0
 48119  1  0  0  0
 49 50  1  0  0  0
 49 53  1  0  0  0
 49 64  1  0  0  0
 49120  1  0  0  0
 50 51  1  0  0  0
 50121  1  0  0  0
 50122  1  0  0  0
 51 52  1  0  0  0
 51123  1  0  0  0
 51124  1  0  0  0
 52125  1  0  0  0
 52126  1  0  0  0
 53 54  1  0  0  0
 54 55  2  0  0  0
 54127  1  0  0  0
 55 57  1  0  0  0
 55128  1  0  0  0
 56 69  2  0  0  0
 57 58  2  0  0  0
 57129  1  0  0  0
 58130  1  0  0  0
 59 60  1  0  0  0
 59 61  1  0  0  0
 59 62  1  0  0  0
 60131  1  0  0  0
 60132  1  0  0  0
 60133  1  0  0  0
 61134  1  0  0  0
 61135  1  0  0  0
 61136  1  0  0  0
 62137  1  0  0  0
 62138  1  0  0  0
 62139  1  0  0  0
 63 65  1  0  0  0
 63140  1  0  0  0
 63141  1  0  0  0
 63142  1  0  0  0
 64143  1  0  0  0
 65144  1  0  0  0
 68 79  1  0  0  0
 71 72  2  0  0  0
 71 73  1  0  0  0
 71145  1  0  0  0
 72 74  1  0  0  0
 72 77  1  0  0  0
 73 75  2  0  0  0
 73 85  1  0  0  0
 74 76  1  0  0  0
 74 81  2  0  0  0
 75 81  1  0  0  0
 75 82  1  0  0  0
 76 83  1  0  0  0
 76 84  2  0  0  0
 77146  1  0  0  0
 77147  1  0  0  0
 77148  1  0  0  0
 78 79  1  0  0  0
 78 80  1  0  0  0
 78149  1  0  0  0
 78150  1  0  0  0
 79151  1  0  0  0
 79152  1  0  0  0
 80 85  1  0  0  0
 80153  1  0  0  0
 80154  1  0  0  0
 82155  1  0  0  0
 82156  1  0  0  0
 83157  1  0  0  0
M  ISO  4   1 100  68 101  79 101  83 100
M  END
> <chiral flag>
0

> <version>
0

> <s_m_source_file>
/data/baiqing/PycharmProjects/Reinvent-master-3.2/result/LINK_invent/BTK/process_docking_weight1_custom_product_contain_oxygen_bond_distance_aromatic_linkinvent_7_9_3/rearranged_h_0099.sdf

> <i_m_source_file_index>
3

> <r_mmod_Potential_Energy-OPLS-2005>
-299.487701416016

> <r_mmod_Stretch_Energy-OPLS-2005>
37.8725471496582

> <r_mmod_Bend_Energy-OPLS-2005>
111.763633728027

> <r_mmod_Torsional_Energy-OPLS-2005>
277.327941894531

> <r_mmod_Improper_Torsional_Energy-OPLS-2005>
10.8259630203247

> <r_mmod_Van_der_Waal_Energy-OPLS-2005>
172.626480102539

> <r_mmod_Electrostatic_Energy-OPLS-2005>
-708.3544921875

> <r_mmod_Solvation_Energy-OPLS-2005>
-225.407928466797

> <b_mmod_Minimization_Converged-OPLS-2005>
0

> <r_mmod_RMS_Derivative-OPLS-2005>
2.42855525016785

$$$$
3
                    3D
 Structure written by MMmdl.
156164  0  0  1  0            999 V2000
  -30.6690  -14.5417   20.5312 C   0  0  0  0  0  0
  -30.4327  -12.3353   19.4355 C   0  0  0  0  0  0
  -29.5033  -12.4921   18.2126 C   0  0  0  0  0  0
  -28.0244  -12.3482   18.6250 C   0  0  0  0  0  0
  -27.6607  -13.2059   19.8662 C   0  0  2  0  0  0
  -28.7031  -13.0202   20.9922 C   0  0  0  0  0  0
  -25.2600  -13.8144   20.5672 C   0  0  0  0  0  0
  -24.1846  -13.0431   20.9171 C   0  0  0  0  0  0
  -24.6396  -11.6895   20.8726 C   0  0  0  0  0  0
  -23.9049  -10.4295   21.0410 C   0  0  0  0  0  0
  -24.3611   -9.4212   21.9183 C   0  0  0  0  0  0
  -23.6286   -8.2252   22.0759 C   0  0  0  0  0  0
  -22.4262   -8.0290   21.3558 C   0  0  0  0  0  0
  -21.9899   -9.0256   20.4657 C   0  0  0  0  0  0
  -22.7226  -10.2133   20.3061 C   0  0  0  0  0  0
  -21.6839   -6.0735   22.5280 C   0  0  0  0  0  0
  -21.4015   -6.5644   23.8216 C   0  0  0  0  0  0
  -21.3659   -5.6793   24.9178 C   0  0  0  0  0  0
  -21.6038   -4.3055   24.7224 C   0  0  0  0  0  0
  -21.8813   -3.8153   23.4344 C   0  0  0  0  0  0
  -21.9192   -4.6967   22.3404 C   0  0  0  0  0  0
  -22.7878  -13.5255   21.1824 C   0  0  0  0  0  0
  -22.1662   -4.2154   21.0980 F   0  0  0  0  0  0
  -21.5624   -3.4542   25.7741 F   0  0  0  0  0  0
  -30.0296  -13.3388   20.4378 N   0  0  0  0  0  0
  -26.3027  -12.9309   20.3316 N   0  0  0  0  0  0
  -25.9324  -11.6466   20.5732 N   0  0  0  0  0  0
  -22.0499  -12.8271   22.0379 N   0  0  0  0  0  0
  -25.4340  -15.1866   20.4109 N   0  0  0  0  0  0
  -31.8131  -14.7073   20.0953 O   0  0  0  0  0  0
  -21.6636   -6.8879   21.4244 O   0  0  0  0  0  0
  -22.3579  -14.5555   20.6648 O   0  0  0  0  0  0
  -24.6186  -31.8646   23.2081 C   0  0  0  0  0  0
  -25.9068  -32.4809   23.8376 C   0  0  1  0  0  0
  -27.2408  -27.4147   20.1073 C   0  0  0  0  0  0
  -25.5904  -33.8605   24.2320 N   0  0  0  0  0  0
  -23.4091  -30.4865   21.5461 C   0  0  2  0  0  0
  -24.8617  -28.9517   20.1061 C   0  0  0  0  0  0
  -22.7438  -29.4643   22.4959 C   0  0  0  0  0  0
  -18.0281  -28.1374   22.8484 C   0  0  0  0  0  0
  -24.1474  -36.7308   23.2641 C   0  0  0  0  0  0
  -25.9385  -30.8260   21.3633 C   0  0  0  0  0  0
  -26.0210  -29.4615   20.7059 C   0  0  0  0  0  0
  -27.2188  -28.7012   20.7011 C   0  0  0  0  0  0
  -26.0702  -26.9283   19.4939 C   0  0  0  0  0  0
  -24.8824  -27.6845   19.4935 C   0  0  0  0  0  0
  -23.6217  -29.8176   20.1596 C   0  0  0  0  0  0
  -25.4100  -36.3104   24.0351 C   0  0  1  0  0  0
  -20.5874  -28.3674   23.1295 C   0  0  2  0  0  0
  -20.6761  -26.9402   22.5404 C   0  0  0  0  0  0
  -19.5740  -26.6385   21.5200 C   0  0  0  0  0  0
  -18.1922  -26.7921   22.1622 C   0  0  0  0  0  0
  -19.1529  -28.8843   23.2883 C   0  0  0  0  0  0
  -18.9463  -30.1451   23.8893 C   0  0  0  0  0  0
  -17.6467  -30.6581   24.0563 C   0  0  0  0  0  0
  -25.9034  -34.9475   23.5136 C   0  0  0  0  0  0
  -16.5357  -29.9079   23.6326 C   0  0  0  0  0  0
  -16.7272  -28.6492   23.0349 C   0  0  0  0  0  0
  -26.4481  -31.6602   25.0718 C   0  0  0  0  0  0
  -25.3754  -31.3734   26.1479 C   0  0  0  0  0  0
  -27.0316  -30.3043   24.6112 C   0  0  0  0  0  0
  -27.6039  -32.4339   25.7491 C   0  0  0  0  0  0
  -27.5577  -37.1809   24.8478 C   0  0  0  0  0  0
  -21.4160  -29.3038   22.3702 N   0  0  0  0  0  0
  -26.4285  -37.3793   23.9420 N   0  0  0  0  0  0
  -24.6729  -31.0740   22.0983 N   0  0  0  0  0  0
  -23.4179  -28.8188   23.3028 O   0  0  0  0  0  0
  -28.3250  -26.5623   20.2038 O   0  0  0  0  0  0
  -26.5588  -34.8939   22.4693 O   0  0  0  0  0  0
  -23.5382  -32.1388   23.7486 O   0  0  0  0  0  0
  -29.4816  -19.3010   21.5589 C   0  0  0  0  0  0
  -29.3827  -17.8888   21.6982 C   0  0  0  0  0  0
  -30.8438  -17.5844   19.7989 C   0  0  0  0  0  0
  -30.2725  -19.8792   20.5353 C   0  0  0  0  0  0
  -30.0771  -17.0000   20.8378 C   0  0  0  0  0  0
  -30.9344  -18.9897   19.6507 C   0  0  0  0  0  0
  -28.2805  -25.7752   21.3426 C   0  0  0  0  0  0
  -28.6121  -24.4663   21.5320 C   0  0  0  0  0  0
  -29.1732  -23.5579   20.5131 C   0  0  0  0  0  0
  -31.9170  -21.7668   20.8814 C   0  0  0  0  0  0
  -30.5074  -21.4074   20.3737 C   0  0  2  0  0  0
  -29.9244  -15.5698   21.0161 N   0  0  0  0  0  0
  -29.5584  -22.3500   21.0134 N   0  0  0  0  0  0
  -29.3439  -23.8548   19.3306 O   0  0  0  0  0  0
  -28.3795  -23.9702   22.7588 O   0  0  0  0  0  0
  -31.6834  -19.4863   18.6372 F   0  0  0  0  0  0
  -31.4760  -12.4435   19.1325 H   0  0  0  0  0  0
  -30.3488  -11.3311   19.8550 H   0  0  0  0  0  0
  -29.7538  -11.7471   17.4557 H   0  0  0  0  0  0
  -29.6626  -13.4642   17.7425 H   0  0  0  0  0  0
  -27.8467  -11.2938   18.8388 H   0  0  0  0  0  0
  -27.3729  -12.5988   17.7871 H   0  0  0  0  0  0
  -27.6951  -14.2479   19.5472 H   0  0  0  0  0  0
  -28.6921  -11.9905   21.3537 H   0  0  0  0  0  0
  -28.4559  -13.6366   21.8578 H   0  0  0  0  0  0
  -25.2751   -9.5682   22.4755 H   0  0  0  0  0  0
  -23.9989   -7.4642   22.7478 H   0  0  0  0  0  0
  -21.0827   -8.8769   19.8969 H   0  0  0  0  0  0
  -22.3678  -10.9671   19.6176 H   0  0  0  0  0  0
  -21.2012   -7.6154   23.9715 H   0  0  0  0  0  0
  -21.1483   -6.0530   25.9073 H   0  0  0  0  0  0
  -22.0591   -2.7616   23.2840 H   0  0  0  0  0  0
  -22.4102  -11.9963   22.4836 H   0  0  0  0  0  0
  -21.1114  -13.1327   22.2526 H   0  0  0  0  0  0
  -24.6687  -15.8415   20.5287 H   0  0  0  0  0  0
  -26.2823  -15.6261   20.0773 H   0  0  0  0  0  0
  -26.7139  -32.5522   23.1136 H   0  0  0  0  0  0
  -25.0068  -33.9752   25.0477 H   0  0  0  0  0  0
  -22.6979  -31.3032   21.4043 H   0  0  0  0  0  0
  -23.3735  -35.9641   23.3324 H   0  0  0  0  0  0
  -24.3552  -36.8899   22.2047 H   0  0  0  0  0  0
  -23.7231  -37.6530   23.6629 H   0  0  0  0  0  0
  -26.0540  -31.5911   20.5942 H   0  0  0  0  0  0
  -26.8236  -30.8766   21.9845 H   0  0  0  0  0  0
  -28.1086  -29.0798   21.1834 H   0  0  0  0  0  0
  -26.0767  -25.9421   19.0514 H   0  0  0  0  0  0
  -23.9914  -27.2794   19.0337 H   0  0  0  0  0  0
  -23.7314  -30.5906   19.3977 H   0  0  0  0  0  0
  -22.7448  -29.2377   19.8647 H   0  0  0  0  0  0
  -25.1268  -36.1964   25.0844 H   0  0  0  0  0  0
  -20.9961  -28.3237   24.1424 H   0  0  0  0  0  0
  -20.5624  -26.2292   23.3595 H   0  0  0  0  0  0
  -21.6636  -26.7404   22.1229 H   0  0  0  0  0  0
  -19.6882  -25.6292   21.1231 H   0  0  0  0  0  0
  -19.6681  -27.3189   20.6720 H   0  0  0  0  0  0
  -17.4189  -26.6666   21.4028 H   0  0  0  0  0  0
  -18.0331  -26.0048   22.9004 H   0  0  0  0  0  0
  -19.7946  -30.7260   24.2246 H   0  0  0  0  0  0
  -17.5035  -31.6260   24.5170 H   0  0  0  0  0  0
  -15.5361  -30.2986   23.7666 H   0  0  0  0  0  0
  -15.8668  -28.0825   22.7063 H   0  0  0  0  0  0
  -24.5903  -30.7090   25.7847 H   0  0  0  0  0  0
  -24.8977  -32.2906   26.4946 H   0  0  0  0  0  0
  -25.8136  -30.8902   27.0220 H   0  0  0  0  0  0
  -26.2863  -29.6805   24.1156 H   0  0  0  0  0  0
  -27.4061  -29.7294   25.4592 H   0  0  0  0  0  0
  -27.8710  -30.4369   23.9279 H   0  0  0  0  0  0
  -27.2620  -33.3615   26.2104 H   0  0  0  0  0  0
  -28.3836  -32.6944   25.0318 H   0  0  0  0  0  0
  -28.0702  -31.8432   26.5390 H   0  0  0  0  0  0
  -28.2625  -38.0075   24.7491 H   0  0  0  0  0  0
  -28.1037  -36.2609   24.6330 H   0  0  0  0  0  0
  -27.2293  -37.1515   25.8881 H   0  0  0  0  0  0
  -20.9325  -29.8777   21.6940 H   0  0  0  0  0  0
  -26.0181  -38.2877   24.1395 H   0  0  0  0  0  0
  -28.9519  -19.9348   22.2557 H   0  0  0  0  0  0
  -28.7678  -17.4920   22.4944 H   0  0  0  0  0  0
  -31.3728  -16.9703   19.0872 H   0  0  0  0  0  0
  -27.8906  -26.3447   22.1773 H   0  0  0  0  0  0
  -32.6857  -21.1861   20.3714 H   0  0  0  0  0  0
  -32.0152  -21.5712   21.9506 H   0  0  0  0  0  0
  -32.1442  -22.8204   20.7181 H   0  0  0  0  0  0
  -30.4896  -21.5944   19.2987 H   0  0  0  0  0  0
  -29.0755  -15.2768   21.4747 H   0  0  0  0  0  0
  -29.4331  -22.2110   22.0030 H   0  0  0  0  0  0
  -28.2667  -23.0332   22.6693 H   0  0  0  0  0  0
  1 25  1  0  0  0
  1 30  2  0  0  0
  1 82  1  0  0  0
  2  3  1  0  0  0
  2 25  1  0  0  0
  2 87  1  0  0  0
  2 88  1  0  0  0
  3  4  1  0  0  0
  3 89  1  0  0  0
  3 90  1  0  0  0
  4  5  1  0  0  0
  4 91  1  0  0  0
  4 92  1  0  0  0
  5  6  1  0  0  0
  5 26  1  0  0  0
  5 93  1  0  0  0
  6 25  1  0  0  0
  6 94  1  0  0  0
  6 95  1  0  0  0
  7  8  2  0  0  0
  7 26  1  0  0  0
  7 29  1  0  0  0
  8  9  1  0  0  0
  8 22  1  0  0  0
  9 10  1  0  0  0
  9 27  2  0  0  0
 10 11  2  0  0  0
 10 15  1  0  0  0
 11 12  1  0  0  0
 11 96  1  0  0  0
 12 13  2  0  0  0
 12 97  1  0  0  0
 13 14  1  0  0  0
 13 31  1  0  0  0
 14 15  2  0  0  0
 14 98  1  0  0  0
 15 99  1  0  0  0
 16 17  2  0  0  0
 16 21  1  0  0  0
 16 31  1  0  0  0
 17 18  1  0  0  0
 17100  1  0  0  0
 18 19  2  0  0  0
 18101  1  0  0  0
 19 20  1  0  0  0
 19 24  1  0  0  0
 20 21  2  0  0  0
 20102  1  0  0  0
 21 23  1  0  0  0
 22 28  1  0  0  0
 22 32  2  0  0  0
 26 27  1  0  0  0
 28103  1  0  0  0
 28104  1  0  0  0
 29105  1  0  0  0
 29106  1  0  0  0
 33 34  1  0  0  0
 33 66  1  0  0  0
 33 70  2  0  0  0
 34 36  1  0  0  0
 34 59  1  0  0  0
 34107  1  0  0  0
 35 44  2  0  0  0
 35 45  1  0  0  0
 35 68  1  0  0  0
 36 56  1  0  0  0
 36108  1  0  0  0
 37 39  1  0  0  0
 37 47  1  0  0  0
 37 66  1  0  0  0
 37109  1  0  0  0
 38 43  2  0  0  0
 38 46  1  0  0  0
 38 47  1  0  0  0
 39 64  1  0  0  0
 39 67  2  0  0  0
 40 52  1  0  0  0
 40 53  2  0  0  0
 40 58  1  0  0  0
 41110  1  0  0  0
 41111  1  0  0  0
 41112  1  0  0  0
 41 48  1  0  0  0
 42 43  1  0  0  0
 42 66  1  0  0  0
 42113  1  0  0  0
 42114  1  0  0  0
 43 44  1  0  0  0
 44115  1  0  0  0
 45 46  2  0  0  0
 45116  1  0  0  0
 46117  1  0  0  0
 47118  1  0  0  0
 47119  1  0  0  0
 48 56  1  0  0  0
 48 65  1  0  0  0
 48120  1  0  0  0
 49 50  1  0  0  0
 49 53  1  0  0  0
 49 64  1  0  0  0
 49121  1  0  0  0
 50 51  1  0  0  0
 50122  1  0  0  0
 50123  1  0  0  0
 51 52  1  0  0  0
 51124  1  0  0  0
 51125  1  0  0  0
 52126  1  0  0  0
 52127  1  0  0  0
 53 54  1  0  0  0
 54 55  2  0  0  0
 54128  1  0  0  0
 55 57  1  0  0  0
 55129  1  0  0  0
 56 69  2  0  0  0
 57 58  2  0  0  0
 57130  1  0  0  0
 58131  1  0  0  0
 59 60  1  0  0  0
 59 61  1  0  0  0
 59 62  1  0  0  0
 60132  1  0  0  0
 60133  1  0  0  0
 60134  1  0  0  0
 61135  1  0  0  0
 61136  1  0  0  0
 61137  1  0  0  0
 62138  1  0  0  0
 62139  1  0  0  0
 62140  1  0  0  0
 63 65  1  0  0  0
 63141  1  0  0  0
 63142  1  0  0  0
 63143  1  0  0  0
 64144  1  0  0  0
 65145  1  0  0  0
 68 77  1  0  0  0
 71 72  2  0  0  0
 71 74  1  0  0  0
 71146  1  0  0  0
 72 75  1  0  0  0
 72147  1  0  0  0
 73 75  2  0  0  0
 73 76  1  0  0  0
 73148  1  0  0  0
 74 76  2  0  0  0
 74 81  1  0  0  0
 75 82  1  0  0  0
 76 86  1  0  0  0
 77 78  2  0  0  0
 77149  1  0  0  0
 78 79  1  0  0  0
 78 85  1  0  0  0
 79 83  1  0  0  0
 79 84  2  0  0  0
 80150  1  0  0  0
 80151  1  0  0  0
 80152  1  0  0  0
 80 81  1  0  0  0
 81 83  1  0  0  0
 81153  1  0  0  0
 82154  1  0  0  0
 83155  1  0  0  0
 85156  1  0  0  0
M  ISO  4   1 100  68 101  77 101  82 100
M  END
> <chiral flag>
0

> <version>
0

> <s_m_source_file>
/data/baiqing/PycharmProjects/Reinvent-master-3.2/result/LINK_invent/BTK/process_docking_weight1_custom_product_contain_oxygen_bond_distance_aromatic_linkinvent_7_9_3/rearranged_h_0099.sdf

> <i_m_source_file_index>
4

> <r_mmod_Potential_Energy-OPLS-2005>
-56.692684173584

> <r_mmod_Stretch_Energy-OPLS-2005>
49.9872016906738

> <r_mmod_Bend_Energy-OPLS-2005>
122.009140014648

> <r_mmod_Torsional_Energy-OPLS-2005>
230.176193237305

> <r_mmod_Improper_Torsional_Energy-OPLS-2005>
5.05331325531006

> <r_mmod_Van_der_Waal_Energy-OPLS-2005>
152.616363525391

> <r_mmod_Electrostatic_Energy-OPLS-2005>
-398.512634277344

> <r_mmod_Solvation_Energy-OPLS-2005>
-243.341186523438

> <b_mmod_Minimization_Converged-OPLS-2005>
0

> <r_mmod_RMS_Derivative-OPLS-2005>
2.29483294487

$$$$
4
                    3D
 Structure written by MMmdl.
163172  0  0  1  0            999 V2000
  -30.6432  -14.6949   20.3175 C   0  0  0  0  0  0
  -30.4249  -12.3822   19.4399 C   0  0  0  0  0  0
  -29.4862  -12.3720   18.2127 C   0  0  0  0  0  0
  -28.0060  -12.2996   18.6374 C   0  0  0  0  0  0
  -27.6389  -13.2155   19.8379 C   0  0  2  0  0  0
  -28.7076  -13.1827   20.9501 C   0  0  0  0  0  0
  -25.2540  -13.8181   20.5755 C   0  0  0  0  0  0
  -24.1799  -13.0436   20.9205 C   0  0  0  0  0  0
  -24.6375  -11.6914   20.8778 C   0  0  0  0  0  0
  -23.9036  -10.4294   21.0432 C   0  0  0  0  0  0
  -24.3588   -9.4202   21.9195 C   0  0  0  0  0  0
  -23.6262   -8.2237   22.0749 C   0  0  0  0  0  0
  -22.4251   -8.0270   21.3541 C   0  0  0  0  0  0
  -21.9891   -9.0249   20.4651 C   0  0  0  0  0  0
  -22.7217  -10.2136   20.3071 C   0  0  0  0  0  0
  -21.6859   -6.0706   22.5264 C   0  0  0  0  0  0
  -21.4026   -6.5624   23.8192 C   0  0  0  0  0  0
  -21.3647   -5.6785   24.9162 C   0  0  0  0  0  0
  -21.6039   -4.3046   24.7225 C   0  0  0  0  0  0
  -21.8826   -3.8125   23.4353 C   0  0  0  0  0  0
  -21.9197   -4.6930   22.3405 C   0  0  0  0  0  0
  -22.7818  -13.5213   21.1853 C   0  0  0  0  0  0
  -22.1657   -4.2108   21.0977 F   0  0  0  0  0  0
  -21.5627   -3.4538   25.7745 F   0  0  0  0  0  0
  -29.9927  -13.4873   20.3159 N   0  0  0  0  0  0
  -26.2957  -12.9356   20.3362 N   0  0  0  0  0  0
  -25.9313  -11.6521   20.5844 N   0  0  0  0  0  0
  -22.0463  -12.8205   22.0421 N   0  0  0  0  0  0
  -25.4252  -15.1910   20.4255 N   0  0  0  0  0  0
  -31.8761  -14.7153   20.2990 O   0  0  0  0  0  0
  -21.6640   -6.8853   21.4227 O   0  0  0  0  0  0
  -22.3495  -14.5511   20.6690 O   0  0  0  0  0  0
  -24.6240  -31.8614   23.2025 C   0  0  0  0  0  0
  -25.9115  -32.4775   23.8332 C   0  0  1  0  0  0
  -27.2266  -27.3359   20.1324 C   0  0  0  0  0  0
  -25.5936  -33.8575   24.2267 N   0  0  0  0  0  0
  -23.4150  -30.4855   21.5442 C   0  0  2  0  0  0
  -24.8656  -28.9366   20.1109 C   0  0  0  0  0  0
  -22.7451  -29.4671   22.4953 C   0  0  0  0  0  0
  -18.0285  -28.1398   22.8491 C   0  0  0  0  0  0
  -24.1497  -36.7304   23.2636 C   0  0  0  0  0  0
  -25.9518  -30.7981   21.3703 C   0  0  0  0  0  0
  -26.0290  -29.4246   20.7187 C   0  0  0  0  0  0
  -27.2151  -28.6359   20.7189 C   0  0  0  0  0  0
  -26.0470  -26.8948   19.4972 C   0  0  0  0  0  0
  -24.8748  -27.6765   19.4889 C   0  0  0  0  0  0
  -23.6303  -29.8176   20.1586 C   0  0  0  0  0  0
  -25.4115  -36.3079   24.0328 C   0  0  1  0  0  0
  -20.5883  -28.3714   23.1301 C   0  0  2  0  0  0
  -20.6801  -26.9445   22.5422 C   0  0  0  0  0  0
  -19.5769  -26.6399   21.5233 C   0  0  0  0  0  0
  -18.1941  -26.7937   22.1644 C   0  0  0  0  0  0
  -19.1530  -28.8870   23.2896 C   0  0  0  0  0  0
  -18.9451  -30.1475   23.8897 C   0  0  0  0  0  0
  -17.6453  -30.6592   24.0570 C   0  0  0  0  0  0
  -25.9053  -34.9443   23.5093 C   0  0  0  0  0  0
  -16.5349  -29.9089   23.6339 C   0  0  0  0  0  0
  -16.7272  -28.6522   23.0331 C   0  0  0  0  0  0
  -26.4496  -31.6569   25.0687 C   0  0  0  0  0  0
  -25.3741  -31.3711   26.1423 C   0  0  0  0  0  0
  -27.0326  -30.2985   24.6131 C   0  0  0  0  0  0
  -27.6036  -32.4303   25.7474 C   0  0  0  0  0  0
  -27.5570  -37.1816   24.8458 C   0  0  0  0  0  0
  -21.4169  -29.3070   22.3693 N   0  0  0  0  0  0
  -26.4286  -37.3777   23.9402 N   0  0  0  0  0  0
  -24.6824  -31.0637   22.0966 N   0  0  0  0  0  0
  -23.4182  -28.8222   23.3044 O   0  0  0  0  0  0
  -28.3531  -26.5096   20.1518 O   0  0  0  0  0  0
  -26.5608  -34.8919   22.4649 O   0  0  0  0  0  0
  -23.5419  -32.1419   23.7383 O   0  0  0  0  0  0
  -28.6401  -19.2848   19.3908 C   0  0  0  0  0  0
  -30.5000  -19.2935   20.9041 C   0  0  0  0  0  0
  -28.6898  -17.8626   19.3357 C   0  0  0  0  0  0
  -29.5914  -20.0490   20.1038 C   0  0  0  0  0  0
  -29.7082  -17.1033   20.0119 C   0  0  0  0  0  0
  -30.5562  -17.8632   20.8711 C   0  0  0  0  0  0
  -30.8430  -21.8581   19.1187 C   0  0  0  0  0  0
  -28.7880  -22.4530   20.1943 C   0  0  0  0  0  0
  -31.0466  -23.3012   18.6400 C   0  0  0  0  0  0
  -30.4054  -24.3113   19.5852 C   0  0  0  0  0  0
  -28.9251  -23.9769   19.7474 C   0  0  2  0  0  0
  -27.6369  -17.2237   18.4458 C   0  0  0  0  0  0
  -30.3129  -15.6540   18.1688 C   0  0  0  0  0  0
  -28.1917  -25.1047   20.5932 C   0  0  0  0  0  0
  -29.7391  -21.4997   19.8478 N   0  0  0  0  0  0
  -29.9920  -15.7040   19.6169 N   0  0  0  0  0  0
  -31.7224  -21.0533   18.7910 O   0  0  0  0  0  0
  -27.7849  -22.1393   20.8481 O   0  0  0  0  0  0
  -31.5023  -17.2425   21.6133 F   0  0  0  0  0  0
  -31.4644  -12.4877   19.1261 H   0  0  0  0  0  0
  -30.3628  -11.4305   19.9656 H   0  0  0  0  0  0
  -29.7178  -11.5123   17.5818 H   0  0  0  0  0  0
  -29.6481  -13.2310   17.5730 H   0  0  0  0  0  0
  -27.8040  -11.2598   18.8923 H   0  0  0  0  0  0
  -27.3603  -12.5272   17.7875 H   0  0  0  0  0  0
  -27.6211  -14.2220   19.4359 H   0  0  0  0  0  0
  -28.7444  -12.2087   21.4395 H   0  0  0  0  0  0
  -28.4884  -13.9175   21.7260 H   0  0  0  0  0  0
  -25.2743   -9.5676   22.4758 H   0  0  0  0  0  0
  -23.9978   -7.4627   22.7465 H   0  0  0  0  0  0
  -21.0823   -8.8776   19.8943 H   0  0  0  0  0  0
  -22.3682  -10.9674   19.6174 H   0  0  0  0  0  0
  -21.2031   -7.6135   23.9689 H   0  0  0  0  0  0
  -21.1455   -6.0514   25.9058 H   0  0  0  0  0  0
  -22.0619   -2.7584   23.2876 H   0  0  0  0  0  0
  -22.4090  -11.9871   22.4813 H   0  0  0  0  0  0
  -21.1078  -13.1221   22.2601 H   0  0  0  0  0  0
  -24.6661  -15.8488   20.5664 H   0  0  0  0  0  0
  -26.3027  -15.6440   20.2086 H   0  0  0  0  0  0
  -26.7178  -32.5455   23.1079 H   0  0  0  0  0  0
  -25.0095  -33.9709   25.0418 H   0  0  0  0  0  0
  -22.7075  -31.3062   21.4034 H   0  0  0  0  0  0
  -23.3746  -35.9649   23.3298 H   0  0  0  0  0  0
  -24.3589  -36.8927   22.2048 H   0  0  0  0  0  0
  -23.7273  -37.6520   23.6655 H   0  0  0  0  0  0
  -26.0714  -31.5613   20.6007 H   0  0  0  0  0  0
  -26.8321  -30.8506   21.9980 H   0  0  0  0  0  0
  -28.1080  -29.0057   21.2023 H   0  0  0  0  0  0
  -26.0292  -25.9322   19.0048 H   0  0  0  0  0  0
  -23.9873  -27.3020   18.9997 H   0  0  0  0  0  0
  -23.7427  -30.5941   19.4007 H   0  0  0  0  0  0
  -22.7485  -29.2504   19.8580 H   0  0  0  0  0  0
  -25.1303  -36.1911   25.0822 H   0  0  0  0  0  0
  -20.9965  -28.3294   24.1428 H   0  0  0  0  0  0
  -20.5759  -26.2320   23.3626 H   0  0  0  0  0  0
  -21.6667  -26.7516   22.1189 H   0  0  0  0  0  0
  -19.6934  -25.6306   21.1268 H   0  0  0  0  0  0
  -19.6693  -27.3212   20.6763 H   0  0  0  0  0  0
  -17.4224  -26.6676   21.4036 H   0  0  0  0  0  0
  -18.0328  -26.0071   22.9035 H   0  0  0  0  0  0
  -19.7928  -30.7294   24.2261 H   0  0  0  0  0  0
  -17.5006  -31.6270   24.5181 H   0  0  0  0  0  0
  -15.5352  -30.2994   23.7657 H   0  0  0  0  0  0
  -15.8678  -28.0859   22.7020 H   0  0  0  0  0  0
  -24.5911  -30.7056   25.7764 H   0  0  0  0  0  0
  -24.8943  -32.2885   26.4845 H   0  0  0  0  0  0
  -25.8085  -30.8897   27.0196 H   0  0  0  0  0  0
  -26.2884  -29.6750   24.1162 H   0  0  0  0  0  0
  -27.4018  -29.7223   25.4626 H   0  0  0  0  0  0
  -27.8760  -30.4246   23.9339 H   0  0  0  0  0  0
  -27.2614  -33.3590   26.2061 H   0  0  0  0  0  0
  -28.3859  -32.6902   25.0324 H   0  0  0  0  0  0
  -28.0693  -31.8427   26.5402 H   0  0  0  0  0  0
  -28.2601  -38.0102   24.7491 H   0  0  0  0  0  0
  -28.1062  -36.2636   24.6303 H   0  0  0  0  0  0
  -27.2288  -37.1483   25.8863 H   0  0  0  0  0  0
  -20.9332  -29.8783   21.6905 H   0  0  0  0  0  0
  -26.0167  -38.2856   24.1390 H   0  0  0  0  0  0
  -27.9017  -19.7994   18.7902 H   0  0  0  0  0  0
  -31.2401  -19.8172   21.4915 H   0  0  0  0  0  0
  -30.6089  -23.3861   17.6439 H   0  0  0  0  0  0
  -32.1109  -23.5101   18.5266 H   0  0  0  0  0  0
  -30.5195  -25.3150   19.1777 H   0  0  0  0  0  0
  -30.9112  -24.3024   20.5545 H   0  0  0  0  0  0
  -28.4695  -24.0119   18.7545 H   0  0  0  0  0  0
  -26.6653  -17.6868   18.6271 H   0  0  0  0  0  0
  -27.5188  -16.1627   18.6229 H   0  0  0  0  0  0
  -27.8880  -17.3712   17.3954 H   0  0  0  0  0  0
  -29.4350  -15.3979   17.5789 H   0  0  0  0  0  0
  -31.0965  -14.9394   17.8977 H   0  0  0  0  0  0
  -30.6783  -16.6176   17.8081 H   0  0  0  0  0  0
  -27.1399  -24.8392   20.6950 H   0  0  0  0  0  0
  -28.5790  -25.0659   21.6128 H   0  0  0  0  0  0
  1 25  1  0  0  0
  1 30  2  0  0  0
  1 86  1  0  0  0
  2  3  1  0  0  0
  2 25  1  0  0  0
  2 90  1  0  0  0
  2 91  1  0  0  0
  3  4  1  0  0  0
  3 92  1  0  0  0
  3 93  1  0  0  0
  4  5  1  0  0  0
  4 94  1  0  0  0
  4 95  1  0  0  0
  5  6  1  0  0  0
  5 26  1  0  0  0
  5 96  1  0  0  0
  6 25  1  0  0  0
  6 97  1  0  0  0
  6 98  1  0  0  0
  7  8  2  0  0  0
  7 26  1  0  0  0
  7 29  1  0  0  0
  8  9  1  0  0  0
  8 22  1  0  0  0
  9 10  1  0  0  0
  9 27  2  0  0  0
 10 11  2  0  0  0
 10 15  1  0  0  0
 11 12  1  0  0  0
 11 99  1  0  0  0
 12 13  2  0  0  0
 12100  1  0  0  0
 13 14  1  0  0  0
 13 31  1  0  0  0
 14 15  2  0  0  0
 14101  1  0  0  0
 15102  1  0  0  0
 16 17  2  0  0  0
 16 21  1  0  0  0
 16 31  1  0  0  0
 17 18  1  0  0  0
 17103  1  0  0  0
 18 19  2  0  0  0
 18104  1  0  0  0
 19 20  1  0  0  0
 19 24  1  0  0  0
 20 21  2  0  0  0
 20105  1  0  0  0
 21 23  1  0  0  0
 22 28  1  0  0  0
 22 32  2  0  0  0
 26 27  1  0  0  0
 28106  1  0  0  0
 28107  1  0  0  0
 29108  1  0  0  0
 29109  1  0  0  0
 33 34  1  0  0  0
 33 66  1  0  0  0
 33 70  2  0  0  0
 34 36  1  0  0  0
 34 59  1  0  0  0
 34110  1  0  0  0
 35 44  2  0  0  0
 35 45  1  0  0  0
 35 68  1  0  0  0
 36 56  1  0  0  0
 36111  1  0  0  0
 37 39  1  0  0  0
 37 47  1  0  0  0
 37 66  1  0  0  0
 37112  1  0  0  0
 38 43  2  0  0  0
 38 46  1  0  0  0
 38 47  1  0  0  0
 39 64  1  0  0  0
 39 67  2  0  0  0
 40 52  1  0  0  0
 40 53  2  0  0  0
 40 58  1  0  0  0
 41113  1  0  0  0
 41114  1  0  0  0
 41115  1  0  0  0
 41 48  1  0  0  0
 42 43  1  0  0  0
 42 66  1  0  0  0
 42116  1  0  0  0
 42117  1  0  0  0
 43 44  1  0  0  0
 44118  1  0  0  0
 45 46  2  0  0  0
 45119  1  0  0  0
 46120  1  0  0  0
 47121  1  0  0  0
 47122  1  0  0  0
 48 56  1  0  0  0
 48 65  1  0  0  0
 48123  1  0  0  0
 49 50  1  0  0  0
 49 53  1  0  0  0
 49 64  1  0  0  0
 49124  1  0  0  0
 50 51  1  0  0  0
 50125  1  0  0  0
 50126  1  0  0  0
 51 52  1  0  0  0
 51127  1  0  0  0
 51128  1  0  0  0
 52129  1  0  0  0
 52130  1  0  0  0
 53 54  1  0  0  0
 54 55  2  0  0  0
 54131  1  0  0  0
 55 57  1  0  0  0
 55132  1  0  0  0
 56 69  2  0  0  0
 57 58  2  0  0  0
 57133  1  0  0  0
 58134  1  0  0  0
 59 60  1  0  0  0
 59 61  1  0  0  0
 59 62  1  0  0  0
 60135  1  0  0  0
 60136  1  0  0  0
 60137  1  0  0  0
 61138  1  0  0  0
 61139  1  0  0  0
 61140  1  0  0  0
 62141  1  0  0  0
 62142  1  0  0  0
 62143  1  0  0  0
 63 65  1  0  0  0
 63144  1  0  0  0
 63145  1  0  0  0
 63146  1  0  0  0
 64147  1  0  0  0
 65148  1  0  0  0
 68 84  1  0  0  0
 71 73  2  0  0  0
 71 74  1  0  0  0
 71149  1  0  0  0
 72 74  2  0  0  0
 72 76  1  0  0  0
 72150  1  0  0  0
 73 75  1  0  0  0
 73 82  1  0  0  0
 74 85  1  0  0  0
 75 76  2  0  0  0
 75 86  1  0  0  0
 76 89  1  0  0  0
 77 79  1  0  0  0
 77 85  1  0  0  0
 77 87  2  0  0  0
 78 81  1  0  0  0
 78 85  1  0  0  0
 78 88  2  0  0  0
 79 80  1  0  0  0
 79151  1  0  0  0
 79152  1  0  0  0
 80 81  1  0  0  0
 80153  1  0  0  0
 80154  1  0  0  0
 81 84  1  0  0  0
 81155  1  0  0  0
 82156  1  0  0  0
 82157  1  0  0  0
 82158  1  0  0  0
 83 86  1  0  0  0
 83159  1  0  0  0
 83160  1  0  0  0
 83161  1  0  0  0
 84162  1  0  0  0
 84163  1  0  0  0
M  ISO  4   1 100  68 101  84 101  86 100
M  END
> <chiral flag>
0

> <version>
0

> <s_m_source_file>
/data/baiqing/PycharmProjects/Reinvent-master-3.2/result/LINK_invent/BTK/process_docking_weight1_custom_product_contain_oxygen_bond_distance_aromatic_linkinvent_7_9_3/rearranged_h_0099.sdf

> <i_m_source_file_index>
5

> <r_mmod_Potential_Energy-OPLS-2005>
411.950103759766

> <r_mmod_Stretch_Energy-OPLS-2005>
97.6181259155273

> <r_mmod_Bend_Energy-OPLS-2005>
157.984817504883

> <r_mmod_Torsional_Energy-OPLS-2005>
395.191558837891

> <r_mmod_Improper_Torsional_Energy-OPLS-2005>
34.8293304443359

> <r_mmod_Van_der_Waal_Energy-OPLS-2005>
169.640075683594

> <r_mmod_Electrostatic_Energy-OPLS-2005>
-295.853729248047

> <r_mmod_Solvation_Energy-OPLS-2005>
-221.6376953125

> <b_mmod_Minimization_Converged-OPLS-2005>
0

> <r_mmod_RMS_Derivative-OPLS-2005>
3.25977039337158

$$$$
5
                    3D
 Structure written by MMmdl.
154162  0  0  1  0            999 V2000
  -30.6736  -14.6031   20.5885 C   0  0  0  0  0  0
  -30.4358  -12.3939   19.4560 C   0  0  0  0  0  0
  -29.5117  -12.5372   18.2261 C   0  0  0  0  0  0
  -28.0321  -12.3657   18.6239 C   0  0  0  0  0  0
  -27.6580  -13.2134   19.8673 C   0  0  2  0  0  0
  -28.6930  -13.0152   20.9928 C   0  0  0  0  0  0
  -25.2581  -13.8164   20.5663 C   0  0  0  0  0  0
  -24.1840  -13.0433   20.9170 C   0  0  0  0  0  0
  -24.6405  -11.6903   20.8717 C   0  0  0  0  0  0
  -23.9073  -10.4289   21.0392 C   0  0  0  0  0  0
  -24.3625   -9.4209   21.9175 C   0  0  0  0  0  0
  -23.6297   -8.2246   22.0749 C   0  0  0  0  0  0
  -22.4277   -8.0284   21.3542 C   0  0  0  0  0  0
  -21.9913   -9.0257   20.4644 C   0  0  0  0  0  0
  -22.7243  -10.2133   20.3047 C   0  0  0  0  0  0
  -21.6857   -6.0740   22.5282 C   0  0  0  0  0  0
  -21.4017   -6.5643   23.8217 C   0  0  0  0  0  0
  -21.3658   -5.6794   24.9176 C   0  0  0  0  0  0
  -21.6043   -4.3057   24.7226 C   0  0  0  0  0  0
  -21.8820   -3.8150   23.4346 C   0  0  0  0  0  0
  -21.9194   -4.6967   22.3404 C   0  0  0  0  0  0
  -22.7864  -13.5232   21.1842 C   0  0  0  0  0  0
  -22.1660   -4.2155   21.0981 F   0  0  0  0  0  0
  -21.5627   -3.4539   25.7738 F   0  0  0  0  0  0
  -30.0207  -13.3927   20.4688 N   0  0  0  0  0  0
  -26.3006  -12.9337   20.3289 N   0  0  0  0  0  0
  -25.9330  -11.6493   20.5709 N   0  0  0  0  0  0
  -22.0503  -12.8226   22.0403 N   0  0  0  0  0  0
  -25.4301  -15.1887   20.4098 N   0  0  0  0  0  0
  -31.7559  -14.7941   20.0221 O   0  0  0  0  0  0
  -21.6640   -6.8882   21.4243 O   0  0  0  0  0  0
  -22.3544  -14.5534   20.6691 O   0  0  0  0  0  0
  -24.6249  -31.8611   23.2036 C   0  0  0  0  0  0
  -25.9103  -32.4787   23.8364 C   0  0  1  0  0  0
  -27.2316  -27.3415   20.1152 C   0  0  0  0  0  0
  -25.5924  -33.8586   24.2290 N   0  0  0  0  0  0
  -23.4183  -30.4840   21.5454 C   0  0  2  0  0  0
  -24.8670  -28.9412   20.1125 C   0  0  0  0  0  0
  -22.7472  -29.4629   22.4943 C   0  0  0  0  0  0
  -18.0289  -28.1384   22.8482 C   0  0  0  0  0  0
  -24.1491  -36.7301   23.2635 C   0  0  0  0  0  0
  -25.9576  -30.7987   21.3721 C   0  0  0  0  0  0
  -26.0342  -29.4275   20.7155 C   0  0  0  0  0  0
  -27.2217  -28.6397   20.7054 C   0  0  0  0  0  0
  -26.0465  -26.9078   19.4798 C   0  0  0  0  0  0
  -24.8739  -27.6859   19.4853 C   0  0  0  0  0  0
  -23.6326  -29.8171   20.1614 C   0  0  0  0  0  0
  -25.4113  -36.3089   24.0328 C   0  0  1  0  0  0
  -20.5886  -28.3686   23.1282 C   0  0  2  0  0  0
  -20.6778  -26.9411   22.5404 C   0  0  0  0  0  0
  -19.5754  -26.6385   21.5206 C   0  0  0  0  0  0
  -18.1933  -26.7928   22.1619 C   0  0  0  0  0  0
  -19.1540  -28.8853   23.2879 C   0  0  0  0  0  0
  -18.9462  -30.1455   23.8893 C   0  0  0  0  0  0
  -17.6460  -30.6583   24.0564 C   0  0  0  0  0  0
  -25.9048  -34.9456   23.5109 C   0  0  0  0  0  0
  -16.5352  -29.9079   23.6330 C   0  0  0  0  0  0
  -16.7276  -28.6500   23.0347 C   0  0  0  0  0  0
  -26.4493  -31.6590   25.0726 C   0  0  0  0  0  0
  -25.3734  -31.3716   26.1457 C   0  0  0  0  0  0
  -27.0331  -30.3017   24.6165 C   0  0  0  0  0  0
  -27.6059  -32.4316   25.7494 C   0  0  0  0  0  0
  -27.5583  -37.1802   24.8461 C   0  0  0  0  0  0
  -21.4188  -29.3045   22.3683 N   0  0  0  0  0  0
  -26.4294  -37.3781   23.9407 N   0  0  0  0  0  0
  -24.6854  -31.0641   22.0977 N   0  0  0  0  0  0
  -23.4201  -28.8170   23.3021 O   0  0  0  0  0  0
  -28.3556  -26.5072   20.1334 O   0  0  0  0  0  0
  -26.5613  -34.8921   22.4674 O   0  0  0  0  0  0
  -23.5416  -32.1397   23.7376 O   0  0  0  0  0  0
  -30.9148  -17.8914   20.2169 C   0  0  0  0  0  0
  -30.8063  -19.2872   19.9389 C   0  0  0  0  0  0
  -28.8542  -18.0112   21.4259 C   0  0  0  0  0  0
  -29.9459  -17.2022   20.9917 C   0  0  0  0  0  0
  -28.7334  -19.4053   21.1466 C   0  0  0  0  0  0
  -29.7366  -20.1000   20.4040 C   0  0  0  0  0  0
  -30.0538  -15.7429   21.4798 C   0  0  0  0  0  0
  -29.1806  -23.9944   20.1080 C   0  0  0  0  0  0
  -28.1492  -25.1086   20.5628 C   0  0  0  0  0  0
  -28.8626  -22.5009   20.5558 C   0  0  0  0  0  0
  -29.6596  -15.4923   22.6603 N   0  0  0  0  0  0
  -27.5959  -20.0512   21.6269 N   0  0  0  0  0  0
  -29.7896  -21.4767   20.0757 O   0  0  0  0  0  0
  -31.4794  -12.5088   19.1576 H   0  0  0  0  0  0
  -30.3655  -11.3860   19.8690 H   0  0  0  0  0  0
  -29.7829  -11.8074   17.4619 H   0  0  0  0  0  0
  -29.6568  -13.5199   17.7750 H   0  0  0  0  0  0
  -27.8645  -11.3085   18.8328 H   0  0  0  0  0  0
  -27.3830  -12.6159   17.7843 H   0  0  0  0  0  0
  -27.6945  -14.2592   19.5620 H   0  0  0  0  0  0
  -28.7053  -11.9706   21.3070 H   0  0  0  0  0  0
  -28.3844  -13.5596   21.8797 H   0  0  0  0  0  0
  -25.2768   -9.5693   22.4751 H   0  0  0  0  0  0
  -24.0011   -7.4642   22.7470 H   0  0  0  0  0  0
  -21.0841   -8.8775   19.8956 H   0  0  0  0  0  0
  -22.3694  -10.9674   19.6159 H   0  0  0  0  0  0
  -21.2007   -7.6151   23.9723 H   0  0  0  0  0  0
  -21.1479   -6.0521   25.9079 H   0  0  0  0  0  0
  -22.0598   -2.7613   23.2846 H   0  0  0  0  0  0
  -22.4109  -11.9889   22.4804 H   0  0  0  0  0  0
  -21.1125  -13.1259   22.2604 H   0  0  0  0  0  0
  -24.6664  -15.8458   20.5245 H   0  0  0  0  0  0
  -26.2888  -15.6285   20.1035 H   0  0  0  0  0  0
  -26.7176  -32.5464   23.1120 H   0  0  0  0  0  0
  -25.0080  -33.9735   25.0439 H   0  0  0  0  0  0
  -22.7112  -31.3036   21.4014 H   0  0  0  0  0  0
  -23.3752  -35.9634   23.3293 H   0  0  0  0  0  0
  -24.3584  -36.8926   22.2051 H   0  0  0  0  0  0
  -23.7243  -37.6503   23.6659 H   0  0  0  0  0  0
  -26.0869  -31.5632   20.6047 H   0  0  0  0  0  0
  -26.8391  -30.8476   22.0001 H   0  0  0  0  0  0
  -28.1208  -29.0115   21.1768 H   0  0  0  0  0  0
  -26.0144  -25.9577   18.9668 H   0  0  0  0  0  0
  -23.9830  -27.3117   18.9996 H   0  0  0  0  0  0
  -23.7482  -30.5916   19.4025 H   0  0  0  0  0  0
  -22.7545  -29.2420   19.8619 H   0  0  0  0  0  0
  -25.1293  -36.1944   25.0821 H   0  0  0  0  0  0
  -20.9979  -28.3259   24.1403 H   0  0  0  0  0  0
  -20.5678  -26.2296   23.3604 H   0  0  0  0  0  0
  -21.6647  -26.7440   22.1198 H   0  0  0  0  0  0
  -19.6916  -25.6295   21.1238 H   0  0  0  0  0  0
  -19.6694  -27.3195   20.6737 H   0  0  0  0  0  0
  -17.4204  -26.6672   21.4022 H   0  0  0  0  0  0
  -18.0338  -26.0069   22.9015 H   0  0  0  0  0  0
  -19.7937  -30.7274   24.2258 H   0  0  0  0  0  0
  -17.5013  -31.6262   24.5168 H   0  0  0  0  0  0
  -15.5351  -30.2979   23.7656 H   0  0  0  0  0  0
  -15.8678  -28.0819   22.7059 H   0  0  0  0  0  0
  -24.5912  -30.7063   25.7784 H   0  0  0  0  0  0
  -24.8923  -32.2877   26.4895 H   0  0  0  0  0  0
  -25.8068  -30.8885   27.0224 H   0  0  0  0  0  0
  -26.2896  -29.6768   24.1204 H   0  0  0  0  0  0
  -27.4052  -29.7272   25.4658 H   0  0  0  0  0  0
  -27.8758  -30.4308   23.9367 H   0  0  0  0  0  0
  -27.2680  -33.3612   26.2086 H   0  0  0  0  0  0
  -28.3866  -32.6882   25.0319 H   0  0  0  0  0  0
  -28.0737  -31.8431   26.5399 H   0  0  0  0  0  0
  -28.2593  -38.0107   24.7522 H   0  0  0  0  0  0
  -28.1088  -36.2640   24.6270 H   0  0  0  0  0  0
  -27.2302  -37.1430   25.8864 H   0  0  0  0  0  0
  -20.9367  -29.8765   21.6888 H   0  0  0  0  0  0
  -26.0178  -38.2856   24.1413 H   0  0  0  0  0  0
  -31.7853  -17.3625   19.8558 H   0  0  0  0  0  0
  -31.5900  -19.7559   19.3611 H   0  0  0  0  0  0
  -28.0770  -17.5429   22.0138 H   0  0  0  0  0  0
  -30.1715  -24.2650   20.4743 H   0  0  0  0  0  0
  -29.2485  -24.0174   19.0204 H   0  0  0  0  0  0
  -28.1367  -25.1250   21.6532 H   0  0  0  0  0  0
  -27.1631  -24.7448   20.2823 H   0  0  0  0  0  0
  -27.8652  -22.2550   20.1928 H   0  0  0  0  0  0
  -28.8323  -22.4633   21.6451 H   0  0  0  0  0  0
  -29.3195  -16.3316   23.1135 H   0  0  0  0  0  0
  -26.7930  -19.4794   21.8669 H   0  0  0  0  0  0
  -27.3280  -20.9118   21.1657 H   0  0  0  0  0  0
  1 25  1  0  0  0
  1 30  2  0  0  0
  1 77  1  0  0  0
  2  3  1  0  0  0
  2 25  1  0  0  0
  2 84  1  0  0  0
  2 85  1  0  0  0
  3  4  1  0  0  0
  3 86  1  0  0  0
  3 87  1  0  0  0
  4  5  1  0  0  0
  4 88  1  0  0  0
  4 89  1  0  0  0
  5  6  1  0  0  0
  5 26  1  0  0  0
  5 90  1  0  0  0
  6 25  1  0  0  0
  6 91  1  0  0  0
  6 92  1  0  0  0
  7  8  2  0  0  0
  7 26  1  0  0  0
  7 29  1  0  0  0
  8  9  1  0  0  0
  8 22  1  0  0  0
  9 10  1  0  0  0
  9 27  2  0  0  0
 10 11  2  0  0  0
 10 15  1  0  0  0
 11 12  1  0  0  0
 11 93  1  0  0  0
 12 13  2  0  0  0
 12 94  1  0  0  0
 13 14  1  0  0  0
 13 31  1  0  0  0
 14 15  2  0  0  0
 14 95  1  0  0  0
 15 96  1  0  0  0
 16 17  2  0  0  0
 16 21  1  0  0  0
 16 31  1  0  0  0
 17 18  1  0  0  0
 17 97  1  0  0  0
 18 19  2  0  0  0
 18 98  1  0  0  0
 19 20  1  0  0  0
 19 24  1  0  0  0
 20 21  2  0  0  0
 20 99  1  0  0  0
 21 23  1  0  0  0
 22 28  1  0  0  0
 22 32  2  0  0  0
 26 27  1  0  0  0
 28100  1  0  0  0
 28101  1  0  0  0
 29102  1  0  0  0
 29103  1  0  0  0
 33 34  1  0  0  0
 33 66  1  0  0  0
 33 70  2  0  0  0
 34 36  1  0  0  0
 34 59  1  0  0  0
 34104  1  0  0  0
 35 44  2  0  0  0
 35 45  1  0  0  0
 35 68  1  0  0  0
 36 56  1  0  0  0
 36105  1  0  0  0
 37 39  1  0  0  0
 37 47  1  0  0  0
 37 66  1  0  0  0
 37106  1  0  0  0
 38 43  2  0  0  0
 38 46  1  0  0  0
 38 47  1  0  0  0
 39 64  1  0  0  0
 39 67  2  0  0  0
 40 52  1  0  0  0
 40 53  2  0  0  0
 40 58  1  0  0  0
 41107  1  0  0  0
 41108  1  0  0  0
 41109  1  0  0  0
 41 48  1  0  0  0
 42 43  1  0  0  0
 42 66  1  0  0  0
 42110  1  0  0  0
 42111  1  0  0  0
 43 44  1  0  0  0
 44112  1  0  0  0
 45 46  2  0  0  0
 45113  1  0  0  0
 46114  1  0  0  0
 47115  1  0  0  0
 47116  1  0  0  0
 48 56  1  0  0  0
 48 65  1  0  0  0
 48117  1  0  0  0
 49 50  1  0  0  0
 49 53  1  0  0  0
 49 64  1  0  0  0
 49118  1  0  0  0
 50 51  1  0  0  0
 50119  1  0  0  0
 50120  1  0  0  0
 51 52  1  0  0  0
 51121  1  0  0  0
 51122  1  0  0  0
 52123  1  0  0  0
 52124  1  0  0  0
 53 54  1  0  0  0
 54 55  2  0  0  0
 54125  1  0  0  0
 55 57  1  0  0  0
 55126  1  0  0  0
 56 69  2  0  0  0
 57 58  2  0  0  0
 57127  1  0  0  0
 58128  1  0  0  0
 59 60  1  0  0  0
 59 61  1  0  0  0
 59 62  1  0  0  0
 60129  1  0  0  0
 60130  1  0  0  0
 60131  1  0  0  0
 61132  1  0  0  0
 61133  1  0  0  0
 61134  1  0  0  0
 62135  1  0  0  0
 62136  1  0  0  0
 62137  1  0  0  0
 63 65  1  0  0  0
 63138  1  0  0  0
 63139  1  0  0  0
 63140  1  0  0  0
 64141  1  0  0  0
 65142  1  0  0  0
 68 79  1  0  0  0
 71 72  2  0  0  0
 71 74  1  0  0  0
 71143  1  0  0  0
 72 76  1  0  0  0
 72144  1  0  0  0
 73 74  2  0  0  0
 73 75  1  0  0  0
 73145  1  0  0  0
 74 77  1  0  0  0
 75 76  2  0  0  0
 75 82  1  0  0  0
 76 83  1  0  0  0
 77 81  2  0  0  0
 78 79  1  0  0  0
 78 80  1  0  0  0
 78146  1  0  0  0
 78147  1  0  0  0
 79148  1  0  0  0
 79149  1  0  0  0
 80 83  1  0  0  0
 80150  1  0  0  0
 80151  1  0  0  0
 81152  1  0  0  0
 82153  1  0  0  0
 82154  1  0  0  0
M  ISO  4   1 100  68 101  77 100  79 101
M  END
> <chiral flag>
0

> <version>
0

> <s_m_source_file>
/data/baiqing/PycharmProjects/Reinvent-master-3.2/result/LINK_invent/BTK/process_docking_weight1_custom_product_contain_oxygen_bond_distance_aromatic_linkinvent_7_9_3/rearranged_h_0099.sdf

> <i_m_source_file_index>
6

> <r_mmod_Potential_Energy-OPLS-2005>
169.4521484375

> <r_mmod_Stretch_Energy-OPLS-2005>
85.0642166137695

> <r_mmod_Bend_Energy-OPLS-2005>
160.605255126953

> <r_mmod_Torsional_Energy-OPLS-2005>
215.386123657227

> <r_mmod_Improper_Torsional_Energy-OPLS-2005>
6.12695217132568

> <r_mmod_Van_der_Waal_Energy-OPLS-2005>
156.264205932617

> <r_mmod_Electrostatic_Energy-OPLS-2005>
-280.941955566406

> <r_mmod_Solvation_Energy-OPLS-2005>
-208.973754882812

> <b_mmod_Minimization_Converged-OPLS-2005>
0

> <r_mmod_RMS_Derivative-OPLS-2005>
0.904738128185272

$$$$
6
                    3D
 Structure written by MMmdl.
156164  0  0  1  0            999 V2000
  -30.1470  -16.0314   20.3210 C   0  0  0  0  0  0
  -30.3916  -13.3847   19.5479 C   0  0  0  0  0  0
  -29.5656  -12.7711   18.3661 C   0  0  0  0  0  0
  -28.1734  -12.3186   18.8217 C   0  0  0  0  0  0
  -27.5866  -13.3402   19.8124 C   0  0  2  0  0  0
  -28.5754  -13.8182   20.9122 C   0  0  0  0  0  0
  -25.2210  -13.8160   20.5659 C   0  0  0  0  0  0
  -24.1669  -13.0334   20.9287 C   0  0  0  0  0  0
  -24.6457  -11.6883   20.8792 C   0  0  0  0  0  0
  -23.9155  -10.4240   21.0408 C   0  0  0  0  0  0
  -24.3670   -9.4155   21.9195 C   0  0  0  0  0  0
  -23.6309   -8.2211   22.0764 C   0  0  0  0  0  0
  -22.4291   -8.0268   21.3548 C   0  0  0  0  0  0
  -21.9952   -9.0250   20.4648 C   0  0  0  0  0  0
  -22.7317  -10.2106   20.3056 C   0  0  0  0  0  0
  -21.6848   -6.0733   22.5279 C   0  0  0  0  0  0
  -21.4012   -6.5638   23.8211 C   0  0  0  0  0  0
  -21.3659   -5.6791   24.9174 C   0  0  0  0  0  0
  -21.6044   -4.3055   24.7224 C   0  0  0  0  0  0
  -21.8819   -3.8144   23.4346 C   0  0  0  0  0  0
  -21.9193   -4.6962   22.3401 C   0  0  0  0  0  0
  -22.7685  -13.5080   21.1921 C   0  0  0  0  0  0
  -22.1661   -4.2149   21.0979 F   0  0  0  0  0  0
  -21.5631   -3.4538   25.7737 F   0  0  0  0  0  0
  -29.6775  -14.5899   20.2451 N   0  0  0  0  0  0
  -26.2768  -12.9629   20.3269 N   0  0  0  0  0  0
  -25.9436  -11.6674   20.5739 N   0  0  0  0  0  0
  -22.0368  -12.8074   22.0501 N   0  0  0  0  0  0
  -25.3635  -15.1782   20.3711 N   0  0  0  0  0  0
  -31.3899  -15.9001   20.1817 O   0  0  0  0  0  0
  -21.6635   -6.8879   21.4243 O   0  0  0  0  0  0
  -22.3337  -14.5366   20.6749 O   0  0  0  0  0  0
  -24.7082  -31.7712   23.1306 C   0  0  0  0  0  0
  -25.9541  -32.4328   23.7949 C   0  0  1  0  0  0
  -27.2455  -26.4489   20.2542 C   0  0  0  0  0  0
  -25.6013  -33.8165   24.1812 N   0  0  0  0  0  0
  -23.5463  -30.3612   21.4910 C   0  0  2  0  0  0
  -25.0064  -28.6436   20.1375 C   0  0  0  0  0  0
  -22.7878  -29.4169   22.4653 C   0  0  0  0  0  0
  -18.0356  -28.1437   22.8442 C   0  0  0  0  0  0
  -24.1498  -36.7094   23.2664 C   0  0  0  0  0  0
  -26.1376  -30.4223   21.4322 C   0  0  0  0  0  0
  -26.2021  -28.9557   20.7949 C   0  0  0  0  0  0
  -27.2968  -27.8988   20.8044 C   0  0  0  0  0  0
  -26.0083  -26.4091   19.5406 C   0  0  0  0  0  0
  -24.9629  -27.3976   19.4849 C   0  0  0  0  0  0
  -23.8158  -29.6312   20.1405 C   0  0  0  0  0  0
  -25.4161  -36.2815   24.0264 C   0  0  1  0  0  0
  -20.6004  -28.3810   23.1095 C   0  0  2  0  0  0
  -20.6810  -26.9446   22.5407 C   0  0  0  0  0  0
  -19.5790  -26.6366   21.5220 C   0  0  0  0  0  0
  -18.1972  -26.7959   22.1617 C   0  0  0  0  0  0
  -19.1628  -28.8953   23.2743 C   0  0  0  0  0  0
  -18.9528  -30.1529   23.8801 C   0  0  0  0  0  0
  -17.6515  -30.6612   24.0546 C   0  0  0  0  0  0
  -25.9150  -34.9210   23.4893 C   0  0  0  0  0  0
  -16.5404  -29.9090   23.6355 C   0  0  0  0  0  0
  -16.7334  -28.6514   23.0370 C   0  0  0  0  0  0
  -26.4638  -31.6464   25.0671 C   0  0  0  0  0  0
  -25.3637  -31.3850   26.1238 C   0  0  0  0  0  0
  -27.0610  -30.2775   24.6747 C   0  0  0  0  0  0
  -27.6039  -32.4381   25.7506 C   0  0  0  0  0  0
  -27.5547  -37.1722   24.8480 C   0  0  0  0  0  0
  -21.4503  -29.3008   22.3389 N   0  0  0  0  0  0
  -26.4276  -37.3592   23.9387 N   0  0  0  0  0  0
  -24.8239  -30.8909   22.0698 N   0  0  0  0  0  0
  -23.4199  -28.7809   23.3115 O   0  0  0  0  0  0
  -28.2215  -25.1469   20.2076 O   0  0  0  0  0  0
  -26.5824  -34.8834   22.4533 O   0  0  0  0  0  0
  -23.6046  -32.0902   23.6100 O   0  0  0  0  0  0
  -27.0195  -18.0272   20.1786 C   0  0  0  0  0  0
  -27.8464  -16.9998   22.2414 C   0  0  0  0  0  0
  -28.0681  -17.4135   20.9055 C   0  0  0  0  0  0
  -25.7663  -18.2459   20.7877 C   0  0  0  0  0  0
  -26.5862  -17.1930   22.8438 C   0  0  0  0  0  0
  -25.5538  -17.8234   22.1172 C   0  0  0  0  0  0
  -28.6691  -21.2728   20.0572 C   0  0  0  0  0  0
  -29.5717  -19.4103   20.4456 C   0  0  0  0  0  0
  -28.3362  -23.2883   20.5747 C   0  0  0  0  0  0
  -24.7317  -18.8903   20.1053 N   0  0  0  0  0  0
  -26.3509  -16.8153   24.1681 N   0  0  0  0  0  0
  -24.3036  -18.0046   22.7070 N   0  0  0  0  0  0
  -29.3907  -17.5125   20.4084 N   0  0  0  0  0  0
  -31.3466  -13.7112   19.1359 H   0  0  0  0  0  0
  -30.6633  -12.6121   20.2695 H   0  0  0  0  0  0
  -30.1039  -11.9383   17.9117 H   0  0  0  0  0  0
  -29.4573  -13.5265   17.5863 H   0  0  0  0  0  0
  -28.2717  -11.3506   19.3146 H   0  0  0  0  0  0
  -27.5119  -12.1703   17.9673 H   0  0  0  0  0  0
  -27.4032  -14.2154   19.1872 H   0  0  0  0  0  0
  -28.9323  -12.9889   21.5250 H   0  0  0  0  0  0
  -28.0539  -14.4759   21.6030 H   0  0  0  0  0  0
  -25.2808   -9.5618   22.4787 H   0  0  0  0  0  0
  -23.9996   -7.4601   22.7494 H   0  0  0  0  0  0
  -21.0881   -8.8791   19.8955 H   0  0  0  0  0  0
  -22.3789  -10.9656   19.6171 H   0  0  0  0  0  0
  -21.2001   -7.6145   23.9713 H   0  0  0  0  0  0
  -21.1483   -6.0522   25.9078 H   0  0  0  0  0  0
  -22.0598   -2.7606   23.2846 H   0  0  0  0  0  0
  -22.4026  -11.9763   22.4906 H   0  0  0  0  0  0
  -21.0980  -13.1075   22.2710 H   0  0  0  0  0  0
  -24.5976  -15.8302   20.5013 H   0  0  0  0  0  0
  -26.2088  -15.6253   20.0474 H   0  0  0  0  0  0
  -26.7649  -32.4745   23.0677 H   0  0  0  0  0  0
  -25.0028  -33.9156   24.9878 H   0  0  0  0  0  0
  -22.8866  -31.2045   21.2770 H   0  0  0  0  0  0
  -23.3762  -35.9424   23.3317 H   0  0  0  0  0  0
  -24.3536  -36.8774   22.2078 H   0  0  0  0  0  0
  -23.7276  -37.6272   23.6764 H   0  0  0  0  0  0
  -26.3628  -31.1265   20.6304 H   0  0  0  0  0  0
  -26.9803  -30.5050   22.1055 H   0  0  0  0  0  0
  -28.2041  -28.1678   21.3267 H   0  0  0  0  0  0
  -25.8052  -25.4885   19.0117 H   0  0  0  0  0  0
  -24.0699  -27.1439   18.9303 H   0  0  0  0  0  0
  -24.0159  -30.3776   19.3711 H   0  0  0  0  0  0
  -22.9156  -29.1109   19.8093 H   0  0  0  0  0  0
  -25.1391  -36.1554   25.0756 H   0  0  0  0  0  0
  -21.0076  -28.3455   24.1226 H   0  0  0  0  0  0
  -20.5653  -26.2442   23.3691 H   0  0  0  0  0  0
  -21.6668  -26.7351   22.1239 H   0  0  0  0  0  0
  -19.6941  -25.6251   21.1312 H   0  0  0  0  0  0
  -19.6738  -27.3122   20.6707 H   0  0  0  0  0  0
  -17.4242  -26.6702   21.4019 H   0  0  0  0  0  0
  -18.0353  -26.0126   22.9036 H   0  0  0  0  0  0
  -19.8004  -30.7368   24.2131 H   0  0  0  0  0  0
  -17.5065  -31.6280   24.5169 H   0  0  0  0  0  0
  -15.5400  -30.2962   23.7734 H   0  0  0  0  0  0
  -15.8735  -28.0800   22.7140 H   0  0  0  0  0  0
  -24.5863  -30.7161   25.7526 H   0  0  0  0  0  0
  -24.8785  -32.3093   26.4384 H   0  0  0  0  0  0
  -25.7754  -30.9192   27.0199 H   0  0  0  0  0  0
  -26.3375  -29.6314   24.1768 H   0  0  0  0  0  0
  -27.3968  -29.7319   25.5576 H   0  0  0  0  0  0
  -27.9379  -30.3845   24.0362 H   0  0  0  0  0  0
  -27.2548  -33.3783   26.1789 H   0  0  0  0  0  0
  -28.4000  -32.6781   25.0445 H   0  0  0  0  0  0
  -28.0543  -31.8711   26.5663 H   0  0  0  0  0  0
  -28.2579  -37.9995   24.7434 H   0  0  0  0  0  0
  -28.1025  -36.2509   24.6437 H   0  0  0  0  0  0
  -27.2239  -37.1511   25.8879 H   0  0  0  0  0  0
  -20.9871  -29.8622   21.6378 H   0  0  0  0  0  0
  -26.0087  -38.2645   24.1340 H   0  0  0  0  0  0
  -27.2038  -18.3897   19.1770 H   0  0  0  0  0  0
  -28.6589  -16.5897   22.8243 H   0  0  0  0  0  0
  -27.6320  -20.9533   19.9569 H   0  0  0  0  0  0
  -28.9682  -21.4015   19.0170 H   0  0  0  0  0  0
  -29.8000  -19.5260   21.5056 H   0  0  0  0  0  0
  -30.5501  -19.5263   19.9787 H   0  0  0  0  0  0
  -29.1050  -23.3741   21.3427 H   0  0  0  0  0  0
  -27.4230  -23.1861   21.1613 H   0  0  0  0  0  0
  -24.9949  -19.4677   19.3153 H   0  0  0  0  0  0
  -24.0770  -19.3669   20.7155 H   0  0  0  0  0  0
  -27.1614  -16.7190   24.7690 H   0  0  0  0  0  0
  -25.6161  -17.3540   24.6140 H   0  0  0  0  0  0
  -23.5692  -18.0348   22.0109 H   0  0  0  0  0  0
  -24.1138  -17.2857   23.3938 H   0  0  0  0  0  0
  1 25  1  0  0  0
  1 30  2  0  0  0
  1 83  1  0  0  0
  2  3  1  0  0  0
  2 25  1  0  0  0
  2 84  1  0  0  0
  2 85  1  0  0  0
  3  4  1  0  0  0
  3 86  1  0  0  0
  3 87  1  0  0  0
  4  5  1  0  0  0
  4 88  1  0  0  0
  4 89  1  0  0  0
  5  6  1  0  0  0
  5 26  1  0  0  0
  5 90  1  0  0  0
  6 25  1  0  0  0
  6 91  1  0  0  0
  6 92  1  0  0  0
  7  8  2  0  0  0
  7 26  1  0  0  0
  7 29  1  0  0  0
  8  9  1  0  0  0
  8 22  1  0  0  0
  9 10  1  0  0  0
  9 27  2  0  0  0
 10 11  2  0  0  0
 10 15  1  0  0  0
 11 12  1  0  0  0
 11 93  1  0  0  0
 12 13  2  0  0  0
 12 94  1  0  0  0
 13 14  1  0  0  0
 13 31  1  0  0  0
 14 15  2  0  0  0
 14 95  1  0  0  0
 15 96  1  0  0  0
 16 17  2  0  0  0
 16 21  1  0  0  0
 16 31  1  0  0  0
 17 18  1  0  0  0
 17 97  1  0  0  0
 18 19  2  0  0  0
 18 98  1  0  0  0
 19 20  1  0  0  0
 19 24  1  0  0  0
 20 21  2  0  0  0
 20 99  1  0  0  0
 21 23  1  0  0  0
 22 28  1  0  0  0
 22 32  2  0  0  0
 26 27  1  0  0  0
 28100  1  0  0  0
 28101  1  0  0  0
 29102  1  0  0  0
 29103  1  0  0  0
 33 34  1  0  0  0
 33 66  1  0  0  0
 33 70  2  0  0  0
 34 36  1  0  0  0
 34 59  1  0  0  0
 34104  1  0  0  0
 35 44  2  0  0  0
 35 45  1  0  0  0
 35 68  1  0  0  0
 36 56  1  0  0  0
 36105  1  0  0  0
 37 39  1  0  0  0
 37 47  1  0  0  0
 37 66  1  0  0  0
 37106  1  0  0  0
 38 43  2  0  0  0
 38 46  1  0  0  0
 38 47  1  0  0  0
 39 64  1  0  0  0
 39 67  2  0  0  0
 40 52  1  0  0  0
 40 53  2  0  0  0
 40 58  1  0  0  0
 41107  1  0  0  0
 41108  1  0  0  0
 41109  1  0  0  0
 41 48  1  0  0  0
 42 43  1  0  0  0
 42 66  1  0  0  0
 42110  1  0  0  0
 42111  1  0  0  0
 43 44  1  0  0  0
 44112  1  0  0  0
 45 46  2  0  0  0
 45113  1  0  0  0
 46114  1  0  0  0
 47115  1  0  0  0
 47116  1  0  0  0
 48 56  1  0  0  0
 48 65  1  0  0  0
 48117  1  0  0  0
 49 50  1  0  0  0
 49 53  1  0  0  0
 49 64  1  0  0  0
 49118  1  0  0  0
 50 51  1  0  0  0
 50119  1  0  0  0
 50120  1  0  0  0
 51 52  1  0  0  0
 51121  1  0  0  0
 51122  1  0  0  0
 52123  1  0  0  0
 52124  1  0  0  0
 53 54  1  0  0  0
 54 55  2  0  0  0
 54125  1  0  0  0
 55 57  1  0  0  0
 55126  1  0  0  0
 56 69  2  0  0  0
 57 58  2  0  0  0
 57127  1  0  0  0
 58128  1  0  0  0
 59 60  1  0  0  0
 59 61  1  0  0  0
 59 62  1  0  0  0
 60129  1  0  0  0
 60130  1  0  0  0
 60131  1  0  0  0
 61132  1  0  0  0
 61133  1  0  0  0
 61134  1  0  0  0
 62135  1  0  0  0
 62136  1  0  0  0
 62137  1  0  0  0
 63 65  1  0  0  0
 63138  1  0  0  0
 63139  1  0  0  0
 63140  1  0  0  0
 64141  1  0  0  0
 65142  1  0  0  0
 68 79  1  0  0  0
 71 73  2  0  0  0
 71 74  1  0  0  0
 71143  1  0  0  0
 72 73  1  0  0  0
 72 75  2  0  0  0
 72144  1  0  0  0
 73 83  1  0  0  0
 74 76  2  0  0  0
 74 80  1  0  0  0
 75 76  1  0  0  0
 75 81  1  0  0  0
 76 82  1  0  0  0
 77 78  1  0  0  0
 77 79  1  0  0  0
 77145  1  0  0  0
 77146  1  0  0  0
 78 83  1  0  0  0
 78147  1  0  0  0
 78148  1  0  0  0
 79149  1  0  0  0
 79150  1  0  0  0
 80151  1  0  0  0
 80152  1  0  0  0
 81153  1  0  0  0
 81154  1  0  0  0
 82155  1  0  0  0
 82156  1  0  0  0
M  ISO  4   1 100  68 101  79 101  83 100
M  END
> <chiral flag>
0

> <version>
0

> <s_m_source_file>
/data/baiqing/PycharmProjects/Reinvent-master-3.2/result/LINK_invent/BTK/process_docking_weight1_custom_product_contain_oxygen_bond_distance_aromatic_linkinvent_7_9_3/rearranged_h_0099.sdf

> <i_m_source_file_index>
7

> <r_mmod_Potential_Energy-OPLS-2005>
4237.07373046875

> <r_mmod_Stretch_Energy-OPLS-2005>
1945.77197265625

> <r_mmod_Bend_Energy-OPLS-2005>
938.920471191406

> <r_mmod_Torsional_Energy-OPLS-2005>
323.929992675781

> <r_mmod_Improper_Torsional_Energy-OPLS-2005>
21.4382820129395

> <r_mmod_Van_der_Waal_Energy-OPLS-2005>
134.358032226562

> <r_mmod_Electrostatic_Energy-OPLS-2005>
-456.226440429688

> <r_mmod_Solvation_Energy-OPLS-2005>
-208.963180541992

> <b_mmod_Minimization_Converged-OPLS-2005>
0

> <r_mmod_RMS_Derivative-OPLS-2005>
0.434447407722473

$$$$
7
                    3D
 Structure written by MMmdl.
153161  0  0  1  0            999 V2000
  -30.6175  -14.6638   20.4909 C   0  0  0  0  0  0
  -30.4408  -12.4059   19.4556 C   0  0  0  0  0  0
  -29.5091  -12.5085   18.2269 C   0  0  0  0  0  0
  -28.0325  -12.3435   18.6398 C   0  0  0  0  0  0
  -27.6525  -13.2194   19.8635 C   0  0  2  0  0  0
  -28.6992  -13.0865   20.9931 C   0  0  0  0  0  0
  -25.2549  -13.8170   20.5691 C   0  0  0  0  0  0
  -24.1816  -13.0428   20.9170 C   0  0  0  0  0  0
  -24.6395  -11.6904   20.8729 C   0  0  0  0  0  0
  -23.9066  -10.4287   21.0398 C   0  0  0  0  0  0
  -24.3617   -9.4206   21.9180 C   0  0  0  0  0  0
  -23.6291   -8.2242   22.0753 C   0  0  0  0  0  0
  -22.4273   -8.0279   21.3544 C   0  0  0  0  0  0
  -21.9908   -9.0251   20.4645 C   0  0  0  0  0  0
  -22.7236  -10.2130   20.3051 C   0  0  0  0  0  0
  -21.6853   -6.0735   22.5279 C   0  0  0  0  0  0
  -21.4014   -6.5639   23.8212 C   0  0  0  0  0  0
  -21.3660   -5.6792   24.9175 C   0  0  0  0  0  0
  -21.6044   -4.3055   24.7225 C   0  0  0  0  0  0
  -21.8819   -3.8147   23.4346 C   0  0  0  0  0  0
  -21.9193   -4.6963   22.3403 C   0  0  0  0  0  0
  -22.7839  -13.5220   21.1844 C   0  0  0  0  0  0
  -22.1661   -4.2149   21.0980 F   0  0  0  0  0  0
  -21.5629   -3.4538   25.7738 F   0  0  0  0  0  0
  -30.0124  -13.4335   20.4264 N   0  0  0  0  0  0
  -26.2991  -12.9362   20.3338 N   0  0  0  0  0  0
  -25.9331  -11.6511   20.5765 N   0  0  0  0  0  0
  -22.0491  -12.8213   22.0409 N   0  0  0  0  0  0
  -25.4233  -15.1895   20.4161 N   0  0  0  0  0  0
  -31.7850  -14.8179   20.1211 O   0  0  0  0  0  0
  -21.6638   -6.8877   21.4241 O   0  0  0  0  0  0
  -22.3518  -14.5529   20.6703 O   0  0  0  0  0  0
  -24.6278  -31.8590   23.2027 C   0  0  0  0  0  0
  -25.9120  -32.4776   23.8356 C   0  0  1  0  0  0
  -27.2216  -27.3036   20.1143 C   0  0  0  0  0  0
  -25.5931  -33.8577   24.2279 N   0  0  0  0  0  0
  -23.4221  -30.4843   21.5456 C   0  0  2  0  0  0
  -24.8684  -28.9418   20.1096 C   0  0  0  0  0  0
  -22.7485  -29.4622   22.4927 C   0  0  0  0  0  0
  -18.0289  -28.1385   22.8487 C   0  0  0  0  0  0
  -24.1489  -36.7292   23.2639 C   0  0  0  0  0  0
  -25.9660  -30.7846   21.3776 C   0  0  0  0  0  0
  -26.0394  -29.4120   20.7174 C   0  0  0  0  0  0
  -27.2185  -28.6048   20.7116 C   0  0  0  0  0  0
  -26.0258  -26.8986   19.4735 C   0  0  0  0  0  0
  -24.8648  -27.6908   19.4786 C   0  0  0  0  0  0
  -23.6377  -29.8232   20.1599 C   0  0  0  0  0  0
  -25.4114  -36.3081   24.0329 C   0  0  1  0  0  0
  -20.5891  -28.3691   23.1277 C   0  0  2  0  0  0
  -20.6778  -26.9412   22.5406 C   0  0  0  0  0  0
  -19.5753  -26.6383   21.5211 C   0  0  0  0  0  0
  -18.1934  -26.7928   22.1624 C   0  0  0  0  0  0
  -19.1542  -28.8854   23.2878 C   0  0  0  0  0  0
  -18.9464  -30.1457   23.8894 C   0  0  0  0  0  0
  -17.6464  -30.6587   24.0563 C   0  0  0  0  0  0
  -25.9051  -34.9450   23.5103 C   0  0  0  0  0  0
  -16.5355  -29.9086   23.6331 C   0  0  0  0  0  0
  -16.7276  -28.6503   23.0352 C   0  0  0  0  0  0
  -26.4498  -31.6588   25.0729 C   0  0  0  0  0  0
  -25.3731  -31.3727   26.1454 C   0  0  0  0  0  0
  -27.0342  -30.3009   24.6192 C   0  0  0  0  0  0
  -27.6054  -32.4324   25.7504 C   0  0  0  0  0  0
  -27.5578  -37.1803   24.8466 C   0  0  0  0  0  0
  -21.4196  -29.3046   22.3671 N   0  0  0  0  0  0
  -26.4292  -37.3775   23.9408 N   0  0  0  0  0  0
  -24.6910  -31.0592   22.0985 N   0  0  0  0  0  0
  -23.4204  -28.8153   23.3005 O   0  0  0  0  0  0
  -28.3251  -26.4279   20.1762 O   0  0  0  0  0  0
  -26.5618  -34.8918   22.4669 O   0  0  0  0  0  0
  -23.5437  -32.1392   23.7346 O   0  0  0  0  0  0
  -31.0744  -19.3393   20.3195 C   0  0  0  0  0  0
  -31.0687  -17.9093   20.3372 C   0  0  0  0  0  0
  -28.7720  -19.3899   20.9946 C   0  0  0  0  0  0
  -29.9377  -20.1282   20.6643 C   0  0  0  0  0  0
  -29.9100  -17.1763   20.7074 C   0  0  0  0  0  0
  -28.7621  -17.9601   21.0135 C   0  0  0  0  0  0
  -29.1380  -23.9010   20.3775 C   0  0  0  0  0  0
  -30.3704  -21.9448   22.3474 C   0  0  0  0  0  0
  -28.0627  -24.9762   19.9597 C   0  0  0  0  0  0
  -30.0776  -21.6931   20.8550 C   0  0  2  0  0  0
  -28.9670  -22.5981   20.4036 N   0  0  0  0  0  0
  -29.7985  -15.7155   20.8149 N   0  0  0  0  0  0
  -27.6208  -17.3170   21.3592 F   0  0  0  0  0  0
  -31.4812  -12.5346   19.1519 H   0  0  0  0  0  0
  -30.3811  -11.4131   19.9042 H   0  0  0  0  0  0
  -29.7764  -11.7530   17.4867 H   0  0  0  0  0  0
  -29.6473  -13.4753   17.7400 H   0  0  0  0  0  0
  -27.8734  -11.2909   18.8768 H   0  0  0  0  0  0
  -27.3769  -12.5666   17.7973 H   0  0  0  0  0  0
  -27.6649  -14.2525   19.5158 H   0  0  0  0  0  0
  -28.7158  -12.0678   21.3833 H   0  0  0  0  0  0
  -28.4430  -13.7246   21.8403 H   0  0  0  0  0  0
  -25.2762   -9.5684   22.4753 H   0  0  0  0  0  0
  -24.0002   -7.4635   22.7473 H   0  0  0  0  0  0
  -21.0839   -8.8768   19.8952 H   0  0  0  0  0  0
  -22.3694  -10.9667   19.6159 H   0  0  0  0  0  0
  -21.2005   -7.6147   23.9715 H   0  0  0  0  0  0
  -21.1483   -6.0523   25.9078 H   0  0  0  0  0  0
  -22.0598   -2.7609   23.2846 H   0  0  0  0  0  0
  -22.4110  -11.9873   22.4790 H   0  0  0  0  0  0
  -21.1112  -13.1240   22.2626 H   0  0  0  0  0  0
  -24.6624  -15.8425   20.5655 H   0  0  0  0  0  0
  -26.2958  -15.6521   20.1938 H   0  0  0  0  0  0
  -26.7186  -32.5438   23.1102 H   0  0  0  0  0  0
  -25.0083  -33.9721   25.0428 H   0  0  0  0  0  0
  -22.7167  -31.3057   21.4038 H   0  0  0  0  0  0
  -23.3750  -35.9626   23.3305 H   0  0  0  0  0  0
  -24.3581  -36.8908   22.2052 H   0  0  0  0  0  0
  -23.7246  -37.6497   23.6658 H   0  0  0  0  0  0
  -26.1012  -31.5485   20.6106 H   0  0  0  0  0  0
  -26.8453  -30.8312   22.0085 H   0  0  0  0  0  0
  -28.1139  -28.9593   21.2027 H   0  0  0  0  0  0
  -25.9493  -25.9480   18.9681 H   0  0  0  0  0  0
  -23.9691  -27.3267   18.9939 H   0  0  0  0  0  0
  -23.7589  -30.6016   19.4058 H   0  0  0  0  0  0
  -22.7569  -29.2549   19.8553 H   0  0  0  0  0  0
  -25.1296  -36.1932   25.0822 H   0  0  0  0  0  0
  -20.9984  -28.3263   24.1397 H   0  0  0  0  0  0
  -20.5678  -26.2300   23.3606 H   0  0  0  0  0  0
  -21.6646  -26.7440   22.1199 H   0  0  0  0  0  0
  -19.6914  -25.6294   21.1241 H   0  0  0  0  0  0
  -19.6690  -27.3193   20.6741 H   0  0  0  0  0  0
  -17.4201  -26.6672   21.4029 H   0  0  0  0  0  0
  -18.0338  -26.0073   22.9023 H   0  0  0  0  0  0
  -19.7940  -30.7275   24.2260 H   0  0  0  0  0  0
  -17.5019  -31.6268   24.5165 H   0  0  0  0  0  0
  -15.5355  -30.2988   23.7658 H   0  0  0  0  0  0
  -15.8675  -28.0823   22.7068 H   0  0  0  0  0  0
  -24.5911  -30.7068   25.7786 H   0  0  0  0  0  0
  -24.8916  -32.2893   26.4871 H   0  0  0  0  0  0
  -25.8056  -30.8915   27.0234 H   0  0  0  0  0  0
  -26.2920  -29.6761   24.1209 H   0  0  0  0  0  0
  -27.4030  -29.7263   25.4699 H   0  0  0  0  0  0
  -27.8796  -30.4293   23.9428 H   0  0  0  0  0  0
  -27.2660  -33.3623   26.2079 H   0  0  0  0  0  0
  -28.3869  -32.6884   25.0338 H   0  0  0  0  0  0
  -28.0717  -31.8451   26.5424 H   0  0  0  0  0  0
  -28.2597  -38.0098   24.7506 H   0  0  0  0  0  0
  -28.1072  -36.2629   24.6300 H   0  0  0  0  0  0
  -27.2296  -37.1462   25.8869 H   0  0  0  0  0  0
  -20.9370  -29.8778   21.6892 H   0  0  0  0  0  0
  -26.0172  -38.2851   24.1404 H   0  0  0  0  0  0
  -32.0022  -19.8401   20.0791 H   0  0  0  0  0  0
  -31.9811  -17.3865   20.0891 H   0  0  0  0  0  0
  -27.8789  -19.9236   21.2850 H   0  0  0  0  0  0
  -30.0935  -24.3494   20.6636 H   0  0  0  0  0  0
  -31.2239  -21.3515   22.6775 H   0  0  0  0  0  0
  -29.5200  -21.6643   22.9697 H   0  0  0  0  0  0
  -30.6135  -22.9849   22.5636 H   0  0  0  0  0  0
  -27.1487  -24.7048   20.4903 H   0  0  0  0  0  0
  -27.8667  -24.8244   18.8979 H   0  0  0  0  0  0
  -30.9782  -21.9733   20.3030 H   0  0  0  0  0  0
  -28.8802  -15.4168   21.1066 H   0  0  0  0  0  0
  1 25  1  0  0  0
  1 30  2  0  0  0
  1 82  1  0  0  0
  2  3  1  0  0  0
  2 25  1  0  0  0
  2 84  1  0  0  0
  2 85  1  0  0  0
  3  4  1  0  0  0
  3 86  1  0  0  0
  3 87  1  0  0  0
  4  5  1  0  0  0
  4 88  1  0  0  0
  4 89  1  0  0  0
  5  6  1  0  0  0
  5 26  1  0  0  0
  5 90  1  0  0  0
  6 25  1  0  0  0
  6 91  1  0  0  0
  6 92  1  0  0  0
  7  8  2  0  0  0
  7 26  1  0  0  0
  7 29  1  0  0  0
  8  9  1  0  0  0
  8 22  1  0  0  0
  9 10  1  0  0  0
  9 27  2  0  0  0
 10 11  2  0  0  0
 10 15  1  0  0  0
 11 12  1  0  0  0
 11 93  1  0  0  0
 12 13  2  0  0  0
 12 94  1  0  0  0
 13 14  1  0  0  0
 13 31  1  0  0  0
 14 15  2  0  0  0
 14 95  1  0  0  0
 15 96  1  0  0  0
 16 17  2  0  0  0
 16 21  1  0  0  0
 16 31  1  0  0  0
 17 18  1  0  0  0
 17 97  1  0  0  0
 18 19  2  0  0  0
 18 98  1  0  0  0
 19 20  1  0  0  0
 19 24  1  0  0  0
 20 21  2  0  0  0
 20 99  1  0  0  0
 21 23  1  0  0  0
 22 28  1  0  0  0
 22 32  2  0  0  0
 26 27  1  0  0  0
 28100  1  0  0  0
 28101  1  0  0  0
 29102  1  0  0  0
 29103  1  0  0  0
 33 34  1  0  0  0
 33 66  1  0  0  0
 33 70  2  0  0  0
 34 36  1  0  0  0
 34 59  1  0  0  0
 34104  1  0  0  0
 35 44  2  0  0  0
 35 45  1  0  0  0
 35 68  1  0  0  0
 36 56  1  0  0  0
 36105  1  0  0  0
 37 39  1  0  0  0
 37 47  1  0  0  0
 37 66  1  0  0  0
 37106  1  0  0  0
 38 43  2  0  0  0
 38 46  1  0  0  0
 38 47  1  0  0  0
 39 64  1  0  0  0
 39 67  2  0  0  0
 40 52  1  0  0  0
 40 53  2  0  0  0
 40 58  1  0  0  0
 41107  1  0  0  0
 41108  1  0  0  0
 41109  1  0  0  0
 41 48  1  0  0  0
 42 43  1  0  0  0
 42 66  1  0  0  0
 42110  1  0  0  0
 42111  1  0  0  0
 43 44  1  0  0  0
 44112  1  0  0  0
 45 46  2  0  0  0
 45113  1  0  0  0
 46114  1  0  0  0
 47115  1  0  0  0
 47116  1  0  0  0
 48 56  1  0  0  0
 48 65  1  0  0  0
 48117  1  0  0  0
 49 50  1  0  0  0
 49 53  1  0  0  0
 49 64  1  0  0  0
 49118  1  0  0  0
 50 51  1  0  0  0
 50119  1  0  0  0
 50120  1  0  0  0
 51 52  1  0  0  0
 51121  1  0  0  0
 51122  1  0  0  0
 52123  1  0  0  0
 52124  1  0  0  0
 53 54  1  0  0  0
 54 55  2  0  0  0
 54125  1  0  0  0
 55 57  1  0  0  0
 55126  1  0  0  0
 56 69  2  0  0  0
 57 58  2  0  0  0
 57127  1  0  0  0
 58128  1  0  0  0
 59 60  1  0  0  0
 59 61  1  0  0  0
 59 62  1  0  0  0
 60129  1  0  0  0
 60130  1  0  0  0
 60131  1  0  0  0
 61132  1  0  0  0
 61133  1  0  0  0
 61134  1  0  0  0
 62135  1  0  0  0
 62136  1  0  0  0
 62137  1  0  0  0
 63 65  1  0  0  0
 63138  1  0  0  0
 63139  1  0  0  0
 63140  1  0  0  0
 64141  1  0  0  0
 65142  1  0  0  0
 68 79  1  0  0  0
 71 72  2  0  0  0
 71 74  1  0  0  0
 71143  1  0  0  0
 72 75  1  0  0  0
 72144  1  0  0  0
 73 74  2  0  0  0
 73 76  1  0  0  0
 73145  1  0  0  0
 74 80  1  0  0  0
 75 76  2  0  0  0
 75 82  1  0  0  0
 76 83  1  0  0  0
 77 79  1  0  0  0
 77 81  2  0  0  0
 77146  1  0  0  0
 78147  1  0  0  0
 78148  1  0  0  0
 78149  1  0  0  0
 78 80  1  0  0  0
 79150  1  0  0  0
 79151  1  0  0  0
 80 81  1  0  0  0
 80152  1  0  0  0
 82153  1  0  0  0
M  ISO  4   1 100  68 101  79 101  82 100
M  END
> <chiral flag>
0

> <version>
0

> <s_m_source_file>
/data/baiqing/PycharmProjects/Reinvent-master-3.2/result/LINK_invent/BTK/process_docking_weight1_custom_product_contain_oxygen_bond_distance_aromatic_linkinvent_7_9_3/rearranged_h_0099.sdf

> <i_m_source_file_index>
8

> <r_mmod_Potential_Energy-OPLS-2005>
18.2086868286133

> <r_mmod_Stretch_Energy-OPLS-2005>
89.181884765625

> <r_mmod_Bend_Energy-OPLS-2005>
143.918045043945

> <r_mmod_Torsional_Energy-OPLS-2005>
207.258651733398

> <r_mmod_Improper_Torsional_Energy-OPLS-2005>
4.85338258743286

> <r_mmod_Van_der_Waal_Energy-OPLS-2005>
148.965484619141

> <r_mmod_Electrostatic_Energy-OPLS-2005>
-432.579254150391

> <r_mmod_Solvation_Energy-OPLS-2005>
-200.841461181641

> <b_mmod_Minimization_Converged-OPLS-2005>
0

> <r_mmod_RMS_Derivative-OPLS-2005>
0.188974678516388

$$$$
8
                    3D
 Structure written by MMmdl.
154162  0  0  1  0            999 V2000
  -30.6972  -14.5139   20.5725 C   0  0  0  0  0  0
  -30.4225  -12.3362   19.4255 C   0  0  0  0  0  0
  -29.4932  -12.5046   18.2060 C   0  0  0  0  0  0
  -28.0160  -12.3594   18.6218 C   0  0  0  0  0  0
  -27.6567  -13.2113   19.8691 C   0  0  2  0  0  0
  -28.6990  -13.0242   20.9927 C   0  0  0  0  0  0
  -25.2576  -13.8173   20.5680 C   0  0  0  0  0  0
  -24.1832  -13.0445   20.9181 C   0  0  0  0  0  0
  -24.6398  -11.6917   20.8747 C   0  0  0  0  0  0
  -23.9071  -10.4298   21.0417 C   0  0  0  0  0  0
  -24.3624   -9.4213   21.9193 C   0  0  0  0  0  0
  -23.6301   -8.2247   22.0760 C   0  0  0  0  0  0
  -22.4281   -8.0286   21.3546 C   0  0  0  0  0  0
  -21.9916   -9.0265   20.4650 C   0  0  0  0  0  0
  -22.7246  -10.2146   20.3066 C   0  0  0  0  0  0
  -21.6857   -6.0750   22.5290 C   0  0  0  0  0  0
  -21.4012   -6.5653   23.8222 C   0  0  0  0  0  0
  -21.3651   -5.6801   24.9181 C   0  0  0  0  0  0
  -21.6044   -4.3064   24.7228 C   0  0  0  0  0  0
  -21.8818   -3.8160   23.4347 C   0  0  0  0  0  0
  -21.9190   -4.6979   22.3406 C   0  0  0  0  0  0
  -22.7856  -13.5237   21.1856 C   0  0  0  0  0  0
  -22.1661   -4.2168   21.0983 F   0  0  0  0  0  0
  -21.5627   -3.4546   25.7736 F   0  0  0  0  0  0
  -30.0223  -13.3373   20.4301 N   0  0  0  0  0  0
  -26.3007  -12.9347   20.3352 N   0  0  0  0  0  0
  -25.9321  -11.6502   20.5766 N   0  0  0  0  0  0
  -22.0500  -12.8217   22.0404 N   0  0  0  0  0  0
  -25.4291  -15.1894   20.4074 N   0  0  0  0  0  0
  -31.8333  -14.6776   20.1208 O   0  0  0  0  0  0
  -21.6641   -6.8888   21.4247 O   0  0  0  0  0  0
  -22.3535  -14.5547   20.6714 O   0  0  0  0  0  0
  -24.6177  -31.8635   23.2064 C   0  0  0  0  0  0
  -25.9059  -32.4794   23.8371 C   0  0  1  0  0  0
  -27.2371  -27.3969   20.1001 C   0  0  0  0  0  0
  -25.5904  -33.8600   24.2296 N   0  0  0  0  0  0
  -23.4076  -30.4869   21.5467 C   0  0  2  0  0  0
  -24.8529  -28.9447   20.1152 C   0  0  0  0  0  0
  -22.7418  -29.4651   22.4963 C   0  0  0  0  0  0
  -18.0277  -28.1374   22.8502 C   0  0  0  0  0  0
  -24.1490  -36.7322   23.2641 C   0  0  0  0  0  0
  -25.9396  -30.8168   21.3665 C   0  0  0  0  0  0
  -26.0135  -29.4493   20.7118 C   0  0  0  0  0  0
  -27.2040  -28.6824   20.6999 C   0  0  0  0  0  0
  -26.0502  -26.9092   19.5072 C   0  0  0  0  0  0
  -24.8679  -27.6759   19.5100 C   0  0  0  0  0  0
  -23.6174  -29.8166   20.1624 C   0  0  0  0  0  0
  -25.4110  -36.3100   24.0328 C   0  0  1  0  0  0
  -20.5867  -28.3682   23.1306 C   0  0  2  0  0  0
  -20.6769  -26.9418   22.5414 C   0  0  0  0  0  0
  -19.5748  -26.6390   21.5217 C   0  0  0  0  0  0
  -18.1927  -26.7921   22.1628 C   0  0  0  0  0  0
  -19.1525  -28.8843   23.2905 C   0  0  0  0  0  0
  -18.9452  -30.1446   23.8923 C   0  0  0  0  0  0
  -17.6454  -30.6586   24.0566 C   0  0  0  0  0  0
  -25.9039  -34.9464   23.5106 C   0  0  0  0  0  0
  -16.5346  -29.9090   23.6323 C   0  0  0  0  0  0
  -16.7268  -28.6498   23.0360 C   0  0  0  0  0  0
  -26.4479  -31.6594   25.0729 C   0  0  0  0  0  0
  -25.3739  -31.3717   26.1473 C   0  0  0  0  0  0
  -27.0321  -30.3028   24.6159 C   0  0  0  0  0  0
  -27.6040  -32.4336   25.7493 C   0  0  0  0  0  0
  -27.5580  -37.1808   24.8457 C   0  0  0  0  0  0
  -21.4141  -29.3041   22.3697 N   0  0  0  0  0  0
  -26.4293  -37.3785   23.9402 N   0  0  0  0  0  0
  -24.6728  -31.0710   22.0979 N   0  0  0  0  0  0
  -23.4169  -28.8191   23.3021 O   0  0  0  0  0  0
  -28.4258  -26.6811   20.1290 O   0  0  0  0  0  0
  -26.5606  -34.8920   22.4672 O   0  0  0  0  0  0
  -23.5366  -32.1406   23.7435 O   0  0  0  0  0  0
  -29.1835  -19.0697   21.6097 C   0  0  0  0  0  0
  -29.1923  -20.2294   20.7600 C   0  0  0  0  0  0
  -29.9997  -18.1057   21.0606 C   0  0  0  0  0  0
  -29.9637  -19.8155   19.6979 C   0  0  0  0  0  0
  -28.5313  -21.5708   20.9920 C   0  0  0  0  0  0
  -30.6075  -16.8173   21.5906 C   0  0  0  0  0  0
  -28.8104  -22.7808   20.0588 C   0  0  0  0  0  0
  -28.3024  -24.1778   20.5632 C   0  0  0  0  0  0
  -28.5490  -25.3518   19.5676 C   0  0  0  0  0  0
  -30.3160  -20.5034   18.5460 N   0  0  0  0  0  0
  -30.0229  -15.5319   21.1527 N   0  0  0  0  0  0
  -27.7722  -21.7215   21.9555 O   0  0  0  0  0  0
  -30.4593  -18.5536   19.8581 O   0  0  0  0  0  0
  -31.4661  -12.4413   19.1219 H   0  0  0  0  0  0
  -30.3336  -11.3309   19.8405 H   0  0  0  0  0  0
  -29.7404  -11.7698   17.4384 H   0  0  0  0  0  0
  -29.6527  -13.4847   17.7527 H   0  0  0  0  0  0
  -27.8340  -11.3042   18.8282 H   0  0  0  0  0  0
  -27.3634  -12.6211   17.7878 H   0  0  0  0  0  0
  -27.6914  -14.2548   19.5555 H   0  0  0  0  0  0
  -28.6873  -11.9970   21.3586 H   0  0  0  0  0  0
  -28.4548  -13.6428   21.8575 H   0  0  0  0  0  0
  -25.2774   -9.5688   22.4759 H   0  0  0  0  0  0
  -24.0025   -7.4627   22.7469 H   0  0  0  0  0  0
  -21.0854   -8.8774   19.8942 H   0  0  0  0  0  0
  -22.3710  -10.9682   19.6170 H   0  0  0  0  0  0
  -21.2005   -7.6163   23.9728 H   0  0  0  0  0  0
  -21.1474   -6.0536   25.9085 H   0  0  0  0  0  0
  -22.0601   -2.7626   23.2843 H   0  0  0  0  0  0
  -22.4129  -11.9882   22.4782 H   0  0  0  0  0  0
  -21.1120  -13.1242   22.2614 H   0  0  0  0  0  0
  -24.6638  -15.8453   20.5179 H   0  0  0  0  0  0
  -26.2817  -15.6285   20.0827 H   0  0  0  0  0  0
  -26.7127  -32.5482   23.1121 H   0  0  0  0  0  0
  -25.0049  -33.9757   25.0432 H   0  0  0  0  0  0
  -22.7012  -31.3068   21.4026 H   0  0  0  0  0  0
  -23.3749  -35.9662   23.3305 H   0  0  0  0  0  0
  -24.3586  -36.8946   22.2058 H   0  0  0  0  0  0
  -23.7256  -37.6528   23.6663 H   0  0  0  0  0  0
  -26.0627  -31.5833   20.5999 H   0  0  0  0  0  0
  -26.8236  -30.8638   21.9920 H   0  0  0  0  0  0
  -28.1006  -29.0712   21.1607 H   0  0  0  0  0  0
  -26.0075  -25.9348   19.0459 H   0  0  0  0  0  0
  -23.9729  -27.2782   19.0516 H   0  0  0  0  0  0
  -23.7279  -30.5900   19.4017 H   0  0  0  0  0  0
  -22.7409  -29.2389   19.8644 H   0  0  0  0  0  0
  -25.1285  -36.1954   25.0823 H   0  0  0  0  0  0
  -20.9972  -28.3258   24.1420 H   0  0  0  0  0  0
  -20.5688  -26.2301   23.3610 H   0  0  0  0  0  0
  -21.6637  -26.7458   22.1197 H   0  0  0  0  0  0
  -19.6921  -25.6306   21.1243 H   0  0  0  0  0  0
  -19.6678  -27.3201   20.6744 H   0  0  0  0  0  0
  -17.4196  -26.6688   21.4029 H   0  0  0  0  0  0
  -18.0321  -26.0048   22.9004 H   0  0  0  0  0  0
  -19.7928  -30.7255   24.2311 H   0  0  0  0  0  0
  -17.5008  -31.6265   24.5166 H   0  0  0  0  0  0
  -15.5349  -30.2999   23.7633 H   0  0  0  0  0  0
  -15.8665  -28.0816   22.7081 H   0  0  0  0  0  0
  -24.5889  -30.7091   25.7809 H   0  0  0  0  0  0
  -24.8965  -32.2882   26.4951 H   0  0  0  0  0  0
  -25.8083  -30.8854   27.0218 H   0  0  0  0  0  0
  -26.2879  -29.6779   24.1209 H   0  0  0  0  0  0
  -27.4056  -29.7283   25.4649 H   0  0  0  0  0  0
  -27.8732  -30.4335   23.9349 H   0  0  0  0  0  0
  -27.2638  -33.3616   26.2102 H   0  0  0  0  0  0
  -28.3829  -32.6935   25.0311 H   0  0  0  0  0  0
  -28.0740  -31.8459   26.5388 H   0  0  0  0  0  0
  -28.2580  -38.0119   24.7499 H   0  0  0  0  0  0
  -28.1087  -36.2641   24.6272 H   0  0  0  0  0  0
  -27.2299  -37.1445   25.8861 H   0  0  0  0  0  0
  -20.9309  -29.8769   21.6916 H   0  0  0  0  0  0
  -26.0181  -38.2866   24.1395 H   0  0  0  0  0  0
  -28.6997  -18.9895   22.5730 H   0  0  0  0  0  0
  -30.5436  -16.8306   22.6788 H   0  0  0  0  0  0
  -31.6785  -16.8376   21.3830 H   0  0  0  0  0  0
  -28.3581  -22.5601   19.0929 H   0  0  0  0  0  0
  -29.8882  -22.8332   19.9014 H   0  0  0  0  0  0
  -28.8078  -24.4082   21.5022 H   0  0  0  0  0  0
  -27.2383  -24.1241   20.7973 H   0  0  0  0  0  0
  -27.9708  -25.2267   18.6525 H   0  0  0  0  0  0
  -29.5856  -25.2826   19.2373 H   0  0  0  0  0  0
  -30.0073  -21.4350   18.2952 H   0  0  0  0  0  0
  -30.9483  -20.1108   17.8561 H   0  0  0  0  0  0
  -29.0796  -15.3392   21.4513 H   0  0  0  0  0  0
  1 25  1  0  0  0
  1 30  2  0  0  0
  1 81  1  0  0  0
  2  3  1  0  0  0
  2 25  1  0  0  0
  2 84  1  0  0  0
  2 85  1  0  0  0
  3  4  1  0  0  0
  3 86  1  0  0  0
  3 87  1  0  0  0
  4  5  1  0  0  0
  4 88  1  0  0  0
  4 89  1  0  0  0
  5  6  1  0  0  0
  5 26  1  0  0  0
  5 90  1  0  0  0
  6 25  1  0  0  0
  6 91  1  0  0  0
  6 92  1  0  0  0
  7  8  2  0  0  0
  7 26  1  0  0  0
  7 29  1  0  0  0
  8  9  1  0  0  0
  8 22  1  0  0  0
  9 10  1  0  0  0
  9 27  2  0  0  0
 10 11  2  0  0  0
 10 15  1  0  0  0
 11 12  1  0  0  0
 11 93  1  0  0  0
 12 13  2  0  0  0
 12 94  1  0  0  0
 13 14  1  0  0  0
 13 31  1  0  0  0
 14 15  2  0  0  0
 14 95  1  0  0  0
 15 96  1  0  0  0
 16 17  2  0  0  0
 16 21  1  0  0  0
 16 31  1  0  0  0
 17 18  1  0  0  0
 17 97  1  0  0  0
 18 19  2  0  0  0
 18 98  1  0  0  0
 19 20  1  0  0  0
 19 24  1  0  0  0
 20 21  2  0  0  0
 20 99  1  0  0  0
 21 23  1  0  0  0
 22 28  1  0  0  0
 22 32  2  0  0  0
 26 27  1  0  0  0
 28100  1  0  0  0
 28101  1  0  0  0
 29102  1  0  0  0
 29103  1  0  0  0
 33 34  1  0  0  0
 33 66  1  0  0  0
 33 70  2  0  0  0
 34 36  1  0  0  0
 34 59  1  0  0  0
 34104  1  0  0  0
 35 44  2  0  0  0
 35 45  1  0  0  0
 35 68  1  0  0  0
 36 56  1  0  0  0
 36105  1  0  0  0
 37 39  1  0  0  0
 37 47  1  0  0  0
 37 66  1  0  0  0
 37106  1  0  0  0
 38 43  2  0  0  0
 38 46  1  0  0  0
 38 47  1  0  0  0
 39 64  1  0  0  0
 39 67  2  0  0  0
 40 52  1  0  0  0
 40 53  2  0  0  0
 40 58  1  0  0  0
 41107  1  0  0  0
 41108  1  0  0  0
 41109  1  0  0  0
 41 48  1  0  0  0
 42 43  1  0  0  0
 42 66  1  0  0  0
 42110  1  0  0  0
 42111  1  0  0  0
 43 44  1  0  0  0
 44112  1  0  0  0
 45 46  2  0  0  0
 45113  1  0  0  0
 46114  1  0  0  0
 47115  1  0  0  0
 47116  1  0  0  0
 48 56  1  0  0  0
 48 65  1  0  0  0
 48117  1  0  0  0
 49 50  1  0  0  0
 49 53  1  0  0  0
 49 64  1  0  0  0
 49118  1  0  0  0
 50 51  1  0  0  0
 50119  1  0  0  0
 50120  1  0  0  0
 51 52  1  0  0  0
 51121  1  0  0  0
 51122  1  0  0  0
 52123  1  0  0  0
 52124  1  0  0  0
 53 54  1  0  0  0
 54 55  2  0  0  0
 54125  1  0  0  0
 55 57  1  0  0  0
 55126  1  0  0  0
 56 69  2  0  0  0
 57 58  2  0  0  0
 57127  1  0  0  0
 58128  1  0  0  0
 59 60  1  0  0  0
 59 61  1  0  0  0
 59 62  1  0  0  0
 60129  1  0  0  0
 60130  1  0  0  0
 60131  1  0  0  0
 61132  1  0  0  0
 61133  1  0  0  0
 61134  1  0  0  0
 62135  1  0  0  0
 62136  1  0  0  0
 62137  1  0  0  0
 63 65  1  0  0  0
 63138  1  0  0  0
 63139  1  0  0  0
 63140  1  0  0  0
 64141  1  0  0  0
 65142  1  0  0  0
 68 79  1  0  0  0
 71 72  1  0  0  0
 71 73  2  0  0  0
 71143  1  0  0  0
 72 74  2  0  0  0
 72 75  1  0  0  0
 73 76  1  0  0  0
 73 83  1  0  0  0
 74 80  1  0  0  0
 74 83  1  0  0  0
 75 77  1  0  0  0
 75 82  2  0  0  0
 76 81  1  0  0  0
 76144  1  0  0  0
 76145  1  0  0  0
 77 78  1  0  0  0
 77146  1  0  0  0
 77147  1  0  0  0
 78 79  1  0  0  0
 78148  1  0  0  0
 78149  1  0  0  0
 79150  1  0  0  0
 79151  1  0  0  0
 80152  1  0  0  0
 80153  1  0  0  0
 81154  1  0  0  0
M  ISO  4   1 100  68 101  79 101  81 100
M  END
> <chiral flag>
0

> <version>
0

> <s_m_source_file>
/data/baiqing/PycharmProjects/Reinvent-master-3.2/result/LINK_invent/BTK/process_docking_weight1_custom_product_contain_oxygen_bond_distance_aromatic_linkinvent_7_9_3/rearranged_h_0099.sdf

> <i_m_source_file_index>
9

> <r_mmod_Potential_Energy-OPLS-2005>
-127.554489135742

> <r_mmod_Stretch_Energy-OPLS-2005>
44.3815040588379

> <r_mmod_Bend_Energy-OPLS-2005>
133.372360229492

> <r_mmod_Torsional_Energy-OPLS-2005>
212.585540771484

> <r_mmod_Improper_Torsional_Energy-OPLS-2005>
3.41075396537781

> <r_mmod_Van_der_Waal_Energy-OPLS-2005>
128.707489013672

> <r_mmod_Electrostatic_Energy-OPLS-2005>
-435.009918212891

> <r_mmod_Solvation_Energy-OPLS-2005>
-233.596664428711

> <b_mmod_Minimization_Converged-OPLS-2005>
0

> <r_mmod_RMS_Derivative-OPLS-2005>
1.571244597435

$$$$
9
                    3D
 Structure written by MMmdl.
163172  0  0  1  0            999 V2000
  -30.6408  -14.5961   20.5297 C   0  0  0  0  0  0
  -30.4365  -12.3693   19.4507 C   0  0  0  0  0  0
  -29.5095  -12.5158   18.2235 C   0  0  0  0  0  0
  -28.0317  -12.3550   18.6321 C   0  0  0  0  0  0
  -27.6584  -13.2134   19.8686 C   0  0  2  0  0  0
  -28.6993  -13.0447   21.0002 C   0  0  0  0  0  0
  -25.2556  -13.8150   20.5617 C   0  0  0  0  0  0
  -24.1841  -13.0429   20.9211 C   0  0  0  0  0  0
  -24.6400  -11.6900   20.8746 C   0  0  0  0  0  0
  -23.9061  -10.4292   21.0413 C   0  0  0  0  0  0
  -24.3607   -9.4208   21.9189 C   0  0  0  0  0  0
  -23.6285   -8.2246   22.0748 C   0  0  0  0  0  0
  -22.4272   -8.0281   21.3541 C   0  0  0  0  0  0
  -21.9907   -9.0263   20.4649 C   0  0  0  0  0  0
  -22.7230  -10.2144   20.3062 C   0  0  0  0  0  0
  -21.6858   -6.0736   22.5276 C   0  0  0  0  0  0
  -21.4018   -6.5630   23.8210 C   0  0  0  0  0  0
  -21.3655   -5.6775   24.9166 C   0  0  0  0  0  0
  -21.6044   -4.3040   24.7213 C   0  0  0  0  0  0
  -21.8824   -3.8139   23.4329 C   0  0  0  0  0  0
  -21.9196   -4.6968   22.3392 C   0  0  0  0  0  0
  -22.7860  -13.5233   21.1876 C   0  0  0  0  0  0
  -22.1663   -4.2155   21.0970 F   0  0  0  0  0  0
  -21.5625   -3.4520   25.7718 F   0  0  0  0  0  0
  -30.0228  -13.3765   20.4476 N   0  0  0  0  0  0
  -26.2999  -12.9333   20.3298 N   0  0  0  0  0  0
  -25.9331  -11.6499   20.5757 N   0  0  0  0  0  0
  -22.0492  -12.8233   22.0421 N   0  0  0  0  0  0
  -25.4221  -15.1848   20.3867 N   0  0  0  0  0  0
  -31.7847  -14.7676   20.0984 O   0  0  0  0  0  0
  -21.6634   -6.8879   21.4233 O   0  0  0  0  0  0
  -22.3554  -14.5540   20.6714 O   0  0  0  0  0  0
  -24.6228  -31.8619   23.2040 C   0  0  0  0  0  0
  -25.9094  -32.4778   23.8353 C   0  0  1  0  0  0
  -27.2185  -27.3348   20.1075 C   0  0  0  0  0  0
  -25.5933  -33.8579   24.2273 N   0  0  0  0  0  0
  -23.4140  -30.4871   21.5476 C   0  0  2  0  0  0
  -24.8569  -28.9418   20.1138 C   0  0  0  0  0  0
  -22.7445  -29.4630   22.4952 C   0  0  0  0  0  0
  -18.0292  -28.1383   22.8467 C   0  0  0  0  0  0
  -24.1490  -36.7278   23.2634 C   0  0  0  0  0  0
  -25.9539  -30.7927   21.3747 C   0  0  0  0  0  0
  -26.0253  -29.4217   20.7185 C   0  0  0  0  0  0
  -27.2096  -28.6288   20.7081 C   0  0  0  0  0  0
  -26.0314  -26.9111   19.4672 C   0  0  0  0  0  0
  -24.8590  -27.6894   19.4824 C   0  0  0  0  0  0
  -23.6258  -29.8239   20.1624 C   0  0  0  0  0  0
  -25.4117  -36.3066   24.0318 C   0  0  1  0  0  0
  -20.5880  -28.3669   23.1287 C   0  0  2  0  0  0
  -20.6771  -26.9401   22.5404 C   0  0  0  0  0  0
  -19.5753  -26.6386   21.5190 C   0  0  0  0  0  0
  -18.1934  -26.7926   22.1610 C   0  0  0  0  0  0
  -19.1541  -28.8845   23.2868 C   0  0  0  0  0  0
  -18.9476  -30.1454   23.8875 C   0  0  0  0  0  0
  -17.6478  -30.6582   24.0567 C   0  0  0  0  0  0
  -25.9057  -34.9442   23.5090 C   0  0  0  0  0  0
  -16.5362  -29.9082   23.6346 C   0  0  0  0  0  0
  -16.7284  -28.6507   23.0346 C   0  0  0  0  0  0
  -26.4480  -31.6595   25.0727 C   0  0  0  0  0  0
  -25.3720  -31.3751   26.1471 C   0  0  0  0  0  0
  -27.0331  -30.3027   24.6173 C   0  0  0  0  0  0
  -27.6051  -32.4321   25.7499 C   0  0  0  0  0  0
  -27.5577  -37.1789   24.8458 C   0  0  0  0  0  0
  -21.4166  -29.3030   22.3687 N   0  0  0  0  0  0
  -26.4279  -37.3776   23.9417 N   0  0  0  0  0  0
  -24.6823  -31.0645   22.0984 N   0  0  0  0  0  0
  -23.4184  -28.8177   23.3026 O   0  0  0  0  0  0
  -28.3457  -26.5036   20.1218 O   0  0  0  0  0  0
  -26.5624  -34.8911   22.4653 O   0  0  0  0  0  0
  -23.5400  -32.1426   23.7375 O   0  0  0  0  0  0
  -30.8681  -19.1732   19.9724 C   0  0  0  0  0  0
  -30.9605  -17.7749   20.2034 C   0  0  0  0  0  0
  -28.6368  -19.2258   20.8867 C   0  0  0  0  0  0
  -29.7072  -19.9517   20.2631 C   0  0  0  0  0  0
  -29.8878  -17.0542   20.7729 C   0  0  0  0  0  0
  -28.7441  -17.8112   21.1469 C   0  0  0  0  0  0
  -29.2309  -23.9292   18.3788 C   0  0  0  0  0  0
  -29.5486  -22.5918   17.7137 C   0  0  0  0  0  0
  -30.3860  -21.6849   18.6236 C   0  0  0  0  0  0
  -28.9316  -22.4912   20.5008 C   0  0  0  0  0  0
  -29.1721  -23.9667   19.9172 C   0  0  2  0  0  0
  -27.3266  -19.9378   21.2145 C   0  0  0  0  0  0
  -28.1400  -25.0683   20.4273 C   0  0  0  0  0  0
  -29.6741  -21.3496   19.8612 N   0  0  0  0  0  0
  -27.6975  -17.1286   21.7786 N   0  0  0  0  0  0
  -29.8705  -15.6160   21.0026 N   0  0  0  0  0  0
  -29.0537  -24.9376   17.6870 O   0  0  0  0  0  0
  -31.4801  -12.4848   19.1523 H   0  0  0  0  0  0
  -30.3560  -11.3654   19.8720 H   0  0  0  0  0  0
  -29.7703  -11.7791   17.4630 H   0  0  0  0  0  0
  -29.6598  -13.4944   17.7637 H   0  0  0  0  0  0
  -27.8617  -11.3004   18.8524 H   0  0  0  0  0  0
  -27.3789  -12.6001   17.7934 H   0  0  0  0  0  0
  -27.6870  -14.2537   19.5429 H   0  0  0  0  0  0
  -28.6993  -12.0201   21.3754 H   0  0  0  0  0  0
  -28.4422  -13.6669   21.8586 H   0  0  0  0  0  0
  -25.2768   -9.5685   22.4737 H   0  0  0  0  0  0
  -24.0014   -7.4633   22.7451 H   0  0  0  0  0  0
  -21.0849   -8.8785   19.8941 H   0  0  0  0  0  0
  -22.3707  -10.9680   19.6153 H   0  0  0  0  0  0
  -21.2011   -7.6140   23.9715 H   0  0  0  0  0  0
  -21.1472   -6.0499   25.9070 H   0  0  0  0  0  0
  -22.0609   -2.7607   23.2818 H   0  0  0  0  0  0
  -22.4114  -11.9901   22.4819 H   0  0  0  0  0  0
  -21.1109  -13.1266   22.2632 H   0  0  0  0  0  0
  -24.6236  -15.8073   20.4468 H   0  0  0  0  0  0
  -26.1990  -15.5929   19.8825 H   0  0  0  0  0  0
  -26.7150  -32.5439   23.1090 H   0  0  0  0  0  0
  -25.0104  -33.9733   25.0431 H   0  0  0  0  0  0
  -22.7053  -31.3066   21.4106 H   0  0  0  0  0  0
  -23.3751  -35.9609   23.3292 H   0  0  0  0  0  0
  -24.3584  -36.8906   22.2049 H   0  0  0  0  0  0
  -23.7247  -37.6475   23.6671 H   0  0  0  0  0  0
  -26.0895  -31.5554   20.6069 H   0  0  0  0  0  0
  -26.8314  -30.8351   22.0071 H   0  0  0  0  0  0
  -28.1059  -28.9928   21.1898 H   0  0  0  0  0  0
  -25.9897  -25.9722   18.9346 H   0  0  0  0  0  0
  -23.9655  -27.3211   18.9960 H   0  0  0  0  0  0
  -23.7458  -30.6015   19.4067 H   0  0  0  0  0  0
  -22.7421  -29.2575   19.8629 H   0  0  0  0  0  0
  -25.1301  -36.1891   25.0808 H   0  0  0  0  0  0
  -20.9988  -28.3235   24.1400 H   0  0  0  0  0  0
  -20.5658  -26.2280   23.3594 H   0  0  0  0  0  0
  -21.6650  -26.7426   22.1225 H   0  0  0  0  0  0
  -19.6916  -25.6293   21.1236 H   0  0  0  0  0  0
  -19.6702  -27.3177   20.6703 H   0  0  0  0  0  0
  -17.4212  -26.6660   21.4010 H   0  0  0  0  0  0
  -18.0346  -26.0070   22.9016 H   0  0  0  0  0  0
  -19.7955  -30.7273   24.2221 H   0  0  0  0  0  0
  -17.5046  -31.6264   24.5173 H   0  0  0  0  0  0
  -15.5366  -30.2987   23.7689 H   0  0  0  0  0  0
  -15.8682  -28.0841   22.7051 H   0  0  0  0  0  0
  -24.5872  -30.7107   25.7836 H   0  0  0  0  0  0
  -24.8923  -32.2923   26.4901 H   0  0  0  0  0  0
  -25.8049  -30.8949   27.0254 H   0  0  0  0  0  0
  -26.2910  -29.6772   24.1197 H   0  0  0  0  0  0
  -27.4053  -29.7284   25.4668 H   0  0  0  0  0  0
  -27.8767  -30.4346   23.9390 H   0  0  0  0  0  0
  -27.2685  -33.3633   26.2077 H   0  0  0  0  0  0
  -28.3872  -32.6862   25.0329 H   0  0  0  0  0  0
  -28.0708  -31.8438   26.5418 H   0  0  0  0  0  0
  -28.2583  -38.0102   24.7535 H   0  0  0  0  0  0
  -28.1086  -36.2634   24.6246 H   0  0  0  0  0  0
  -27.2302  -37.1390   25.8862 H   0  0  0  0  0  0
  -20.9321  -29.8762   21.6915 H   0  0  0  0  0  0
  -26.0139  -38.2833   24.1458 H   0  0  0  0  0  0
  -31.7371  -19.6387   19.5311 H   0  0  0  0  0  0
  -31.8729  -17.2685   19.9269 H   0  0  0  0  0  0
  -30.0837  -22.7772   16.7815 H   0  0  0  0  0  0
  -28.6107  -22.0999   17.4514 H   0  0  0  0  0  0
  -31.3275  -22.1752   18.8795 H   0  0  0  0  0  0
  -30.6427  -20.7973   18.0434 H   0  0  0  0  0  0
  -27.8620  -22.3108   20.4162 H   0  0  0  0  0  0
  -29.1648  -22.4947   21.5670 H   0  0  0  0  0  0
  -30.1650  -24.2841   20.2365 H   0  0  0  0  0  0
  -26.8896  -20.3326   20.2970 H   0  0  0  0  0  0
  -27.5012  -20.7495   21.9171 H   0  0  0  0  0  0
  -26.5647  -19.3104   21.6712 H   0  0  0  0  0  0
  -28.1179  -25.0130   21.5160 H   0  0  0  0  0  0
  -27.1541  -24.7184   20.1298 H   0  0  0  0  0  0
  -26.8579  -17.6629   21.9675 H   0  0  0  0  0  0
  -27.4612  -16.1902   21.4851 H   0  0  0  0  0  0
  -29.0110  -15.3049   21.4237 H   0  0  0  0  0  0
  1 25  1  0  0  0
  1 30  2  0  0  0
  1 86  1  0  0  0
  2  3  1  0  0  0
  2 25  1  0  0  0
  2 88  1  0  0  0
  2 89  1  0  0  0
  3  4  1  0  0  0
  3 90  1  0  0  0
  3 91  1  0  0  0
  4  5  1  0  0  0
  4 92  1  0  0  0
  4 93  1  0  0  0
  5  6  1  0  0  0
  5 26  1  0  0  0
  5 94  1  0  0  0
  6 25  1  0  0  0
  6 95  1  0  0  0
  6 96  1  0  0  0
  7  8  2  0  0  0
  7 26  1  0  0  0
  7 29  1  0  0  0
  8  9  1  0  0  0
  8 22  1  0  0  0
  9 10  1  0  0  0
  9 27  2  0  0  0
 10 11  2  0  0  0
 10 15  1  0  0  0
 11 12  1  0  0  0
 11 97  1  0  0  0
 12 13  2  0  0  0
 12 98  1  0  0  0
 13 14  1  0  0  0
 13 31  1  0  0  0
 14 15  2  0  0  0
 14 99  1  0  0  0
 15100  1  0  0  0
 16 17  2  0  0  0
 16 21  1  0  0  0
 16 31  1  0  0  0
 17 18  1  0  0  0
 17101  1  0  0  0
 18 19  2  0  0  0
 18102  1  0  0  0
 19 20  1  0  0  0
 19 24  1  0  0  0
 20 21  2  0  0  0
 20103  1  0  0  0
 21 23  1  0  0  0
 22 28  1  0  0  0
 22 32  2  0  0  0
 26 27  1  0  0  0
 28104  1  0  0  0
 28105  1  0  0  0
 29106  1  0  0  0
 29107  1  0  0  0
 33 34  1  0  0  0
 33 66  1  0  0  0
 33 70  2  0  0  0
 34 36  1  0  0  0
 34 59  1  0  0  0
 34108  1  0  0  0
 35 44  2  0  0  0
 35 45  1  0  0  0
 35 68  1  0  0  0
 36 56  1  0  0  0
 36109  1  0  0  0
 37 39  1  0  0  0
 37 47  1  0  0  0
 37 66  1  0  0  0
 37110  1  0  0  0
 38 43  2  0  0  0
 38 46  1  0  0  0
 38 47  1  0  0  0
 39 64  1  0  0  0
 39 67  2  0  0  0
 40 52  1  0  0  0
 40 53  2  0  0  0
 40 58  1  0  0  0
 41111  1  0  0  0
 41112  1  0  0  0
 41113  1  0  0  0
 41 48  1  0  0  0
 42 43  1  0  0  0
 42 66  1  0  0  0
 42114  1  0  0  0
 42115  1  0  0  0
 43 44  1  0  0  0
 44116  1  0  0  0
 45 46  2  0  0  0
 45117  1  0  0  0
 46118  1  0  0  0
 47119  1  0  0  0
 47120  1  0  0  0
 48 56  1  0  0  0
 48 65  1  0  0  0
 48121  1  0  0  0
 49 50  1  0  0  0
 49 53  1  0  0  0
 49 64  1  0  0  0
 49122  1  0  0  0
 50 51  1  0  0  0
 50123  1  0  0  0
 50124  1  0  0  0
 51 52  1  0  0  0
 51125  1  0  0  0
 51126  1  0  0  0
 52127  1  0  0  0
 52128  1  0  0  0
 53 54  1  0  0  0
 54 55  2  0  0  0
 54129  1  0  0  0
 55 57  1  0  0  0
 55130  1  0  0  0
 56 69  2  0  0  0
 57 58  2  0  0  0
 57131  1  0  0  0
 58132  1  0  0  0
 59 60  1  0  0  0
 59 61  1  0  0  0
 59 62  1  0  0  0
 60133  1  0  0  0
 60134  1  0  0  0
 60135  1  0  0  0
 61136  1  0  0  0
 61137  1  0  0  0
 61138  1  0  0  0
 62139  1  0  0  0
 62140  1  0  0  0
 62141  1  0  0  0
 63 65  1  0  0  0
 63142  1  0  0  0
 63143  1  0  0  0
 63144  1  0  0  0
 64145  1  0  0  0
 65146  1  0  0  0
 68 83  1  0  0  0
 71 72  2  0  0  0
 71 74  1  0  0  0
 71147  1  0  0  0
 72 75  1  0  0  0
 72148  1  0  0  0
 73 74  2  0  0  0
 73 76  1  0  0  0
 73 82  1  0  0  0
 74 84  1  0  0  0
 75 76  2  0  0  0
 75 86  1  0  0  0
 76 85  1  0  0  0
 77 78  1  0  0  0
 77 81  1  0  0  0
 77 87  2  0  0  0
 78 79  1  0  0  0
 78149  1  0  0  0
 78150  1  0  0  0
 79 84  1  0  0  0
 79151  1  0  0  0
 79152  1  0  0  0
 80 81  1  0  0  0
 80 84  1  0  0  0
 80153  1  0  0  0
 80154  1  0  0  0
 81 83  1  0  0  0
 81155  1  0  0  0
 82156  1  0  0  0
 82157  1  0  0  0
 82158  1  0  0  0
 83159  1  0  0  0
 83160  1  0  0  0
 85161  1  0  0  0
 85162  1  0  0  0
 86163  1  0  0  0
M  ISO  4   1 100  68 101  83 101  86 100
M  END
> <chiral flag>
0

> <version>
0

> <s_m_source_file>
/data/baiqing/PycharmProjects/Reinvent-master-3.2/result/LINK_invent/BTK/process_docking_weight1_custom_product_contain_oxygen_bond_distance_aromatic_linkinvent_7_9_3/rearranged_h_0099.sdf

> <i_m_source_file_index>
10

> <r_mmod_Potential_Energy-OPLS-2005>
-54.9228363037109

> <r_mmod_Stretch_Energy-OPLS-2005>
83.6068954467773

> <r_mmod_Bend_Energy-OPLS-2005>
157.675384521484

> <r_mmod_Torsional_Energy-OPLS-2005>
219.966049194336

> <r_mmod_Improper_Torsional_Energy-OPLS-2005>
8.91227245330811

> <r_mmod_Van_der_Waal_Energy-OPLS-2005>
175.292999267578

> <r_mmod_Electrostatic_Energy-OPLS-2005>
-500.157989501953

> <r_mmod_Solvation_Energy-OPLS-2005>
-237.345092773438

> <b_mmod_Minimization_Converged-OPLS-2005>
0

> <r_mmod_RMS_Derivative-OPLS-2005>
2.13992500305176

$$$$
10
                    3D
 Structure written by MMmdl.
151159  0  0  1  0            999 V2000
  -30.6241  -14.6327   20.4986 C   0  0  0  0  0  0
  -30.4402  -12.3865   19.4524 C   0  0  0  0  0  0
  -29.5079  -12.5007   18.2251 C   0  0  0  0  0  0
  -28.0306  -12.3420   18.6382 C   0  0  0  0  0  0
  -27.6548  -13.2149   19.8659 C   0  0  2  0  0  0
  -28.7002  -13.0643   20.9947 C   0  0  0  0  0  0
  -25.2560  -13.8163   20.5694 C   0  0  0  0  0  0
  -24.1819  -13.0429   20.9175 C   0  0  0  0  0  0
  -24.6389  -11.6902   20.8727 C   0  0  0  0  0  0
  -23.9059  -10.4288   21.0398 C   0  0  0  0  0  0
  -24.3611   -9.4206   21.9178 C   0  0  0  0  0  0
  -23.6291   -8.2240   22.0751 C   0  0  0  0  0  0
  -22.4271   -8.0278   21.3543 C   0  0  0  0  0  0
  -21.9906   -9.0246   20.4645 C   0  0  0  0  0  0
  -22.7230  -10.2129   20.3050 C   0  0  0  0  0  0
  -21.6852   -6.0732   22.5283 C   0  0  0  0  0  0
  -21.4009   -6.5635   23.8212 C   0  0  0  0  0  0
  -21.3658   -5.6789   24.9177 C   0  0  0  0  0  0
  -21.6045   -4.3051   24.7225 C   0  0  0  0  0  0
  -21.8819   -3.8146   23.4344 C   0  0  0  0  0  0
  -21.9191   -4.6962   22.3404 C   0  0  0  0  0  0
  -22.7845  -13.5226   21.1853 C   0  0  0  0  0  0
  -22.1662   -4.2147   21.0981 F   0  0  0  0  0  0
  -21.5631   -3.4535   25.7733 F   0  0  0  0  0  0
  -30.0170  -13.4060   20.4325 N   0  0  0  0  0  0
  -26.2996  -12.9347   20.3341 N   0  0  0  0  0  0
  -25.9323  -11.6501   20.5765 N   0  0  0  0  0  0
  -22.0491  -12.8217   22.0412 N   0  0  0  0  0  0
  -25.4254  -15.1883   20.4157 N   0  0  0  0  0  0
  -31.7839  -14.7955   20.1087 O   0  0  0  0  0  0
  -21.6638   -6.8873   21.4242 O   0  0  0  0  0  0
  -22.3524  -14.5534   20.6710 O   0  0  0  0  0  0
  -24.6248  -31.8610   23.2042 C   0  0  0  0  0  0
  -25.9097  -32.4788   23.8367 C   0  0  1  0  0  0
  -27.2224  -27.3302   20.1192 C   0  0  0  0  0  0
  -25.5924  -33.8587   24.2293 N   0  0  0  0  0  0
  -23.4182  -30.4851   21.5462 C   0  0  2  0  0  0
  -24.8658  -28.9426   20.1118 C   0  0  0  0  0  0
  -22.7470  -29.4625   22.4938 C   0  0  0  0  0  0
  -18.0285  -28.1382   22.8493 C   0  0  0  0  0  0
  -24.1482  -36.7284   23.2638 C   0  0  0  0  0  0
  -25.9591  -30.7947   21.3750 C   0  0  0  0  0  0
  -26.0344  -29.4232   20.7177 C   0  0  0  0  0  0
  -27.2182  -28.6289   20.7116 C   0  0  0  0  0  0
  -26.0372  -26.9057   19.4781 C   0  0  0  0  0  0
  -24.8683  -27.6887   19.4827 C   0  0  0  0  0  0
  -23.6330  -29.8210   20.1613 C   0  0  0  0  0  0
  -25.4110  -36.3087   24.0334 C   0  0  1  0  0  0
  -20.5885  -28.3676   23.1285 C   0  0  2  0  0  0
  -20.6770  -26.9400   22.5410 C   0  0  0  0  0  0
  -19.5749  -26.6384   21.5210 C   0  0  0  0  0  0
  -18.1928  -26.7927   22.1624 C   0  0  0  0  0  0
  -19.1538  -28.8848   23.2885 C   0  0  0  0  0  0
  -18.9463  -30.1453   23.8895 C   0  0  0  0  0  0
  -17.6463  -30.6585   24.0564 C   0  0  0  0  0  0
  -25.9050  -34.9457   23.5117 C   0  0  0  0  0  0
  -16.5355  -29.9082   23.6338 C   0  0  0  0  0  0
  -16.7273  -28.6501   23.0359 C   0  0  0  0  0  0
  -26.4491  -31.6596   25.0729 C   0  0  0  0  0  0
  -25.3733  -31.3729   26.1461 C   0  0  0  0  0  0
  -27.0332  -30.3023   24.6160 C   0  0  0  0  0  0
  -27.6062  -32.4322   25.7491 C   0  0  0  0  0  0
  -27.5584  -37.1792   24.8464 C   0  0  0  0  0  0
  -21.4184  -29.3034   22.3683 N   0  0  0  0  0  0
  -26.4287  -37.3785   23.9422 N   0  0  0  0  0  0
  -24.6862  -31.0632   22.0989 N   0  0  0  0  0  0
  -23.4202  -28.8155   23.3003 O   0  0  0  0  0  0
  -28.3279  -26.4717   20.1513 O   0  0  0  0  0  0
  -26.5610  -34.8921   22.4674 O   0  0  0  0  0  0
  -23.5413  -32.1399   23.7379 O   0  0  0  0  0  0
  -30.9260  -19.2528   19.9466 C   0  0  0  0  0  0
  -30.9741  -17.8358   20.1076 C   0  0  0  0  0  0
  -28.7254  -19.3177   20.9122 C   0  0  0  0  0  0
  -29.8077  -20.0363   20.3417 C   0  0  0  0  0  0
  -29.8890  -17.1198   20.6770 C   0  0  0  0  0  0
  -28.7681  -17.8994   21.0712 C   0  0  0  0  0  0
  -29.0830  -23.9691   20.1713 C   0  0  0  0  0  0
  -28.7915  -22.4558   20.5374 C   0  0  0  0  0  0
  -28.0422  -25.0799   20.5774 C   0  0  0  0  0  0
  -29.8183  -15.6723   20.8714 N   0  0  0  0  0  0
  -29.8334  -21.4568   20.1425 N   0  0  0  0  0  0
  -30.1231  -24.2629   19.5704 O   0  0  0  0  0  0
  -27.6986  -17.2638   21.6099 F   0  0  0  0  0  0
  -31.4810  -12.5125   19.1483 H   0  0  0  0  0  0
  -30.3779  -11.3904   19.8931 H   0  0  0  0  0  0
  -29.7707  -11.7465   17.4821 H   0  0  0  0  0  0
  -29.6513  -13.4684   17.7415 H   0  0  0  0  0  0
  -27.8668  -11.2893   18.8720 H   0  0  0  0  0  0
  -27.3751  -12.5695   17.7965 H   0  0  0  0  0  0
  -27.6740  -14.2502   19.5255 H   0  0  0  0  0  0
  -28.7109  -12.0404   21.3715 H   0  0  0  0  0  0
  -28.4466  -13.6911   21.8509 H   0  0  0  0  0  0
  -25.2757   -9.5683   22.4751 H   0  0  0  0  0  0
  -24.0002   -7.4627   22.7469 H   0  0  0  0  0  0
  -21.0838   -8.8759   19.8950 H   0  0  0  0  0  0
  -22.3685  -10.9663   19.6153 H   0  0  0  0  0  0
  -21.1996   -7.6141   23.9716 H   0  0  0  0  0  0
  -21.1483   -6.0517   25.9079 H   0  0  0  0  0  0
  -22.0598   -2.7609   23.2844 H   0  0  0  0  0  0
  -22.4106  -11.9872   22.4787 H   0  0  0  0  0  0
  -21.1112  -13.1247   22.2632 H   0  0  0  0  0  0
  -24.6654  -15.8425   20.5648 H   0  0  0  0  0  0
  -26.2978  -15.6470   20.1861 H   0  0  0  0  0  0
  -26.7160  -32.5462   23.1115 H   0  0  0  0  0  0
  -25.0100  -33.9732   25.0460 H   0  0  0  0  0  0
  -22.7118  -31.3059   21.4045 H   0  0  0  0  0  0
  -23.3762  -35.9597   23.3292 H   0  0  0  0  0  0
  -24.3583  -36.8910   22.2055 H   0  0  0  0  0  0
  -23.7212  -37.6476   23.6656 H   0  0  0  0  0  0
  -26.0915  -31.5591   20.6079 H   0  0  0  0  0  0
  -26.8398  -30.8424   22.0038 H   0  0  0  0  0  0
  -28.1150  -28.9925   21.1946 H   0  0  0  0  0  0
  -25.9988  -25.9565   18.9640 H   0  0  0  0  0  0
  -23.9759  -27.3205   18.9955 H   0  0  0  0  0  0
  -23.7502  -30.5975   19.4045 H   0  0  0  0  0  0
  -22.7535  -29.2487   19.8599 H   0  0  0  0  0  0
  -25.1290  -36.1942   25.0827 H   0  0  0  0  0  0
  -20.9985  -28.3241   24.1402 H   0  0  0  0  0  0
  -20.5671  -26.2281   23.3606 H   0  0  0  0  0  0
  -21.6640  -26.7429   22.1201 H   0  0  0  0  0  0
  -19.6903  -25.6295   21.1238 H   0  0  0  0  0  0
  -19.6688  -27.3198   20.6742 H   0  0  0  0  0  0
  -17.4202  -26.6684   21.4023 H   0  0  0  0  0  0
  -18.0325  -26.0068   22.9020 H   0  0  0  0  0  0
  -19.7938  -30.7274   24.2256 H   0  0  0  0  0  0
  -17.5019  -31.6267   24.5161 H   0  0  0  0  0  0
  -15.5354  -30.2985   23.7661 H   0  0  0  0  0  0
  -15.8677  -28.0822   22.7069 H   0  0  0  0  0  0
  -24.5895  -30.7091   25.7796 H   0  0  0  0  0  0
  -24.8933  -32.2895   26.4901 H   0  0  0  0  0  0
  -25.8065  -30.8900   27.0229 H   0  0  0  0  0  0
  -26.2895  -29.6776   24.1200 H   0  0  0  0  0  0
  -27.4065  -29.7275   25.4643 H   0  0  0  0  0  0
  -27.8750  -30.4333   23.9359 H   0  0  0  0  0  0
  -27.2690  -33.3636   26.2057 H   0  0  0  0  0  0
  -28.3874  -32.6865   25.0315 H   0  0  0  0  0  0
  -28.0722  -31.8449   26.5415 H   0  0  0  0  0  0
  -28.2589  -38.0105   24.7551 H   0  0  0  0  0  0
  -28.1096  -36.2640   24.6243 H   0  0  0  0  0  0
  -27.2310  -37.1382   25.8868 H   0  0  0  0  0  0
  -20.9353  -29.8766   21.6909 H   0  0  0  0  0  0
  -26.0171  -38.2856   24.1448 H   0  0  0  0  0  0
  -31.7828  -19.7397   19.5013 H   0  0  0  0  0  0
  -31.8593  -17.3125   19.7795 H   0  0  0  0  0  0
  -27.8389  -19.8433   21.2323 H   0  0  0  0  0  0
  -27.8423  -22.1795   20.0766 H   0  0  0  0  0  0
  -28.6394  -22.3981   21.6155 H   0  0  0  0  0  0
  -27.9735  -25.0777   21.6651 H   0  0  0  0  0  0
  -27.0740  -24.7339   20.2225 H   0  0  0  0  0  0
  -28.9258  -15.3686   21.2317 H   0  0  0  0  0  0
  -30.6544  -21.8726   19.7053 H   0  0  0  0  0  0
  1 25  1  0  0  0
  1 30  2  0  0  0
  1 80  1  0  0  0
  2  3  1  0  0  0
  2 25  1  0  0  0
  2 84  1  0  0  0
  2 85  1  0  0  0
  3  4  1  0  0  0
  3 86  1  0  0  0
  3 87  1  0  0  0
  4  5  1  0  0  0
  4 88  1  0  0  0
  4 89  1  0  0  0
  5  6  1  0  0  0
  5 26  1  0  0  0
  5 90  1  0  0  0
  6 25  1  0  0  0
  6 91  1  0  0  0
  6 92  1  0  0  0
  7  8  2  0  0  0
  7 26  1  0  0  0
  7 29  1  0  0  0
  8  9  1  0  0  0
  8 22  1  0  0  0
  9 10  1  0  0  0
  9 27  2  0  0  0
 10 11  2  0  0  0
 10 15  1  0  0  0
 11 12  1  0  0  0
 11 93  1  0  0  0
 12 13  2  0  0  0
 12 94  1  0  0  0
 13 14  1  0  0  0
 13 31  1  0  0  0
 14 15  2  0  0  0
 14 95  1  0  0  0
 15 96  1  0  0  0
 16 17  2  0  0  0
 16 21  1  0  0  0
 16 31  1  0  0  0
 17 18  1  0  0  0
 17 97  1  0  0  0
 18 19  2  0  0  0
 18 98  1  0  0  0
 19 20  1  0  0  0
 19 24  1  0  0  0
 20 21  2  0  0  0
 20 99  1  0  0  0
 21 23  1  0  0  0
 22 28  1  0  0  0
 22 32  2  0  0  0
 26 27  1  0  0  0
 28100  1  0  0  0
 28101  1  0  0  0
 29102  1  0  0  0
 29103  1  0  0  0
 33 34  1  0  0  0
 33 66  1  0  0  0
 33 70  2  0  0  0
 34 36  1  0  0  0
 34 59  1  0  0  0
 34104  1  0  0  0
 35 44  2  0  0  0
 35 45  1  0  0  0
 35 68  1  0  0  0
 36 56  1  0  0  0
 36105  1  0  0  0
 37 39  1  0  0  0
 37 47  1  0  0  0
 37 66  1  0  0  0
 37106  1  0  0  0
 38 43  2  0  0  0
 38 46  1  0  0  0
 38 47  1  0  0  0
 39 64  1  0  0  0
 39 67  2  0  0  0
 40 52  1  0  0  0
 40 53  2  0  0  0
 40 58  1  0  0  0
 41107  1  0  0  0
 41108  1  0  0  0
 41109  1  0  0  0
 41 48  1  0  0  0
 42 43  1  0  0  0
 42 66  1  0  0  0
 42110  1  0  0  0
 42111  1  0  0  0
 43 44  1  0  0  0
 44112  1  0  0  0
 45 46  2  0  0  0
 45113  1  0  0  0
 46114  1  0  0  0
 47115  1  0  0  0
 47116  1  0  0  0
 48 56  1  0  0  0
 48 65  1  0  0  0
 48117  1  0  0  0
 49 50  1  0  0  0
 49 53  1  0  0  0
 49 64  1  0  0  0
 49118  1  0  0  0
 50 51  1  0  0  0
 50119  1  0  0  0
 50120  1  0  0  0
 51 52  1  0  0  0
 51121  1  0  0  0
 51122  1  0  0  0
 52123  1  0  0  0
 52124  1  0  0  0
 53 54  1  0  0  0
 54 55  2  0  0  0
 54125  1  0  0  0
 55 57  1  0  0  0
 55126  1  0  0  0
 56 69  2  0  0  0
 57 58  2  0  0  0
 57127  1  0  0  0
 58128  1  0  0  0
 59 60  1  0  0  0
 59 61  1  0  0  0
 59 62  1  0  0  0
 60129  1  0  0  0
 60130  1  0  0  0
 60131  1  0  0  0
 61132  1  0  0  0
 61133  1  0  0  0
 61134  1  0  0  0
 62135  1  0  0  0
 62136  1  0  0  0
 62137  1  0  0  0
 63 65  1  0  0  0
 63138  1  0  0  0
 63139  1  0  0  0
 63140  1  0  0  0
 64141  1  0  0  0
 65142  1  0  0  0
 68 79  1  0  0  0
 71 72  2  0  0  0
 71 74  1  0  0  0
 71143  1  0  0  0
 72 75  1  0  0  0
 72144  1  0  0  0
 73 74  2  0  0  0
 73 76  1  0  0  0
 73145  1  0  0  0
 74 81  1  0  0  0
 75 76  2  0  0  0
 75 80  1  0  0  0
 76 83  1  0  0  0
 77 78  1  0  0  0
 77 79  1  0  0  0
 77 82  2  0  0  0
 78 81  1  0  0  0
 78146  1  0  0  0
 78147  1  0  0  0
 79148  1  0  0  0
 79149  1  0  0  0
 80150  1  0  0  0
 81151  1  0  0  0
M  ISO  4   1 100  68 101  79 101  80 100
M  END
> <chiral flag>
0

> <version>
0

> <s_m_source_file>
/data/baiqing/PycharmProjects/Reinvent-master-3.2/result/LINK_invent/BTK/process_docking_weight1_custom_product_contain_oxygen_bond_distance_aromatic_linkinvent_7_9_3/rearranged_h_0099.sdf

> <i_m_source_file_index>
11

> <r_mmod_Potential_Energy-OPLS-2005>
20.3772125244141

> <r_mmod_Stretch_Energy-OPLS-2005>
73.2144393920898

> <r_mmod_Bend_Energy-OPLS-2005>
142.860565185547

> <r_mmod_Torsional_Energy-OPLS-2005>
212.474060058594

> <r_mmod_Improper_Torsional_Energy-OPLS-2005>
3.65446496009827

> <r_mmod_Van_der_Waal_Energy-OPLS-2005>
142.259384155273

> <r_mmod_Electrostatic_Energy-OPLS-2005>
-368.693511962891

> <r_mmod_Solvation_Energy-OPLS-2005>
-231.325531005859

> <b_mmod_Minimization_Converged-OPLS-2005>
0

> <r_mmod_RMS_Derivative-OPLS-2005>
0.897199690341949

$$$$
11
                    3D
 Structure written by MMmdl.
158167  0  0  1  0            999 V2000
  -30.6274  -14.6237   20.4944 C   0  0  0  0  0  0
  -30.4380  -12.3807   19.4454 C   0  0  0  0  0  0
  -29.5042  -12.5041   18.2204 C   0  0  0  0  0  0
  -28.0268  -12.3460   18.6341 C   0  0  0  0  0  0
  -27.6541  -13.2141   19.8656 C   0  0  2  0  0  0
  -28.7016  -13.0602   20.9918 C   0  0  0  0  0  0
  -25.2567  -13.8160   20.5702 C   0  0  0  0  0  0
  -24.1822  -13.0426   20.9160 C   0  0  0  0  0  0
  -24.6392  -11.6897   20.8722 C   0  0  0  0  0  0
  -23.9062  -10.4282   21.0395 C   0  0  0  0  0  0
  -24.3615   -9.4202   21.9178 C   0  0  0  0  0  0
  -23.6290   -8.2239   22.0750 C   0  0  0  0  0  0
  -22.4273   -8.0276   21.3541 C   0  0  0  0  0  0
  -21.9908   -9.0246   20.4641 C   0  0  0  0  0  0
  -22.7234  -10.2125   20.3047 C   0  0  0  0  0  0
  -21.6852   -6.0736   22.5278 C   0  0  0  0  0  0
  -21.4013   -6.5640   23.8211 C   0  0  0  0  0  0
  -21.3660   -5.6792   24.9172 C   0  0  0  0  0  0
  -21.6044   -4.3056   24.7222 C   0  0  0  0  0  0
  -21.8821   -3.8148   23.4344 C   0  0  0  0  0  0
  -21.9192   -4.6964   22.3401 C   0  0  0  0  0  0
  -22.7849  -13.5227   21.1839 C   0  0  0  0  0  0
  -22.1661   -4.2150   21.0978 F   0  0  0  0  0  0
  -21.5629   -3.4542   25.7739 F   0  0  0  0  0  0
  -30.0178  -13.3987   20.4270 N   0  0  0  0  0  0
  -26.3000  -12.9341   20.3354 N   0  0  0  0  0  0
  -25.9325  -11.6493   20.5766 N   0  0  0  0  0  0
  -22.0500  -12.8213   22.0400 N   0  0  0  0  0  0
  -25.4282  -15.1886   20.4205 N   0  0  0  0  0  0
  -31.7915  -14.7834   20.1168 O   0  0  0  0  0  0
  -21.6638   -6.8876   21.4240 O   0  0  0  0  0  0
  -22.3527  -14.5540   20.6707 O   0  0  0  0  0  0
  -24.6262  -31.8603   23.2044 C   0  0  0  0  0  0
  -25.9115  -32.4784   23.8366 C   0  0  1  0  0  0
  -27.2238  -27.3287   20.1095 C   0  0  0  0  0  0
  -25.5938  -33.8584   24.2294 N   0  0  0  0  0  0
  -23.4186  -30.4870   21.5456 C   0  0  2  0  0  0
  -24.8641  -28.9444   20.1111 C   0  0  0  0  0  0
  -22.7470  -29.4639   22.4925 C   0  0  0  0  0  0
  -18.0288  -28.1388   22.8477 C   0  0  0  0  0  0
  -24.1491  -36.7286   23.2636 C   0  0  0  0  0  0
  -25.9602  -30.7949   21.3735 C   0  0  0  0  0  0
  -26.0343  -29.4237   20.7133 C   0  0  0  0  0  0
  -27.2178  -28.6287   20.7007 C   0  0  0  0  0  0
  -26.0265  -26.8995   19.4888 C   0  0  0  0  0  0
  -24.8618  -27.6871   19.4911 C   0  0  0  0  0  0
  -23.6330  -29.8248   20.1599 C   0  0  0  0  0  0
  -25.4111  -36.3083   24.0337 C   0  0  1  0  0  0
  -20.5886  -28.3696   23.1270 C   0  0  2  0  0  0
  -20.6781  -26.9419   22.5394 C   0  0  0  0  0  0
  -19.5755  -26.6383   21.5202 C   0  0  0  0  0  0
  -18.1934  -26.7929   22.1615 C   0  0  0  0  0  0
  -19.1540  -28.8856   23.2875 C   0  0  0  0  0  0
  -18.9471  -30.1455   23.8898 C   0  0  0  0  0  0
  -17.6471  -30.6591   24.0561 C   0  0  0  0  0  0
  -25.9052  -34.9454   23.5111 C   0  0  0  0  0  0
  -16.5359  -29.9090   23.6331 C   0  0  0  0  0  0
  -16.7275  -28.6508   23.0346 C   0  0  0  0  0  0
  -26.4501  -31.6583   25.0726 C   0  0  0  0  0  0
  -25.3743  -31.3708   26.1458 C   0  0  0  0  0  0
  -27.0343  -30.3012   24.6165 C   0  0  0  0  0  0
  -27.6076  -32.4301   25.7490 C   0  0  0  0  0  0
  -27.5582  -37.1791   24.8463 C   0  0  0  0  0  0
  -21.4184  -29.3062   22.3677 N   0  0  0  0  0  0
  -26.4285  -37.3779   23.9423 N   0  0  0  0  0  0
  -24.6871  -31.0629   22.0985 N   0  0  0  0  0  0
  -23.4198  -28.8165   23.2990 O   0  0  0  0  0  0
  -28.3461  -26.4864   20.1492 O   0  0  0  0  0  0
  -26.5609  -34.8922   22.4671 O   0  0  0  0  0  0
  -23.5428  -32.1388   23.7386 O   0  0  0  0  0  0
  -31.1081  -19.2603   20.3327 C   0  0  0  0  0  0
  -31.0919  -17.8348   20.3473 C   0  0  0  0  0  0
  -28.7967  -19.3263   20.9969 C   0  0  0  0  0  0
  -29.9787  -20.0543   20.6989 C   0  0  0  0  0  0
  -29.9271  -17.1168   20.7189 C   0  0  0  0  0  0
  -28.7789  -17.8994   21.0151 C   0  0  0  0  0  0
  -31.0673  -22.0117   21.6608 C   0  0  0  0  0  0
  -31.2937  -23.5254   21.7883 C   0  0  0  0  0  0
  -30.0176  -24.3610   21.6767 C   0  0  0  0  0  0
  -28.9963  -22.4625   20.3696 C   0  0  0  0  0  0
  -29.3146  -24.0315   20.3659 C   0  0  1  0  0  0
  -28.1090  -25.0264   20.0964 C   0  0  0  0  0  0
  -30.0771  -21.5205   20.8554 N   0  0  0  0  0  0
  -29.8098  -15.6652   20.8302 N   0  0  0  0  0  0
  -31.8352  -21.2892   22.3068 O   0  0  0  0  0  0
  -27.6317  -17.2589   21.3462 F   0  0  0  0  0  0
  -31.4781  -12.5052   19.1402 H   0  0  0  0  0  0
  -30.3729  -11.3832   19.8829 H   0  0  0  0  0  0
  -29.7630  -11.7538   17.4723 H   0  0  0  0  0  0
  -29.6484  -13.4744   17.7419 H   0  0  0  0  0  0
  -27.8594  -11.2924   18.8612 H   0  0  0  0  0  0
  -27.3717  -12.5813   17.7942 H   0  0  0  0  0  0
  -27.6729  -14.2505   19.5278 H   0  0  0  0  0  0
  -28.7095  -12.0369   21.3694 H   0  0  0  0  0  0
  -28.4522  -13.6885   21.8484 H   0  0  0  0  0  0
  -25.2762   -9.5682   22.4748 H   0  0  0  0  0  0
  -24.0002   -7.4634   22.7470 H   0  0  0  0  0  0
  -21.0839   -8.8758   19.8949 H   0  0  0  0  0  0
  -22.3690  -10.9660   19.6152 H   0  0  0  0  0  0
  -21.2004   -7.6148   23.9715 H   0  0  0  0  0  0
  -21.1481   -6.0522   25.9074 H   0  0  0  0  0  0
  -22.0602   -2.7610   23.2844 H   0  0  0  0  0  0
  -22.4123  -11.9861   22.4762 H   0  0  0  0  0  0
  -21.1123  -13.1236   22.2630 H   0  0  0  0  0  0
  -24.6726  -15.8446   20.5821 H   0  0  0  0  0  0
  -26.3076  -15.6498   20.2255 H   0  0  0  0  0  0
  -26.7180  -32.5456   23.1109 H   0  0  0  0  0  0
  -25.0119  -33.9738   25.0465 H   0  0  0  0  0  0
  -22.7124  -31.3079   21.4044 H   0  0  0  0  0  0
  -23.3771  -35.9599   23.3274 H   0  0  0  0  0  0
  -24.3592  -36.8923   22.2055 H   0  0  0  0  0  0
  -23.7222  -37.6475   23.6667 H   0  0  0  0  0  0
  -26.0911  -31.5605   20.6075 H   0  0  0  0  0  0
  -26.8411  -30.8408   22.0021 H   0  0  0  0  0  0
  -28.1163  -28.9942   21.1782 H   0  0  0  0  0  0
  -25.9567  -25.9417   18.9977 H   0  0  0  0  0  0
  -23.9652  -27.3139   19.0157 H   0  0  0  0  0  0
  -23.7542  -30.6036   19.4059 H   0  0  0  0  0  0
  -22.7529  -29.2565   19.8545 H   0  0  0  0  0  0
  -25.1288  -36.1930   25.0829 H   0  0  0  0  0  0
  -20.9984  -28.3271   24.1387 H   0  0  0  0  0  0
  -20.5675  -26.2314   23.3599 H   0  0  0  0  0  0
  -21.6654  -26.7440   22.1193 H   0  0  0  0  0  0
  -19.6922  -25.6294   21.1239 H   0  0  0  0  0  0
  -19.6694  -27.3188   20.6729 H   0  0  0  0  0  0
  -17.4201  -26.6671   21.4023 H   0  0  0  0  0  0
  -18.0338  -26.0071   22.9012 H   0  0  0  0  0  0
  -19.7950  -30.7266   24.2273 H   0  0  0  0  0  0
  -17.5032  -31.6277   24.5153 H   0  0  0  0  0  0
  -15.5364  -30.2996   23.7665 H   0  0  0  0  0  0
  -15.8671  -28.0835   22.7056 H   0  0  0  0  0  0
  -24.5952  -30.7011   25.7797 H   0  0  0  0  0  0
  -24.8894  -32.2864   26.4861 H   0  0  0  0  0  0
  -25.8080  -30.8919   27.0247 H   0  0  0  0  0  0
  -26.2907  -29.6757   24.1210 H   0  0  0  0  0  0
  -27.4082  -29.7270   25.4653 H   0  0  0  0  0  0
  -27.8759  -30.4314   23.9356 H   0  0  0  0  0  0
  -27.2724  -33.3634   26.2027 H   0  0  0  0  0  0
  -28.3911  -32.6789   25.0319 H   0  0  0  0  0  0
  -28.0708  -31.8434   26.5435 H   0  0  0  0  0  0
  -28.2570  -38.0117   24.7555 H   0  0  0  0  0  0
  -28.1108  -36.2653   24.6227 H   0  0  0  0  0  0
  -27.2313  -37.1359   25.8868 H   0  0  0  0  0  0
  -20.9360  -29.8812   21.6911 H   0  0  0  0  0  0
  -26.0166  -38.2846   24.1457 H   0  0  0  0  0  0
  -32.0369  -19.7505   20.0757 H   0  0  0  0  0  0
  -31.9997  -17.3075   20.0926 H   0  0  0  0  0  0
  -27.8971  -19.8548   21.2759 H   0  0  0  0  0  0
  -31.9977  -23.8203   21.0089 H   0  0  0  0  0  0
  -31.7838  -23.7357   22.7396 H   0  0  0  0  0  0
  -30.2728  -25.4208   21.7160 H   0  0  0  0  0  0
  -29.3582  -24.1663   22.5240 H   0  0  0  0  0  0
  -28.7017  -22.1571   19.3654 H   0  0  0  0  0  0
  -28.1223  -22.2912   20.9991 H   0  0  0  0  0  0
  -30.0307  -24.2105   19.5622 H   0  0  0  0  0  0
  -27.3139  -24.7882   20.8051 H   0  0  0  0  0  0
  -27.7295  -24.7735   19.1067 H   0  0  0  0  0  0
  -28.8924  -15.3664   21.1237 H   0  0  0  0  0  0
  1 25  1  0  0  0
  1 30  2  0  0  0
  1 84  1  0  0  0
  2  3  1  0  0  0
  2 25  1  0  0  0
  2 87  1  0  0  0
  2 88  1  0  0  0
  3  4  1  0  0  0
  3 89  1  0  0  0
  3 90  1  0  0  0
  4  5  1  0  0  0
  4 91  1  0  0  0
  4 92  1  0  0  0
  5  6  1  0  0  0
  5 26  1  0  0  0
  5 93  1  0  0  0
  6 25  1  0  0  0
  6 94  1  0  0  0
  6 95  1  0  0  0
  7  8  2  0  0  0
  7 26  1  0  0  0
  7 29  1  0  0  0
  8  9  1  0  0  0
  8 22  1  0  0  0
  9 10  1  0  0  0
  9 27  2  0  0  0
 10 11  2  0  0  0
 10 15  1  0  0  0
 11 12  1  0  0  0
 11 96  1  0  0  0
 12 13  2  0  0  0
 12 97  1  0  0  0
 13 14  1  0  0  0
 13 31  1  0  0  0
 14 15  2  0  0  0
 14 98  1  0  0  0
 15 99  1  0  0  0
 16 17  2  0  0  0
 16 21  1  0  0  0
 16 31  1  0  0  0
 17 18  1  0  0  0
 17100  1  0  0  0
 18 19  2  0  0  0
 18101  1  0  0  0
 19 20  1  0  0  0
 19 24  1  0  0  0
 20 21  2  0  0  0
 20102  1  0  0  0
 21 23  1  0  0  0
 22 28  1  0  0  0
 22 32  2  0  0  0
 26 27  1  0  0  0
 28103  1  0  0  0
 28104  1  0  0  0
 29105  1  0  0  0
 29106  1  0  0  0
 33 34  1  0  0  0
 33 66  1  0  0  0
 33 70  2  0  0  0
 34 36  1  0  0  0
 34 59  1  0  0  0
 34107  1  0  0  0
 35 44  2  0  0  0
 35 45  1  0  0  0
 35 68  1  0  0  0
 36 56  1  0  0  0
 36108  1  0  0  0
 37 39  1  0  0  0
 37 47  1  0  0  0
 37 66  1  0  0  0
 37109  1  0  0  0
 38 43  2  0  0  0
 38 46  1  0  0  0
 38 47  1  0  0  0
 39 64  1  0  0  0
 39 67  2  0  0  0
 40 52  1  0  0  0
 40 53  2  0  0  0
 40 58  1  0  0  0
 41110  1  0  0  0
 41111  1  0  0  0
 41112  1  0  0  0
 41 48  1  0  0  0
 42 43  1  0  0  0
 42 66  1  0  0  0
 42113  1  0  0  0
 42114  1  0  0  0
 43 44  1  0  0  0
 44115  1  0  0  0
 45 46  2  0  0  0
 45116  1  0  0  0
 46117  1  0  0  0
 47118  1  0  0  0
 47119  1  0  0  0
 48 56  1  0  0  0
 48 65  1  0  0  0
 48120  1  0  0  0
 49 50  1  0  0  0
 49 53  1  0  0  0
 49 64  1  0  0  0
 49121  1  0  0  0
 50 51  1  0  0  0
 50122  1  0  0  0
 50123  1  0  0  0
 51 52  1  0  0  0
 51124  1  0  0  0
 51125  1  0  0  0
 52126  1  0  0  0
 52127  1  0  0  0
 53 54  1  0  0  0
 54 55  2  0  0  0
 54128  1  0  0  0
 55 57  1  0  0  0
 55129  1  0  0  0
 56 69  2  0  0  0
 57 58  2  0  0  0
 57130  1  0  0  0
 58131  1  0  0  0
 59 60  1  0  0  0
 59 61  1  0  0  0
 59 62  1  0  0  0
 60132  1  0  0  0
 60133  1  0  0  0
 60134  1  0  0  0
 61135  1  0  0  0
 61136  1  0  0  0
 61137  1  0  0  0
 62138  1  0  0  0
 62139  1  0  0  0
 62140  1  0  0  0
 63 65  1  0  0  0
 63141  1  0  0  0
 63142  1  0  0  0
 63143  1  0  0  0
 64144  1  0  0  0
 65145  1  0  0  0
 68 82  1  0  0  0
 71 72  2  0  0  0
 71 74  1  0  0  0
 71146  1  0  0  0
 72 75  1  0  0  0
 72147  1  0  0  0
 73 74  2  0  0  0
 73 76  1  0  0  0
 73148  1  0  0  0
 74 83  1  0  0  0
 75 76  2  0  0  0
 75 84  1  0  0  0
 76 86  1  0  0  0
 77 78  1  0  0  0
 77 83  1  0  0  0
 77 85  2  0  0  0
 78 79  1  0  0  0
 78149  1  0  0  0
 78150  1  0  0  0
 79 81  1  0  0  0
 79151  1  0  0  0
 79152  1  0  0  0
 80 81  1  0  0  0
 80 83  1  0  0  0
 80153  1  0  0  0
 80154  1  0  0  0
 81 82  1  0  0  0
 81155  1  0  0  0
 82156  1  0  0  0
 82157  1  0  0  0
 84158  1  0  0  0
M  ISO  4   1 100  68 101  82 101  84 100
M  END
> <chiral flag>
0

> <version>
0

> <s_m_source_file>
/data/baiqing/PycharmProjects/Reinvent-master-3.2/result/LINK_invent/BTK/process_docking_weight1_custom_product_contain_oxygen_bond_distance_aromatic_linkinvent_7_9_3/rearranged_h_0099.sdf

> <i_m_source_file_index>
12

> <r_mmod_Potential_Energy-OPLS-2005>
107.240104675293

> <r_mmod_Stretch_Energy-OPLS-2005>
82.9357223510742

> <r_mmod_Bend_Energy-OPLS-2005>
137.735961914062

> <r_mmod_Torsional_Energy-OPLS-2005>
273.721435546875

> <r_mmod_Improper_Torsional_Energy-OPLS-2005>
4.68192100524902

> <r_mmod_Van_der_Waal_Energy-OPLS-2005>
159.299835205078

> <r_mmod_Electrostatic_Energy-OPLS-2005>
-382.914001464844

> <r_mmod_Solvation_Energy-OPLS-2005>
-212.034591674805

> <b_mmod_Minimization_Converged-OPLS-2005>
0

> <r_mmod_RMS_Derivative-OPLS-2005>
0.928914606571198

$$$$
12
                    3D
 Structure written by MMmdl.
160169  0  0  1  0            999 V2000
  -30.6790  -14.8110   20.3012 C   0  0  0  0  0  0
  -30.4568  -12.4596   19.4805 C   0  0  0  0  0  0
  -29.5196  -12.3171   18.2582 C   0  0  0  0  0  0
  -28.0465  -12.2114   18.7039 C   0  0  0  0  0  0
  -27.6373  -13.1973   19.8291 C   0  0  2  0  0  0
  -28.7128  -13.2814   20.9393 C   0  0  0  0  0  0
  -25.2605  -13.8123   20.5738 C   0  0  0  0  0  0
  -24.1837  -13.0422   20.9248 C   0  0  0  0  0  0
  -24.6364  -11.6875   20.8822 C   0  0  0  0  0  0
  -23.9009  -10.4276   21.0429 C   0  0  0  0  0  0
  -24.3554   -9.4190   21.9198 C   0  0  0  0  0  0
  -23.6238   -8.2216   22.0758 C   0  0  0  0  0  0
  -22.4244   -8.0253   21.3523 C   0  0  0  0  0  0
  -21.9871   -9.0247   20.4649 C   0  0  0  0  0  0
  -22.7193  -10.2133   20.3068 C   0  0  0  0  0  0
  -21.6852   -6.0703   22.5256 C   0  0  0  0  0  0
  -21.4044   -6.5624   23.8186 C   0  0  0  0  0  0
  -21.3664   -5.6780   24.9146 C   0  0  0  0  0  0
  -21.6014   -4.3039   24.7205 C   0  0  0  0  0  0
  -21.8817   -3.8126   23.4331 C   0  0  0  0  0  0
  -21.9182   -4.6930   22.3377 C   0  0  0  0  0  0
  -22.7864  -13.5235   21.1845 C   0  0  0  0  0  0
  -22.1651   -4.2105   21.0962 F   0  0  0  0  0  0
  -21.5611   -3.4535   25.7722 F   0  0  0  0  0  0
  -29.9951  -13.6053   20.2927 N   0  0  0  0  0  0
  -26.2972  -12.9223   20.3389 N   0  0  0  0  0  0
  -25.9289  -11.6423   20.5912 N   0  0  0  0  0  0
  -22.0532  -12.8224   22.0422 N   0  0  0  0  0  0
  -25.4424  -15.1816   20.4079 N   0  0  0  0  0  0
  -31.9070  -14.7991   20.2576 O   0  0  0  0  0  0
  -21.6633   -6.8840   21.4221 O   0  0  0  0  0  0
  -22.3568  -14.5541   20.6700 O   0  0  0  0  0  0
  -24.6198  -31.8636   23.2097 C   0  0  0  0  0  0
  -25.9073  -32.4795   23.8396 C   0  0  1  0  0  0
  -27.2299  -27.3483   20.0960 C   0  0  0  0  0  0
  -25.5951  -33.8599   24.2327 N   0  0  0  0  0  0
  -23.4115  -30.4837   21.5546 C   0  0  2  0  0  0
  -24.8566  -28.9395   20.1154 C   0  0  0  0  0  0
  -22.7438  -29.4631   22.5040 C   0  0  0  0  0  0
  -18.0244  -28.1352   22.8476 C   0  0  0  0  0  0
  -24.1493  -36.7289   23.2646 C   0  0  0  0  0  0
  -25.9508  -30.7974   21.3806 C   0  0  0  0  0  0
  -26.0253  -29.4283   20.7155 C   0  0  0  0  0  0
  -27.2091  -28.6407   20.6981 C   0  0  0  0  0  0
  -26.0369  -26.9039   19.4753 C   0  0  0  0  0  0
  -24.8635  -27.6791   19.4949 C   0  0  0  0  0  0
  -23.6191  -29.8095   20.1719 C   0  0  0  0  0  0
  -25.4114  -36.3093   24.0340 C   0  0  1  0  0  0
  -20.5851  -28.3655   23.1308 C   0  0  2  0  0  0
  -20.6730  -26.9383   22.5419 C   0  0  0  0  0  0
  -19.5727  -26.6365   21.5185 C   0  0  0  0  0  0
  -18.1903  -26.7914   22.1589 C   0  0  0  0  0  0
  -19.1503  -28.8817   23.2880 C   0  0  0  0  0  0
  -18.9450  -30.1428   23.8873 C   0  0  0  0  0  0
  -17.6458  -30.6573   24.0526 C   0  0  0  0  0  0
  -25.9059  -34.9464   23.5113 C   0  0  0  0  0  0
  -16.5338  -29.9081   23.6323 C   0  0  0  0  0  0
  -16.7242  -28.6482   23.0361 C   0  0  0  0  0  0
  -26.4496  -31.6607   25.0773 C   0  0  0  0  0  0
  -25.3740  -31.3724   26.1514 C   0  0  0  0  0  0
  -27.0355  -30.3029   24.6227 C   0  0  0  0  0  0
  -27.6058  -32.4346   25.7532 C   0  0  0  0  0  0
  -27.5575  -37.1798   24.8463 C   0  0  0  0  0  0
  -21.4174  -29.3023   22.3749 N   0  0  0  0  0  0
  -26.4283  -37.3776   23.9416 N   0  0  0  0  0  0
  -24.6791  -31.0635   22.1054 N   0  0  0  0  0  0
  -23.4182  -28.8162   23.3083 O   0  0  0  0  0  0
  -28.3777  -26.5468   20.1414 O   0  0  0  0  0  0
  -26.5601  -34.8925   22.4670 O   0  0  0  0  0  0
  -23.5380  -32.1470   23.7432 O   0  0  0  0  0  0
  -31.5508  -19.5478   19.7214 C   0  0  0  0  0  0
  -31.4559  -18.1092   19.7147 C   0  0  0  0  0  0
  -29.2995  -18.2670   20.7351 C   0  0  0  0  0  0
  -30.5270  -20.3909   20.2623 C   0  0  0  0  0  0
  -30.3193  -17.4132   20.2268 C   0  0  0  0  0  0
  -29.4054  -19.6882   20.7750 C   0  0  0  0  0  0
  -31.7080  -22.4611   20.9420 C   0  0  0  0  0  0
  -29.5328  -22.6845   19.9814 C   0  0  0  0  0  0
  -31.7891  -23.9918   21.1917 C   0  0  0  0  0  0
  -30.7857  -24.8284   20.3831 C   0  0  0  0  0  0
  -29.4085  -24.1843   20.4793 C   0  0  2  0  0  0
  -29.2136  -15.9531   18.7027 C   0  0  0  0  0  0
  -28.2740  -25.1037   19.8580 C   0  0  0  0  0  0
  -30.6008  -21.8818   20.3657 N   0  0  0  0  0  0
  -30.0014  -15.9884   19.9414 N   0  0  0  0  0  0
  -32.7015  -21.8079   21.3057 O   0  0  0  0  0  0
  -28.6668  -22.2706   19.2024 O   0  0  0  0  0  0
  -28.3906  -20.3912   21.3310 F   0  0  0  0  0  0
  -31.4884  -12.5803   19.1484 H   0  0  0  0  0  0
  -30.4386  -11.5512   20.0840 H   0  0  0  0  0  0
  -29.7825  -11.4015   17.7272 H   0  0  0  0  0  0
  -29.6668  -13.1029   17.5231 H   0  0  0  0  0  0
  -27.9333  -11.1988   19.0921 H   0  0  0  0  0  0
  -27.3709  -12.2803   17.8510 H   0  0  0  0  0  0
  -27.5556  -14.1618   19.3492 H   0  0  0  0  0  0
  -28.7809  -12.3450   21.4971 H   0  0  0  0  0  0
  -28.4544  -14.0563   21.6620 H   0  0  0  0  0  0
  -25.2694   -9.5664   22.4776 H   0  0  0  0  0  0
  -23.9931   -7.4598   22.7461 H   0  0  0  0  0  0
  -21.0809   -8.8767   19.8929 H   0  0  0  0  0  0
  -22.3654  -10.9674   19.6165 H   0  0  0  0  0  0
  -21.2118   -7.6149   23.9689 H   0  0  0  0  0  0
  -21.1475   -6.0517   25.9036 H   0  0  0  0  0  0
  -22.0606   -2.7586   23.2847 H   0  0  0  0  0  0
  -22.4178  -11.9847   22.4713 H   0  0  0  0  0  0
  -21.1160  -13.1248   22.2682 H   0  0  0  0  0  0
  -24.7020  -15.8597   20.5467 H   0  0  0  0  0  0
  -26.3131  -15.6019   20.1091 H   0  0  0  0  0  0
  -26.7137  -32.5442   23.1141 H   0  0  0  0  0  0
  -25.0087  -33.9768   25.0468 H   0  0  0  0  0  0
  -22.7009  -31.3010   21.4134 H   0  0  0  0  0  0
  -23.3761  -35.9607   23.3323 H   0  0  0  0  0  0
  -24.3548  -36.8886   22.2048 H   0  0  0  0  0  0
  -23.7249  -37.6506   23.6649 H   0  0  0  0  0  0
  -26.0811  -31.5650   20.6178 H   0  0  0  0  0  0
  -26.8299  -30.8370   22.0114 H   0  0  0  0  0  0
  -28.1101  -29.0083   21.1722 H   0  0  0  0  0  0
  -25.9811  -25.9451   18.9784 H   0  0  0  0  0  0
  -23.9582  -27.3013   19.0370 H   0  0  0  0  0  0
  -23.7279  -30.5850   19.4159 H   0  0  0  0  0  0
  -22.7388  -29.2337   19.8736 H   0  0  0  0  0  0
  -25.1285  -36.1947   25.0820 H   0  0  0  0  0  0
  -20.9844  -28.3209   24.1474 H   0  0  0  0  0  0
  -20.5551  -26.2281   23.3627 H   0  0  0  0  0  0
  -21.6621  -26.7400   22.1256 H   0  0  0  0  0  0
  -19.6911  -25.6274   21.1228 H   0  0  0  0  0  0
  -19.6678  -27.3153   20.6700 H   0  0  0  0  0  0
  -17.4171  -26.6634   21.4004 H   0  0  0  0  0  0
  -18.0333  -26.0041   22.8964 H   0  0  0  0  0  0
  -19.7924  -30.7212   24.2271 H   0  0  0  0  0  0
  -17.5023  -31.6254   24.5133 H   0  0  0  0  0  0
  -15.5338  -30.2950   23.7713 H   0  0  0  0  0  0
  -15.8635  -28.0768   22.7153 H   0  0  0  0  0  0
  -24.5879  -30.7126   25.7853 H   0  0  0  0  0  0
  -24.8982  -32.2886   26.5013 H   0  0  0  0  0  0
  -25.8063  -30.8852   27.0254 H   0  0  0  0  0  0
  -26.2956  -29.6776   24.1219 H   0  0  0  0  0  0
  -27.4054  -29.7282   25.4733 H   0  0  0  0  0  0
  -27.8822  -30.4352   23.9466 H   0  0  0  0  0  0
  -27.2661  -33.3600   26.2161 H   0  0  0  0  0  0
  -28.3818  -32.6958   25.0343 H   0  0  0  0  0  0
  -28.0781  -31.8458   26.5396 H   0  0  0  0  0  0
  -28.2602  -38.0093   24.7477 H   0  0  0  0  0  0
  -28.1064  -36.2615   24.6306 H   0  0  0  0  0  0
  -27.2277  -37.1436   25.8865 H   0  0  0  0  0  0
  -20.9402  -29.8742   21.6928 H   0  0  0  0  0  0
  -26.0189  -38.2856   24.1412 H   0  0  0  0  0  0
  -32.4358  -20.0021   19.2975 H   0  0  0  0  0  0
  -32.2563  -17.5422   19.2541 H   0  0  0  0  0  0
  -28.3680  -17.8368   21.0654 H   0  0  0  0  0  0
  -32.7975  -24.3802   21.0193 H   0  0  0  0  0  0
  -31.5842  -24.1450   22.2541 H   0  0  0  0  0  0
  -31.0888  -24.9487   19.3393 H   0  0  0  0  0  0
  -30.7455  -25.8315   20.8088 H   0  0  0  0  0  0
  -29.1627  -24.1062   21.5412 H   0  0  0  0  0  0
  -29.2463  -15.0068   18.1775 H   0  0  0  0  0  0
  -29.5905  -16.6841   17.9832 H   0  0  0  0  0  0
  -28.1734  -16.2121   18.8908 H   0  0  0  0  0  0
  -28.2254  -24.9558   18.7800 H   0  0  0  0  0  0
  -27.3370  -24.7260   20.2710 H   0  0  0  0  0  0
  1 25  1  0  0  0
  1 30  2  0  0  0
  1 85  1  0  0  0
  2  3  1  0  0  0
  2 25  1  0  0  0
  2 89  1  0  0  0
  2 90  1  0  0  0
  3  4  1  0  0  0
  3 91  1  0  0  0
  3 92  1  0  0  0
  4  5  1  0  0  0
  4 93  1  0  0  0
  4 94  1  0  0  0
  5  6  1  0  0  0
  5 26  1  0  0  0
  5 95  1  0  0  0
  6 25  1  0  0  0
  6 96  1  0  0  0
  6 97  1  0  0  0
  7  8  2  0  0  0
  7 26  1  0  0  0
  7 29  1  0  0  0
  8  9  1  0  0  0
  8 22  1  0  0  0
  9 10  1  0  0  0
  9 27  2  0  0  0
 10 11  2  0  0  0
 10 15  1  0  0  0
 11 12  1  0  0  0
 11 98  1  0  0  0
 12 13  2  0  0  0
 12 99  1  0  0  0
 13 14  1  0  0  0
 13 31  1  0  0  0
 14 15  2  0  0  0
 14100  1  0  0  0
 15101  1  0  0  0
 16 17  2  0  0  0
 16 21  1  0  0  0
 16 31  1  0  0  0
 17 18  1  0  0  0
 17102  1  0  0  0
 18 19  2  0  0  0
 18103  1  0  0  0
 19 20  1  0  0  0
 19 24  1  0  0  0
 20 21  2  0  0  0
 20104  1  0  0  0
 21 23  1  0  0  0
 22 28  1  0  0  0
 22 32  2  0  0  0
 26 27  1  0  0  0
 28105  1  0  0  0
 28106  1  0  0  0
 29107  1  0  0  0
 29108  1  0  0  0
 33 34  1  0  0  0
 33 66  1  0  0  0
 33 70  2  0  0  0
 34 36  1  0  0  0
 34 59  1  0  0  0
 34109  1  0  0  0
 35 44  2  0  0  0
 35 45  1  0  0  0
 35 68  1  0  0  0
 36 56  1  0  0  0
 36110  1  0  0  0
 37 39  1  0  0  0
 37 47  1  0  0  0
 37 66  1  0  0  0
 37111  1  0  0  0
 38 43  2  0  0  0
 38 46  1  0  0  0
 38 47  1  0  0  0
 39 64  1  0  0  0
 39 67  2  0  0  0
 40 52  1  0  0  0
 40 53  2  0  0  0
 40 58  1  0  0  0
 41112  1  0  0  0
 41113  1  0  0  0
 41114  1  0  0  0
 41 48  1  0  0  0
 42 43  1  0  0  0
 42 66  1  0  0  0
 42115  1  0  0  0
 42116  1  0  0  0
 43 44  1  0  0  0
 44117  1  0  0  0
 45 46  2  0  0  0
 45118  1  0  0  0
 46119  1  0  0  0
 47120  1  0  0  0
 47121  1  0  0  0
 48 56  1  0  0  0
 48 65  1  0  0  0
 48122  1  0  0  0
 49 50  1  0  0  0
 49 53  1  0  0  0
 49 64  1  0  0  0
 49123  1  0  0  0
 50 51  1  0  0  0
 50124  1  0  0  0
 50125  1  0  0  0
 51 52  1  0  0  0
 51126  1  0  0  0
 51127  1  0  0  0
 52128  1  0  0  0
 52129  1  0  0  0
 53 54  1  0  0  0
 54 55  2  0  0  0
 54130  1  0  0  0
 55 57  1  0  0  0
 55131  1  0  0  0
 56 69  2  0  0  0
 57 58  2  0  0  0
 57132  1  0  0  0
 58133  1  0  0  0
 59 60  1  0  0  0
 59 61  1  0  0  0
 59 62  1  0  0  0
 60134  1  0  0  0
 60135  1  0  0  0
 60136  1  0  0  0
 61137  1  0  0  0
 61138  1  0  0  0
 61139  1  0  0  0
 62140  1  0  0  0
 62141  1  0  0  0
 62142  1  0  0  0
 63 65  1  0  0  0
 63143  1  0  0  0
 63144  1  0  0  0
 63145  1  0  0  0
 64146  1  0  0  0
 65147  1  0  0  0
 68 83  1  0  0  0
 71 72  2  0  0  0
 71 74  1  0  0  0
 71148  1  0  0  0
 72 75  1  0  0  0
 72149  1  0  0  0
 73 75  2  0  0  0
 73 76  1  0  0  0
 73150  1  0  0  0
 74 76  2  0  0  0
 74 84  1  0  0  0
 75 85  1  0  0  0
 76 88  1  0  0  0
 77 79  1  0  0  0
 77 84  1  0  0  0
 77 86  2  0  0  0
 78 81  1  0  0  0
 78 84  1  0  0  0
 78 87  2  0  0  0
 79 80  1  0  0  0
 79151  1  0  0  0
 79152  1  0  0  0
 80 81  1  0  0  0
 80153  1  0  0  0
 80154  1  0  0  0
 81 83  1  0  0  0
 81155  1  0  0  0
 82 85  1  0  0  0
 82156  1  0  0  0
 82157  1  0  0  0
 82158  1  0  0  0
 83159  1  0  0  0
 83160  1  0  0  0
M  ISO  4   1 100  68 101  83 101  85 100
M  END
> <chiral flag>
0

> <version>
0

> <s_m_source_file>
/data/baiqing/PycharmProjects/Reinvent-master-3.2/result/LINK_invent/BTK/process_docking_weight1_custom_product_contain_oxygen_bond_distance_aromatic_linkinvent_7_9_3/rearranged_h_0099.sdf

> <i_m_source_file_index>
13

> <r_mmod_Potential_Energy-OPLS-2005>
383.872406005859

> <r_mmod_Stretch_Energy-OPLS-2005>
109.447082519531

> <r_mmod_Bend_Energy-OPLS-2005>
166.761154174805

> <r_mmod_Torsional_Energy-OPLS-2005>
377.03125

> <r_mmod_Improper_Torsional_Energy-OPLS-2005>
16.6922760009766

> <r_mmod_Van_der_Waal_Energy-OPLS-2005>
173.804016113281

> <r_mmod_Electrostatic_Energy-OPLS-2005>
-350.443878173828

> <r_mmod_Solvation_Energy-OPLS-2005>
-214.960342407227

> <b_mmod_Minimization_Converged-OPLS-2005>
0

> <r_mmod_RMS_Derivative-OPLS-2005>
8.24849510192871

$$$$
13
                    3D
 Structure written by MMmdl.
151159  0  0  1  0            999 V2000
  -30.5892  -14.6870   20.5586 C   0  0  0  0  0  0
  -30.4458  -12.4426   19.4545 C   0  0  0  0  0  0
  -29.5096  -12.5410   18.2256 C   0  0  0  0  0  0
  -28.0287  -12.3710   18.6239 C   0  0  0  0  0  0
  -27.6521  -13.2138   19.8703 C   0  0  2  0  0  0
  -28.6912  -13.0069   20.9865 C   0  0  0  0  0  0
  -25.2519  -13.8129   20.5611 C   0  0  0  0  0  0
  -24.1807  -13.0419   20.9191 C   0  0  0  0  0  0
  -24.6387  -11.6888   20.8760 C   0  0  0  0  0  0
  -23.9065  -10.4281   21.0414 C   0  0  0  0  0  0
  -24.3616   -9.4198   21.9191 C   0  0  0  0  0  0
  -23.6299   -8.2232   22.0762 C   0  0  0  0  0  0
  -22.4280   -8.0273   21.3541 C   0  0  0  0  0  0
  -21.9910   -9.0245   20.4645 C   0  0  0  0  0  0
  -22.7248  -10.2124   20.3051 C   0  0  0  0  0  0
  -21.6848   -6.0737   22.5274 C   0  0  0  0  0  0
  -21.4014   -6.5641   23.8204 C   0  0  0  0  0  0
  -21.3651   -5.6790   24.9174 C   0  0  0  0  0  0
  -21.6045   -4.3056   24.7218 C   0  0  0  0  0  0
  -21.8820   -3.8147   23.4335 C   0  0  0  0  0  0
  -21.9203   -4.6964   22.3396 C   0  0  0  0  0  0
  -22.7830  -13.5212   21.1865 C   0  0  0  0  0  0
  -22.1663   -4.2145   21.0971 F   0  0  0  0  0  0
  -21.5626   -3.4533   25.7731 F   0  0  0  0  0  0
  -29.9982  -13.4385   20.4611 N   0  0  0  0  0  0
  -26.2967  -12.9317   20.3316 N   0  0  0  0  0  0
  -25.9311  -11.6473   20.5762 N   0  0  0  0  0  0
  -22.0476  -12.8190   22.0413 N   0  0  0  0  0  0
  -25.4151  -15.1826   20.3846 N   0  0  0  0  0  0
  -31.6974  -14.8903   20.0468 O   0  0  0  0  0  0
  -21.6635   -6.8874   21.4233 O   0  0  0  0  0  0
  -22.3510  -14.5528   20.6754 O   0  0  0  0  0  0
  -24.6291  -31.8572   23.1998 C   0  0  0  0  0  0
  -25.9128  -32.4758   23.8338 C   0  0  1  0  0  0
  -27.2118  -27.3044   20.1304 C   0  0  0  0  0  0
  -25.5968  -33.8578   24.2299 N   0  0  0  0  0  0
  -23.4233  -30.4829   21.5401 C   0  0  2  0  0  0
  -24.8723  -28.9381   20.1035 C   0  0  0  0  0  0
  -22.7491  -29.4633   22.4902 C   0  0  0  0  0  0
  -18.0276  -28.1387   22.8492 C   0  0  0  0  0  0
  -24.1492  -36.7268   23.2629 C   0  0  0  0  0  0
  -25.9638  -30.7931   21.3643 C   0  0  0  0  0  0
  -26.0418  -29.4155   20.7121 C   0  0  0  0  0  0
  -27.2229  -28.6087   20.7167 C   0  0  0  0  0  0
  -26.0290  -26.8875   19.4877 C   0  0  0  0  0  0
  -24.8696  -27.6830   19.4742 C   0  0  0  0  0  0
  -23.6384  -29.8166   20.1562 C   0  0  0  0  0  0
  -25.4112  -36.3079   24.0346 C   0  0  1  0  0  0
  -20.5886  -28.3693   23.1268 C   0  0  2  0  0  0
  -20.6772  -26.9415   22.5397 C   0  0  0  0  0  0
  -19.5757  -26.6390   21.5204 C   0  0  0  0  0  0
  -18.1935  -26.7936   22.1619 C   0  0  0  0  0  0
  -19.1537  -28.8866   23.2871 C   0  0  0  0  0  0
  -18.9463  -30.1465   23.8888 C   0  0  0  0  0  0
  -17.6466  -30.6591   24.0569 C   0  0  0  0  0  0
  -25.9069  -34.9452   23.5120 C   0  0  0  0  0  0
  -16.5354  -29.9089   23.6339 C   0  0  0  0  0  0
  -16.7266  -28.6508   23.0357 C   0  0  0  0  0  0
  -26.4514  -31.6538   25.0679 C   0  0  0  0  0  0
  -25.3767  -31.3641   26.1426 C   0  0  0  0  0  0
  -27.0306  -30.2972   24.6053 C   0  0  0  0  0  0
  -27.6103  -32.4219   25.7447 C   0  0  0  0  0  0
  -27.5587  -37.1761   24.8448 C   0  0  0  0  0  0
  -21.4205  -29.3049   22.3661 N   0  0  0  0  0  0
  -26.4255  -37.3801   23.9469 N   0  0  0  0  0  0
  -24.6903  -31.0600   22.0926 N   0  0  0  0  0  0
  -23.4200  -28.8180   23.2996 O   0  0  0  0  0  0
  -28.2322  -26.3474   20.2394 O   0  0  0  0  0  0
  -26.5609  -34.8928   22.4659 O   0  0  0  0  0  0
  -23.5452  -32.1337   23.7341 O   0  0  0  0  0  0
  -30.4213  -18.4139   21.3583 C   0  0  0  0  0  0
  -30.0693  -19.7896   21.1334 C   0  0  0  0  0  0
  -28.6102  -17.7052   19.9701 C   0  0  0  0  0  0
  -29.6929  -17.3159   20.8053 C   0  0  0  0  0  0
  -28.9384  -20.1638   20.3585 C   0  0  0  0  0  0
  -28.2383  -19.0709   19.7654 C   0  0  0  0  0  0
  -28.1931  -23.9091   21.1425 C   0  0  0  0  0  0
  -27.8893  -25.2591   21.0722 C   0  0  0  0  0  0
  -29.8336  -15.8634   21.3301 C   0  0  0  0  0  0
  -29.0593  -22.8532   20.3814 C   0  0  0  0  0  0
  -29.3203  -15.6623   22.4716 N   0  0  0  0  0  0
  -28.4214  -21.5056   20.1835 N   0  0  0  0  0  0
  -27.1404  -19.3362   19.0152 F   0  0  0  0  0  0
  -31.4803  -12.6000   19.1472 H   0  0  0  0  0  0
  -30.4190  -11.4359   19.8745 H   0  0  0  0  0  0
  -29.7828  -11.7918   17.4809 H   0  0  0  0  0  0
  -29.6434  -13.5083   17.7419 H   0  0  0  0  0  0
  -27.8585  -11.3138   18.8300 H   0  0  0  0  0  0
  -27.3777  -12.6255   17.7863 H   0  0  0  0  0  0
  -27.6842  -14.2624   19.5734 H   0  0  0  0  0  0
  -28.7299  -11.9508   21.2605 H   0  0  0  0  0  0
  -28.3831  -13.4984   21.9041 H   0  0  0  0  0  0
  -25.2754   -9.5665   22.4782 H   0  0  0  0  0  0
  -23.9999   -7.4603   22.7467 H   0  0  0  0  0  0
  -21.0852   -8.8774   19.8932 H   0  0  0  0  0  0
  -22.3720  -10.9669   19.6159 H   0  0  0  0  0  0
  -21.2000   -7.6146   23.9716 H   0  0  0  0  0  0
  -21.1466   -6.0513   25.9076 H   0  0  0  0  0  0
  -22.0610   -2.7608   23.2833 H   0  0  0  0  0  0
  -22.4093  -11.9851   22.4760 H   0  0  0  0  0  0
  -21.1095  -13.1196   22.2637 H   0  0  0  0  0  0
  -24.6241  -15.8163   20.4290 H   0  0  0  0  0  0
  -26.2317  -15.5976   19.9576 H   0  0  0  0  0  0
  -26.7206  -32.5434   23.1095 H   0  0  0  0  0  0
  -25.0206  -33.9728   25.0501 H   0  0  0  0  0  0
  -22.7176  -31.3035   21.3958 H   0  0  0  0  0  0
  -23.3783  -35.9564   23.3228 H   0  0  0  0  0  0
  -24.3630  -36.8929   22.2057 H   0  0  0  0  0  0
  -23.7177  -37.6433   23.6662 H   0  0  0  0  0  0
  -26.0807  -31.5483   20.5865 H   0  0  0  0  0  0
  -26.8545  -30.8614   21.9793 H   0  0  0  0  0  0
  -28.1138  -28.9582   21.2199 H   0  0  0  0  0  0
  -25.9920  -25.9050   19.0378 H   0  0  0  0  0  0
  -23.9748  -27.3085   18.9958 H   0  0  0  0  0  0
  -23.7475  -30.5902   19.3959 H   0  0  0  0  0  0
  -22.7617  -29.2386   19.8551 H   0  0  0  0  0  0
  -25.1252  -36.1912   25.0826 H   0  0  0  0  0  0
  -20.9991  -28.3256   24.1386 H   0  0  0  0  0  0
  -20.5669  -26.2310   23.3601 H   0  0  0  0  0  0
  -21.6631  -26.7437   22.1203 H   0  0  0  0  0  0
  -19.6921  -25.6302   21.1215 H   0  0  0  0  0  0
  -19.6696  -27.3214   20.6742 H   0  0  0  0  0  0
  -17.4212  -26.6702   21.4012 H   0  0  0  0  0  0
  -18.0332  -26.0050   22.8983 H   0  0  0  0  0  0
  -19.7942  -30.7275   24.2252 H   0  0  0  0  0  0
  -17.5022  -31.6271   24.5161 H   0  0  0  0  0  0
  -15.5360  -30.2985   23.7674 H   0  0  0  0  0  0
  -15.8667  -28.0825   22.7064 H   0  0  0  0  0  0
  -24.6048  -30.6845   25.7784 H   0  0  0  0  0  0
  -24.8831  -32.2761   26.4764 H   0  0  0  0  0  0
  -25.8144  -30.8929   27.0231 H   0  0  0  0  0  0
  -26.2817  -29.6771   24.1106 H   0  0  0  0  0  0
  -27.4057  -29.7171   25.4489 H   0  0  0  0  0  0
  -27.8677  -30.4273   23.9198 H   0  0  0  0  0  0
  -27.2788  -33.3580   26.1943 H   0  0  0  0  0  0
  -28.3958  -32.6646   25.0275 H   0  0  0  0  0  0
  -28.0705  -31.8346   26.5401 H   0  0  0  0  0  0
  -28.2478  -38.0179   24.7665 H   0  0  0  0  0  0
  -28.1184  -36.2715   24.6004 H   0  0  0  0  0  0
  -27.2354  -37.1074   25.8851 H   0  0  0  0  0  0
  -20.9379  -29.8761   21.6871 H   0  0  0  0  0  0
  -26.0110  -38.2838   24.1583 H   0  0  0  0  0  0
  -31.2364  -18.2038   22.0392 H   0  0  0  0  0  0
  -30.6434  -20.5578   21.6284 H   0  0  0  0  0  0
  -27.9801  -16.9420   19.5373 H   0  0  0  0  0  0
  -27.7077  -23.4294   21.9839 H   0  0  0  0  0  0
  -27.2168  -25.6179   21.8421 H   0  0  0  0  0  0
  -29.9804  -22.7178   20.9490 H   0  0  0  0  0  0
  -29.3442  -23.2726   19.4154 H   0  0  0  0  0  0
  -28.8775  -16.5062   22.8182 H   0  0  0  0  0  0
  -27.5505  -21.5286   19.6562 H   0  0  0  0  0  0
  1 25  1  0  0  0
  1 30  2  0  0  0
  1 79  1  0  0  0
  2  3  1  0  0  0
  2 25  1  0  0  0
  2 84  1  0  0  0
  2 85  1  0  0  0
  3  4  1  0  0  0
  3 86  1  0  0  0
  3 87  1  0  0  0
  4  5  1  0  0  0
  4 88  1  0  0  0
  4 89  1  0  0  0
  5  6  1  0  0  0
  5 26  1  0  0  0
  5 90  1  0  0  0
  6 25  1  0  0  0
  6 91  1  0  0  0
  6 92  1  0  0  0
  7  8  2  0  0  0
  7 26  1  0  0  0
  7 29  1  0  0  0
  8  9  1  0  0  0
  8 22  1  0  0  0
  9 10  1  0  0  0
  9 27  2  0  0  0
 10 11  2  0  0  0
 10 15  1  0  0  0
 11 12  1  0  0  0
 11 93  1  0  0  0
 12 13  2  0  0  0
 12 94  1  0  0  0
 13 14  1  0  0  0
 13 31  1  0  0  0
 14 15  2  0  0  0
 14 95  1  0  0  0
 15 96  1  0  0  0
 16 17  2  0  0  0
 16 21  1  0  0  0
 16 31  1  0  0  0
 17 18  1  0  0  0
 17 97  1  0  0  0
 18 19  2  0  0  0
 18 98  1  0  0  0
 19 20  1  0  0  0
 19 24  1  0  0  0
 20 21  2  0  0  0
 20 99  1  0  0  0
 21 23  1  0  0  0
 22 28  1  0  0  0
 22 32  2  0  0  0
 26 27  1  0  0  0
 28100  1  0  0  0
 28101  1  0  0  0
 29102  1  0  0  0
 29103  1  0  0  0
 33 34  1  0  0  0
 33 66  1  0  0  0
 33 70  2  0  0  0
 34 36  1  0  0  0
 34 59  1  0  0  0
 34104  1  0  0  0
 35 44  2  0  0  0
 35 45  1  0  0  0
 35 68  1  0  0  0
 36 56  1  0  0  0
 36105  1  0  0  0
 37 39  1  0  0  0
 37 47  1  0  0  0
 37 66  1  0  0  0
 37106  1  0  0  0
 38 43  2  0  0  0
 38 46  1  0  0  0
 38 47  1  0  0  0
 39 64  1  0  0  0
 39 67  2  0  0  0
 40 52  1  0  0  0
 40 53  2  0  0  0
 40 58  1  0  0  0
 41107  1  0  0  0
 41108  1  0  0  0
 41109  1  0  0  0
 41 48  1  0  0  0
 42 43  1  0  0  0
 42 66  1  0  0  0
 42110  1  0  0  0
 42111  1  0  0  0
 43 44  1  0  0  0
 44112  1  0  0  0
 45 46  2  0  0  0
 45113  1  0  0  0
 46114  1  0  0  0
 47115  1  0  0  0
 47116  1  0  0  0
 48 56  1  0  0  0
 48 65  1  0  0  0
 48117  1  0  0  0
 49 50  1  0  0  0
 49 53  1  0  0  0
 49 64  1  0  0  0
 49118  1  0  0  0
 50 51  1  0  0  0
 50119  1  0  0  0
 50120  1  0  0  0
 51 52  1  0  0  0
 51121  1  0  0  0
 51122  1  0  0  0
 52123  1  0  0  0
 52124  1  0  0  0
 53 54  1  0  0  0
 54 55  2  0  0  0
 54125  1  0  0  0
 55 57  1  0  0  0
 55126  1  0  0  0
 56 69  2  0  0  0
 57 58  2  0  0  0
 57127  1  0  0  0
 58128  1  0  0  0
 59 60  1  0  0  0
 59 61  1  0  0  0
 59 62  1  0  0  0
 60129  1  0  0  0
 60130  1  0  0  0
 60131  1  0  0  0
 61132  1  0  0  0
 61133  1  0  0  0
 61134  1  0  0  0
 62135  1  0  0  0
 62136  1  0  0  0
 62137  1  0  0  0
 63 65  1  0  0  0
 63138  1  0  0  0
 63139  1  0  0  0
 63140  1  0  0  0
 64141  1  0  0  0
 65142  1  0  0  0
 68 78  1  0  0  0
 71 72  2  0  0  0
 71 74  1  0  0  0
 71143  1  0  0  0
 72 75  1  0  0  0
 72144  1  0  0  0
 73 74  2  0  0  0
 73 76  1  0  0  0
 73145  1  0  0  0
 74 79  1  0  0  0
 75 76  2  0  0  0
 75 82  1  0  0  0
 76 83  1  0  0  0
 77 78  2  0  0  0
 77 80  1  0  0  0
 77146  1  0  0  0
 78147  1  0  0  0
 79 81  2  0  0  0
 80 82  1  0  0  0
 80148  1  0  0  0
 80149  1  0  0  0
 81150  1  0  0  0
 82151  1  0  0  0
M  ISO  4   1 100  68 101  78 101  79 100
M  END
> <chiral flag>
0

> <version>
0

> <s_m_source_file>
/data/baiqing/PycharmProjects/Reinvent-master-3.2/result/LINK_invent/BTK/process_docking_weight1_custom_product_contain_oxygen_bond_distance_aromatic_linkinvent_7_9_3/rearranged_h_0099.sdf

> <i_m_source_file_index>
14

> <r_mmod_Potential_Energy-OPLS-2005>
325.979095458984

> <r_mmod_Stretch_Energy-OPLS-2005>
98.9060287475586

> <r_mmod_Bend_Energy-OPLS-2005>
213.934127807617

> <r_mmod_Torsional_Energy-OPLS-2005>
222.504837036133

> <r_mmod_Improper_Torsional_Energy-OPLS-2005>
6.53923845291138

> <r_mmod_Van_der_Waal_Energy-OPLS-2005>
140.953323364258

> <r_mmod_Electrostatic_Energy-OPLS-2005>
-230.355163574219

> <r_mmod_Solvation_Energy-OPLS-2005>
-197.342193603516

> <b_mmod_Minimization_Converged-OPLS-2005>
0

> <r_mmod_RMS_Derivative-OPLS-2005>
3.88206124305725

$$$$
14
                    3D
 Structure written by MMmdl.
163172  0  0  1  0            999 V2000
  -30.6363  -14.7417   20.4572 C   0  0  0  0  0  0
  -30.4221  -12.4500   19.4781 C   0  0  0  0  0  0
  -29.5044  -12.4987   18.2377 C   0  0  0  0  0  0
  -28.0320  -12.3257   18.6523 C   0  0  0  0  0  0
  -27.6373  -13.2360   19.8461 C   0  0  2  0  0  0
  -28.6825  -13.1895   20.9827 C   0  0  0  0  0  0
  -25.2485  -13.8203   20.5690 C   0  0  0  0  0  0
  -24.1789  -13.0441   20.9211 C   0  0  0  0  0  0
  -24.6392  -11.6919   20.8749 C   0  0  0  0  0  0
  -23.9075  -10.4287   21.0403 C   0  0  0  0  0  0
  -24.3621   -9.4196   21.9180 C   0  0  0  0  0  0
  -23.6290   -8.2237   22.0759 C   0  0  0  0  0  0
  -22.4279   -8.0278   21.3542 C   0  0  0  0  0  0
  -21.9913   -9.0249   20.4646 C   0  0  0  0  0  0
  -22.7246  -10.2124   20.3050 C   0  0  0  0  0  0
  -21.6850   -6.0734   22.5277 C   0  0  0  0  0  0
  -21.4017   -6.5637   23.8210 C   0  0  0  0  0  0
  -21.3655   -5.6794   24.9169 C   0  0  0  0  0  0
  -21.6044   -4.3058   24.7222 C   0  0  0  0  0  0
  -21.8817   -3.8149   23.4342 C   0  0  0  0  0  0
  -21.9192   -4.6967   22.3396 C   0  0  0  0  0  0
  -22.7809  -13.5211   21.1869 C   0  0  0  0  0  0
  -22.1661   -4.2153   21.0974 F   0  0  0  0  0  0
  -21.5625   -3.4545   25.7733 F   0  0  0  0  0  0
  -29.9837  -13.5298   20.3953 N   0  0  0  0  0  0
  -26.2911  -12.9420   20.3267 N   0  0  0  0  0  0
  -25.9320  -11.6561   20.5757 N   0  0  0  0  0  0
  -22.0463  -12.8193   22.0427 N   0  0  0  0  0  0
  -25.4165  -15.1925   20.4092 N   0  0  0  0  0  0
  -31.8248  -14.7828   20.1314 O   0  0  0  0  0  0
  -21.6636   -6.8877   21.4241 O   0  0  0  0  0  0
  -22.3481  -14.5514   20.6723 O   0  0  0  0  0  0
  -24.6303  -31.8548   23.1996 C   0  0  0  0  0  0
  -25.9129  -32.4748   23.8330 C   0  0  1  0  0  0
  -27.2111  -27.2517   20.1170 C   0  0  0  0  0  0
  -25.5922  -33.8552   24.2251 N   0  0  0  0  0  0
  -23.4268  -30.4791   21.5439 C   0  0  2  0  0  0
  -24.8722  -28.9313   20.1078 C   0  0  0  0  0  0
  -22.7503  -29.4589   22.4915 C   0  0  0  0  0  0
  -18.0287  -28.1389   22.8478 C   0  0  0  0  0  0
  -24.1487  -36.7282   23.2635 C   0  0  0  0  0  0
  -25.9752  -30.7588   21.3884 C   0  0  0  0  0  0
  -26.0439  -29.3834   20.7278 C   0  0  0  0  0  0
  -27.2117  -28.5527   20.7297 C   0  0  0  0  0  0
  -26.0222  -26.8916   19.4386 C   0  0  0  0  0  0
  -24.8676  -27.6936   19.4551 C   0  0  0  0  0  0
  -23.6439  -29.8167   20.1592 C   0  0  0  0  0  0
  -25.4115  -36.3068   24.0325 C   0  0  1  0  0  0
  -20.5889  -28.3693   23.1269 C   0  0  2  0  0  0
  -20.6763  -26.9407   22.5398 C   0  0  0  0  0  0
  -19.5734  -26.6371   21.5205 C   0  0  0  0  0  0
  -18.1919  -26.7929   22.1617 C   0  0  0  0  0  0
  -19.1540  -28.8860   23.2864 C   0  0  0  0  0  0
  -18.9471  -30.1461   23.8882 C   0  0  0  0  0  0
  -17.6473  -30.6588   24.0563 C   0  0  0  0  0  0
  -25.9062  -34.9440   23.5101 C   0  0  0  0  0  0
  -16.5361  -29.9082   23.6342 C   0  0  0  0  0  0
  -16.7278  -28.6503   23.0360 C   0  0  0  0  0  0
  -26.4499  -31.6583   25.0730 C   0  0  0  0  0  0
  -25.3707  -31.3734   26.1444 C   0  0  0  0  0  0
  -27.0370  -30.3000   24.6246 C   0  0  0  0  0  0
  -27.6058  -32.4335   25.7495 C   0  0  0  0  0  0
  -27.5596  -37.1765   24.8447 C   0  0  0  0  0  0
  -21.4211  -29.3041   22.3665 N   0  0  0  0  0  0
  -26.4280  -37.3775   23.9441 N   0  0  0  0  0  0
  -24.6967  -31.0485   22.0998 N   0  0  0  0  0  0
  -23.4202  -28.8117   23.3003 O   0  0  0  0  0  0
  -28.2999  -26.3453   20.2080 O   0  0  0  0  0  0
  -26.5635  -34.8916   22.4668 O   0  0  0  0  0  0
  -23.5453  -32.1396   23.7278 O   0  0  0  0  0  0
  -31.6751  -17.6906   20.7732 C   0  0  0  0  0  0
  -29.3834  -18.4968   20.5716 C   0  0  0  0  0  0
  -29.8220  -19.8998   20.5821 C   0  0  0  0  0  0
  -30.3032  -17.3559   20.6543 C   0  0  0  0  0  0
  -32.1246  -19.0243   20.7887 C   0  0  0  0  0  0
  -31.2242  -20.1051   20.6914 C   0  0  0  0  0  0
  -28.1512  -23.0924   21.7114 C   0  0  0  0  0  0
  -28.6398  -21.6322   21.9082 C   0  0  0  0  0  0
  -29.0500  -22.2662   19.6784 C   0  0  0  0  0  0
  -28.8892  -23.6420   20.4803 C   0  0  1  0  0  0
  -27.8966  -18.1982   20.4767 C   0  0  0  0  0  0
  -28.1736  -24.9088   19.7599 C   0  0  0  0  0  0
  -28.9464  -21.0716   20.5901 N   0  0  0  0  0  0
  -33.4901  -19.3007   20.9111 N   0  0  0  0  0  0
  -31.7599  -21.3913   20.7769 N   0  0  0  0  0  0
  -29.8991  -15.9098   20.6625 N   0  0  0  0  0  0
  -31.4656  -12.5508   19.1753 H   0  0  0  0  0  0
  -30.3514  -11.4788   19.9716 H   0  0  0  0  0  0
  -29.7846  -11.7220   17.5249 H   0  0  0  0  0  0
  -29.6317  -13.4504   17.7199 H   0  0  0  0  0  0
  -27.8906  -11.2783   18.9228 H   0  0  0  0  0  0
  -27.3737  -12.5091   17.8023 H   0  0  0  0  0  0
  -27.6246  -14.2529   19.4531 H   0  0  0  0  0  0
  -28.7151  -12.1973   21.4355 H   0  0  0  0  0  0
  -28.4191  -13.8845   21.7821 H   0  0  0  0  0  0
  -25.2764   -9.5671   22.4760 H   0  0  0  0  0  0
  -23.9995   -7.4629   22.7480 H   0  0  0  0  0  0
  -21.0845   -8.8758   19.8951 H   0  0  0  0  0  0
  -22.3698  -10.9661   19.6159 H   0  0  0  0  0  0
  -21.2015   -7.6148   23.9712 H   0  0  0  0  0  0
  -21.1481   -6.0526   25.9070 H   0  0  0  0  0  0
  -22.0604   -2.7616   23.2839 H   0  0  0  0  0  0
  -22.4104  -11.9845   22.4784 H   0  0  0  0  0  0
  -21.1078  -13.1201   22.2658 H   0  0  0  0  0  0
  -24.6443  -15.8422   20.5081 H   0  0  0  0  0  0
  -26.2500  -15.6241   20.0363 H   0  0  0  0  0  0
  -26.7178  -32.5389   23.1053 H   0  0  0  0  0  0
  -25.0053  -33.9690   25.0384 H   0  0  0  0  0  0
  -22.7241  -31.3017   21.3975 H   0  0  0  0  0  0
  -23.3777  -35.9576   23.3230 H   0  0  0  0  0  0
  -24.3591  -36.8987   22.2062 H   0  0  0  0  0  0
  -23.7201  -37.6442   23.6712 H   0  0  0  0  0  0
  -26.1181  -31.5180   20.6179 H   0  0  0  0  0  0
  -26.8519  -30.8041   22.0231 H   0  0  0  0  0  0
  -28.1041  -28.8850   21.2427 H   0  0  0  0  0  0
  -25.9316  -25.9733   18.8818 H   0  0  0  0  0  0
  -23.9771  -27.3506   18.9469 H   0  0  0  0  0  0
  -23.7651  -30.5932   19.4039 H   0  0  0  0  0  0
  -22.7623  -29.2483   19.8553 H   0  0  0  0  0  0
  -25.1279  -36.1897   25.0812 H   0  0  0  0  0  0
  -20.9974  -28.3267   24.1392 H   0  0  0  0  0  0
  -20.5657  -26.2309   23.3609 H   0  0  0  0  0  0
  -21.6634  -26.7407   22.1197 H   0  0  0  0  0  0
  -19.6900  -25.6277   21.1247 H   0  0  0  0  0  0
  -19.6679  -27.3174   20.6732 H   0  0  0  0  0  0
  -17.4180  -26.6679   21.4022 H   0  0  0  0  0  0
  -18.0321  -26.0062   22.9007 H   0  0  0  0  0  0
  -19.7952  -30.7271   24.2240 H   0  0  0  0  0  0
  -17.5028  -31.6271   24.5154 H   0  0  0  0  0  0
  -15.5363  -30.2980   23.7676 H   0  0  0  0  0  0
  -15.8679  -28.0819   22.7092 H   0  0  0  0  0  0
  -24.5894  -30.7076   25.7759 H   0  0  0  0  0  0
  -24.8874  -32.2898   26.4844 H   0  0  0  0  0  0
  -25.7999  -30.8918   27.0242 H   0  0  0  0  0  0
  -26.2973  -29.6720   24.1267 H   0  0  0  0  0  0
  -27.4049  -29.7291   25.4782 H   0  0  0  0  0  0
  -27.8845  -30.4277   23.9512 H   0  0  0  0  0  0
  -27.2687  -33.3670   26.2016 H   0  0  0  0  0  0
  -28.3893  -32.6842   25.0330 H   0  0  0  0  0  0
  -28.0694  -31.8489   26.5452 H   0  0  0  0  0  0
  -28.2516  -38.0150   24.7625 H   0  0  0  0  0  0
  -28.1191  -36.2695   24.6105 H   0  0  0  0  0  0
  -27.2328  -37.1205   25.8840 H   0  0  0  0  0  0
  -20.9407  -29.8809   21.6902 H   0  0  0  0  0  0
  -26.0156  -38.2831   24.1517 H   0  0  0  0  0  0
  -32.4236  -16.9228   20.8756 H   0  0  0  0  0  0
  -28.3150  -23.7071   22.5980 H   0  0  0  0  0  0
  -27.0767  -23.0840   21.5232 H   0  0  0  0  0  0
  -27.8740  -21.0408   22.4138 H   0  0  0  0  0  0
  -29.5285  -21.6154   22.5410 H   0  0  0  0  0  0
  -29.9695  -22.2595   19.0924 H   0  0  0  0  0  0
  -28.2378  -22.1847   18.9539 H   0  0  0  0  0  0
  -29.8889  -23.9492   20.7894 H   0  0  0  0  0  0
  -27.3362  -19.0469   20.0832 H   0  0  0  0  0  0
  -27.4974  -17.9537   21.4612 H   0  0  0  0  0  0
  -27.7143  -17.3559   19.8104 H   0  0  0  0  0  0
  -27.1318  -24.6061   19.7230 H   0  0  0  0  0  0
  -28.5051  -24.9107   18.7208 H   0  0  0  0  0  0
  -34.1296  -18.5833   20.5894 H   0  0  0  0  0  0
  -33.7351  -20.2168   20.5473 H   0  0  0  0  0  0
  -31.0384  -22.0724   20.9806 H   0  0  0  0  0  0
  -32.5293  -21.4432   21.4333 H   0  0  0  0  0  0
  -28.9140  -15.7419   20.7961 H   0  0  0  0  0  0
  1 25  1  0  0  0
  1 30  2  0  0  0
  1 86  1  0  0  0
  2  3  1  0  0  0
  2 25  1  0  0  0
  2 87  1  0  0  0
  2 88  1  0  0  0
  3  4  1  0  0  0
  3 89  1  0  0  0
  3 90  1  0  0  0
  4  5  1  0  0  0
  4 91  1  0  0  0
  4 92  1  0  0  0
  5  6  1  0  0  0
  5 26  1  0  0  0
  5 93  1  0  0  0
  6 25  1  0  0  0
  6 94  1  0  0  0
  6 95  1  0  0  0
  7  8  2  0  0  0
  7 26  1  0  0  0
  7 29  1  0  0  0
  8  9  1  0  0  0
  8 22  1  0  0  0
  9 10  1  0  0  0
  9 27  2  0  0  0
 10 11  2  0  0  0
 10 15  1  0  0  0
 11 12  1  0  0  0
 11 96  1  0  0  0
 12 13  2  0  0  0
 12 97  1  0  0  0
 13 14  1  0  0  0
 13 31  1  0  0  0
 14 15  2  0  0  0
 14 98  1  0  0  0
 15 99  1  0  0  0
 16 17  2  0  0  0
 16 21  1  0  0  0
 16 31  1  0  0  0
 17 18  1  0  0  0
 17100  1  0  0  0
 18 19  2  0  0  0
 18101  1  0  0  0
 19 20  1  0  0  0
 19 24  1  0  0  0
 20 21  2  0  0  0
 20102  1  0  0  0
 21 23  1  0  0  0
 22 28  1  0  0  0
 22 32  2  0  0  0
 26 27  1  0  0  0
 28103  1  0  0  0
 28104  1  0  0  0
 29105  1  0  0  0
 29106  1  0  0  0
 33 34  1  0  0  0
 33 66  1  0  0  0
 33 70  2  0  0  0
 34 36  1  0  0  0
 34 59  1  0  0  0
 34107  1  0  0  0
 35 44  2  0  0  0
 35 45  1  0  0  0
 35 68  1  0  0  0
 36 56  1  0  0  0
 36108  1  0  0  0
 37 39  1  0  0  0
 37 47  1  0  0  0
 37 66  1  0  0  0
 37109  1  0  0  0
 38 43  2  0  0  0
 38 46  1  0  0  0
 38 47  1  0  0  0
 39 64  1  0  0  0
 39 67  2  0  0  0
 40 52  1  0  0  0
 40 53  2  0  0  0
 40 58  1  0  0  0
 41110  1  0  0  0
 41111  1  0  0  0
 41112  1  0  0  0
 41 48  1  0  0  0
 42 43  1  0  0  0
 42 66  1  0  0  0
 42113  1  0  0  0
 42114  1  0  0  0
 43 44  1  0  0  0
 44115  1  0  0  0
 45 46  2  0  0  0
 45116  1  0  0  0
 46117  1  0  0  0
 47118  1  0  0  0
 47119  1  0  0  0
 48 56  1  0  0  0
 48 65  1  0  0  0
 48120  1  0  0  0
 49 50  1  0  0  0
 49 53  1  0  0  0
 49 64  1  0  0  0
 49121  1  0  0  0
 50 51  1  0  0  0
 50122  1  0  0  0
 50123  1  0  0  0
 51 52  1  0  0  0
 51124  1  0  0  0
 51125  1  0  0  0
 52126  1  0  0  0
 52127  1  0  0  0
 53 54  1  0  0  0
 54 55  2  0  0  0
 54128  1  0  0  0
 55 57  1  0  0  0
 55129  1  0  0  0
 56 69  2  0  0  0
 57 58  2  0  0  0
 57130  1  0  0  0
 58131  1  0  0  0
 59 60  1  0  0  0
 59 61  1  0  0  0
 59 62  1  0  0  0
 60132  1  0  0  0
 60133  1  0  0  0
 60134  1  0  0  0
 61135  1  0  0  0
 61136  1  0  0  0
 61137  1  0  0  0
 62138  1  0  0  0
 62139  1  0  0  0
 62140  1  0  0  0
 63 65  1  0  0  0
 63141  1  0  0  0
 63142  1  0  0  0
 63143  1  0  0  0
 64144  1  0  0  0
 65145  1  0  0  0
 68 82  1  0  0  0
 71 74  2  0  0  0
 71 75  1  0  0  0
 71146  1  0  0  0
 72 73  2  0  0  0
 72 74  1  0  0  0
 72 81  1  0  0  0
 73 76  1  0  0  0
 73 83  1  0  0  0
 74 86  1  0  0  0
 75 76  2  0  0  0
 75 84  1  0  0  0
 76 85  1  0  0  0
 77 78  1  0  0  0
 77 80  1  0  0  0
 77147  1  0  0  0
 77148  1  0  0  0
 78 83  1  0  0  0
 78149  1  0  0  0
 78150  1  0  0  0
 79 80  1  0  0  0
 79 83  1  0  0  0
 79151  1  0  0  0
 79152  1  0  0  0
 80 82  1  0  0  0
 80153  1  0  0  0
 81154  1  0  0  0
 81155  1  0  0  0
 81156  1  0  0  0
 82157  1  0  0  0
 82158  1  0  0  0
 84159  1  0  0  0
 84160  1  0  0  0
 85161  1  0  0  0
 85162  1  0  0  0
 86163  1  0  0  0
M  ISO  4   1 100  68 101  82 101  86 100
M  END
> <chiral flag>
0

> <version>
0

> <s_m_source_file>
/data/baiqing/PycharmProjects/Reinvent-master-3.2/result/LINK_invent/BTK/process_docking_weight1_custom_product_contain_oxygen_bond_distance_aromatic_linkinvent_7_9_3/rearranged_h_0099.sdf

> <i_m_source_file_index>
15

> <r_mmod_Potential_Energy-OPLS-2005>
200.862686157227

> <r_mmod_Stretch_Energy-OPLS-2005>
132.281875610352

> <r_mmod_Bend_Energy-OPLS-2005>
200.157852172852

> <r_mmod_Torsional_Energy-OPLS-2005>
306.765014648438

> <r_mmod_Improper_Torsional_Energy-OPLS-2005>
19.7926025390625

> <r_mmod_Van_der_Waal_Energy-OPLS-2005>
160.189819335938

> <r_mmod_Electrostatic_Energy-OPLS-2005>
-481.908599853516

> <r_mmod_Solvation_Energy-OPLS-2005>
-226.141815185547

> <b_mmod_Minimization_Converged-OPLS-2005>
0

> <r_mmod_RMS_Derivative-OPLS-2005>
1.7872725725174

$$$$
15
                    3D
 Structure written by MMmdl.
156164  0  0  1  0            999 V2000
  -30.7378  -14.4379   20.6227 C   0  0  0  0  0  0
  -30.4168  -12.3094   19.4098 C   0  0  0  0  0  0
  -29.4851  -12.5094   18.1991 C   0  0  0  0  0  0
  -28.0100  -12.3657   18.6182 C   0  0  0  0  0  0
  -27.6605  -13.2067   19.8749 C   0  0  2  0  0  0
  -28.7020  -12.9856   20.9937 C   0  0  0  0  0  0
  -25.2580  -13.8163   20.5676 C   0  0  0  0  0  0
  -24.1829  -13.0441   20.9167 C   0  0  0  0  0  0
  -24.6385  -11.6909   20.8735 C   0  0  0  0  0  0
  -23.9052  -10.4296   21.0406 C   0  0  0  0  0  0
  -24.3606   -9.4216   21.9186 C   0  0  0  0  0  0
  -23.6286   -8.2247   22.0757 C   0  0  0  0  0  0
  -22.4270   -8.0281   21.3543 C   0  0  0  0  0  0
  -21.9902   -9.0255   20.4645 C   0  0  0  0  0  0
  -22.7227  -10.2136   20.3056 C   0  0  0  0  0  0
  -21.6848   -6.0736   22.5280 C   0  0  0  0  0  0
  -21.4011   -6.5638   23.8214 C   0  0  0  0  0  0
  -21.3658   -5.6791   24.9177 C   0  0  0  0  0  0
  -21.6045   -4.3054   24.7227 C   0  0  0  0  0  0
  -21.8819   -3.8147   23.4347 C   0  0  0  0  0  0
  -21.9192   -4.6964   22.3403 C   0  0  0  0  0  0
  -22.7853  -13.5240   21.1835 C   0  0  0  0  0  0
  -22.1660   -4.2152   21.0981 F   0  0  0  0  0  0
  -21.5632   -3.4538   25.7739 F   0  0  0  0  0  0
  -30.0339  -13.2877   20.4403 N   0  0  0  0  0  0
  -26.3017  -12.9333   20.3377 N   0  0  0  0  0  0
  -25.9310  -11.6492   20.5769 N   0  0  0  0  0  0
  -22.0497  -12.8234   22.0397 N   0  0  0  0  0  0
  -25.4314  -15.1878   20.4101 N   0  0  0  0  0  0
  -31.8289  -14.6424   20.0861 O   0  0  0  0  0  0
  -21.6637   -6.8878   21.4241 O   0  0  0  0  0  0
  -22.3538  -14.5552   20.6692 O   0  0  0  0  0  0
  -24.6135  -31.8684   23.2102 C   0  0  0  0  0  0
  -25.9031  -32.4824   23.8396 C   0  0  1  0  0  0
  -27.2317  -27.4369   20.0996 C   0  0  0  0  0  0
  -25.5888  -33.8622   24.2326 N   0  0  0  0  0  0
  -23.4017  -30.4911   21.5509 C   0  0  2  0  0  0
  -24.8490  -28.9577   20.1151 C   0  0  0  0  0  0
  -22.7406  -29.4656   22.4997 C   0  0  0  0  0  0
  -18.0266  -28.1370   22.8490 C   0  0  0  0  0  0
  -24.1480  -36.7314   23.2645 C   0  0  0  0  0  0
  -25.9299  -30.8355   21.3628 C   0  0  0  0  0  0
  -26.0095  -29.4702   20.7096 C   0  0  0  0  0  0
  -27.2072  -28.7186   20.6956 C   0  0  0  0  0  0
  -26.0577  -26.9414   19.4927 C   0  0  0  0  0  0
  -24.8680  -27.6928   19.5026 C   0  0  0  0  0  0
  -23.6101  -29.8231   20.1656 C   0  0  0  0  0  0
  -25.4105  -36.3112   24.0337 C   0  0  1  0  0  0
  -20.5860  -28.3659   23.1323 C   0  0  2  0  0  0
  -20.6754  -26.9396   22.5426 C   0  0  0  0  0  0
  -19.5739  -26.6382   21.5213 C   0  0  0  0  0  0
  -18.1913  -26.7919   22.1612 C   0  0  0  0  0  0
  -19.1518  -28.8830   23.2903 C   0  0  0  0  0  0
  -18.9450  -30.1434   23.8919 C   0  0  0  0  0  0
  -17.6456  -30.6582   24.0567 C   0  0  0  0  0  0
  -25.9036  -34.9476   23.5131 C   0  0  0  0  0  0
  -16.5346  -29.9087   23.6323 C   0  0  0  0  0  0
  -16.7259  -28.6500   23.0351 C   0  0  0  0  0  0
  -26.4465  -31.6607   25.0723 C   0  0  0  0  0  0
  -25.3733  -31.3695   26.1469 C   0  0  0  0  0  0
  -27.0308  -30.3057   24.6094 C   0  0  0  0  0  0
  -27.6032  -32.4337   25.7495 C   0  0  0  0  0  0
  -27.5577  -37.1811   24.8465 C   0  0  0  0  0  0
  -21.4136  -29.3029   22.3736 N   0  0  0  0  0  0
  -26.4292  -37.3795   23.9409 N   0  0  0  0  0  0
  -24.6664  -31.0791   22.1000 N   0  0  0  0  0  0
  -23.4180  -28.8199   23.3038 O   0  0  0  0  0  0
  -28.3820  -26.6807   20.1021 O   0  0  0  0  0  0
  -26.5612  -34.8926   22.4700 O   0  0  0  0  0  0
  -23.5327  -32.1436   23.7498 O   0  0  0  0  0  0
  -28.9930  -19.9278   21.2053 C   0  0  0  0  0  0
  -31.0290  -19.8434   19.8925 C   0  0  0  0  0  0
  -30.4215  -17.9248   21.3078 C   0  0  0  0  0  0
  -29.8864  -20.5585   20.3053 C   0  0  0  0  0  0
  -29.2499  -18.6258   21.7048 C   0  0  0  0  0  0
  -31.2990  -18.5506   20.3886 C   0  0  0  0  0  0
  -29.0443  -24.2908   20.0215 C   0  0  0  0  0  0
  -30.8226  -16.5737   21.9287 C   0  0  0  0  0  0
  -28.8750  -22.8444   20.5394 C   0  0  0  0  0  0
  -28.2357  -25.3919   20.7329 C   0  0  0  0  0  0
  -28.3413  -18.0658   22.6091 N   0  0  0  0  0  0
  -29.6839  -21.8620   19.8044 N   0  0  0  0  0  0
  -30.1634  -15.3645   21.4075 N   0  0  0  0  0  0
  -29.8089  -24.5421   19.0810 O   0  0  0  0  0  0
  -32.4347  -17.9254   19.9939 F   0  0  0  0  0  0
  -31.4594  -12.4074   19.1022 H   0  0  0  0  0  0
  -30.3207  -11.2965   19.8044 H   0  0  0  0  0  0
  -29.7230  -11.7860   17.4179 H   0  0  0  0  0  0
  -29.6497  -13.4963   17.7637 H   0  0  0  0  0  0
  -27.8243  -11.3096   18.8177 H   0  0  0  0  0  0
  -27.3539  -12.6363   17.7901 H   0  0  0  0  0  0
  -27.7063  -14.2552   19.5797 H   0  0  0  0  0  0
  -28.6780  -11.9495   21.3345 H   0  0  0  0  0  0
  -28.4553  -13.5825   21.8718 H   0  0  0  0  0  0
  -25.2750   -9.5699   22.4764 H   0  0  0  0  0  0
  -24.0003   -7.4643   22.7478 H   0  0  0  0  0  0
  -21.0835   -8.8770   19.8949 H   0  0  0  0  0  0
  -22.3682  -10.9678   19.6166 H   0  0  0  0  0  0
  -21.2000   -7.6146   23.9720 H   0  0  0  0  0  0
  -21.1477   -6.0519   25.9082 H   0  0  0  0  0  0
  -22.0598   -2.7609   23.2845 H   0  0  0  0  0  0
  -22.4104  -11.9887   22.4772 H   0  0  0  0  0  0
  -21.1121  -13.1272   22.2618 H   0  0  0  0  0  0
  -24.6738  -15.8497   20.5374 H   0  0  0  0  0  0
  -26.3026  -15.6312   20.1448 H   0  0  0  0  0  0
  -26.7103  -32.5542   23.1163 H   0  0  0  0  0  0
  -25.0018  -33.9786   25.0454 H   0  0  0  0  0  0
  -22.6896  -31.3069   21.4112 H   0  0  0  0  0  0
  -23.3736  -35.9652   23.3316 H   0  0  0  0  0  0
  -24.3565  -36.8924   22.2055 H   0  0  0  0  0  0
  -23.7234  -37.6519   23.6660 H   0  0  0  0  0  0
  -26.0406  -31.6016   20.5942 H   0  0  0  0  0  0
  -26.8179  -30.8899   21.9806 H   0  0  0  0  0  0
  -28.1033  -29.1091   21.1574 H   0  0  0  0  0  0
  -26.0606  -25.9743   19.0099 H   0  0  0  0  0  0
  -23.9767  -27.2941   19.0373 H   0  0  0  0  0  0
  -23.7166  -30.5972   19.4048 H   0  0  0  0  0  0
  -22.7339  -29.2421   19.8716 H   0  0  0  0  0  0
  -25.1278  -36.1984   25.0829 H   0  0  0  0  0  0
  -20.9944  -28.3227   24.1446 H   0  0  0  0  0  0
  -20.5645  -26.2271   23.3611 H   0  0  0  0  0  0
  -21.6629  -26.7430   22.1237 H   0  0  0  0  0  0
  -19.6907  -25.6298   21.1233 H   0  0  0  0  0  0
  -19.6685  -27.3199   20.6747 H   0  0  0  0  0  0
  -17.4191  -26.6675   21.4005 H   0  0  0  0  0  0
  -18.0298  -26.0049   22.8993 H   0  0  0  0  0  0
  -19.7929  -30.7231   24.2309 H   0  0  0  0  0  0
  -17.5017  -31.6265   24.5163 H   0  0  0  0  0  0
  -15.5353  -30.3004   23.7633 H   0  0  0  0  0  0
  -15.8652  -28.0833   22.7064 H   0  0  0  0  0  0
  -24.5944  -30.6994   25.7813 H   0  0  0  0  0  0
  -24.8872  -32.2832   26.4895 H   0  0  0  0  0  0
  -25.8095  -30.8904   27.0242 H   0  0  0  0  0  0
  -26.2856  -29.6812   24.1154 H   0  0  0  0  0  0
  -27.4094  -29.7297   25.4548 H   0  0  0  0  0  0
  -27.8674  -30.4388   23.9230 H   0  0  0  0  0  0
  -27.2645  -33.3627   26.2095 H   0  0  0  0  0  0
  -28.3831  -32.6922   25.0320 H   0  0  0  0  0  0
  -28.0712  -31.8453   26.5397 H   0  0  0  0  0  0
  -28.2609  -38.0097   24.7513 H   0  0  0  0  0  0
  -28.1060  -36.2627   24.6297 H   0  0  0  0  0  0
  -27.2292  -37.1476   25.8869 H   0  0  0  0  0  0
  -20.9296  -29.8770   21.6975 H   0  0  0  0  0  0
  -26.0180  -38.2873   24.1415 H   0  0  0  0  0  0
  -28.1018  -20.4479   21.5262 H   0  0  0  0  0  0
  -31.7324  -20.2889   19.2048 H   0  0  0  0  0  0
  -30.6158  -16.6199   22.9981 H   0  0  0  0  0  0
  -31.9072  -16.4653   21.8759 H   0  0  0  0  0  0
  -27.8203  -22.5768   20.4657 H   0  0  0  0  0  0
  -29.1397  -22.8263   21.5975 H   0  0  0  0  0  0
  -28.5897  -25.4684   21.7611 H   0  0  0  0  0  0
  -27.1956  -25.0700   20.7887 H   0  0  0  0  0  0
  -27.6350  -18.6526   23.0424 H   0  0  0  0  0  0
  -28.6079  -17.2720   23.1798 H   0  0  0  0  0  0
  -30.4054  -22.2785   19.2180 H   0  0  0  0  0  0
  -29.2479  -15.1479   21.7705 H   0  0  0  0  0  0
  1 25  1  0  0  0
  1 30  2  0  0  0
  1 83  1  0  0  0
  2  3  1  0  0  0
  2 25  1  0  0  0
  2 86  1  0  0  0
  2 87  1  0  0  0
  3  4  1  0  0  0
  3 88  1  0  0  0
  3 89  1  0  0  0
  4  5  1  0  0  0
  4 90  1  0  0  0
  4 91  1  0  0  0
  5  6  1  0  0  0
  5 26  1  0  0  0
  5 92  1  0  0  0
  6 25  1  0  0  0
  6 93  1  0  0  0
  6 94  1  0  0  0
  7  8  2  0  0  0
  7 26  1  0  0  0
  7 29  1  0  0  0
  8  9  1  0  0  0
  8 22  1  0  0  0
  9 10  1  0  0  0
  9 27  2  0  0  0
 10 11  2  0  0  0
 10 15  1  0  0  0
 11 12  1  0  0  0
 11 95  1  0  0  0
 12 13  2  0  0  0
 12 96  1  0  0  0
 13 14  1  0  0  0
 13 31  1  0  0  0
 14 15  2  0  0  0
 14 97  1  0  0  0
 15 98  1  0  0  0
 16 17  2  0  0  0
 16 21  1  0  0  0
 16 31  1  0  0  0
 17 18  1  0  0  0
 17 99  1  0  0  0
 18 19  2  0  0  0
 18100  1  0  0  0
 19 20  1  0  0  0
 19 24  1  0  0  0
 20 21  2  0  0  0
 20101  1  0  0  0
 21 23  1  0  0  0
 22 28  1  0  0  0
 22 32  2  0  0  0
 26 27  1  0  0  0
 28102  1  0  0  0
 28103  1  0  0  0
 29104  1  0  0  0
 29105  1  0  0  0
 33 34  1  0  0  0
 33 66  1  0  0  0
 33 70  2  0  0  0
 34 36  1  0  0  0
 34 59  1  0  0  0
 34106  1  0  0  0
 35 44  2  0  0  0
 35 45  1  0  0  0
 35 68  1  0  0  0
 36 56  1  0  0  0
 36107  1  0  0  0
 37 39  1  0  0  0
 37 47  1  0  0  0
 37 66  1  0  0  0
 37108  1  0  0  0
 38 43  2  0  0  0
 38 46  1  0  0  0
 38 47  1  0  0  0
 39 64  1  0  0  0
 39 67  2  0  0  0
 40 52  1  0  0  0
 40 53  2  0  0  0
 40 58  1  0  0  0
 41109  1  0  0  0
 41110  1  0  0  0
 41111  1  0  0  0
 41 48  1  0  0  0
 42 43  1  0  0  0
 42 66  1  0  0  0
 42112  1  0  0  0
 42113  1  0  0  0
 43 44  1  0  0  0
 44114  1  0  0  0
 45 46  2  0  0  0
 45115  1  0  0  0
 46116  1  0  0  0
 47117  1  0  0  0
 47118  1  0  0  0
 48 56  1  0  0  0
 48 65  1  0  0  0
 48119  1  0  0  0
 49 50  1  0  0  0
 49 53  1  0  0  0
 49 64  1  0  0  0
 49120  1  0  0  0
 50 51  1  0  0  0
 50121  1  0  0  0
 50122  1  0  0  0
 51 52  1  0  0  0
 51123  1  0  0  0
 51124  1  0  0  0
 52125  1  0  0  0
 52126  1  0  0  0
 53 54  1  0  0  0
 54 55  2  0  0  0
 54127  1  0  0  0
 55 57  1  0  0  0
 55128  1  0  0  0
 56 69  2  0  0  0
 57 58  2  0  0  0
 57129  1  0  0  0
 58130  1  0  0  0
 59 60  1  0  0  0
 59 61  1  0  0  0
 59 62  1  0  0  0
 60131  1  0  0  0
 60132  1  0  0  0
 60133  1  0  0  0
 61134  1  0  0  0
 61135  1  0  0  0
 61136  1  0  0  0
 62137  1  0  0  0
 62138  1  0  0  0
 62139  1  0  0  0
 63 65  1  0  0  0
 63140  1  0  0  0
 63141  1  0  0  0
 63142  1  0  0  0
 64143  1  0  0  0
 65144  1  0  0  0
 68 80  1  0  0  0
 71 74  2  0  0  0
 71 75  1  0  0  0
 71145  1  0  0  0
 72 74  1  0  0  0
 72 76  2  0  0  0
 72146  1  0  0  0
 73 75  2  0  0  0
 73 76  1  0  0  0
 73 78  1  0  0  0
 74 82  1  0  0  0
 75 81  1  0  0  0
 76 85  1  0  0  0
 77 79  1  0  0  0
 77 80  1  0  0  0
 77 84  2  0  0  0
 78 83  1  0  0  0
 78147  1  0  0  0
 78148  1  0  0  0
 79 82  1  0  0  0
 79149  1  0  0  0
 79150  1  0  0  0
 80151  1  0  0  0
 80152  1  0  0  0
 81153  1  0  0  0
 81154  1  0  0  0
 82155  1  0  0  0
 83156  1  0  0  0
M  ISO  4   1 100  68 101  80 101  83 100
M  END
> <chiral flag>
0

> <version>
0

> <s_m_source_file>
/data/baiqing/PycharmProjects/Reinvent-master-3.2/result/LINK_invent/BTK/process_docking_weight1_custom_product_contain_oxygen_bond_distance_aromatic_linkinvent_7_9_3/rearranged_h_0099.sdf

> <i_m_source_file_index>
16

> <r_mmod_Potential_Energy-OPLS-2005>
22.6894607543945

> <r_mmod_Stretch_Energy-OPLS-2005>
38.8298454284668

> <r_mmod_Bend_Energy-OPLS-2005>
103.326080322266

> <r_mmod_Torsional_Energy-OPLS-2005>
211.089981079102

> <r_mmod_Improper_Torsional_Energy-OPLS-2005>
6.2392840385437

> <r_mmod_Van_der_Waal_Energy-OPLS-2005>
152.038986206055

> <r_mmod_Electrostatic_Energy-OPLS-2005>
-248.267303466797

> <r_mmod_Solvation_Energy-OPLS-2005>
-251.111572265625

> <b_mmod_Minimization_Converged-OPLS-2005>
0

> <r_mmod_RMS_Derivative-OPLS-2005>
0.789722800254822

$$$$
16
                    3D
 Structure written by MMmdl.
161170  0  0  1  0            999 V2000
  -30.6732  -14.6748   20.4843 C   0  0  0  0  0  0
  -30.4167  -12.4207   19.4605 C   0  0  0  0  0  0
  -29.4990  -12.5269   18.2249 C   0  0  0  0  0  0
  -28.0230  -12.3690   18.6370 C   0  0  0  0  0  0
  -27.6442  -13.2394   19.8690 C   0  0  2  0  0  0
  -28.6918  -13.1500   20.9976 C   0  0  0  0  0  0
  -25.2518  -13.8162   20.5679 C   0  0  0  0  0  0
  -24.1802  -13.0434   20.9174 C   0  0  0  0  0  0
  -24.6423  -11.6888   20.8859 C   0  0  0  0  0  0
  -23.9090  -10.4297   21.0543 C   0  0  0  0  0  0
  -24.3708   -9.4111   21.9159 C   0  0  0  0  0  0
  -23.6388   -8.2135   22.0704 C   0  0  0  0  0  0
  -22.4313   -8.0267   21.3582 C   0  0  0  0  0  0
  -21.9876   -9.0345   20.4806 C   0  0  0  0  0  0
  -22.7196  -10.2251   20.3303 C   0  0  0  0  0  0
  -21.6864   -6.0759   22.5321 C   0  0  0  0  0  0
  -21.3997   -6.5652   23.8261 C   0  0  0  0  0  0
  -21.3617   -5.6795   24.9193 C   0  0  0  0  0  0
  -21.6041   -4.3069   24.7241 C   0  0  0  0  0  0
  -21.8838   -3.8178   23.4360 C   0  0  0  0  0  0
  -21.9171   -4.6990   22.3406 C   0  0  0  0  0  0
  -22.7828  -13.5274   21.1723 C   0  0  0  0  0  0
  -22.1660   -4.2158   21.0986 F   0  0  0  0  0  0
  -21.5656   -3.4564   25.7755 F   0  0  0  0  0  0
  -29.9939  -13.4812   20.4029 N   0  0  0  0  0  0
  -26.2988  -12.9407   20.3406 N   0  0  0  0  0  0
  -25.9344  -11.6543   20.5883 N   0  0  0  0  0  0
  -22.0370  -12.8411   22.0285 N   0  0  0  0  0  0
  -25.4094  -15.1866   20.4058 N   0  0  0  0  0  0
  -31.8683  -14.7138   20.1810 O   0  0  0  0  0  0
  -21.6644   -6.8876   21.4264 O   0  0  0  0  0  0
  -22.3548  -14.5519   20.6392 O   0  0  0  0  0  0
  -24.6277  -31.8556   23.1956 C   0  0  0  0  0  0
  -25.9094  -32.4759   23.8319 C   0  0  1  0  0  0
  -27.2321  -27.2822   20.1177 C   0  0  0  0  0  0
  -25.5896  -33.8577   24.2237 N   0  0  0  0  0  0
  -23.4244  -30.4706   21.5412 C   0  0  2  0  0  0
  -24.8761  -28.9254   20.0998 C   0  0  0  0  0  0
  -22.7477  -29.4584   22.4952 C   0  0  0  0  0  0
  -18.0284  -28.1380   22.8483 C   0  0  0  0  0  0
  -24.1478  -36.7295   23.2652 C   0  0  0  0  0  0
  -25.9635  -30.7724   21.3714 C   0  0  0  0  0  0
  -26.0402  -29.3928   20.7230 C   0  0  0  0  0  0
  -27.2139  -28.5785   20.7289 C   0  0  0  0  0  0
  -26.0544  -26.8962   19.4376 C   0  0  0  0  0  0
  -24.8912  -27.6881   19.4395 C   0  0  0  0  0  0
  -23.6352  -29.7969   20.1585 C   0  0  0  0  0  0
  -25.4112  -36.3079   24.0336 C   0  0  1  0  0  0
  -20.5893  -28.3685   23.1283 C   0  0  2  0  0  0
  -20.6776  -26.9410   22.5426 C   0  0  0  0  0  0
  -19.5764  -26.6379   21.5220 C   0  0  0  0  0  0
  -18.1934  -26.7919   22.1622 C   0  0  0  0  0  0
  -19.1540  -28.8857   23.2869 C   0  0  0  0  0  0
  -18.9463  -30.1465   23.8886 C   0  0  0  0  0  0
  -17.6464  -30.6596   24.0554 C   0  0  0  0  0  0
  -25.9056  -34.9454   23.5097 C   0  0  0  0  0  0
  -16.5358  -29.9094   23.6333 C   0  0  0  0  0  0
  -16.7269  -28.6505   23.0358 C   0  0  0  0  0  0
  -26.4474  -31.6580   25.0695 C   0  0  0  0  0  0
  -25.3697  -31.3740   26.1407 C   0  0  0  0  0  0
  -27.0304  -30.3010   24.6129 C   0  0  0  0  0  0
  -27.6028  -32.4311   25.7483 C   0  0  0  0  0  0
  -27.5567  -37.1805   24.8462 C   0  0  0  0  0  0
  -21.4191  -29.3027   22.3671 N   0  0  0  0  0  0
  -26.4273  -37.3783   23.9417 N   0  0  0  0  0  0
  -24.6915  -31.0508   22.0939 N   0  0  0  0  0  0
  -23.4172  -28.8182   23.3089 O   0  0  0  0  0  0
  -28.3514  -26.4275   20.2118 O   0  0  0  0  0  0
  -26.5645  -34.8915   22.4676 O   0  0  0  0  0  0
  -23.5426  -32.1407   23.7228 O   0  0  0  0  0  0
  -30.0407  -19.1114   20.4574 C   0  0  0  0  0  0
  -29.6916  -20.4976   20.2409 C   0  0  0  0  0  0
  -27.5601  -20.0769   21.2322 C   0  0  0  0  0  0
  -29.1520  -18.1638   21.0543 C   0  0  0  0  0  0
  -28.4169  -21.0301   20.5957 C   0  0  0  0  0  0
  -27.9008  -18.7041   21.4636 C   0  0  0  0  0  0
  -26.6299  -22.4019   19.7268 C   0  0  0  0  0  0
  -29.5306  -16.6816   21.3691 C   0  0  0  0  0  0
  -25.7699  -23.4102   20.4697 C   0  0  0  0  0  0
  -26.7585  -24.0299   21.4580 C   0  0  0  0  0  0
  -28.1220  -23.7607   20.8024 C   0  0  2  0  0  0
  -26.4748  -18.2171   23.3161 C   0  0  0  0  0  0
  -28.3663  -24.9928   19.7734 C   0  0  0  0  0  0
  -27.8976  -22.3779   20.1885 N   0  0  0  0  0  0
  -29.9695  -15.8500   20.3783 N   0  0  0  0  0  0
  -26.1746  -21.6871   18.8307 O   0  0  0  0  0  0
  -29.3963  -16.2714   22.5269 O   0  0  0  0  0  0
  -26.9749  -17.8594   22.0295 O   0  0  0  0  0  0
  -31.4634  -12.5160   19.1595 H   0  0  0  0  0  0
  -30.3308  -11.4364   19.9266 H   0  0  0  0  0  0
  -29.7703  -11.7840   17.4777 H   0  0  0  0  0  0
  -29.6341  -13.4961   17.7434 H   0  0  0  0  0  0
  -27.8483  -11.3167   18.8610 H   0  0  0  0  0  0
  -27.3775  -12.6138   17.7951 H   0  0  0  0  0  0
  -27.6481  -14.2741   19.5277 H   0  0  0  0  0  0
  -28.7120  -12.1523   21.4387 H   0  0  0  0  0  0
  -28.4527  -13.8435   21.8061 H   0  0  0  0  0  0
  -25.2927   -9.5486   22.4680 H   0  0  0  0  0  0
  -24.0219   -7.4487   22.7329 H   0  0  0  0  0  0
  -21.0686   -8.9005   19.9250 H   0  0  0  0  0  0
  -22.3634  -10.9931   19.6599 H   0  0  0  0  0  0
  -21.2031   -7.6161   23.9810 H   0  0  0  0  0  0
  -21.1387   -6.0470   25.9101 H   0  0  0  0  0  0
  -22.0645   -2.7649   23.2875 H   0  0  0  0  0  0
  -22.3856  -12.0080   22.4759 H   0  0  0  0  0  0
  -21.0981  -13.1500   22.2338 H   0  0  0  0  0  0
  -24.6217  -15.8143   20.5163 H   0  0  0  0  0  0
  -26.2710  -15.6644   20.1745 H   0  0  0  0  0  0
  -26.7153  -32.5397   23.1060 H   0  0  0  0  0  0
  -24.9956  -33.9724   25.0312 H   0  0  0  0  0  0
  -22.7191  -31.2909   21.3931 H   0  0  0  0  0  0
  -23.3731  -35.9629   23.3314 H   0  0  0  0  0  0
  -24.3560  -36.8916   22.2058 H   0  0  0  0  0  0
  -23.7215  -37.6504   23.6667 H   0  0  0  0  0  0
  -26.0737  -31.5205   20.5853 H   0  0  0  0  0  0
  -26.8521  -30.8437   21.9874 H   0  0  0  0  0  0
  -28.0985  -28.9259   21.2410 H   0  0  0  0  0  0
  -25.9966  -25.9712   18.8919 H   0  0  0  0  0  0
  -24.0179  -27.3372   18.9075 H   0  0  0  0  0  0
  -23.7214  -30.5630   19.3879 H   0  0  0  0  0  0
  -22.7589  -29.2062   19.8811 H   0  0  0  0  0  0
  -25.1279  -36.1949   25.0828 H   0  0  0  0  0  0
  -20.9963  -28.3264   24.1412 H   0  0  0  0  0  0
  -20.5667  -26.2313   23.3632 H   0  0  0  0  0  0
  -21.6645  -26.7428   22.1241 H   0  0  0  0  0  0
  -19.6938  -25.6289   21.1257 H   0  0  0  0  0  0
  -19.6716  -27.3170   20.6733 H   0  0  0  0  0  0
  -17.4215  -26.6661   21.4015 H   0  0  0  0  0  0
  -18.0335  -26.0068   22.9025 H   0  0  0  0  0  0
  -19.7951  -30.7273   24.2251 H   0  0  0  0  0  0
  -17.5033  -31.6271   24.5152 H   0  0  0  0  0  0
  -15.5366  -30.2994   23.7677 H   0  0  0  0  0  0
  -15.8654  -28.0815   22.7095 H   0  0  0  0  0  0
  -24.5890  -30.7058   25.7740 H   0  0  0  0  0  0
  -24.8855  -32.2912   26.4778 H   0  0  0  0  0  0
  -25.8010  -30.8969   27.0213 H   0  0  0  0  0  0
  -26.2883  -29.6808   24.1081 H   0  0  0  0  0  0
  -27.3936  -29.7216   25.4624 H   0  0  0  0  0  0
  -27.8766  -30.4297   23.9374 H   0  0  0  0  0  0
  -27.2641  -33.3630   26.2026 H   0  0  0  0  0  0
  -28.3873  -32.6850   25.0338 H   0  0  0  0  0  0
  -28.0648  -31.8450   26.5434 H   0  0  0  0  0  0
  -28.2590  -38.0099   24.7505 H   0  0  0  0  0  0
  -28.1057  -36.2631   24.6283 H   0  0  0  0  0  0
  -27.2292  -37.1437   25.8868 H   0  0  0  0  0  0
  -20.9398  -29.8690   21.6808 H   0  0  0  0  0  0
  -26.0160  -38.2862   24.1425 H   0  0  0  0  0  0
  -31.0250  -18.7704   20.1667 H   0  0  0  0  0  0
  -30.4153  -21.1451   19.7678 H   0  0  0  0  0  0
  -26.5625  -20.3807   21.5115 H   0  0  0  0  0  0
  -24.9423  -22.9124   20.9747 H   0  0  0  0  0  0
  -25.3557  -24.1297   19.7678 H   0  0  0  0  0  0
  -26.6957  -23.5183   22.4186 H   0  0  0  0  0  0
  -26.5621  -25.0869   21.6376 H   0  0  0  0  0  0
  -28.9191  -23.7300   21.5475 H   0  0  0  0  0  0
  -26.7189  -19.2299   23.6283 H   0  0  0  0  0  0
  -26.8930  -17.5390   24.0631 H   0  0  0  0  0  0
  -25.3893  -18.1110   23.3270 H   0  0  0  0  0  0
  -27.7553  -24.8681   18.8793 H   0  0  0  0  0  0
  -29.3707  -24.8358   19.3832 H   0  0  0  0  0  0
  -30.2007  -16.3687   19.5479 H   0  0  0  0  0  0
  1 25  1  0  0  0
  1 30  2  0  0  0
  1 85  1  0  0  0
  2  3  1  0  0  0
  2 25  1  0  0  0
  2 89  1  0  0  0
  2 90  1  0  0  0
  3  4  1  0  0  0
  3 91  1  0  0  0
  3 92  1  0  0  0
  4  5  1  0  0  0
  4 93  1  0  0  0
  4 94  1  0  0  0
  5  6  1  0  0  0
  5 26  1  0  0  0
  5 95  1  0  0  0
  6 25  1  0  0  0
  6 96  1  0  0  0
  6 97  1  0  0  0
  7  8  2  0  0  0
  7 26  1  0  0  0
  7 29  1  0  0  0
  8  9  1  0  0  0
  8 22  1  0  0  0
  9 10  1  0  0  0
  9 27  2  0  0  0
 10 11  2  0  0  0
 10 15  1  0  0  0
 11 12  1  0  0  0
 11 98  1  0  0  0
 12 13  2  0  0  0
 12 99  1  0  0  0
 13 14  1  0  0  0
 13 31  1  0  0  0
 14 15  2  0  0  0
 14100  1  0  0  0
 15101  1  0  0  0
 16 17  2  0  0  0
 16 21  1  0  0  0
 16 31  1  0  0  0
 17 18  1  0  0  0
 17102  1  0  0  0
 18 19  2  0  0  0
 18103  1  0  0  0
 19 20  1  0  0  0
 19 24  1  0  0  0
 20 21  2  0  0  0
 20104  1  0  0  0
 21 23  1  0  0  0
 22 28  1  0  0  0
 22 32  2  0  0  0
 26 27  1  0  0  0
 28105  1  0  0  0
 28106  1  0  0  0
 29107  1  0  0  0
 29108  1  0  0  0
 33 34  1  0  0  0
 33 66  1  0  0  0
 33 70  2  0  0  0
 34 36  1  0  0  0
 34 59  1  0  0  0
 34109  1  0  0  0
 35 44  2  0  0  0
 35 45  1  0  0  0
 35 68  1  0  0  0
 36 56  1  0  0  0
 36110  1  0  0  0
 37 39  1  0  0  0
 37 47  1  0  0  0
 37 66  1  0  0  0
 37111  1  0  0  0
 38 43  2  0  0  0
 38 46  1  0  0  0
 38 47  1  0  0  0
 39 64  1  0  0  0
 39 67  2  0  0  0
 40 52  1  0  0  0
 40 53  2  0  0  0
 40 58  1  0  0  0
 41112  1  0  0  0
 41113  1  0  0  0
 41114  1  0  0  0
 41 48  1  0  0  0
 42 43  1  0  0  0
 42 66  1  0  0  0
 42115  1  0  0  0
 42116  1  0  0  0
 43 44  1  0  0  0
 44117  1  0  0  0
 45 46  2  0  0  0
 45118  1  0  0  0
 46119  1  0  0  0
 47120  1  0  0  0
 47121  1  0  0  0
 48 56  1  0  0  0
 48 65  1  0  0  0
 48122  1  0  0  0
 49 50  1  0  0  0
 49 53  1  0  0  0
 49 64  1  0  0  0
 49123  1  0  0  0
 50 51  1  0  0  0
 50124  1  0  0  0
 50125  1  0  0  0
 51 52  1  0  0  0
 51126  1  0  0  0
 51127  1  0  0  0
 52128  1  0  0  0
 52129  1  0  0  0
 53 54  1  0  0  0
 54 55  2  0  0  0
 54130  1  0  0  0
 55 57  1  0  0  0
 55131  1  0  0  0
 56 69  2  0  0  0
 57 58  2  0  0  0
 57132  1  0  0  0
 58133  1  0  0  0
 59 60  1  0  0  0
 59 61  1  0  0  0
 59 62  1  0  0  0
 60134  1  0  0  0
 60135  1  0  0  0
 60136  1  0  0  0
 61137  1  0  0  0
 61138  1  0  0  0
 61139  1  0  0  0
 62140  1  0  0  0
 62141  1  0  0  0
 62142  1  0  0  0
 63 65  1  0  0  0
 63143  1  0  0  0
 63144  1  0  0  0
 63145  1  0  0  0
 64146  1  0  0  0
 65147  1  0  0  0
 68 83  1  0  0  0
 71 72  2  0  0  0
 71 74  1  0  0  0
 71148  1  0  0  0
 72 75  1  0  0  0
 72149  1  0  0  0
 73 75  2  0  0  0
 73 76  1  0  0  0
 73150  1  0  0  0
 74 76  2  0  0  0
 74 78  1  0  0  0
 75 84  1  0  0  0
 76 88  1  0  0  0
 77 79  1  0  0  0
 77 84  1  0  0  0
 77 86  2  0  0  0
 78 85  1  0  0  0
 78 87  2  0  0  0
 79 80  1  0  0  0
 79151  1  0  0  0
 79152  1  0  0  0
 80 81  1  0  0  0
 80153  1  0  0  0
 80154  1  0  0  0
 81 83  1  0  0  0
 81 84  1  0  0  0
 81155  1  0  0  0
 82 88  1  0  0  0
 82156  1  0  0  0
 82157  1  0  0  0
 82158  1  0  0  0
 83159  1  0  0  0
 83160  1  0  0  0
 85161  1  0  0  0
M  ISO  4   1 100  68 101  83 101  85 100
M  END
> <chiral flag>
0

> <version>
0

> <s_m_source_file>
/data/baiqing/PycharmProjects/Reinvent-master-3.2/result/LINK_invent/BTK/process_docking_weight1_custom_product_contain_oxygen_bond_distance_aromatic_linkinvent_7_9_3/rearranged_h_0099.sdf

> <i_m_source_file_index>
17

> <r_mmod_Potential_Energy-OPLS-2005>
354.802917480469

> <r_mmod_Stretch_Energy-OPLS-2005>
111.942817687988

> <r_mmod_Bend_Energy-OPLS-2005>
222.800704956055

> <r_mmod_Torsional_Energy-OPLS-2005>
425.896911621094

> <r_mmod_Improper_Torsional_Energy-OPLS-2005>
22.6875820159912

> <r_mmod_Van_der_Waal_Energy-OPLS-2005>
136.821731567383

> <r_mmod_Electrostatic_Energy-OPLS-2005>
-412.784118652344

> <r_mmod_Solvation_Energy-OPLS-2005>
-219.027359008789

> <b_mmod_Minimization_Converged-OPLS-2005>
0

> <r_mmod_RMS_Derivative-OPLS-2005>
7.11765575408936

$$$$
17
                    3D
 Structure written by MMmdl.
153161  0  0  1  0            999 V2000
  -30.6603  -14.6725   20.4792 C   0  0  0  0  0  0
  -30.4246  -12.4157   19.4601 C   0  0  0  0  0  0
  -29.4972  -12.4879   18.2287 C   0  0  0  0  0  0
  -28.0270  -12.3182   18.6530 C   0  0  0  0  0  0
  -27.6416  -13.2259   19.8519 C   0  0  2  0  0  0
  -28.6898  -13.1529   20.9843 C   0  0  0  0  0  0
  -25.2514  -13.8193   20.5726 C   0  0  0  0  0  0
  -24.1790  -13.0442   20.9218 C   0  0  0  0  0  0
  -24.6370  -11.6922   20.8765 C   0  0  0  0  0  0
  -23.9059  -10.4291   21.0435 C   0  0  0  0  0  0
  -24.3609   -9.4212   21.9208 C   0  0  0  0  0  0
  -23.6288   -8.2242   22.0757 C   0  0  0  0  0  0
  -22.4278   -8.0277   21.3535 C   0  0  0  0  0  0
  -21.9919   -9.0257   20.4650 C   0  0  0  0  0  0
  -22.7237  -10.2138   20.3074 C   0  0  0  0  0  0
  -21.6849   -6.0747   22.5280 C   0  0  0  0  0  0
  -21.4013   -6.5652   23.8216 C   0  0  0  0  0  0
  -21.3658   -5.6798   24.9176 C   0  0  0  0  0  0
  -21.6037   -4.3063   24.7224 C   0  0  0  0  0  0
  -21.8816   -3.8157   23.4345 C   0  0  0  0  0  0
  -21.9191   -4.6976   22.3400 C   0  0  0  0  0  0
  -22.7815  -13.5231   21.1881 C   0  0  0  0  0  0
  -22.1658   -4.2164   21.0976 F   0  0  0  0  0  0
  -21.5628   -3.4540   25.7737 F   0  0  0  0  0  0
  -29.9946  -13.4765   20.3951 N   0  0  0  0  0  0
  -26.2942  -12.9394   20.3328 N   0  0  0  0  0  0
  -25.9299  -11.6540   20.5788 N   0  0  0  0  0  0
  -22.0458  -12.8218   22.0432 N   0  0  0  0  0  0
  -25.4219  -15.1918   20.4146 N   0  0  0  0  0  0
  -31.8517  -14.7418   20.1696 O   0  0  0  0  0  0
  -21.6634   -6.8884   21.4242 O   0  0  0  0  0  0
  -22.3506  -14.5551   20.6737 O   0  0  0  0  0  0
  -24.6269  -31.8584   23.2018 C   0  0  0  0  0  0
  -25.9110  -32.4776   23.8353 C   0  0  1  0  0  0
  -27.2274  -27.3085   20.1103 C   0  0  0  0  0  0
  -25.5925  -33.8581   24.2273 N   0  0  0  0  0  0
  -23.4202  -30.4801   21.5460 C   0  0  2  0  0  0
  -24.8662  -28.9352   20.1123 C   0  0  0  0  0  0
  -22.7472  -29.4597   22.4945 C   0  0  0  0  0  0
  -18.0269  -28.1368   22.8480 C   0  0  0  0  0  0
  -24.1493  -36.7282   23.2644 C   0  0  0  0  0  0
  -25.9620  -30.7863   21.3746 C   0  0  0  0  0  0
  -26.0355  -29.4126   20.7168 C   0  0  0  0  0  0
  -27.2138  -28.6087   20.7091 C   0  0  0  0  0  0
  -26.0227  -26.8765   19.5070 C   0  0  0  0  0  0
  -24.8625  -27.6719   19.5036 C   0  0  0  0  0  0
  -23.6363  -29.8170   20.1610 C   0  0  0  0  0  0
  -25.4110  -36.3074   24.0329 C   0  0  1  0  0  0
  -20.5871  -28.3664   23.1299 C   0  0  2  0  0  0
  -20.6762  -26.9394   22.5423 C   0  0  0  0  0  0
  -19.5759  -26.6367   21.5218 C   0  0  0  0  0  0
  -18.1913  -26.7908   22.1611 C   0  0  0  0  0  0
  -19.1525  -28.8833   23.2879 C   0  0  0  0  0  0
  -18.9469  -30.1443   23.8886 C   0  0  0  0  0  0
  -17.6473  -30.6581   24.0563 C   0  0  0  0  0  0
  -25.9051  -34.9452   23.5094 C   0  0  0  0  0  0
  -16.5357  -29.9082   23.6349 C   0  0  0  0  0  0
  -16.7252  -28.6497   23.0347 C   0  0  0  0  0  0
  -26.4501  -31.6600   25.0735 C   0  0  0  0  0  0
  -25.3738  -31.3723   26.1471 C   0  0  0  0  0  0
  -27.0355  -30.3032   24.6167 C   0  0  0  0  0  0
  -27.6058  -32.4357   25.7488 C   0  0  0  0  0  0
  -27.5574  -37.1786   24.8451 C   0  0  0  0  0  0
  -21.4183  -29.3030   22.3711 N   0  0  0  0  0  0
  -26.4277  -37.3780   23.9421 N   0  0  0  0  0  0
  -24.6886  -31.0596   22.0978 N   0  0  0  0  0  0
  -23.4195  -28.8132   23.3018 O   0  0  0  0  0  0
  -28.3656  -26.4846   20.1765 O   0  0  0  0  0  0
  -26.5628  -34.8922   22.4662 O   0  0  0  0  0  0
  -23.5431  -32.1384   23.7341 O   0  0  0  0  0  0
  -28.9008  -20.8079   21.1548 C   0  0  0  0  0  0
  -29.8651  -20.5166   18.9829 C   0  0  0  0  0  0
  -29.2105  -19.4379   21.4691 C   0  0  0  0  0  0
  -29.8947  -18.5790   20.5455 C   0  0  0  0  0  0
  -29.2397  -21.3975   19.9045 C   0  0  0  0  0  0
  -30.1895  -19.1621   19.2848 C   0  0  0  0  0  0
  -28.7049  -23.8341   20.1347 C   0  0  0  0  0  0
  -28.8295  -18.9259   22.8485 C   0  0  0  0  0  0
  -30.5520  -17.1917   20.9521 C   0  0  0  0  0  0
  -28.4978  -25.2252   19.4048 C   0  0  0  0  0  0
  -28.9850  -22.7486   19.4648 N   0  0  0  0  0  0
  -29.9450  -15.8227   20.7310 N   0  0  0  0  0  0
  -30.8465  -18.4306   18.3518 F   0  0  0  0  0  0
  -31.4657  -12.5270   19.1512 H   0  0  0  0  0  0
  -30.3586  -11.4378   19.9409 H   0  0  0  0  0  0
  -29.7673  -11.7143   17.5090 H   0  0  0  0  0  0
  -29.6262  -13.4437   17.7187 H   0  0  0  0  0  0
  -27.8906  -11.2704   18.9275 H   0  0  0  0  0  0
  -27.3612  -12.5013   17.8089 H   0  0  0  0  0  0
  -27.6391  -14.2474   19.4687 H   0  0  0  0  0  0
  -28.7104  -12.1587   21.4334 H   0  0  0  0  0  0
  -28.4377  -13.8472   21.7886 H   0  0  0  0  0  0
  -25.2749   -9.5697   22.4792 H   0  0  0  0  0  0
  -24.0002   -7.4641   22.7471 H   0  0  0  0  0  0
  -21.0852   -8.8773   19.8951 H   0  0  0  0  0  0
  -22.3699  -10.9684   19.6188 H   0  0  0  0  0  0
  -21.2002   -7.6158   23.9730 H   0  0  0  0  0  0
  -21.1481   -6.0526   25.9077 H   0  0  0  0  0  0
  -22.0593   -2.7620   23.2841 H   0  0  0  0  0  0
  -22.4061  -11.9856   22.4802 H   0  0  0  0  0  0
  -21.1080  -13.1244   22.2652 H   0  0  0  0  0  0
  -24.6562  -15.8471   20.5300 H   0  0  0  0  0  0
  -26.2696  -15.6331   20.0826 H   0  0  0  0  0  0
  -26.7171  -32.5443   23.1096 H   0  0  0  0  0  0
  -25.0125  -33.9754   25.0443 H   0  0  0  0  0  0
  -22.7128  -31.2994   21.4008 H   0  0  0  0  0  0
  -23.3772  -35.9598   23.3278 H   0  0  0  0  0  0
  -24.3588  -36.8931   22.2067 H   0  0  0  0  0  0
  -23.7236  -37.6468   23.6684 H   0  0  0  0  0  0
  -26.0921  -31.5516   20.6078 H   0  0  0  0  0  0
  -26.8434  -30.8348   22.0039 H   0  0  0  0  0  0
  -28.1125  -28.9702   21.1893 H   0  0  0  0  0  0
  -25.9217  -25.9009   19.0607 H   0  0  0  0  0  0
  -23.9611  -27.2889   19.0460 H   0  0  0  0  0  0
  -23.7595  -30.5975   19.4091 H   0  0  0  0  0  0
  -22.7549  -29.2521   19.8532 H   0  0  0  0  0  0
  -25.1285  -36.1917   25.0818 H   0  0  0  0  0  0
  -20.9939  -28.3248   24.1428 H   0  0  0  0  0  0
  -20.5711  -26.2257   23.3603 H   0  0  0  0  0  0
  -21.6632  -26.7451   22.1190 H   0  0  0  0  0  0
  -19.6942  -25.6289   21.1239 H   0  0  0  0  0  0
  -19.6719  -27.3195   20.6770 H   0  0  0  0  0  0
  -17.4200  -26.6684   21.3996 H   0  0  0  0  0  0
  -18.0298  -26.0031   22.8978 H   0  0  0  0  0  0
  -19.7956  -30.7256   24.2249 H   0  0  0  0  0  0
  -17.5035  -31.6270   24.5147 H   0  0  0  0  0  0
  -15.5372  -30.2992   23.7682 H   0  0  0  0  0  0
  -15.8636  -28.0840   22.7057 H   0  0  0  0  0  0
  -24.5919  -30.7054   25.7806 H   0  0  0  0  0  0
  -24.8924  -32.2888   26.4922 H   0  0  0  0  0  0
  -25.8092  -30.8900   27.0238 H   0  0  0  0  0  0
  -26.2924  -29.6772   24.1213 H   0  0  0  0  0  0
  -27.4105  -29.7294   25.4658 H   0  0  0  0  0  0
  -27.8757  -30.4342   23.9337 H   0  0  0  0  0  0
  -27.2664  -33.3682   26.2014 H   0  0  0  0  0  0
  -28.3892  -32.6888   25.0325 H   0  0  0  0  0  0
  -28.0683  -31.8512   26.5458 H   0  0  0  0  0  0
  -28.2552  -38.0129   24.7571 H   0  0  0  0  0  0
  -28.1122  -36.2666   24.6184 H   0  0  0  0  0  0
  -27.2301  -37.1307   25.8856 H   0  0  0  0  0  0
  -20.9358  -29.8764   21.6936 H   0  0  0  0  0  0
  -26.0149  -38.2833   24.1501 H   0  0  0  0  0  0
  -28.3984  -21.4117   21.9003 H   0  0  0  0  0  0
  -30.1377  -20.8967   18.0081 H   0  0  0  0  0  0
  -28.6156  -23.8553   21.2247 H   0  0  0  0  0  0
  -27.9298  -19.4234   23.2148 H   0  0  0  0  0  0
  -29.6349  -19.1153   23.5588 H   0  0  0  0  0  0
  -28.6208  -17.8557   22.8386 H   0  0  0  0  0  0
  -30.7961  -17.2422   22.0132 H   0  0  0  0  0  0
  -31.5300  -17.2025   20.4694 H   0  0  0  0  0  0
  -27.7360  -25.0983   18.6403 H   0  0  0  0  0  0
  -29.3994  -25.3773   18.8138 H   0  0  0  0  0  0
  -28.9520  -15.7278   20.8791 H   0  0  0  0  0  0
  1 25  1  0  0  0
  1 30  2  0  0  0
  1 82  1  0  0  0
  2  3  1  0  0  0
  2 25  1  0  0  0
  2 84  1  0  0  0
  2 85  1  0  0  0
  3  4  1  0  0  0
  3 86  1  0  0  0
  3 87  1  0  0  0
  4  5  1  0  0  0
  4 88  1  0  0  0
  4 89  1  0  0  0
  5  6  1  0  0  0
  5 26  1  0  0  0
  5 90  1  0  0  0
  6 25  1  0  0  0
  6 91  1  0  0  0
  6 92  1  0  0  0
  7  8  2  0  0  0
  7 26  1  0  0  0
  7 29  1  0  0  0
  8  9  1  0  0  0
  8 22  1  0  0  0
  9 10  1  0  0  0
  9 27  2  0  0  0
 10 11  2  0  0  0
 10 15  1  0  0  0
 11 12  1  0  0  0
 11 93  1  0  0  0
 12 13  2  0  0  0
 12 94  1  0  0  0
 13 14  1  0  0  0
 13 31  1  0  0  0
 14 15  2  0  0  0
 14 95  1  0  0  0
 15 96  1  0  0  0
 16 17  2  0  0  0
 16 21  1  0  0  0
 16 31  1  0  0  0
 17 18  1  0  0  0
 17 97  1  0  0  0
 18 19  2  0  0  0
 18 98  1  0  0  0
 19 20  1  0  0  0
 19 24  1  0  0  0
 20 21  2  0  0  0
 20 99  1  0  0  0
 21 23  1  0  0  0
 22 28  1  0  0  0
 22 32  2  0  0  0
 26 27  1  0  0  0
 28100  1  0  0  0
 28101  1  0  0  0
 29102  1  0  0  0
 29103  1  0  0  0
 33 34  1  0  0  0
 33 66  1  0  0  0
 33 70  2  0  0  0
 34 36  1  0  0  0
 34 59  1  0  0  0
 34104  1  0  0  0
 35 44  2  0  0  0
 35 45  1  0  0  0
 35 68  1  0  0  0
 36 56  1  0  0  0
 36105  1  0  0  0
 37 39  1  0  0  0
 37 47  1  0  0  0
 37 66  1  0  0  0
 37106  1  0  0  0
 38 43  2  0  0  0
 38 46  1  0  0  0
 38 47  1  0  0  0
 39 64  1  0  0  0
 39 67  2  0  0  0
 40 52  1  0  0  0
 40 53  2  0  0  0
 40 58  1  0  0  0
 41107  1  0  0  0
 41108  1  0  0  0
 41109  1  0  0  0
 41 48  1  0  0  0
 42 43  1  0  0  0
 42 66  1  0  0  0
 42110  1  0  0  0
 42111  1  0  0  0
 43 44  1  0  0  0
 44112  1  0  0  0
 45 46  2  0  0  0
 45113  1  0  0  0
 46114  1  0  0  0
 47115  1  0  0  0
 47116  1  0  0  0
 48 56  1  0  0  0
 48 65  1  0  0  0
 48117  1  0  0  0
 49 50  1  0  0  0
 49 53  1  0  0  0
 49 64  1  0  0  0
 49118  1  0  0  0
 50 51  1  0  0  0
 50119  1  0  0  0
 50120  1  0  0  0
 51 52  1  0  0  0
 51121  1  0  0  0
 51122  1  0  0  0
 52123  1  0  0  0
 52124  1  0  0  0
 53 54  1  0  0  0
 54 55  2  0  0  0
 54125  1  0  0  0
 55 57  1  0  0  0
 55126  1  0  0  0
 56 69  2  0  0  0
 57 58  2  0  0  0
 57127  1  0  0  0
 58128  1  0  0  0
 59 60  1  0  0  0
 59 61  1  0  0  0
 59 62  1  0  0  0
 60129  1  0  0  0
 60130  1  0  0  0
 60131  1  0  0  0
 61132  1  0  0  0
 61133  1  0  0  0
 61134  1  0  0  0
 62135  1  0  0  0
 62136  1  0  0  0
 62137  1  0  0  0
 63 65  1  0  0  0
 63138  1  0  0  0
 63139  1  0  0  0
 63140  1  0  0  0
 64141  1  0  0  0
 65142  1  0  0  0
 68 80  1  0  0  0
 71 73  2  0  0  0
 71 75  1  0  0  0
 71143  1  0  0  0
 72 75  2  0  0  0
 72 76  1  0  0  0
 72144  1  0  0  0
 73 74  1  0  0  0
 73 78  1  0  0  0
 74 76  2  0  0  0
 74 79  1  0  0  0
 75 81  1  0  0  0
 76 83  1  0  0  0
 77 80  1  0  0  0
 77 81  2  0  0  0
 77145  1  0  0  0
 78146  1  0  0  0
 78147  1  0  0  0
 78148  1  0  0  0
 79 82  1  0  0  0
 79149  1  0  0  0
 79150  1  0  0  0
 80151  1  0  0  0
 80152  1  0  0  0
 82153  1  0  0  0
M  ISO  4   1 100  68 101  80 101  82 100
M  END
> <chiral flag>
0

> <version>
0

> <s_m_source_file>
/data/baiqing/PycharmProjects/Reinvent-master-3.2/result/LINK_invent/BTK/process_docking_weight1_custom_product_contain_oxygen_bond_distance_aromatic_linkinvent_7_9_3/rearranged_h_0099.sdf

> <i_m_source_file_index>
18

> <r_mmod_Potential_Energy-OPLS-2005>
112.720336914062

> <r_mmod_Stretch_Energy-OPLS-2005>
88.8288192749023

> <r_mmod_Bend_Energy-OPLS-2005>
180.960556030273

> <r_mmod_Torsional_Energy-OPLS-2005>
208.592697143555

> <r_mmod_Improper_Torsional_Energy-OPLS-2005>
5.70646572113037

> <r_mmod_Van_der_Waal_Energy-OPLS-2005>
145.291687011719

> <r_mmod_Electrostatic_Energy-OPLS-2005>
-364.062896728516

> <r_mmod_Solvation_Energy-OPLS-2005>
-211.470809936523

> <b_mmod_Minimization_Converged-OPLS-2005>
0

> <r_mmod_RMS_Derivative-OPLS-2005>
2.50521540641785

$$$$
18
                    3D
 Structure written by MMmdl.
163172  0  0  1  0            999 V2000
  -30.6307  -14.6274   20.4956 C   0  0  0  0  0  0
  -30.4349  -12.3814   19.4574 C   0  0  0  0  0  0
  -29.5087  -12.5084   18.2278 C   0  0  0  0  0  0
  -28.0309  -12.3461   18.6357 C   0  0  0  0  0  0
  -27.6524  -13.2169   19.8634 C   0  0  2  0  0  0
  -28.6949  -13.0709   20.9952 C   0  0  0  0  0  0
  -25.2561  -13.8167   20.5705 C   0  0  0  0  0  0
  -24.1821  -13.0436   20.9196 C   0  0  0  0  0  0
  -24.6382  -11.6906   20.8731 C   0  0  0  0  0  0
  -23.9051  -10.4295   21.0397 C   0  0  0  0  0  0
  -24.3609   -9.4212   21.9176 C   0  0  0  0  0  0
  -23.6294   -8.2242   22.0747 C   0  0  0  0  0  0
  -22.4278   -8.0275   21.3535 C   0  0  0  0  0  0
  -21.9905   -9.0243   20.4636 C   0  0  0  0  0  0
  -22.7223  -10.2128   20.3048 C   0  0  0  0  0  0
  -21.6851   -6.0737   22.5282 C   0  0  0  0  0  0
  -21.4014   -6.5639   23.8216 C   0  0  0  0  0  0
  -21.3661   -5.6790   24.9177 C   0  0  0  0  0  0
  -21.6045   -4.3053   24.7225 C   0  0  0  0  0  0
  -21.8821   -3.8146   23.4347 C   0  0  0  0  0  0
  -21.9191   -4.6965   22.3404 C   0  0  0  0  0  0
  -22.7841  -13.5233   21.1857 C   0  0  0  0  0  0
  -22.1659   -4.2148   21.0980 F   0  0  0  0  0  0
  -21.5630   -3.4537   25.7739 F   0  0  0  0  0  0
  -30.0150  -13.4042   20.4357 N   0  0  0  0  0  0
  -26.2980  -12.9350   20.3315 N   0  0  0  0  0  0
  -25.9310  -11.6505   20.5739 N   0  0  0  0  0  0
  -22.0471  -12.8231   22.0411 N   0  0  0  0  0  0
  -25.4281  -15.1895   20.4159 N   0  0  0  0  0  0
  -31.7963  -14.7727   20.1153 O   0  0  0  0  0  0
  -21.6638   -6.8879   21.4242 O   0  0  0  0  0  0
  -22.3526  -14.5540   20.6708 O   0  0  0  0  0  0
  -24.6247  -31.8616   23.2053 C   0  0  0  0  0  0
  -25.9113  -32.4777   23.8367 C   0  0  1  0  0  0
  -27.2232  -27.3336   20.1249 C   0  0  0  0  0  0
  -25.5949  -33.8580   24.2302 N   0  0  0  0  0  0
  -23.4161  -30.4851   21.5480 C   0  0  2  0  0  0
  -24.8628  -28.9410   20.1136 C   0  0  0  0  0  0
  -22.7453  -29.4639   22.4968 C   0  0  0  0  0  0
  -18.0282  -28.1380   22.8496 C   0  0  0  0  0  0
  -24.1487  -36.7291   23.2631 C   0  0  0  0  0  0
  -25.9551  -30.7955   21.3749 C   0  0  0  0  0  0
  -26.0297  -29.4234   20.7207 C   0  0  0  0  0  0
  -27.2138  -28.6314   20.7173 C   0  0  0  0  0  0
  -26.0404  -26.9065   19.4812 C   0  0  0  0  0  0
  -24.8701  -27.6875   19.4838 C   0  0  0  0  0  0
  -23.6294  -29.8186   20.1633 C   0  0  0  0  0  0
  -25.4105  -36.3080   24.0332 C   0  0  1  0  0  0
  -20.5876  -28.3689   23.1298 C   0  0  2  0  0  0
  -20.6777  -26.9419   22.5415 C   0  0  0  0  0  0
  -19.5754  -26.6386   21.5217 C   0  0  0  0  0  0
  -18.1929  -26.7928   22.1622 C   0  0  0  0  0  0
  -19.1531  -28.8852   23.2891 C   0  0  0  0  0  0
  -18.9453  -30.1455   23.8907 C   0  0  0  0  0  0
  -17.6452  -30.6586   24.0564 C   0  0  0  0  0  0
  -25.9054  -34.9451   23.5112 C   0  0  0  0  0  0
  -16.5347  -29.9080   23.6335 C   0  0  0  0  0  0
  -16.7268  -28.6493   23.0367 C   0  0  0  0  0  0
  -26.4513  -31.6570   25.0724 C   0  0  0  0  0  0
  -25.3765  -31.3682   26.1462 C   0  0  0  0  0  0
  -27.0353  -30.2995   24.6156 C   0  0  0  0  0  0
  -27.6080  -32.4300   25.7494 C   0  0  0  0  0  0
  -27.5595  -37.1772   24.8448 C   0  0  0  0  0  0
  -21.4173  -29.3042   22.3697 N   0  0  0  0  0  0
  -26.4274  -37.3785   23.9440 N   0  0  0  0  0  0
  -24.6838  -31.0635   22.1000 N   0  0  0  0  0  0
  -23.4183  -28.8191   23.3053 O   0  0  0  0  0  0
  -28.3430  -26.4951   20.1537 O   0  0  0  0  0  0
  -26.5609  -34.8917   22.4670 O   0  0  0  0  0  0
  -23.5420  -32.1425   23.7389 O   0  0  0  0  0  0
  -29.2712  -19.4111   21.5101 C   0  0  0  0  0  0
  -30.5956  -19.2225   19.5136 C   0  0  0  0  0  0
  -29.2573  -17.9851   21.6269 C   0  0  0  0  0  0
  -29.9737  -20.0732   20.4717 C   0  0  0  0  0  0
  -30.5835  -17.8010   19.6131 C   0  0  0  0  0  0
  -29.9381  -17.1379   20.6988 C   0  0  0  0  0  0
  -31.4320  -22.0195   20.4844 C   0  0  0  0  0  0
  -31.7121  -23.5283   20.3879 C   0  0  0  0  0  0
  -30.5774  -24.4250   20.8871 C   0  0  0  0  0  0
  -28.9951  -22.4981   20.5608 C   0  0  0  0  0  0
  -29.2676  -24.0336   20.2115 C   0  0  1  0  0  0
  -28.5115  -17.3652   22.7977 C   0  0  0  0  0  0
  -28.1270  -25.0844   20.5449 C   0  0  0  0  0  0
  -30.1543  -21.5365   20.4324 N   0  0  0  0  0  0
  -31.2143  -17.0763   18.6053 N   0  0  0  0  0  0
  -29.8343  -15.6807   20.8551 N   0  0  0  0  0  0
  -32.4236  -21.2885   20.5894 O   0  0  0  0  0  0
  -31.4777  -12.4982   19.1574 H   0  0  0  0  0  0
  -30.3597  -11.3855   19.8969 H   0  0  0  0  0  0
  -29.7743  -11.7631   17.4772 H   0  0  0  0  0  0
  -29.6540  -13.4827   17.7574 H   0  0  0  0  0  0
  -27.8681  -11.2919   18.8653 H   0  0  0  0  0  0
  -27.3791  -12.5761   17.7924 H   0  0  0  0  0  0
  -27.6710  -14.2530   19.5244 H   0  0  0  0  0  0
  -28.6978  -12.0492   21.3785 H   0  0  0  0  0  0
  -28.4397  -13.7066   21.8444 H   0  0  0  0  0  0
  -25.2749   -9.5695   22.4751 H   0  0  0  0  0  0
  -24.0004   -7.4635   22.7468 H   0  0  0  0  0  0
  -21.0835   -8.8749   19.8944 H   0  0  0  0  0  0
  -22.3666  -10.9664   19.6160 H   0  0  0  0  0  0
  -21.2002   -7.6144   23.9721 H   0  0  0  0  0  0
  -21.1485   -6.0518   25.9081 H   0  0  0  0  0  0
  -22.0600   -2.7606   23.2847 H   0  0  0  0  0  0
  -22.4081  -11.9902   22.4824 H   0  0  0  0  0  0
  -21.1081  -13.1253   22.2593 H   0  0  0  0  0  0
  -24.6629  -15.8450   20.5344 H   0  0  0  0  0  0
  -26.2778  -15.6297   20.0870 H   0  0  0  0  0  0
  -26.7175  -32.5449   23.1110 H   0  0  0  0  0  0
  -25.0127  -33.9728   25.0470 H   0  0  0  0  0  0
  -22.7098  -31.3057   21.4057 H   0  0  0  0  0  0
  -23.3770  -35.9597   23.3226 H   0  0  0  0  0  0
  -24.3602  -36.8982   22.2062 H   0  0  0  0  0  0
  -23.7201  -37.6456   23.6696 H   0  0  0  0  0  0
  -26.0828  -31.5577   20.6051 H   0  0  0  0  0  0
  -26.8374  -30.8451   22.0011 H   0  0  0  0  0  0
  -28.1087  -28.9975   21.2015 H   0  0  0  0  0  0
  -26.0049  -25.9600   18.9631 H   0  0  0  0  0  0
  -23.9798  -27.3184   18.9930 H   0  0  0  0  0  0
  -23.7452  -30.5953   19.4064 H   0  0  0  0  0  0
  -22.7504  -29.2457   19.8626 H   0  0  0  0  0  0
  -25.1269  -36.1921   25.0818 H   0  0  0  0  0  0
  -20.9957  -28.3257   24.1423 H   0  0  0  0  0  0
  -20.5697  -26.2297   23.3609 H   0  0  0  0  0  0
  -21.6645  -26.7468   22.1202 H   0  0  0  0  0  0
  -19.6924  -25.6297   21.1251 H   0  0  0  0  0  0
  -19.6691  -27.3197   20.6748 H   0  0  0  0  0  0
  -17.4208  -26.6698   21.4011 H   0  0  0  0  0  0
  -18.0318  -26.0054   22.9000 H   0  0  0  0  0  0
  -19.7925  -30.7274   24.2280 H   0  0  0  0  0  0
  -17.5002  -31.6268   24.5163 H   0  0  0  0  0  0
  -15.5347  -30.2983   23.7651 H   0  0  0  0  0  0
  -15.8670  -28.0804   22.7097 H   0  0  0  0  0  0
  -24.5955  -30.7009   25.7798 H   0  0  0  0  0  0
  -24.8940  -32.2833   26.4903 H   0  0  0  0  0  0
  -25.8118  -30.8863   27.0225 H   0  0  0  0  0  0
  -26.2909  -29.6732   24.1222 H   0  0  0  0  0  0
  -27.4108  -29.7256   25.4639 H   0  0  0  0  0  0
  -27.8757  -30.4286   23.9329 H   0  0  0  0  0  0
  -27.2697  -33.3597   26.2076 H   0  0  0  0  0  0
  -28.3888  -32.6858   25.0322 H   0  0  0  0  0  0
  -28.0748  -31.8421   26.5407 H   0  0  0  0  0  0
  -28.2526  -38.0154   24.7622 H   0  0  0  0  0  0
  -28.1178  -36.2696   24.6099 H   0  0  0  0  0  0
  -27.2343  -37.1205   25.8851 H   0  0  0  0  0  0
  -20.9360  -29.8745   21.6885 H   0  0  0  0  0  0
  -26.0149  -38.2839   24.1517 H   0  0  0  0  0  0
  -28.7760  -20.0097   22.2619 H   0  0  0  0  0  0
  -31.1257  -19.6828   18.6910 H   0  0  0  0  0  0
  -31.9288  -23.7582   19.3442 H   0  0  0  0  0  0
  -32.6213  -23.7559   20.9455 H   0  0  0  0  0  0
  -30.8199  -25.4663   20.6714 H   0  0  0  0  0  0
  -30.4850  -24.3456   21.9714 H   0  0  0  0  0  0
  -28.1762  -22.1316   19.9422 H   0  0  0  0  0  0
  -28.6393  -22.4324   21.5894 H   0  0  0  0  0  0
  -29.4186  -24.0906   19.1325 H   0  0  0  0  0  0
  -28.0995  -18.1242   23.4633 H   0  0  0  0  0  0
  -29.1825  -16.7385   23.3865 H   0  0  0  0  0  0
  -27.6861  -16.7474   22.4428 H   0  0  0  0  0  0
  -27.9592  -25.0782   21.6226 H   0  0  0  0  0  0
  -27.2112  -24.6850   20.1159 H   0  0  0  0  0  0
  -31.9146  -17.5739   18.0668 H   0  0  0  0  0  0
  -31.5651  -16.1690   18.9185 H   0  0  0  0  0  0
  -28.9666  -15.3776   21.2648 H   0  0  0  0  0  0
  1 25  1  0  0  0
  1 30  2  0  0  0
  1 86  1  0  0  0
  2  3  1  0  0  0
  2 25  1  0  0  0
  2 88  1  0  0  0
  2 89  1  0  0  0
  3  4  1  0  0  0
  3 90  1  0  0  0
  3 91  1  0  0  0
  4  5  1  0  0  0
  4 92  1  0  0  0
  4 93  1  0  0  0
  5  6  1  0  0  0
  5 26  1  0  0  0
  5 94  1  0  0  0
  6 25  1  0  0  0
  6 95  1  0  0  0
  6 96  1  0  0  0
  7  8  2  0  0  0
  7 26  1  0  0  0
  7 29  1  0  0  0
  8  9  1  0  0  0
  8 22  1  0  0  0
  9 10  1  0  0  0
  9 27  2  0  0  0
 10 11  2  0  0  0
 10 15  1  0  0  0
 11 12  1  0  0  0
 11 97  1  0  0  0
 12 13  2  0  0  0
 12 98  1  0  0  0
 13 14  1  0  0  0
 13 31  1  0  0  0
 14 15  2  0  0  0
 14 99  1  0  0  0
 15100  1  0  0  0
 16 17  2  0  0  0
 16 21  1  0  0  0
 16 31  1  0  0  0
 17 18  1  0  0  0
 17101  1  0  0  0
 18 19  2  0  0  0
 18102  1  0  0  0
 19 20  1  0  0  0
 19 24  1  0  0  0
 20 21  2  0  0  0
 20103  1  0  0  0
 21 23  1  0  0  0
 22 28  1  0  0  0
 22 32  2  0  0  0
 26 27  1  0  0  0
 28104  1  0  0  0
 28105  1  0  0  0
 29106  1  0  0  0
 29107  1  0  0  0
 33 34  1  0  0  0
 33 66  1  0  0  0
 33 70  2  0  0  0
 34 36  1  0  0  0
 34 59  1  0  0  0
 34108  1  0  0  0
 35 44  2  0  0  0
 35 45  1  0  0  0
 35 68  1  0  0  0
 36 56  1  0  0  0
 36109  1  0  0  0
 37 39  1  0  0  0
 37 47  1  0  0  0
 37 66  1  0  0  0
 37110  1  0  0  0
 38 43  2  0  0  0
 38 46  1  0  0  0
 38 47  1  0  0  0
 39 64  1  0  0  0
 39 67  2  0  0  0
 40 52  1  0  0  0
 40 53  2  0  0  0
 40 58  1  0  0  0
 41111  1  0  0  0
 41112  1  0  0  0
 41113  1  0  0  0
 41 48  1  0  0  0
 42 43  1  0  0  0
 42 66  1  0  0  0
 42114  1  0  0  0
 42115  1  0  0  0
 43 44  1  0  0  0
 44116  1  0  0  0
 45 46  2  0  0  0
 45117  1  0  0  0
 46118  1  0  0  0
 47119  1  0  0  0
 47120  1  0  0  0
 48 56  1  0  0  0
 48 65  1  0  0  0
 48121  1  0  0  0
 49 50  1  0  0  0
 49 53  1  0  0  0
 49 64  1  0  0  0
 49122  1  0  0  0
 50 51  1  0  0  0
 50123  1  0  0  0
 50124  1  0  0  0
 51 52  1  0  0  0
 51125  1  0  0  0
 51126  1  0  0  0
 52127  1  0  0  0
 52128  1  0  0  0
 53 54  1  0  0  0
 54 55  2  0  0  0
 54129  1  0  0  0
 55 57  1  0  0  0
 55130  1  0  0  0
 56 69  2  0  0  0
 57 58  2  0  0  0
 57131  1  0  0  0
 58132  1  0  0  0
 59 60  1  0  0  0
 59 61  1  0  0  0
 59 62  1  0  0  0
 60133  1  0  0  0
 60134  1  0  0  0
 60135  1  0  0  0
 61136  1  0  0  0
 61137  1  0  0  0
 61138  1  0  0  0
 62139  1  0  0  0
 62140  1  0  0  0
 62141  1  0  0  0
 63 65  1  0  0  0
 63142  1  0  0  0
 63143  1  0  0  0
 63144  1  0  0  0
 64145  1  0  0  0
 65146  1  0  0  0
 68 83  1  0  0  0
 71 73  2  0  0  0
 71 74  1  0  0  0
 71147  1  0  0  0
 72 74  2  0  0  0
 72 75  1  0  0  0
 72148  1  0  0  0
 73 76  1  0  0  0
 73 82  1  0  0  0
 74 84  1  0  0  0
 75 76  2  0  0  0
 75 85  1  0  0  0
 76 86  1  0  0  0
 77 78  1  0  0  0
 77 84  1  0  0  0
 77 87  2  0  0  0
 78 79  1  0  0  0
 78149  1  0  0  0
 78150  1  0  0  0
 79 81  1  0  0  0
 79151  1  0  0  0
 79152  1  0  0  0
 80 81  1  0  0  0
 80 84  1  0  0  0
 80153  1  0  0  0
 80154  1  0  0  0
 81 83  1  0  0  0
 81155  1  0  0  0
 82156  1  0  0  0
 82157  1  0  0  0
 82158  1  0  0  0
 83159  1  0  0  0
 83160  1  0  0  0
 85161  1  0  0  0
 85162  1  0  0  0
 86163  1  0  0  0
M  ISO  4   1 100  68 101  83 101  86 100
M  END
> <chiral flag>
0

> <version>
0

> <s_m_source_file>
/data/baiqing/PycharmProjects/Reinvent-master-3.2/result/LINK_invent/BTK/process_docking_weight1_custom_product_contain_oxygen_bond_distance_aromatic_linkinvent_7_9_3/rearranged_h_0099.sdf

> <i_m_source_file_index>
19

> <r_mmod_Potential_Energy-OPLS-2005>
45.5248374938965

> <r_mmod_Stretch_Energy-OPLS-2005>
84.1556930541992

> <r_mmod_Bend_Energy-OPLS-2005>
137.111846923828

> <r_mmod_Torsional_Energy-OPLS-2005>
302.886291503906

> <r_mmod_Improper_Torsional_Energy-OPLS-2005>
9.15426826477051

> <r_mmod_Van_der_Waal_Energy-OPLS-2005>
162.618179321289

> <r_mmod_Electrostatic_Energy-OPLS-2005>
-470.862457275391

> <r_mmod_Solvation_Energy-OPLS-2005>
-222.819625854492

> <b_mmod_Minimization_Converged-OPLS-2005>
0

> <r_mmod_RMS_Derivative-OPLS-2005>
1.09000217914581

$$$$
19
                    3D
 Structure written by MMmdl.
154162  0  0  1  0            999 V2000
  -30.5437  -14.8761   20.5352 C   0  0  0  0  0  0
  -30.4523  -12.5580   19.5005 C   0  0  0  0  0  0
  -29.5226  -12.5515   18.2598 C   0  0  0  0  0  0
  -28.0532  -12.3271   18.6659 C   0  0  0  0  0  0
  -27.6447  -13.2230   19.8620 C   0  0  2  0  0  0
  -28.6807  -13.1309   20.9992 C   0  0  0  0  0  0
  -25.2528  -13.8166   20.5689 C   0  0  0  0  0  0
  -24.1793  -13.0435   20.9155 C   0  0  0  0  0  0
  -24.6355  -11.6895   20.8692 C   0  0  0  0  0  0
  -23.9020  -10.4282   21.0362 C   0  0  0  0  0  0
  -24.3580   -9.4218   21.9156 C   0  0  0  0  0  0
  -23.6261   -8.2250   22.0751 C   0  0  0  0  0  0
  -22.4245   -8.0270   21.3540 C   0  0  0  0  0  0
  -21.9859   -9.0237   20.4649 C   0  0  0  0  0  0
  -22.7173  -10.2119   20.3036 C   0  0  0  0  0  0
  -21.6857   -6.0702   22.5258 C   0  0  0  0  0  0
  -21.4007   -6.5610   23.8189 C   0  0  0  0  0  0
  -21.3659   -5.6771   24.9171 C   0  0  0  0  0  0
  -21.6049   -4.3042   24.7223 C   0  0  0  0  0  0
  -21.8815   -3.8119   23.4352 C   0  0  0  0  0  0
  -21.9189   -4.6921   22.3400 C   0  0  0  0  0  0
  -22.7828  -13.5225   21.1850 C   0  0  0  0  0  0
  -22.1656   -4.2101   21.0969 F   0  0  0  0  0  0
  -21.5643   -3.4536   25.7739 F   0  0  0  0  0  0
  -29.9734  -13.5979   20.4620 N   0  0  0  0  0  0
  -26.2941  -12.9337   20.3299 N   0  0  0  0  0  0
  -25.9290  -11.6484   20.5719 N   0  0  0  0  0  0
  -22.0498  -12.8227   22.0421 N   0  0  0  0  0  0
  -25.4296  -15.1897   20.4149 N   0  0  0  0  0  0
  -31.6617  -15.0378   20.0290 O   0  0  0  0  0  0
  -21.6632   -6.8847   21.4214 O   0  0  0  0  0  0
  -22.3517  -14.5541   20.6707 O   0  0  0  0  0  0
  -24.6375  -31.8474   23.1939 C   0  0  0  0  0  0
  -25.9148  -32.4717   23.8321 C   0  0  1  0  0  0
  -27.2391  -27.2058   20.1677 C   0  0  0  0  0  0
  -25.5888  -33.8526   24.2215 N   0  0  0  0  0  0
  -23.4397  -30.4680   21.5372 C   0  0  2  0  0  0
  -24.8954  -28.9075   20.1139 C   0  0  0  0  0  0
  -22.7559  -29.4549   22.4881 C   0  0  0  0  0  0
  -18.0293  -28.1414   22.8482 C   0  0  0  0  0  0
  -24.1464  -36.7278   23.2645 C   0  0  0  0  0  0
  -25.9917  -30.7550   21.3750 C   0  0  0  0  0  0
  -26.0696  -29.3689   20.7229 C   0  0  0  0  0  0
  -27.2455  -28.5374   20.7284 C   0  0  0  0  0  0
  -26.0397  -26.8283   19.5235 C   0  0  0  0  0  0
  -24.8911  -27.6471   19.4988 C   0  0  0  0  0  0
  -23.6642  -29.7975   20.1555 C   0  0  0  0  0  0
  -25.4100  -36.3062   24.0317 C   0  0  1  0  0  0
  -20.5911  -28.3715   23.1271 C   0  0  2  0  0  0
  -20.6784  -26.9419   22.5434 C   0  0  0  0  0  0
  -19.5754  -26.6390   21.5237 C   0  0  0  0  0  0
  -18.1920  -26.7949   22.1624 C   0  0  0  0  0  0
  -19.1551  -28.8880   23.2861 C   0  0  0  0  0  0
  -18.9472  -30.1479   23.8896 C   0  0  0  0  0  0
  -17.6469  -30.6606   24.0564 C   0  0  0  0  0  0
  -25.9053  -34.9435   23.5085 C   0  0  0  0  0  0
  -16.5357  -29.9100   23.6347 C   0  0  0  0  0  0
  -16.7279  -28.6528   23.0356 C   0  0  0  0  0  0
  -26.4481  -31.6584   25.0741 C   0  0  0  0  0  0
  -25.3649  -31.3738   26.1451 C   0  0  0  0  0  0
  -27.0336  -30.2992   24.6285 C   0  0  0  0  0  0
  -27.6104  -32.4317   25.7460 C   0  0  0  0  0  0
  -27.5567  -37.1765   24.8455 C   0  0  0  0  0  0
  -21.4260  -29.3029   22.3648 N   0  0  0  0  0  0
  -26.4264  -37.3767   23.9422 N   0  0  0  0  0  0
  -24.7096  -31.0427   22.0920 N   0  0  0  0  0  0
  -23.4230  -28.8089   23.3013 O   0  0  0  0  0  0
  -28.3147  -26.2645   20.2642 O   0  0  0  0  0  0
  -26.5672  -34.8916   22.4694 O   0  0  0  0  0  0
  -23.5503  -32.1300   23.7210 O   0  0  0  0  0  0
  -30.5236  -18.6628   20.4598 C   0  0  0  0  0  0
  -30.2314  -20.0920   20.3437 C   0  0  0  0  0  0
  -28.3322  -18.2960   21.2386 C   0  0  0  0  0  0
  -29.5858  -17.6682   20.9186 C   0  0  0  0  0  0
  -28.9588  -20.6816   20.6648 C   0  0  0  0  0  0
  -28.0215  -19.7079   21.1307 C   0  0  0  0  0  0
  -29.7910  -16.1179   21.3225 C   0  0  0  0  0  0
  -25.9384  -19.4758   22.3415 C   0  0  0  0  0  0
  -29.0424  -23.5018   20.5753 C   0  0  0  0  0  0
  -28.0597  -24.7611   20.1063 C   0  0  0  0  0  0
  -29.2910  -15.8351   22.4540 N   0  0  0  0  0  0
  -28.4691  -22.0708   20.5414 N   0  0  0  0  0  0
  -26.7854  -20.2247   21.4750 O   0  0  0  0  0  0
  -31.4825  -12.7286   19.1889 H   0  0  0  0  0  0
  -30.4627  -11.5756   19.9752 H   0  0  0  0  0  0
  -29.8373  -11.7833   17.5530 H   0  0  0  0  0  0
  -29.6097  -13.5048   17.7367 H   0  0  0  0  0  0
  -27.9446  -11.2771   18.9446 H   0  0  0  0  0  0
  -27.3885  -12.4886   17.8170 H   0  0  0  0  0  0
  -27.6472  -14.2495   19.4963 H   0  0  0  0  0  0
  -28.7651  -12.1027   21.3531 H   0  0  0  0  0  0
  -28.3347  -13.6817   21.8675 H   0  0  0  0  0  0
  -25.2731   -9.5699   22.4731 H   0  0  0  0  0  0
  -23.9967   -7.4647   22.7479 H   0  0  0  0  0  0
  -21.0779   -8.8751   19.8962 H   0  0  0  0  0  0
  -22.3617  -10.9658   19.6151 H   0  0  0  0  0  0
  -21.1993   -7.6120   23.9668 H   0  0  0  0  0  0
  -21.1493   -6.0520   25.9061 H   0  0  0  0  0  0
  -22.0595   -2.7574   23.2868 H   0  0  0  0  0  0
  -22.4136  -11.9878   22.4762 H   0  0  0  0  0  0
  -21.1148  -13.1282   22.2720 H   0  0  0  0  0  0
  -24.6722  -15.8544   20.5275 H   0  0  0  0  0  0
  -26.2960  -15.6211   20.1226 H   0  0  0  0  0  0
  -26.7259  -32.5368   23.1121 H   0  0  0  0  0  0
  -24.9926  -33.9640   25.0280 H   0  0  0  0  0  0
  -22.7390  -31.2916   21.3825 H   0  0  0  0  0  0
  -23.3740  -35.9593   23.3294 H   0  0  0  0  0  0
  -24.3576  -36.8928   22.2075 H   0  0  0  0  0  0
  -23.7210  -37.6463   23.6704 H   0  0  0  0  0  0
  -26.1274  -31.5117   20.5998 H   0  0  0  0  0  0
  -26.8723  -30.8152   22.0038 H   0  0  0  0  0  0
  -28.1415  -28.8931   21.2184 H   0  0  0  0  0  0
  -25.9555  -25.8578   19.0605 H   0  0  0  0  0  0
  -23.9953  -27.2777   19.0166 H   0  0  0  0  0  0
  -23.7898  -30.5735   19.3990 H   0  0  0  0  0  0
  -22.7834  -29.2276   19.8510 H   0  0  0  0  0  0
  -25.1262  -36.1900   25.0813 H   0  0  0  0  0  0
  -20.9995  -28.3311   24.1388 H   0  0  0  0  0  0
  -20.5693  -26.2308   23.3636 H   0  0  0  0  0  0
  -21.6646  -26.7429   22.1211 H   0  0  0  0  0  0
  -19.6912  -25.6303   21.1261 H   0  0  0  0  0  0
  -19.6712  -27.3207   20.6784 H   0  0  0  0  0  0
  -17.4197  -26.6732   21.4006 H   0  0  0  0  0  0
  -18.0277  -26.0070   22.9008 H   0  0  0  0  0  0
  -19.7943  -30.7293   24.2259 H   0  0  0  0  0  0
  -17.5010  -31.6275   24.5184 H   0  0  0  0  0  0
  -15.5359  -30.2985   23.7677 H   0  0  0  0  0  0
  -15.8684  -28.0858   22.7061 H   0  0  0  0  0  0
  -24.6004  -30.6868   25.7801 H   0  0  0  0  0  0
  -24.8601  -32.2841   26.4677 H   0  0  0  0  0  0
  -25.7936  -30.9145   27.0356 H   0  0  0  0  0  0
  -26.2955  -29.6710   24.1299 H   0  0  0  0  0  0
  -27.3981  -29.7304   25.4839 H   0  0  0  0  0  0
  -27.8804  -30.4265   23.9551 H   0  0  0  0  0  0
  -27.2885  -33.3732   26.1920 H   0  0  0  0  0  0
  -28.3937  -32.6680   25.0236 H   0  0  0  0  0  0
  -28.0715  -31.8463   26.5420 H   0  0  0  0  0  0
  -28.2577  -38.0063   24.7567 H   0  0  0  0  0  0
  -28.1081  -36.2631   24.6211 H   0  0  0  0  0  0
  -27.2313  -37.1333   25.8853 H   0  0  0  0  0  0
  -20.9470  -29.8742   21.6829 H   0  0  0  0  0  0
  -26.0140  -38.2821   24.1491 H   0  0  0  0  0  0
  -31.5275  -18.3349   20.2261 H   0  0  0  0  0  0
  -31.0219  -20.7393   19.9933 H   0  0  0  0  0  0
  -27.5630  -17.6383   21.6122 H   0  0  0  0  0  0
  -25.0487  -20.0665   22.5688 H   0  0  0  0  0  0
  -26.4315  -19.2563   23.2905 H   0  0  0  0  0  0
  -25.5937  -18.5480   21.8837 H   0  0  0  0  0  0
  -29.3271  -23.6918   21.6132 H   0  0  0  0  0  0
  -29.9741  -23.5352   20.0075 H   0  0  0  0  0  0
  -27.0982  -24.5636   20.5812 H   0  0  0  0  0  0
  -27.8881  -24.6170   19.0382 H   0  0  0  0  0  0
  -28.8583  -16.6443   22.8804 H   0  0  0  0  0  0
  -27.4812  -22.0832   20.7993 H   0  0  0  0  0  0
  1 25  1  0  0  0
  1 30  2  0  0  0
  1 77  1  0  0  0
  2  3  1  0  0  0
  2 25  1  0  0  0
  2 84  1  0  0  0
  2 85  1  0  0  0
  3  4  1  0  0  0
  3 86  1  0  0  0
  3 87  1  0  0  0
  4  5  1  0  0  0
  4 88  1  0  0  0
  4 89  1  0  0  0
  5  6  1  0  0  0
  5 26  1  0  0  0
  5 90  1  0  0  0
  6 25  1  0  0  0
  6 91  1  0  0  0
  6 92  1  0  0  0
  7  8  2  0  0  0
  7 26  1  0  0  0
  7 29  1  0  0  0
  8  9  1  0  0  0
  8 22  1  0  0  0
  9 10  1  0  0  0
  9 27  2  0  0  0
 10 11  2  0  0  0
 10 15  1  0  0  0
 11 12  1  0  0  0
 11 93  1  0  0  0
 12 13  2  0  0  0
 12 94  1  0  0  0
 13 14  1  0  0  0
 13 31  1  0  0  0
 14 15  2  0  0  0
 14 95  1  0  0  0
 15 96  1  0  0  0
 16 17  2  0  0  0
 16 21  1  0  0  0
 16 31  1  0  0  0
 17 18  1  0  0  0
 17 97  1  0  0  0
 18 19  2  0  0  0
 18 98  1  0  0  0
 19 20  1  0  0  0
 19 24  1  0  0  0
 20 21  2  0  0  0
 20 99  1  0  0  0
 21 23  1  0  0  0
 22 28  1  0  0  0
 22 32  2  0  0  0
 26 27  1  0  0  0
 28100  1  0  0  0
 28101  1  0  0  0
 29102  1  0  0  0
 29103  1  0  0  0
 33 34  1  0  0  0
 33 66  1  0  0  0
 33 70  2  0  0  0
 34 36  1  0  0  0
 34 59  1  0  0  0
 34104  1  0  0  0
 35 44  2  0  0  0
 35 45  1  0  0  0
 35 68  1  0  0  0
 36 56  1  0  0  0
 36105  1  0  0  0
 37 39  1  0  0  0
 37 47  1  0  0  0
 37 66  1  0  0  0
 37106  1  0  0  0
 38 43  2  0  0  0
 38 46  1  0  0  0
 38 47  1  0  0  0
 39 64  1  0  0  0
 39 67  2  0  0  0
 40 52  1  0  0  0
 40 53  2  0  0  0
 40 58  1  0  0  0
 41107  1  0  0  0
 41108  1  0  0  0
 41109  1  0  0  0
 41 48  1  0  0  0
 42 43  1  0  0  0
 42 66  1  0  0  0
 42110  1  0  0  0
 42111  1  0  0  0
 43 44  1  0  0  0
 44112  1  0  0  0
 45 46  2  0  0  0
 45113  1  0  0  0
 46114  1  0  0  0
 47115  1  0  0  0
 47116  1  0  0  0
 48 56  1  0  0  0
 48 65  1  0  0  0
 48117  1  0  0  0
 49 50  1  0  0  0
 49 53  1  0  0  0
 49 64  1  0  0  0
 49118  1  0  0  0
 50 51  1  0  0  0
 50119  1  0  0  0
 50120  1  0  0  0
 51 52  1  0  0  0
 51121  1  0  0  0
 51122  1  0  0  0
 52123  1  0  0  0
 52124  1  0  0  0
 53 54  1  0  0  0
 54 55  2  0  0  0
 54125  1  0  0  0
 55 57  1  0  0  0
 55126  1  0  0  0
 56 69  2  0  0  0
 57 58  2  0  0  0
 57127  1  0  0  0
 58128  1  0  0  0
 59 60  1  0  0  0
 59 61  1  0  0  0
 59 62  1  0  0  0
 60129  1  0  0  0
 60130  1  0  0  0
 60131  1  0  0  0
 61132  1  0  0  0
 61133  1  0  0  0
 61134  1  0  0  0
 62135  1  0  0  0
 62136  1  0  0  0
 62137  1  0  0  0
 63 65  1  0  0  0
 63138  1  0  0  0
 63139  1  0  0  0
 63140  1  0  0  0
 64141  1  0  0  0
 65142  1  0  0  0
 68 80  1  0  0  0
 71 72  2  0  0  0
 71 74  1  0  0  0
 71143  1  0  0  0
 72 75  1  0  0  0
 72144  1  0  0  0
 73 74  2  0  0  0
 73 76  1  0  0  0
 73145  1  0  0  0
 74 77  1  0  0  0
 75 76  2  0  0  0
 75 82  1  0  0  0
 76 83  1  0  0  0
 77 81  2  0  0  0
 78 83  1  0  0  0
 78146  1  0  0  0
 78147  1  0  0  0
 78148  1  0  0  0
 79 80  1  0  0  0
 79 82  1  0  0  0
 79149  1  0  0  0
 79150  1  0  0  0
 80151  1  0  0  0
 80152  1  0  0  0
 81153  1  0  0  0
 82154  1  0  0  0
M  ISO  4   1 100  68 101  77 100  80 101
M  END
> <chiral flag>
0

> <version>
0

> <s_m_source_file>
/data/baiqing/PycharmProjects/Reinvent-master-3.2/result/LINK_invent/BTK/process_docking_weight1_custom_product_contain_oxygen_bond_distance_aromatic_linkinvent_7_9_3/rearranged_h_0099.sdf

> <i_m_source_file_index>
20

> <r_mmod_Potential_Energy-OPLS-2005>
534.684997558594

> <r_mmod_Stretch_Energy-OPLS-2005>
212.656524658203

> <r_mmod_Bend_Energy-OPLS-2005>
297.523620605469

> <r_mmod_Torsional_Energy-OPLS-2005>
201.615112304688

> <r_mmod_Improper_Torsional_Energy-OPLS-2005>
4.94412469863892

> <r_mmod_Van_der_Waal_Energy-OPLS-2005>
149.371795654297

> <r_mmod_Electrostatic_Energy-OPLS-2005>
-257.197692871094

> <r_mmod_Solvation_Energy-OPLS-2005>
-213.785583496094

> <b_mmod_Minimization_Converged-OPLS-2005>
0

> <r_mmod_RMS_Derivative-OPLS-2005>
4.09097146987915

$$$$
20
                    3D
 Structure written by MMmdl.
150158  0  0  1  0            999 V2000
  -30.6118  -14.6764   20.4768 C   0  0  0  0  0  0
  -30.4371  -12.4094   19.4642 C   0  0  0  0  0  0
  -29.5101  -12.5057   18.2315 C   0  0  0  0  0  0
  -28.0335  -12.3392   18.6435 C   0  0  0  0  0  0
  -27.6502  -13.2213   19.8616 C   0  0  2  0  0  0
  -28.6943  -13.0996   20.9936 C   0  0  0  0  0  0
  -25.2537  -13.8177   20.5678 C   0  0  0  0  0  0
  -24.1814  -13.0432   20.9185 C   0  0  0  0  0  0
  -24.6392  -11.6905   20.8744 C   0  0  0  0  0  0
  -23.9063  -10.4289   21.0405 C   0  0  0  0  0  0
  -24.3613   -9.4211   21.9184 C   0  0  0  0  0  0
  -23.6291   -8.2244   22.0755 C   0  0  0  0  0  0
  -22.4277   -8.0274   21.3541 C   0  0  0  0  0  0
  -21.9907   -9.0252   20.4647 C   0  0  0  0  0  0
  -22.7230  -10.2130   20.3057 C   0  0  0  0  0  0
  -21.6852   -6.0732   22.5275 C   0  0  0  0  0  0
  -21.4013   -6.5639   23.8210 C   0  0  0  0  0  0
  -21.3661   -5.6791   24.9173 C   0  0  0  0  0  0
  -21.6042   -4.3052   24.7220 C   0  0  0  0  0  0
  -21.8819   -3.8145   23.4344 C   0  0  0  0  0  0
  -21.9193   -4.6962   22.3401 C   0  0  0  0  0  0
  -22.7836  -13.5223   21.1859 C   0  0  0  0  0  0
  -22.1658   -4.2149   21.0979 F   0  0  0  0  0  0
  -21.5633   -3.4534   25.7735 F   0  0  0  0  0  0
  -30.0069  -13.4445   20.4273 N   0  0  0  0  0  0
  -26.2974  -12.9367   20.3317 N   0  0  0  0  0  0
  -25.9323  -11.6518   20.5765 N   0  0  0  0  0  0
  -22.0481  -12.8219   22.0419 N   0  0  0  0  0  0
  -25.4230  -15.1894   20.4082 N   0  0  0  0  0  0
  -31.7838  -14.8126   20.1183 O   0  0  0  0  0  0
  -21.6635   -6.8872   21.4238 O   0  0  0  0  0  0
  -22.3520  -14.5534   20.6709 O   0  0  0  0  0  0
  -24.6290  -31.8581   23.2008 C   0  0  0  0  0  0
  -25.9126  -32.4767   23.8342 C   0  0  1  0  0  0
  -27.2182  -27.2936   20.1115 C   0  0  0  0  0  0
  -25.5932  -33.8566   24.2260 N   0  0  0  0  0  0
  -23.4235  -30.4836   21.5450 C   0  0  2  0  0  0
  -24.8670  -28.9367   20.1118 C   0  0  0  0  0  0
  -22.7488  -29.4623   22.4928 C   0  0  0  0  0  0
  -18.0285  -28.1384   22.8496 C   0  0  0  0  0  0
  -24.1488  -36.7292   23.2643 C   0  0  0  0  0  0
  -25.9681  -30.7809   21.3745 C   0  0  0  0  0  0
  -26.0402  -29.4068   20.7143 C   0  0  0  0  0  0
  -27.2203  -28.5993   20.7014 C   0  0  0  0  0  0
  -26.0158  -26.8828   19.4900 C   0  0  0  0  0  0
  -24.8582  -27.6806   19.4912 C   0  0  0  0  0  0
  -23.6386  -29.8215   20.1605 C   0  0  0  0  0  0
  -25.4114  -36.3076   24.0329 C   0  0  1  0  0  0
  -20.5889  -28.3688   23.1279 C   0  0  2  0  0  0
  -20.6773  -26.9411   22.5404 C   0  0  0  0  0  0
  -19.5743  -26.6377   21.5215 C   0  0  0  0  0  0
  -18.1925  -26.7927   22.1630 C   0  0  0  0  0  0
  -19.1539  -28.8856   23.2884 C   0  0  0  0  0  0
  -18.9469  -30.1462   23.8896 C   0  0  0  0  0  0
  -17.6464  -30.6589   24.0569 C   0  0  0  0  0  0
  -25.9060  -34.9448   23.5092 C   0  0  0  0  0  0
  -16.5354  -29.9092   23.6334 C   0  0  0  0  0  0
  -16.7273  -28.6506   23.0356 C   0  0  0  0  0  0
  -26.4493  -31.6590   25.0728 C   0  0  0  0  0  0
  -25.3727  -31.3752   26.1462 C   0  0  0  0  0  0
  -27.0325  -30.3009   24.6194 C   0  0  0  0  0  0
  -27.6053  -32.4327   25.7498 C   0  0  0  0  0  0
  -27.5577  -37.1802   24.8471 C   0  0  0  0  0  0
  -21.4199  -29.3040   22.3673 N   0  0  0  0  0  0
  -26.4288  -37.3776   23.9418 N   0  0  0  0  0  0
  -24.6930  -31.0578   22.0965 N   0  0  0  0  0  0
  -23.4212  -28.8154   23.3001 O   0  0  0  0  0  0
  -28.3276  -26.4246   20.1485 O   0  0  0  0  0  0
  -26.5633  -34.8926   22.4664 O   0  0  0  0  0  0
  -23.5444  -32.1382   23.7327 O   0  0  0  0  0  0
  -29.1620  -19.5024   21.2585 C   0  0  0  0  0  0
  -30.6737  -19.2429   19.4170 C   0  0  0  0  0  0
  -29.9422  -20.1353   20.2550 C   0  0  0  0  0  0
  -29.9143  -17.1932   20.6021 C   0  0  0  0  0  0
  -29.1495  -18.0775   21.4204 C   0  0  0  0  0  0
  -30.6589  -17.8233   19.5668 C   0  0  0  0  0  0
  -30.1935  -21.6622   20.1611 C   0  0  0  0  0  0
  -29.3338  -24.0017   20.1861 C   0  0  0  0  0  0
  -28.0719  -24.9507   20.0815 C   0  0  0  0  0  0
  -29.8134  -15.7393   20.8230 N   0  0  0  0  0  0
  -29.1999  -22.6180   20.2383 N   0  0  0  0  0  0
  -31.3740  -21.9701   19.9605 O   0  0  0  0  0  0
  -30.4320  -24.5700   20.2016 O   0  0  0  0  0  0
  -28.3890  -17.5434   22.4069 F   0  0  0  0  0  0
  -31.3574  -17.0804   18.6757 F   0  0  0  0  0  0
  -31.4793  -12.5315   19.1637 H   0  0  0  0  0  0
  -30.3721  -11.4195   19.9187 H   0  0  0  0  0  0
  -29.7803  -11.7457   17.4966 H   0  0  0  0  0  0
  -29.6477  -13.4700   17.7400 H   0  0  0  0  0  0
  -27.8789  -11.2874   18.8870 H   0  0  0  0  0  0
  -27.3775  -12.5535   17.7988 H   0  0  0  0  0  0
  -27.6612  -14.2524   19.5084 H   0  0  0  0  0  0
  -28.7118  -12.0848   21.3927 H   0  0  0  0  0  0
  -28.4362  -13.7456   21.8338 H   0  0  0  0  0  0
  -25.2757   -9.5681   22.4757 H   0  0  0  0  0  0
  -23.9995   -7.4632   22.7475 H   0  0  0  0  0  0
  -21.0836   -8.8771   19.8953 H   0  0  0  0  0  0
  -22.3693  -10.9669   19.6166 H   0  0  0  0  0  0
  -21.2002   -7.6147   23.9712 H   0  0  0  0  0  0
  -21.1483   -6.0522   25.9076 H   0  0  0  0  0  0
  -22.0600   -2.7606   23.2842 H   0  0  0  0  0  0
  -22.4098  -11.9877   22.4799 H   0  0  0  0  0  0
  -21.1104  -13.1255   22.2636 H   0  0  0  0  0  0
  -24.6520  -15.8401   20.5139 H   0  0  0  0  0  0
  -26.2729  -15.6334   20.0845 H   0  0  0  0  0  0
  -26.7202  -32.5432   23.1095 H   0  0  0  0  0  0
  -25.0074  -33.9707   25.0400 H   0  0  0  0  0  0
  -22.7181  -31.3056   21.4016 H   0  0  0  0  0  0
  -23.3750  -35.9625   23.3303 H   0  0  0  0  0  0
  -24.3574  -36.8907   22.2055 H   0  0  0  0  0  0
  -23.7236  -37.6492   23.6665 H   0  0  0  0  0  0
  -26.1019  -31.5436   20.6059 H   0  0  0  0  0  0
  -26.8471  -30.8280   22.0051 H   0  0  0  0  0  0
  -28.1214  -28.9585   21.1802 H   0  0  0  0  0  0
  -25.9289  -25.9278   18.9973 H   0  0  0  0  0  0
  -23.9592  -27.3133   19.0165 H   0  0  0  0  0  0
  -23.7633  -30.5996   19.4070 H   0  0  0  0  0  0
  -22.7558  -29.2565   19.8552 H   0  0  0  0  0  0
  -25.1284  -36.1925   25.0820 H   0  0  0  0  0  0
  -20.9974  -28.3256   24.1402 H   0  0  0  0  0  0
  -20.5662  -26.2301   23.3603 H   0  0  0  0  0  0
  -21.6640  -26.7434   22.1192 H   0  0  0  0  0  0
  -19.6910  -25.6288   21.1238 H   0  0  0  0  0  0
  -19.6683  -27.3198   20.6753 H   0  0  0  0  0  0
  -17.4190  -26.6678   21.4040 H   0  0  0  0  0  0
  -18.0339  -26.0064   22.9021 H   0  0  0  0  0  0
  -19.7950  -30.7283   24.2253 H   0  0  0  0  0  0
  -17.5026  -31.6268   24.5167 H   0  0  0  0  0  0
  -15.5359  -30.2996   23.7665 H   0  0  0  0  0  0
  -15.8667  -28.0832   22.7064 H   0  0  0  0  0  0
  -24.5867  -30.7141   25.7800 H   0  0  0  0  0  0
  -24.8971  -32.2932   26.4924 H   0  0  0  0  0  0
  -25.8038  -30.8892   27.0225 H   0  0  0  0  0  0
  -26.2899  -29.6762   24.1213 H   0  0  0  0  0  0
  -27.4010  -29.7256   25.4701 H   0  0  0  0  0  0
  -27.8779  -30.4280   23.9424 H   0  0  0  0  0  0
  -27.2670  -33.3648   26.2040 H   0  0  0  0  0  0
  -28.3887  -32.6853   25.0337 H   0  0  0  0  0  0
  -28.0695  -31.8471   26.5441 H   0  0  0  0  0  0
  -28.2596  -38.0101   24.7499 H   0  0  0  0  0  0
  -28.1055  -36.2621   24.6296 H   0  0  0  0  0  0
  -27.2291  -37.1450   25.8874 H   0  0  0  0  0  0
  -20.9377  -29.8797   21.6912 H   0  0  0  0  0  0
  -26.0160  -38.2847   24.1417 H   0  0  0  0  0  0
  -28.5988  -20.1092   21.9530 H   0  0  0  0  0  0
  -31.2936  -19.6589   18.6352 H   0  0  0  0  0  0
  -27.3676  -24.6716   20.8662 H   0  0  0  0  0  0
  -27.6156  -24.6952   19.1274 H   0  0  0  0  0  0
  -28.9508  -15.4650   21.2660 H   0  0  0  0  0  0
  -28.2593  -22.2614   20.2979 H   0  0  0  0  0  0
  1 25  1  0  0  0
  1 30  2  0  0  0
  1 80  1  0  0  0
  2  3  1  0  0  0
  2 25  1  0  0  0
  2 86  1  0  0  0
  2 87  1  0  0  0
  3  4  1  0  0  0
  3 88  1  0  0  0
  3 89  1  0  0  0
  4  5  1  0  0  0
  4 90  1  0  0  0
  4 91  1  0  0  0
  5  6  1  0  0  0
  5 26  1  0  0  0
  5 92  1  0  0  0
  6 25  1  0  0  0
  6 93  1  0  0  0
  6 94  1  0  0  0
  7  8  2  0  0  0
  7 26  1  0  0  0
  7 29  1  0  0  0
  8  9  1  0  0  0
  8 22  1  0  0  0
  9 10  1  0  0  0
  9 27  2  0  0  0
 10 11  2  0  0  0
 10 15  1  0  0  0
 11 12  1  0  0  0
 11 95  1  0  0  0
 12 13  2  0  0  0
 12 96  1  0  0  0
 13 14  1  0  0  0
 13 31  1  0  0  0
 14 15  2  0  0  0
 14 97  1  0  0  0
 15 98  1  0  0  0
 16 17  2  0  0  0
 16 21  1  0  0  0
 16 31  1  0  0  0
 17 18  1  0  0  0
 17 99  1  0  0  0
 18 19  2  0  0  0
 18100  1  0  0  0
 19 20  1  0  0  0
 19 24  1  0  0  0
 20 21  2  0  0  0
 20101  1  0  0  0
 21 23  1  0  0  0
 22 28  1  0  0  0
 22 32  2  0  0  0
 26 27  1  0  0  0
 28102  1  0  0  0
 28103  1  0  0  0
 29104  1  0  0  0
 29105  1  0  0  0
 33 34  1  0  0  0
 33 66  1  0  0  0
 33 70  2  0  0  0
 34 36  1  0  0  0
 34 59  1  0  0  0
 34106  1  0  0  0
 35 44  2  0  0  0
 35 45  1  0  0  0
 35 68  1  0  0  0
 36 56  1  0  0  0
 36107  1  0  0  0
 37 39  1  0  0  0
 37 47  1  0  0  0
 37 66  1  0  0  0
 37108  1  0  0  0
 38 43  2  0  0  0
 38 46  1  0  0  0
 38 47  1  0  0  0
 39 64  1  0  0  0
 39 67  2  0  0  0
 40 52  1  0  0  0
 40 53  2  0  0  0
 40 58  1  0  0  0
 41109  1  0  0  0
 41110  1  0  0  0
 41111  1  0  0  0
 41 48  1  0  0  0
 42 43  1  0  0  0
 42 66  1  0  0  0
 42112  1  0  0  0
 42113  1  0  0  0
 43 44  1  0  0  0
 44114  1  0  0  0
 45 46  2  0  0  0
 45115  1  0  0  0
 46116  1  0  0  0
 47117  1  0  0  0
 47118  1  0  0  0
 48 56  1  0  0  0
 48 65  1  0  0  0
 48119  1  0  0  0
 49 50  1  0  0  0
 49 53  1  0  0  0
 49 64  1  0  0  0
 49120  1  0  0  0
 50 51  1  0  0  0
 50121  1  0  0  0
 50122  1  0  0  0
 51 52  1  0  0  0
 51123  1  0  0  0
 51124  1  0  0  0
 52125  1  0  0  0
 52126  1  0  0  0
 53 54  1  0  0  0
 54 55  2  0  0  0
 54127  1  0  0  0
 55 57  1  0  0  0
 55128  1  0  0  0
 56 69  2  0  0  0
 57 58  2  0  0  0
 57129  1  0  0  0
 58130  1  0  0  0
 59 60  1  0  0  0
 59 61  1  0  0  0
 59 62  1  0  0  0
 60131  1  0  0  0
 60132  1  0  0  0
 60133  1  0  0  0
 61134  1  0  0  0
 61135  1  0  0  0
 61136  1  0  0  0
 62137  1  0  0  0
 62138  1  0  0  0
 62139  1  0  0  0
 63 65  1  0  0  0
 63140  1  0  0  0
 63141  1  0  0  0
 63142  1  0  0  0
 64143  1  0  0  0
 65144  1  0  0  0
 68 79  1  0  0  0
 71 73  2  0  0  0
 71 75  1  0  0  0
 71145  1  0  0  0
 72 73  1  0  0  0
 72 76  2  0  0  0
 72146  1  0  0  0
 73 77  1  0  0  0
 74 75  2  0  0  0
 74 76  1  0  0  0
 74 80  1  0  0  0
 75 84  1  0  0  0
 76 85  1  0  0  0
 77 81  1  0  0  0
 77 82  2  0  0  0
 78 79  1  0  0  0
 78 81  1  0  0  0
 78 83  2  0  0  0
 79147  1  0  0  0
 79148  1  0  0  0
 80149  1  0  0  0
 81150  1  0  0  0
M  ISO  4   1 100  68 101  79 101  80 100
M  END
> <chiral flag>
0

> <version>
0

> <s_m_source_file>
/data/baiqing/PycharmProjects/Reinvent-master-3.2/result/LINK_invent/BTK/process_docking_weight1_custom_product_contain_oxygen_bond_distance_aromatic_linkinvent_7_9_3/rearranged_h_0099.sdf

> <i_m_source_file_index>
21

> <r_mmod_Potential_Energy-OPLS-2005>
-170.890151977539

> <r_mmod_Stretch_Energy-OPLS-2005>
90.7964630126953

> <r_mmod_Bend_Energy-OPLS-2005>
147.882553100586

> <r_mmod_Torsional_Energy-OPLS-2005>
233.666931152344

> <r_mmod_Improper_Torsional_Energy-OPLS-2005>
4.34635257720947

> <r_mmod_Van_der_Waal_Energy-OPLS-2005>
152.598358154297

> <r_mmod_Electrostatic_Energy-OPLS-2005>
-563.922912597656

> <r_mmod_Solvation_Energy-OPLS-2005>
-296.903869628906

> <b_mmod_Minimization_Converged-OPLS-2005>
0

> <r_mmod_RMS_Derivative-OPLS-2005>
1.63928318023682

$$$$
21
                    3D
 Structure written by MMmdl.
153161  0  0  1  0            999 V2000
  -30.5895  -14.6913   20.3793 C   0  0  0  0  0  0
  -30.4571  -12.3844   19.4856 C   0  0  0  0  0  0
  -29.5256  -12.4403   18.2458 C   0  0  0  0  0  0
  -28.0404  -12.2876   18.6468 C   0  0  0  0  0  0
  -27.6416  -13.1868   19.8442 C   0  0  2  0  0  0
  -28.6949  -13.1085   20.9754 C   0  0  0  0  0  0
  -25.2549  -13.8066   20.5695 C   0  0  0  0  0  0
  -24.1805  -13.0372   20.9197 C   0  0  0  0  0  0
  -24.6354  -11.6839   20.8766 C   0  0  0  0  0  0
  -23.9024  -10.4250   21.0433 C   0  0  0  0  0  0
  -24.3590   -9.4170   21.9207 C   0  0  0  0  0  0
  -23.6276   -8.2205   22.0762 C   0  0  0  0  0  0
  -22.4261   -8.0253   21.3547 C   0  0  0  0  0  0
  -21.9889   -9.0228   20.4650 C   0  0  0  0  0  0
  -22.7207  -10.2108   20.3072 C   0  0  0  0  0  0
  -21.6844   -6.0725   22.5289 C   0  0  0  0  0  0
  -21.4007   -6.5641   23.8219 C   0  0  0  0  0  0
  -21.3655   -5.6799   24.9184 C   0  0  0  0  0  0
  -21.6040   -4.3060   24.7236 C   0  0  0  0  0  0
  -21.8826   -3.8146   23.4360 C   0  0  0  0  0  0
  -21.9192   -4.6956   22.3414 C   0  0  0  0  0  0
  -22.7840  -13.5198   21.1867 C   0  0  0  0  0  0
  -22.1665   -4.2141   21.0993 F   0  0  0  0  0  0
  -21.5624   -3.4547   25.7751 F   0  0  0  0  0  0
  -30.0233  -13.4374   20.4278 N   0  0  0  0  0  0
  -26.2932  -12.9178   20.3276 N   0  0  0  0  0  0
  -25.9269  -11.6380   20.5779 N   0  0  0  0  0  0
  -22.0474  -12.8200   22.0422 N   0  0  0  0  0  0
  -25.4228  -15.1809   20.4189 N   0  0  0  0  0  0
  -31.7967  -14.8289   20.1605 O   0  0  0  0  0  0
  -21.6625   -6.8856   21.4245 O   0  0  0  0  0  0
  -22.3547  -14.5521   20.6723 O   0  0  0  0  0  0
  -24.6232  -31.8620   23.2036 C   0  0  0  0  0  0
  -25.9089  -32.4795   23.8366 C   0  0  1  0  0  0
  -27.2362  -27.3461   20.1173 C   0  0  0  0  0  0
  -25.5917  -33.8595   24.2293 N   0  0  0  0  0  0
  -23.4164  -30.4845   21.5464 C   0  0  2  0  0  0
  -24.8655  -28.9416   20.1131 C   0  0  0  0  0  0
  -22.7460  -29.4629   22.4951 C   0  0  0  0  0  0
  -18.0281  -28.1391   22.8489 C   0  0  0  0  0  0
  -24.1490  -36.7297   23.2638 C   0  0  0  0  0  0
  -25.9545  -30.8021   21.3699 C   0  0  0  0  0  0
  -26.0321  -29.4310   20.7137 C   0  0  0  0  0  0
  -27.2199  -28.6458   20.7042 C   0  0  0  0  0  0
  -26.0445  -26.9001   19.4979 C   0  0  0  0  0  0
  -24.8727  -27.6807   19.4965 C   0  0  0  0  0  0
  -23.6306  -29.8177   20.1620 C   0  0  0  0  0  0
  -25.4113  -36.3093   24.0332 C   0  0  1  0  0  0
  -20.5879  -28.3689   23.1297 C   0  0  2  0  0  0
  -20.6773  -26.9415   22.5414 C   0  0  0  0  0  0
  -19.5751  -26.6389   21.5215 C   0  0  0  0  0  0
  -18.1928  -26.7935   22.1626 C   0  0  0  0  0  0
  -19.1532  -28.8857   23.2887 C   0  0  0  0  0  0
  -18.9456  -30.1458   23.8905 C   0  0  0  0  0  0
  -17.6458  -30.6595   24.0564 C   0  0  0  0  0  0
  -25.9048  -34.9461   23.5111 C   0  0  0  0  0  0
  -16.5348  -29.9095   23.6328 C   0  0  0  0  0  0
  -16.7269  -28.6509   23.0355 C   0  0  0  0  0  0
  -26.4487  -31.6595   25.0723 C   0  0  0  0  0  0
  -25.3730  -31.3715   26.1455 C   0  0  0  0  0  0
  -27.0326  -30.3029   24.6146 C   0  0  0  0  0  0
  -27.6052  -32.4323   25.7496 C   0  0  0  0  0  0
  -27.5580  -37.1802   24.8462 C   0  0  0  0  0  0
  -21.4175  -29.3043   22.3693 N   0  0  0  0  0  0
  -26.4292  -37.3788   23.9411 N   0  0  0  0  0  0
  -24.6835  -31.0652   22.0974 N   0  0  0  0  0  0
  -23.4193  -28.8165   23.3020 O   0  0  0  0  0  0
  -28.3721  -26.5290   20.1643 O   0  0  0  0  0  0
  -26.5615  -34.8924   22.4676 O   0  0  0  0  0  0
  -23.5402  -32.1407   23.7380 O   0  0  0  0  0  0
  -31.1410  -18.0933   20.1916 C   0  0  0  0  0  0
  -31.2201  -19.5174   20.2635 C   0  0  0  0  0  0
  -28.9677  -19.6247   21.0635 C   0  0  0  0  0  0
  -29.9514  -17.3798   20.5069 C   0  0  0  0  0  0
  -30.1212  -20.3323   20.6483 C   0  0  0  0  0  0
  -28.8936  -18.2046   20.9986 C   0  0  0  0  0  0
  -29.3016  -22.6293   20.4522 C   0  0  0  0  0  0
  -29.4225  -24.1888   20.4219 C   0  0  0  0  0  0
  -28.1641  -25.0683   20.0928 C   0  0  0  0  0  0
  -29.6154  -15.9223   20.0996 C   0  0  1  0  0  0
  -30.2569  -21.7611   20.6377 N   0  0  0  0  0  0
  -29.4096  -15.9818   18.6400 N   0  3  0  0  0  0
  -30.5055  -24.7492   20.6415 O   0  0  0  0  0  0
  -27.7156  -17.6268   21.3359 F   0  0  0  0  0  0
  -31.4986  -12.5077   19.1825 H   0  0  0  0  0  0
  -30.3991  -11.4054   19.9648 H   0  0  0  0  0  0
  -29.7947  -11.6456   17.5480 H   0  0  0  0  0  0
  -29.6756  -13.3707   17.7004 H   0  0  0  0  0  0
  -27.8823  -11.2410   18.9099 H   0  0  0  0  0  0
  -27.3914  -12.4817   17.7919 H   0  0  0  0  0  0
  -27.6060  -14.1912   19.4399 H   0  0  0  0  0  0
  -28.7119  -12.1052   21.4037 H   0  0  0  0  0  0
  -28.4357  -13.7728   21.8020 H   0  0  0  0  0  0
  -25.2740   -9.5655   22.4775 H   0  0  0  0  0  0
  -23.9994   -7.4594   22.7476 H   0  0  0  0  0  0
  -21.0820   -8.8741   19.8952 H   0  0  0  0  0  0
  -22.3672  -10.9650   19.6184 H   0  0  0  0  0  0
  -21.2002   -7.6152   23.9718 H   0  0  0  0  0  0
  -21.1468   -6.0533   25.9086 H   0  0  0  0  0  0
  -22.0609   -2.7609   23.2871 H   0  0  0  0  0  0
  -22.4073  -11.9857   22.4818 H   0  0  0  0  0  0
  -21.1091  -13.1231   22.2612 H   0  0  0  0  0  0
  -24.6510  -15.8199   20.5761 H   0  0  0  0  0  0
  -26.2810  -15.6629   20.1983 H   0  0  0  0  0  0
  -26.7159  -32.5482   23.1120 H   0  0  0  0  0  0
  -25.0075  -33.9748   25.0442 H   0  0  0  0  0  0
  -22.7083  -31.3035   21.4039 H   0  0  0  0  0  0
  -23.3760  -35.9621   23.3300 H   0  0  0  0  0  0
  -24.3578  -36.8919   22.2052 H   0  0  0  0  0  0
  -23.7236  -37.6494   23.6661 H   0  0  0  0  0  0
  -26.0797  -31.5659   20.6013 H   0  0  0  0  0  0
  -26.8368  -30.8534   21.9958 H   0  0  0  0  0  0
  -28.1159  -29.0199   21.1802 H   0  0  0  0  0  0
  -25.9933  -25.9377   19.0116 H   0  0  0  0  0  0
  -23.9784  -27.2999   19.0228 H   0  0  0  0  0  0
  -23.7463  -30.5944   19.4053 H   0  0  0  0  0  0
  -22.7521  -29.2443   19.8608 H   0  0  0  0  0  0
  -25.1288  -36.1951   25.0824 H   0  0  0  0  0  0
  -20.9964  -28.3268   24.1422 H   0  0  0  0  0  0
  -20.5684  -26.2292   23.3608 H   0  0  0  0  0  0
  -21.6644  -26.7459   22.1208 H   0  0  0  0  0  0
  -19.6916  -25.6302   21.1242 H   0  0  0  0  0  0
  -19.6695  -27.3195   20.6744 H   0  0  0  0  0  0
  -17.4196  -26.6684   21.4029 H   0  0  0  0  0  0
  -18.0328  -26.0079   22.9025 H   0  0  0  0  0  0
  -19.7932  -30.7270   24.2283 H   0  0  0  0  0  0
  -17.5016  -31.6279   24.5163 H   0  0  0  0  0  0
  -15.5349  -30.3003   23.7653 H   0  0  0  0  0  0
  -15.8667  -28.0828   22.7077 H   0  0  0  0  0  0
  -24.5915  -30.7052   25.7784 H   0  0  0  0  0  0
  -24.8908  -32.2871   26.4890 H   0  0  0  0  0  0
  -25.8071  -30.8894   27.0223 H   0  0  0  0  0  0
  -26.2892  -29.6791   24.1175 H   0  0  0  0  0  0
  -27.4047  -29.7274   25.4629 H   0  0  0  0  0  0
  -27.8748  -30.4331   23.9347 H   0  0  0  0  0  0
  -27.2669  -33.3624   26.2077 H   0  0  0  0  0  0
  -28.3867  -32.6883   25.0326 H   0  0  0  0  0  0
  -28.0717  -31.8445   26.5410 H   0  0  0  0  0  0
  -28.2591  -38.0109   24.7529 H   0  0  0  0  0  0
  -28.1090  -36.2641   24.6271 H   0  0  0  0  0  0
  -27.2298  -37.1426   25.8865 H   0  0  0  0  0  0
  -20.9345  -29.8767   21.6909 H   0  0  0  0  0  0
  -26.0178  -38.2858   24.1432 H   0  0  0  0  0  0
  -31.9956  -17.5551   19.8047 H   0  0  0  0  0  0
  -32.1443  -19.9948   19.9663 H   0  0  0  0  0  0
  -28.0983  -20.1612   21.4142 H   0  0  0  0  0  0
  -28.2868  -22.2602   20.2822 H   0  0  0  0  0  0
  -27.3679  -24.7869   20.7828 H   0  0  0  0  0  0
  -27.8321  -24.7992   19.0901 H   0  0  0  0  0  0
  -28.6683  -15.6769   20.5684 H   0  0  0  0  0  0
  -28.7276  -16.6776   18.3974 H   0  0  0  0  0  0
  -29.1247  -15.0942   18.2714 H   0  0  0  0  0  0
  -30.2821  -16.2244   18.2034 H   0  0  0  0  0  0
  1 25  1  0  0  0
  1 30  2  0  0  0
  1 80  1  0  0  0
  2  3  1  0  0  0
  2 25  1  0  0  0
  2 85  1  0  0  0
  2 86  1  0  0  0
  3  4  1  0  0  0
  3 87  1  0  0  0
  3 88  1  0  0  0
  4  5  1  0  0  0
  4 89  1  0  0  0
  4 90  1  0  0  0
  5  6  1  0  0  0
  5 26  1  0  0  0
  5 91  1  0  0  0
  6 25  1  0  0  0
  6 92  1  0  0  0
  6 93  1  0  0  0
  7  8  2  0  0  0
  7 26  1  0  0  0
  7 29  1  0  0  0
  8  9  1  0  0  0
  8 22  1  0  0  0
  9 10  1  0  0  0
  9 27  2  0  0  0
 10 11  2  0  0  0
 10 15  1  0  0  0
 11 12  1  0  0  0
 11 94  1  0  0  0
 12 13  2  0  0  0
 12 95  1  0  0  0
 13 14  1  0  0  0
 13 31  1  0  0  0
 14 15  2  0  0  0
 14 96  1  0  0  0
 15 97  1  0  0  0
 16 17  2  0  0  0
 16 21  1  0  0  0
 16 31  1  0  0  0
 17 18  1  0  0  0
 17 98  1  0  0  0
 18 19  2  0  0  0
 18 99  1  0  0  0
 19 20  1  0  0  0
 19 24  1  0  0  0
 20 21  2  0  0  0
 20100  1  0  0  0
 21 23  1  0  0  0
 22 28  1  0  0  0
 22 32  2  0  0  0
 26 27  1  0  0  0
 28101  1  0  0  0
 28102  1  0  0  0
 29103  1  0  0  0
 29104  1  0  0  0
 33 34  1  0  0  0
 33 66  1  0  0  0
 33 70  2  0  0  0
 34 36  1  0  0  0
 34 59  1  0  0  0
 34105  1  0  0  0
 35 44  2  0  0  0
 35 45  1  0  0  0
 35 68  1  0  0  0
 36 56  1  0  0  0
 36106  1  0  0  0
 37 39  1  0  0  0
 37 47  1  0  0  0
 37 66  1  0  0  0
 37107  1  0  0  0
 38 43  2  0  0  0
 38 46  1  0  0  0
 38 47  1  0  0  0
 39 64  1  0  0  0
 39 67  2  0  0  0
 40 52  1  0  0  0
 40 53  2  0  0  0
 40 58  1  0  0  0
 41108  1  0  0  0
 41109  1  0  0  0
 41110  1  0  0  0
 41 48  1  0  0  0
 42 43  1  0  0  0
 42 66  1  0  0  0
 42111  1  0  0  0
 42112  1  0  0  0
 43 44  1  0  0  0
 44113  1  0  0  0
 45 46  2  0  0  0
 45114  1  0  0  0
 46115  1  0  0  0
 47116  1  0  0  0
 47117  1  0  0  0
 48 56  1  0  0  0
 48 65  1  0  0  0
 48118  1  0  0  0
 49 50  1  0  0  0
 49 53  1  0  0  0
 49 64  1  0  0  0
 49119  1  0  0  0
 50 51  1  0  0  0
 50120  1  0  0  0
 50121  1  0  0  0
 51 52  1  0  0  0
 51122  1  0  0  0
 51123  1  0  0  0
 52124  1  0  0  0
 52125  1  0  0  0
 53 54  1  0  0  0
 54 55  2  0  0  0
 54126  1  0  0  0
 55 57  1  0  0  0
 55127  1  0  0  0
 56 69  2  0  0  0
 57 58  2  0  0  0
 57128  1  0  0  0
 58129  1  0  0  0
 59 60  1  0  0  0
 59 61  1  0  0  0
 59 62  1  0  0  0
 60130  1  0  0  0
 60131  1  0  0  0
 60132  1  0  0  0
 61133  1  0  0  0
 61134  1  0  0  0
 61135  1  0  0  0
 62136  1  0  0  0
 62137  1  0  0  0
 62138  1  0  0  0
 63 65  1  0  0  0
 63139  1  0  0  0
 63140  1  0  0  0
 63141  1  0  0  0
 64142  1  0  0  0
 65143  1  0  0  0
 68 79  1  0  0  0
 71 72  2  0  0  0
 71 74  1  0  0  0
 71144  1  0  0  0
 72 75  1  0  0  0
 72145  1  0  0  0
 73 75  2  0  0  0
 73 76  1  0  0  0
 73146  1  0  0  0
 74 76  2  0  0  0
 74 80  1  0  0  0
 75 81  1  0  0  0
 76 84  1  0  0  0
 77 78  1  0  0  0
 77 81  2  0  0  0
 77147  1  0  0  0
 78 79  1  0  0  0
 78 83  2  0  0  0
 79148  1  0  0  0
 79149  1  0  0  0
 80 82  1  0  0  0
 80150  1  0  0  0
 82151  1  0  0  0
 82152  1  0  0  0
 82153  1  0  0  0
M  CHG  1  82   1
M  ISO  4   1 100  68 101  79 101  80 100
M  END
> <chiral flag>
0

> <version>
0

> <s_m_source_file>
/data/baiqing/PycharmProjects/Reinvent-master-3.2/result/LINK_invent/BTK/process_docking_weight1_custom_product_contain_oxygen_bond_distance_aromatic_linkinvent_7_9_3/rearranged_h_0099.sdf

> <i_m_source_file_index>
22

> <r_mmod_Potential_Energy-OPLS-2005>
-119.714942932129

> <r_mmod_Stretch_Energy-OPLS-2005>
81.0262222290039

> <r_mmod_Bend_Energy-OPLS-2005>
165.995407104492

> <r_mmod_Torsional_Energy-OPLS-2005>
221.212432861328

> <r_mmod_Improper_Torsional_Energy-OPLS-2005>
15.720947265625

> <r_mmod_Van_der_Waal_Energy-OPLS-2005>
145.144912719727

> <r_mmod_Electrostatic_Energy-OPLS-2005>
-283.122314453125

> <r_mmod_Solvation_Energy-OPLS-2005>
-524.794006347656

> <b_mmod_Minimization_Converged-OPLS-2005>
0

> <r_mmod_RMS_Derivative-OPLS-2005>
0.848900318145752

$$$$
22
                    3D
 Structure written by MMmdl.
157165  0  0  1  0            999 V2000
  -30.6431  -14.4593   20.6177 C   0  0  0  0  0  0
  -30.4429  -12.3139   19.4293 C   0  0  0  0  0  0
  -29.5054  -12.5002   18.2176 C   0  0  0  0  0  0
  -28.0254  -12.3422   18.6160 C   0  0  0  0  0  0
  -27.6573  -13.1865   19.8651 C   0  0  2  0  0  0
  -28.6810  -12.9357   20.9975 C   0  0  0  0  0  0
  -25.2595  -13.8095   20.5586 C   0  0  0  0  0  0
  -24.1857  -13.0419   20.9121 C   0  0  0  0  0  0
  -24.6363  -11.6866   20.8683 C   0  0  0  0  0  0
  -23.9038  -10.4301   21.0379 C   0  0  0  0  0  0
  -24.3600   -9.4224   21.9159 C   0  0  0  0  0  0
  -23.6288   -8.2263   22.0730 C   0  0  0  0  0  0
  -22.4269   -8.0285   21.3523 C   0  0  0  0  0  0
  -21.9885   -9.0257   20.4622 C   0  0  0  0  0  0
  -22.7212  -10.2138   20.3025 C   0  0  0  0  0  0
  -21.6839   -6.0739   22.5292 C   0  0  0  0  0  0
  -21.4000   -6.5641   23.8227 C   0  0  0  0  0  0
  -21.3649   -5.6793   24.9188 C   0  0  0  0  0  0
  -21.6046   -4.3060   24.7241 C   0  0  0  0  0  0
  -21.8806   -3.8141   23.4367 C   0  0  0  0  0  0
  -21.9182   -4.6959   22.3418 C   0  0  0  0  0  0
  -22.7893  -13.5226   21.1865 C   0  0  0  0  0  0
  -22.1654   -4.2134   21.1000 F   0  0  0  0  0  0
  -21.5619   -3.4538   25.7756 F   0  0  0  0  0  0
  -30.0234  -13.2597   20.4725 N   0  0  0  0  0  0
  -26.2968  -12.9237   20.3232 N   0  0  0  0  0  0
  -25.9275  -11.6421   20.5654 N   0  0  0  0  0  0
  -22.0555  -12.8258   22.0449 N   0  0  0  0  0  0
  -25.4473  -15.1828   20.4042 N   0  0  0  0  0  0
  -31.7789  -14.7003   20.1890 O   0  0  0  0  0  0
  -21.6608   -6.8888   21.4265 O   0  0  0  0  0  0
  -22.3588  -14.5569   20.6741 O   0  0  0  0  0  0
  -24.6091  -31.8726   23.2118 C   0  0  0  0  0  0
  -25.9001  -32.4838   23.8446 C   0  0  1  0  0  0
  -27.2395  -27.4964   20.0678 C   0  0  0  0  0  0
  -25.5897  -33.8638   24.2389 N   0  0  0  0  0  0
  -23.3954  -30.4988   21.5448 C   0  0  2  0  0  0
  -24.8413  -28.9672   20.1187 C   0  0  0  0  0  0
  -22.7378  -29.4693   22.4929 C   0  0  0  0  0  0
  -18.0371  -28.1327   22.8438 C   0  0  0  0  0  0
  -24.1489  -36.7326   23.2629 C   0  0  0  0  0  0
  -25.9178  -30.8621   21.3489 C   0  0  0  0  0  0
  -25.9989  -29.4976   20.6995 C   0  0  0  0  0  0
  -27.2034  -28.7645   20.6781 C   0  0  0  0  0  0
  -26.0710  -26.9676   19.4831 C   0  0  0  0  0  0
  -24.8662  -27.6941   19.5184 C   0  0  0  0  0  0
  -23.5989  -29.8240   20.1649 C   0  0  0  0  0  0
  -25.4097  -36.3122   24.0345 C   0  0  1  0  0  0
  -20.5902  -28.3693   23.1430 C   0  0  2  0  0  0
  -20.6907  -26.9489   22.5483 C   0  0  0  0  0  0
  -19.5958  -26.6435   21.5214 C   0  0  0  0  0  0
  -18.2086  -26.7914   22.1537 C   0  0  0  0  0  0
  -19.1548  -28.8789   23.2971 C   0  0  0  0  0  0
  -18.9424  -30.1368   23.9035 C   0  0  0  0  0  0
  -17.6399  -30.6500   24.0540 C   0  0  0  0  0  0
  -25.9008  -34.9481   23.5153 C   0  0  0  0  0  0
  -16.5329  -29.8971   23.6233 C   0  0  0  0  0  0
  -16.7334  -28.6385   23.0256 C   0  0  0  0  0  0
  -26.4462  -31.6614   25.0767 C   0  0  0  0  0  0
  -25.3764  -31.3696   26.1541 C   0  0  0  0  0  0
  -27.0269  -30.3088   24.6064 C   0  0  0  0  0  0
  -27.6096  -32.4287   25.7483 C   0  0  0  0  0  0
  -27.5577  -37.1826   24.8465 C   0  0  0  0  0  0
  -21.4069  -29.3125   22.3810 N   0  0  0  0  0  0
  -26.4289  -37.3806   23.9414 N   0  0  0  0  0  0
  -24.6605  -31.0865   22.0969 N   0  0  0  0  0  0
  -23.4223  -28.8191   23.2880 O   0  0  0  0  0  0
  -28.4058  -26.7771   20.0349 O   0  0  0  0  0  0
  -26.5541  -34.8888   22.4683 O   0  0  0  0  0  0
  -23.5312  -32.1398   23.7559 O   0  0  0  0  0  0
  -29.9237  -18.9791   19.9297 C   0  0  0  0  0  0
  -29.9446  -18.8987   22.3645 C   0  0  0  0  0  0
  -29.9592  -17.5611   19.8817 C   0  0  0  0  0  0
  -29.9011  -19.6541   21.1758 C   0  0  0  0  0  0
  -29.9587  -16.8140   21.0940 C   0  0  0  0  0  0
  -29.9374  -17.4949   22.3266 C   0  0  0  0  0  0
  -28.8585  -21.8745   20.8914 C   0  0  0  0  0  0
  -29.9937  -16.8617   18.5270 C   0  0  0  0  0  0
  -28.8433  -23.2992   21.4686 C   0  0  0  0  0  0
  -28.3620  -24.3909   20.4908 C   0  0  0  0  0  0
  -28.5051  -25.8119   21.0735 C   0  0  0  0  0  0
  -29.8636  -21.0731   21.2937 N   0  0  0  0  0  0
  -29.8490  -15.3991   21.1501 N   0  0  0  0  0  0
  -27.9837  -21.5223   20.0944 O   0  0  0  0  0  0
  -29.9016  -16.7938   23.4859 F   0  0  0  0  0  0
  -31.4783  -12.4743   19.1247 H   0  0  0  0  0  0
  -30.3948  -11.2905   19.8076 H   0  0  0  0  0  0
  -29.7727  -11.7843   17.4396 H   0  0  0  0  0  0
  -29.6581  -13.4943   17.7915 H   0  0  0  0  0  0
  -27.8467  -11.2848   18.8244 H   0  0  0  0  0  0
  -27.3842  -12.5998   17.7715 H   0  0  0  0  0  0
  -27.7142  -14.2352   19.5682 H   0  0  0  0  0  0
  -28.6512  -11.8898   21.3105 H   0  0  0  0  0  0
  -28.4112  -13.4948   21.8975 H   0  0  0  0  0  0
  -25.2727   -9.5712   22.4742 H   0  0  0  0  0  0
  -23.9970   -7.4640   22.7458 H   0  0  0  0  0  0
  -21.0779   -8.8748   19.8954 H   0  0  0  0  0  0
  -22.3610  -10.9661   19.6131 H   0  0  0  0  0  0
  -21.1983   -7.6144   23.9730 H   0  0  0  0  0  0
  -21.1484   -6.0521   25.9087 H   0  0  0  0  0  0
  -22.0590   -2.7610   23.2864 H   0  0  0  0  0  0
  -22.4026  -11.9845   22.4793 H   0  0  0  0  0  0
  -21.1181  -13.1314   22.2658 H   0  0  0  0  0  0
  -24.7082  -15.8606   20.5450 H   0  0  0  0  0  0
  -26.3200  -15.6061   20.1128 H   0  0  0  0  0  0
  -26.7111  -32.5588   23.1259 H   0  0  0  0  0  0
  -25.0140  -33.9868   25.0596 H   0  0  0  0  0  0
  -22.6889  -31.3193   21.4018 H   0  0  0  0  0  0
  -23.3736  -35.9683   23.3304 H   0  0  0  0  0  0
  -24.3618  -36.8923   22.2060 H   0  0  0  0  0  0
  -23.7275  -37.6547   23.6602 H   0  0  0  0  0  0
  -26.0181  -31.6347   20.5865 H   0  0  0  0  0  0
  -26.8108  -30.9275   21.9564 H   0  0  0  0  0  0
  -28.0990  -29.1760   21.1211 H   0  0  0  0  0  0
  -26.0995  -26.0028   18.9966 H   0  0  0  0  0  0
  -23.9707  -27.2825   19.0765 H   0  0  0  0  0  0
  -23.6968  -30.5863   19.3944 H   0  0  0  0  0  0
  -22.7290  -29.2341   19.8741 H   0  0  0  0  0  0
  -25.1284  -36.1977   25.0846 H   0  0  0  0  0  0
  -20.9990  -28.3233   24.1577 H   0  0  0  0  0  0
  -20.5738  -26.2399   23.3694 H   0  0  0  0  0  0
  -21.6850  -26.7598   22.1378 H   0  0  0  0  0  0
  -19.6790  -27.3318   20.6792 H   0  0  0  0  0  0
  -19.7284  -25.6364   21.1260 H   0  0  0  0  0  0
  -17.4448  -26.6698   21.3840 H   0  0  0  0  0  0
  -18.0300  -26.0021   22.8880 H   0  0  0  0  0  0
  -19.7851  -30.7187   24.2525 H   0  0  0  0  0  0
  -17.4909  -31.6168   24.5197 H   0  0  0  0  0  0
  -15.5315  -30.2808   23.7470 H   0  0  0  0  0  0
  -15.8801  -28.0621   22.6916 H   0  0  0  0  0  0
  -24.5929  -30.7045   25.7906 H   0  0  0  0  0  0
  -24.8961  -32.2841   26.5025 H   0  0  0  0  0  0
  -25.8167  -30.8865   27.0271 H   0  0  0  0  0  0
  -26.2802  -29.6897   24.1082 H   0  0  0  0  0  0
  -27.4078  -29.7281   25.4473 H   0  0  0  0  0  0
  -27.8621  -30.4504   23.9203 H   0  0  0  0  0  0
  -27.2789  -33.3558   26.2147 H   0  0  0  0  0  0
  -28.3830  -32.6874   25.0249 H   0  0  0  0  0  0
  -28.0812  -31.8344   26.5309 H   0  0  0  0  0  0
  -28.2619  -38.0093   24.7473 H   0  0  0  0  0  0
  -28.1048  -36.2639   24.6308 H   0  0  0  0  0  0
  -27.2307  -37.1515   25.8870 H   0  0  0  0  0  0
  -20.9128  -29.8891   21.7166 H   0  0  0  0  0  0
  -26.0166  -38.2888   24.1371 H   0  0  0  0  0  0
  -29.9155  -19.5492   19.0114 H   0  0  0  0  0  0
  -29.9505  -19.3861   23.3273 H   0  0  0  0  0  0
  -29.9378  -17.5615   17.6920 H   0  0  0  0  0  0
  -29.1867  -16.1351   18.4168 H   0  0  0  0  0  0
  -30.9311  -16.3201   18.4281 H   0  0  0  0  0  0
  -29.8374  -23.5681   21.8250 H   0  0  0  0  0  0
  -28.1937  -23.2881   22.3424 H   0  0  0  0  0  0
  -28.9330  -24.3088   19.5628 H   0  0  0  0  0  0
  -27.3186  -24.2227   20.2287 H   0  0  0  0  0  0
  -29.4754  -25.9419   21.5517 H   0  0  0  0  0  0
  -27.7618  -25.9897   21.8566 H   0  0  0  0  0  0
  -30.5048  -21.4825   21.9633 H   0  0  0  0  0  0
  -29.0410  -15.0508   21.6465 H   0  0  0  0  0  0
  1 25  1  0  0  0
  1 30  2  0  0  0
  1 83  1  0  0  0
  2  3  1  0  0  0
  2 25  1  0  0  0
  2 86  1  0  0  0
  2 87  1  0  0  0
  3  4  1  0  0  0
  3 88  1  0  0  0
  3 89  1  0  0  0
  4  5  1  0  0  0
  4 90  1  0  0  0
  4 91  1  0  0  0
  5  6  1  0  0  0
  5 26  1  0  0  0
  5 92  1  0  0  0
  6 25  1  0  0  0
  6 93  1  0  0  0
  6 94  1  0  0  0
  7  8  2  0  0  0
  7 26  1  0  0  0
  7 29  1  0  0  0
  8  9  1  0  0  0
  8 22  1  0  0  0
  9 10  1  0  0  0
  9 27  2  0  0  0
 10 11  2  0  0  0
 10 15  1  0  0  0
 11 12  1  0  0  0
 11 95  1  0  0  0
 12 13  2  0  0  0
 12 96  1  0  0  0
 13 14  1  0  0  0
 13 31  1  0  0  0
 14 15  2  0  0  0
 14 97  1  0  0  0
 15 98  1  0  0  0
 16 17  2  0  0  0
 16 21  1  0  0  0
 16 31  1  0  0  0
 17 18  1  0  0  0
 17 99  1  0  0  0
 18 19  2  0  0  0
 18100  1  0  0  0
 19 20  1  0  0  0
 19 24  1  0  0  0
 20 21  2  0  0  0
 20101  1  0  0  0
 21 23  1  0  0  0
 22 28  1  0  0  0
 22 32  2  0  0  0
 26 27  1  0  0  0
 28102  1  0  0  0
 28103  1  0  0  0
 29104  1  0  0  0
 29105  1  0  0  0
 33 34  1  0  0  0
 33 66  1  0  0  0
 33 70  2  0  0  0
 34 36  1  0  0  0
 34 59  1  0  0  0
 34106  1  0  0  0
 35 44  2  0  0  0
 35 45  1  0  0  0
 35 68  1  0  0  0
 36 56  1  0  0  0
 36107  1  0  0  0
 37 39  1  0  0  0
 37 47  1  0  0  0
 37 66  1  0  0  0
 37108  1  0  0  0
 38 43  2  0  0  0
 38 46  1  0  0  0
 38 47  1  0  0  0
 39 64  1  0  0  0
 39 67  2  0  0  0
 40 52  1  0  0  0
 40 53  2  0  0  0
 40 58  1  0  0  0
 41109  1  0  0  0
 41110  1  0  0  0
 41111  1  0  0  0
 41 48  1  0  0  0
 42 43  1  0  0  0
 42 66  1  0  0  0
 42112  1  0  0  0
 42113  1  0  0  0
 43 44  1  0  0  0
 44114  1  0  0  0
 45 46  2  0  0  0
 45115  1  0  0  0
 46116  1  0  0  0
 47117  1  0  0  0
 47118  1  0  0  0
 48 56  1  0  0  0
 48 65  1  0  0  0
 48119  1  0  0  0
 49 50  1  0  0  0
 49 53  1  0  0  0
 49 64  1  0  0  0
 49120  1  0  0  0
 50 51  1  0  0  0
 50121  1  0  0  0
 50122  1  0  0  0
 51 52  1  0  0  0
 51123  1  0  0  0
 51124  1  0  0  0
 52125  1  0  0  0
 52126  1  0  0  0
 53 54  1  0  0  0
 54 55  2  0  0  0
 54127  1  0  0  0
 55 57  1  0  0  0
 55128  1  0  0  0
 56 69  2  0  0  0
 57 58  2  0  0  0
 57129  1  0  0  0
 58130  1  0  0  0
 59 60  1  0  0  0
 59 61  1  0  0  0
 59 62  1  0  0  0
 60131  1  0  0  0
 60132  1  0  0  0
 60133  1  0  0  0
 61134  1  0  0  0
 61135  1  0  0  0
 61136  1  0  0  0
 62137  1  0  0  0
 62138  1  0  0  0
 62139  1  0  0  0
 63 65  1  0  0  0
 63140  1  0  0  0
 63141  1  0  0  0
 63142  1  0  0  0
 64143  1  0  0  0
 65144  1  0  0  0
 68 81  1  0  0  0
 71 73  2  0  0  0
 71 74  1  0  0  0
 71145  1  0  0  0
 72 74  2  0  0  0
 72 76  1  0  0  0
 72146  1  0  0  0
 73 75  1  0  0  0
 73 78  1  0  0  0
 74 82  1  0  0  0
 75 76  2  0  0  0
 75 83  1  0  0  0
 76 85  1  0  0  0
 77 79  1  0  0  0
 77 82  1  0  0  0
 77 84  2  0  0  0
 78147  1  0  0  0
 78148  1  0  0  0
 78149  1  0  0  0
 79 80  1  0  0  0
 79150  1  0  0  0
 79151  1  0  0  0
 80 81  1  0  0  0
 80152  1  0  0  0
 80153  1  0  0  0
 81154  1  0  0  0
 81155  1  0  0  0
 82156  1  0  0  0
 83157  1  0  0  0
M  ISO  4   1 100  68 101  81 101  83 100
M  END
> <chiral flag>
0

> <version>
0

> <s_m_source_file>
/data/baiqing/PycharmProjects/Reinvent-master-3.2/result/LINK_invent/BTK/process_docking_weight1_custom_product_contain_oxygen_bond_distance_aromatic_linkinvent_7_9_3/rearranged_h_0099.sdf

> <i_m_source_file_index>
23

> <r_mmod_Potential_Energy-OPLS-2005>
-109.159385681152

> <r_mmod_Stretch_Energy-OPLS-2005>
34.192626953125

> <r_mmod_Bend_Energy-OPLS-2005>
92.1679611206055

> <r_mmod_Torsional_Energy-OPLS-2005>
289.321319580078

> <r_mmod_Improper_Torsional_Energy-OPLS-2005>
4.36232852935791

> <r_mmod_Van_der_Waal_Energy-OPLS-2005>
149.249954223633

> <r_mmod_Electrostatic_Energy-OPLS-2005>
-467.315948486328

> <r_mmod_Solvation_Energy-OPLS-2005>
-224.091796875

> <b_mmod_Minimization_Converged-OPLS-2005>
0

> <r_mmod_RMS_Derivative-OPLS-2005>
7.8703875541687

$$$$
23
                    3D
 Structure written by MMmdl.
165174  0  0  1  0            999 V2000
  -30.6868  -14.6516   20.5800 C   0  0  0  0  0  0
  -30.4264  -12.4143   19.4885 C   0  0  0  0  0  0
  -29.5174  -12.5337   18.2450 C   0  0  0  0  0  0
  -28.0392  -12.3544   18.6375 C   0  0  0  0  0  0
  -27.6495  -13.2301   19.8548 C   0  0  2  0  0  0
  -28.6770  -13.1055   20.9958 C   0  0  0  0  0  0
  -25.2511  -13.8189   20.5657 C   0  0  0  0  0  0
  -24.1798  -13.0426   20.9145 C   0  0  0  0  0  0
  -24.6410  -11.6913   20.8715 C   0  0  0  0  0  0
  -23.9093  -10.4292   21.0404 C   0  0  0  0  0  0
  -24.3643   -9.4212   21.9190 C   0  0  0  0  0  0
  -23.6312   -8.2249   22.0761 C   0  0  0  0  0  0
  -22.4286   -8.0291   21.3561 C   0  0  0  0  0  0
  -21.9926   -9.0259   20.4657 C   0  0  0  0  0  0
  -22.7264  -10.2132   20.3052 C   0  0  0  0  0  0
  -21.6850   -6.0751   22.5292 C   0  0  0  0  0  0
  -21.4012   -6.5656   23.8230 C   0  0  0  0  0  0
  -21.3656   -5.6802   24.9187 C   0  0  0  0  0  0
  -21.6038   -4.3064   24.7231 C   0  0  0  0  0  0
  -21.8817   -3.8161   23.4350 C   0  0  0  0  0  0
  -21.9193   -4.6980   22.3410 C   0  0  0  0  0  0
  -22.7822  -13.5207   21.1842 C   0  0  0  0  0  0
  -22.1657   -4.2167   21.0990 F   0  0  0  0  0  0
  -21.5629   -3.4549   25.7743 F   0  0  0  0  0  0
  -30.0168  -13.4439   20.4775 N   0  0  0  0  0  0
  -26.2959  -12.9409   20.3236 N   0  0  0  0  0  0
  -25.9340  -11.6551   20.5707 N   0  0  0  0  0  0
  -22.0485  -12.8190   22.0413 N   0  0  0  0  0  0
  -25.4174  -15.1914   20.4184 N   0  0  0  0  0  0
  -31.7529  -14.7997   19.9769 O   0  0  0  0  0  0
  -21.6643   -6.8892   21.4252 O   0  0  0  0  0  0
  -22.3484  -14.5512   20.6708 O   0  0  0  0  0  0
  -24.6265  -31.8588   23.1996 C   0  0  0  0  0  0
  -25.9112  -32.4769   23.8337 C   0  0  1  0  0  0
  -27.2176  -27.3071   20.1335 C   0  0  0  0  0  0
  -25.5926  -33.8571   24.2259 N   0  0  0  0  0  0
  -23.4204  -30.4815   21.5425 C   0  0  2  0  0  0
  -24.8660  -28.9334   20.1108 C   0  0  0  0  0  0
  -22.7481  -29.4621   22.4927 C   0  0  0  0  0  0
  -18.0285  -28.1365   22.8489 C   0  0  0  0  0  0
  -24.1485  -36.7291   23.2634 C   0  0  0  0  0  0
  -25.9608  -30.7883   21.3698 C   0  0  0  0  0  0
  -26.0354  -29.4135   20.7157 C   0  0  0  0  0  0
  -27.2172  -28.6139   20.7121 C   0  0  0  0  0  0
  -26.0319  -26.8860   19.4931 C   0  0  0  0  0  0
  -24.8668  -27.6760   19.4872 C   0  0  0  0  0  0
  -23.6333  -29.8127   20.1592 C   0  0  0  0  0  0
  -25.4106  -36.3078   24.0327 C   0  0  1  0  0  0
  -20.5890  -28.3679   23.1265 C   0  0  2  0  0  0
  -20.6758  -26.9394   22.5400 C   0  0  0  0  0  0
  -19.5734  -26.6370   21.5202 C   0  0  0  0  0  0
  -18.1918  -26.7910   22.1620 C   0  0  0  0  0  0
  -19.1539  -28.8841   23.2872 C   0  0  0  0  0  0
  -18.9465  -30.1447   23.8880 C   0  0  0  0  0  0
  -17.6466  -30.6571   24.0567 C   0  0  0  0  0  0
  -25.9057  -34.9453   23.5096 C   0  0  0  0  0  0
  -16.5353  -29.9075   23.6331 C   0  0  0  0  0  0
  -16.7272  -28.6488   23.0357 C   0  0  0  0  0  0
  -26.4495  -31.6592   25.0720 C   0  0  0  0  0  0
  -25.3733  -31.3737   26.1457 C   0  0  0  0  0  0
  -27.0348  -30.3012   24.6189 C   0  0  0  0  0  0
  -27.6034  -32.4356   25.7495 C   0  0  0  0  0  0
  -27.5585  -37.1788   24.8453 C   0  0  0  0  0  0
  -21.4194  -29.3044   22.3671 N   0  0  0  0  0  0
  -26.4277  -37.3784   23.9430 N   0  0  0  0  0  0
  -24.6881  -31.0604   22.0939 N   0  0  0  0  0  0
  -23.4208  -28.8158   23.2999 O   0  0  0  0  0  0
  -28.3239  -26.4448   20.1681 O   0  0  0  0  0  0
  -26.5644  -34.8934   22.4675 O   0  0  0  0  0  0
  -23.5426  -32.1397   23.7317 O   0  0  0  0  0  0
  -30.9614  -19.3966   20.6445 C   0  0  0  0  0  0
  -28.6109  -19.0223   20.3456 C   0  0  0  0  0  0
  -31.1640  -18.0148   20.9476 C   0  0  0  0  0  0
  -29.6862  -19.9531   20.3534 C   0  0  0  0  0  0
  -30.0805  -17.0789   20.9336 C   0  0  0  0  0  0
  -28.8038  -17.6296   20.6180 C   0  0  0  0  0  0
  -29.6737  -22.6993   17.8160 C   0  0  0  0  0  0
  -28.8959  -22.3904   20.5757 C   0  0  0  0  0  0
  -30.0751  -15.5035   22.7346 C   0  0  0  0  0  0
  -28.9474  -23.8813   18.4614 C   0  0  0  0  0  0
  -30.3960  -21.7289   18.7630 C   0  0  0  0  0  0
  -29.0328  -23.8812   20.0053 C   0  0  1  0  0  0
  -32.5758  -17.5758   21.3024 C   0  0  0  0  0  0
  -30.6939  -14.2949   23.4554 C   0  0  0  0  0  0
  -28.0980  -25.0340   20.5951 C   0  0  0  0  0  0
  -29.5692  -21.3629   19.9294 N   0  0  0  0  0  0
  -30.2159  -15.6755   21.3889 N   0  0  0  0  0  0
  -29.6860  -22.5457   16.5932 O   0  0  0  0  0  0
  -28.1915  -22.1875   21.5681 O   0  0  0  0  0  0
  -29.4520  -16.3057   23.4398 O   0  0  0  0  0  0
  -27.7315  -16.8034   20.5884 F   0  0  0  0  0  0
  -31.4738  -12.5050   19.1970 H   0  0  0  0  0  0
  -30.3380  -11.4193   19.9287 H   0  0  0  0  0  0
  -29.7996  -11.7921   17.4962 H   0  0  0  0  0  0
  -29.6578  -13.5099   17.7777 H   0  0  0  0  0  0
  -27.8835  -11.3013   18.8729 H   0  0  0  0  0  0
  -27.3918  -12.5747   17.7881 H   0  0  0  0  0  0
  -27.6635  -14.2657   19.5129 H   0  0  0  0  0  0
  -28.6791  -12.0938   21.4036 H   0  0  0  0  0  0
  -28.3514  -13.7494   21.8086 H   0  0  0  0  0  0
  -25.2790   -9.5689   22.4769 H   0  0  0  0  0  0
  -24.0028   -7.4631   22.7468 H   0  0  0  0  0  0
  -21.0861   -8.8780   19.8959 H   0  0  0  0  0  0
  -22.3739  -10.9669   19.6155 H   0  0  0  0  0  0
  -21.2005   -7.6162   23.9740 H   0  0  0  0  0  0
  -21.1476   -6.0533   25.9092 H   0  0  0  0  0  0
  -22.0599   -2.7624   23.2848 H   0  0  0  0  0  0
  -22.4105  -11.9846   22.4796 H   0  0  0  0  0  0
  -21.1108  -13.1218   22.2632 H   0  0  0  0  0  0
  -24.6624  -15.8462   20.5805 H   0  0  0  0  0  0
  -26.3071  -15.6550   20.2558 H   0  0  0  0  0  0
  -26.7189  -32.5434   23.1095 H   0  0  0  0  0  0
  -25.0078  -33.9705   25.0411 H   0  0  0  0  0  0
  -22.7158  -31.3027   21.3962 H   0  0  0  0  0  0
  -23.3767  -35.9602   23.3243 H   0  0  0  0  0  0
  -24.3583  -36.8965   22.2057 H   0  0  0  0  0  0
  -23.7214  -37.6462   23.6704 H   0  0  0  0  0  0
  -26.0931  -31.5501   20.6001 H   0  0  0  0  0  0
  -26.8407  -30.8376   21.9994 H   0  0  0  0  0  0
  -28.1155  -28.9784   21.1910 H   0  0  0  0  0  0
  -25.9903  -25.9273   18.9979 H   0  0  0  0  0  0
  -23.9737  -27.3054   19.0029 H   0  0  0  0  0  0
  -23.7491  -30.5860   19.3988 H   0  0  0  0  0  0
  -22.7530  -29.2398   19.8595 H   0  0  0  0  0  0
  -25.1277  -36.1910   25.0817 H   0  0  0  0  0  0
  -20.9996  -28.3234   24.1381 H   0  0  0  0  0  0
  -20.5608  -26.2293   23.3607 H   0  0  0  0  0  0
  -21.6623  -26.7374   22.1210 H   0  0  0  0  0  0
  -19.6887  -25.6280   21.1226 H   0  0  0  0  0  0
  -19.6660  -27.3186   20.6737 H   0  0  0  0  0  0
  -17.4181  -26.6667   21.4027 H   0  0  0  0  0  0
  -18.0320  -26.0030   22.8994 H   0  0  0  0  0  0
  -19.7945  -30.7275   24.2215 H   0  0  0  0  0  0
  -17.5020  -31.6247   24.5183 H   0  0  0  0  0  0
  -15.5357  -30.2982   23.7649 H   0  0  0  0  0  0
  -15.8672  -28.0810   22.7081 H   0  0  0  0  0  0
  -24.5895  -30.7095   25.7805 H   0  0  0  0  0  0
  -24.8952  -32.2906   26.4910 H   0  0  0  0  0  0
  -25.8062  -30.8907   27.0225 H   0  0  0  0  0  0
  -26.2931  -29.6751   24.1214 H   0  0  0  0  0  0
  -27.4035  -29.7280   25.4706 H   0  0  0  0  0  0
  -27.8803  -30.4278   23.9421 H   0  0  0  0  0  0
  -27.2610  -33.3658   26.2047 H   0  0  0  0  0  0
  -28.3861  -32.6920   25.0344 H   0  0  0  0  0  0
  -28.0700  -31.8516   26.5437 H   0  0  0  0  0  0
  -28.2553  -38.0140   24.7594 H   0  0  0  0  0  0
  -28.1137  -36.2678   24.6158 H   0  0  0  0  0  0
  -27.2327  -37.1282   25.8859 H   0  0  0  0  0  0
  -20.9375  -29.8808   21.6917 H   0  0  0  0  0  0
  -26.0142  -38.2842   24.1494 H   0  0  0  0  0  0
  -31.8189  -20.0557   20.6393 H   0  0  0  0  0  0
  -27.6175  -19.3663   20.0954 H   0  0  0  0  0  0
  -27.9027  -23.8469   18.1531 H   0  0  0  0  0  0
  -29.3602  -24.8077   18.0622 H   0  0  0  0  0  0
  -31.3291  -22.1840   19.0965 H   0  0  0  0  0  0
  -30.6659  -20.8362   18.1970 H   0  0  0  0  0  0
  -30.0503  -24.1737   20.2682 H   0  0  0  0  0  0
  -33.1734  -18.4199   21.6487 H   0  0  0  0  0  0
  -33.0692  -17.1540   20.4270 H   0  0  0  0  0  0
  -32.5884  -16.8312   22.0972 H   0  0  0  0  0  0
  -30.0661  -13.4097   23.3695 H   0  0  0  0  0  0
  -30.8065  -14.5148   24.5169 H   0  0  0  0  0  0
  -31.6900  -14.0654   23.0760 H   0  0  0  0  0  0
  -28.2140  -25.0313   21.6798 H   0  0  0  0  0  0
  -27.0659  -24.7248   20.4375 H   0  0  0  0  0  0
  1 25  1  0  0  0
  1 30  2  0  0  0
  1 87  1  0  0  0
  2  3  1  0  0  0
  2 25  1  0  0  0
  2 92  1  0  0  0
  2 93  1  0  0  0
  3  4  1  0  0  0
  3 94  1  0  0  0
  3 95  1  0  0  0
  4  5  1  0  0  0
  4 96  1  0  0  0
  4 97  1  0  0  0
  5  6  1  0  0  0
  5 26  1  0  0  0
  5 98  1  0  0  0
  6 25  1  0  0  0
  6 99  1  0  0  0
  6100  1  0  0  0
  7  8  2  0  0  0
  7 26  1  0  0  0
  7 29  1  0  0  0
  8  9  1  0  0  0
  8 22  1  0  0  0
  9 10  1  0  0  0
  9 27  2  0  0  0
 10 11  2  0  0  0
 10 15  1  0  0  0
 11 12  1  0  0  0
 11101  1  0  0  0
 12 13  2  0  0  0
 12102  1  0  0  0
 13 14  1  0  0  0
 13 31  1  0  0  0
 14 15  2  0  0  0
 14103  1  0  0  0
 15104  1  0  0  0
 16 17  2  0  0  0
 16 21  1  0  0  0
 16 31  1  0  0  0
 17 18  1  0  0  0
 17105  1  0  0  0
 18 19  2  0  0  0
 18106  1  0  0  0
 19 20  1  0  0  0
 19 24  1  0  0  0
 20 21  2  0  0  0
 20107  1  0  0  0
 21 23  1  0  0  0
 22 28  1  0  0  0
 22 32  2  0  0  0
 26 27  1  0  0  0
 28108  1  0  0  0
 28109  1  0  0  0
 29110  1  0  0  0
 29111  1  0  0  0
 33 34  1  0  0  0
 33 66  1  0  0  0
 33 70  2  0  0  0
 34 36  1  0  0  0
 34 59  1  0  0  0
 34112  1  0  0  0
 35 44  2  0  0  0
 35 45  1  0  0  0
 35 68  1  0  0  0
 36 56  1  0  0  0
 36113  1  0  0  0
 37 39  1  0  0  0
 37 47  1  0  0  0
 37 66  1  0  0  0
 37114  1  0  0  0
 38 43  2  0  0  0
 38 46  1  0  0  0
 38 47  1  0  0  0
 39 64  1  0  0  0
 39 67  2  0  0  0
 40 52  1  0  0  0
 40 53  2  0  0  0
 40 58  1  0  0  0
 41115  1  0  0  0
 41116  1  0  0  0
 41117  1  0  0  0
 41 48  1  0  0  0
 42 43  1  0  0  0
 42 66  1  0  0  0
 42118  1  0  0  0
 42119  1  0  0  0
 43 44  1  0  0  0
 44120  1  0  0  0
 45 46  2  0  0  0
 45121  1  0  0  0
 46122  1  0  0  0
 47123  1  0  0  0
 47124  1  0  0  0
 48 56  1  0  0  0
 48 65  1  0  0  0
 48125  1  0  0  0
 49 50  1  0  0  0
 49 53  1  0  0  0
 49 64  1  0  0  0
 49126  1  0  0  0
 50 51  1  0  0  0
 50127  1  0  0  0
 50128  1  0  0  0
 51 52  1  0  0  0
 51129  1  0  0  0
 51130  1  0  0  0
 52131  1  0  0  0
 52132  1  0  0  0
 53 54  1  0  0  0
 54 55  2  0  0  0
 54133  1  0  0  0
 55 57  1  0  0  0
 55134  1  0  0  0
 56 69  2  0  0  0
 57 58  2  0  0  0
 57135  1  0  0  0
 58136  1  0  0  0
 59 60  1  0  0  0
 59 61  1  0  0  0
 59 62  1  0  0  0
 60137  1  0  0  0
 60138  1  0  0  0
 60139  1  0  0  0
 61140  1  0  0  0
 61141  1  0  0  0
 61142  1  0  0  0
 62143  1  0  0  0
 62144  1  0  0  0
 62145  1  0  0  0
 63 65  1  0  0  0
 63146  1  0  0  0
 63147  1  0  0  0
 63148  1  0  0  0
 64149  1  0  0  0
 65150  1  0  0  0
 68 85  1  0  0  0
 71 73  2  0  0  0
 71 74  1  0  0  0
 71151  1  0  0  0
 72 74  2  0  0  0
 72 76  1  0  0  0
 72152  1  0  0  0
 73 75  1  0  0  0
 73 83  1  0  0  0
 74 86  1  0  0  0
 75 76  2  0  0  0
 75 87  1  0  0  0
 76 91  1  0  0  0
 77 80  1  0  0  0
 77 81  1  0  0  0
 77 88  2  0  0  0
 78 82  1  0  0  0
 78 86  1  0  0  0
 78 89  2  0  0  0
 79 84  1  0  0  0
 79 87  1  0  0  0
 79 90  2  0  0  0
 80 82  1  0  0  0
 80153  1  0  0  0
 80154  1  0  0  0
 81 86  1  0  0  0
 81155  1  0  0  0
 81156  1  0  0  0
 82 85  1  0  0  0
 82157  1  0  0  0
 83158  1  0  0  0
 83159  1  0  0  0
 83160  1  0  0  0
 84161  1  0  0  0
 84162  1  0  0  0
 84163  1  0  0  0
 85164  1  0  0  0
 85165  1  0  0  0
M  ISO  4   1 100  68 101  85 101  87 100
M  END
> <chiral flag>
0

> <version>
0

> <s_m_source_file>
/data/baiqing/PycharmProjects/Reinvent-master-3.2/result/LINK_invent/BTK/process_docking_weight1_custom_product_contain_oxygen_bond_distance_aromatic_linkinvent_7_9_3/rearranged_h_0099.sdf

> <i_m_source_file_index>
24

> <r_mmod_Potential_Energy-OPLS-2005>
171.924087524414

> <r_mmod_Stretch_Energy-OPLS-2005>
104.64306640625

> <r_mmod_Bend_Energy-OPLS-2005>
148.091705322266

> <r_mmod_Torsional_Energy-OPLS-2005>
384.397430419922

> <r_mmod_Improper_Torsional_Energy-OPLS-2005>
4.07866477966309

> <r_mmod_Van_der_Waal_Energy-OPLS-2005>
168.143600463867

> <r_mmod_Electrostatic_Energy-OPLS-2005>
-474.0361328125

> <r_mmod_Solvation_Energy-OPLS-2005>
-216.15869140625

> <b_mmod_Minimization_Converged-OPLS-2005>
0

> <r_mmod_RMS_Derivative-OPLS-2005>
1.50255489349365

$$$$
24
                    3D
 Structure written by MMmdl.
156164  0  0  1  0            999 V2000
  -30.6224  -14.6197   20.5089 C   0  0  0  0  0  0
  -30.4419  -12.3813   19.4447 C   0  0  0  0  0  0
  -29.5070  -12.5072   18.2203 C   0  0  0  0  0  0
  -28.0290  -12.3482   18.6319 C   0  0  0  0  0  0
  -27.6566  -13.2113   19.8662 C   0  0  2  0  0  0
  -28.7024  -13.0461   20.9927 C   0  0  0  0  0  0
  -25.2577  -13.8160   20.5676 C   0  0  0  0  0  0
  -24.1839  -13.0435   20.9196 C   0  0  0  0  0  0
  -24.6398  -11.6902   20.8745 C   0  0  0  0  0  0
  -23.9063  -10.4290   21.0411 C   0  0  0  0  0  0
  -24.3616   -9.4205   21.9188 C   0  0  0  0  0  0
  -23.6291   -8.2240   22.0756 C   0  0  0  0  0  0
  -22.4272   -8.0281   21.3546 C   0  0  0  0  0  0
  -21.9909   -9.0255   20.4649 C   0  0  0  0  0  0
  -22.7237  -10.2134   20.3059 C   0  0  0  0  0  0
  -21.6852   -6.0735   22.5278 C   0  0  0  0  0  0
  -21.4013   -6.5640   23.8211 C   0  0  0  0  0  0
  -21.3658   -5.6793   24.9174 C   0  0  0  0  0  0
  -21.6044   -4.3056   24.7225 C   0  0  0  0  0  0
  -21.8819   -3.8147   23.4347 C   0  0  0  0  0  0
  -21.9192   -4.6963   22.3402 C   0  0  0  0  0  0
  -22.7860  -13.5234   21.1855 C   0  0  0  0  0  0
  -22.1660   -4.2150   21.0980 F   0  0  0  0  0  0
  -21.5630   -3.4538   25.7738 F   0  0  0  0  0  0
  -30.0206  -13.3913   20.4339 N   0  0  0  0  0  0
  -26.3005  -12.9330   20.3326 N   0  0  0  0  0  0
  -25.9326  -11.6490   20.5764 N   0  0  0  0  0  0
  -22.0496  -12.8229   22.0410 N   0  0  0  0  0  0
  -25.4294  -15.1876   20.4054 N   0  0  0  0  0  0
  -31.7785  -14.7982   20.1142 O   0  0  0  0  0  0
  -21.6636   -6.8879   21.4241 O   0  0  0  0  0  0
  -22.3548  -14.5540   20.6701 O   0  0  0  0  0  0
  -24.6248  -31.8609   23.2042 C   0  0  0  0  0  0
  -25.9103  -32.4780   23.8363 C   0  0  1  0  0  0
  -27.2251  -27.3325   20.1078 C   0  0  0  0  0  0
  -25.5927  -33.8582   24.2293 N   0  0  0  0  0  0
  -23.4173  -30.4858   21.5472 C   0  0  2  0  0  0
  -24.8634  -28.9460   20.1099 C   0  0  0  0  0  0
  -22.7469  -29.4627   22.4945 C   0  0  0  0  0  0
  -18.0284  -28.1379   22.8479 C   0  0  0  0  0  0
  -24.1492  -36.7294   23.2638 C   0  0  0  0  0  0
  -25.9582  -30.7949   21.3745 C   0  0  0  0  0  0
  -26.0324  -29.4247   20.7144 C   0  0  0  0  0  0
  -27.2153  -28.6293   20.7053 C   0  0  0  0  0  0
  -26.0310  -26.9078   19.4764 C   0  0  0  0  0  0
  -24.8641  -27.6923   19.4826 C   0  0  0  0  0  0
  -23.6305  -29.8234   20.1614 C   0  0  0  0  0  0
  -25.4112  -36.3084   24.0335 C   0  0  1  0  0  0
  -20.5885  -28.3679   23.1287 C   0  0  2  0  0  0
  -20.6777  -26.9405   22.5410 C   0  0  0  0  0  0
  -19.5755  -26.6380   21.5209 C   0  0  0  0  0  0
  -18.1933  -26.7922   22.1620 C   0  0  0  0  0  0
  -19.1537  -28.8846   23.2876 C   0  0  0  0  0  0
  -18.9463  -30.1450   23.8888 C   0  0  0  0  0  0
  -17.6464  -30.6582   24.0561 C   0  0  0  0  0  0
  -25.9049  -34.9451   23.5113 C   0  0  0  0  0  0
  -16.5354  -29.9079   23.6332 C   0  0  0  0  0  0
  -16.7273  -28.6500   23.0344 C   0  0  0  0  0  0
  -26.4490  -31.6580   25.0724 C   0  0  0  0  0  0
  -25.3727  -31.3720   26.1455 C   0  0  0  0  0  0
  -27.0335  -30.3011   24.6163 C   0  0  0  0  0  0
  -27.6054  -32.4309   25.7491 C   0  0  0  0  0  0
  -27.5579  -37.1800   24.8466 C   0  0  0  0  0  0
  -21.4185  -29.3035   22.3686 N   0  0  0  0  0  0
  -26.4290  -37.3777   23.9411 N   0  0  0  0  0  0
  -24.6855  -31.0631   22.0990 N   0  0  0  0  0  0
  -23.4199  -28.8165   23.3016 O   0  0  0  0  0  0
  -28.3466  -26.4892   20.1610 O   0  0  0  0  0  0
  -26.5610  -34.8916   22.4675 O   0  0  0  0  0  0
  -23.5416  -32.1403   23.7381 O   0  0  0  0  0  0
  -30.9699  -17.8594   20.3438 C   0  0  0  0  0  0
  -28.6816  -17.8376   21.0785 C   0  0  0  0  0  0
  -30.9235  -19.2875   20.2650 C   0  0  0  0  0  0
  -29.8487  -17.0954   20.7585 C   0  0  0  0  0  0
  -28.6189  -19.2592   20.9990 C   0  0  0  0  0  0
  -29.7424  -20.0304   20.5779 C   0  0  0  0  0  0
  -28.8784  -22.4598   20.2128 C   0  0  0  0  0  0
  -32.1857  -20.0226   19.8449 C   0  0  0  0  0  0
  -29.2414  -23.9884   20.3798 C   0  0  0  0  0  0
  -28.1209  -25.0388   19.9769 C   0  0  0  0  0  0
  -27.4350  -19.8832   21.3857 N   0  0  0  0  0  0
  -29.7874  -21.5003   20.5750 N   0  0  0  0  0  0
  -29.8002  -15.6405   20.8980 N   0  0  0  0  0  0
  -27.7786  -22.1652   19.7389 O   0  0  0  0  0  0
  -31.4823  -12.5112   19.1407 H   0  0  0  0  0  0
  -30.3798  -11.3813   19.8771 H   0  0  0  0  0  0
  -29.7674  -11.7592   17.4702 H   0  0  0  0  0  0
  -29.6512  -13.4791   17.7456 H   0  0  0  0  0  0
  -27.8602  -11.2940   18.8546 H   0  0  0  0  0  0
  -27.3753  -12.5889   17.7927 H   0  0  0  0  0  0
  -27.6803  -14.2494   19.5347 H   0  0  0  0  0  0
  -28.7109  -12.0178   21.3574 H   0  0  0  0  0  0
  -28.4490  -13.6614   21.8572 H   0  0  0  0  0  0
  -25.2762   -9.5677   22.4761 H   0  0  0  0  0  0
  -23.9999   -7.4630   22.7472 H   0  0  0  0  0  0
  -21.0842   -8.8776   19.8953 H   0  0  0  0  0  0
  -22.3701  -10.9674   19.6167 H   0  0  0  0  0  0
  -21.2005   -7.6147   23.9717 H   0  0  0  0  0  0
  -21.1480   -6.0522   25.9078 H   0  0  0  0  0  0
  -22.0600   -2.7610   23.2846 H   0  0  0  0  0  0
  -22.4105  -11.9887   22.4797 H   0  0  0  0  0  0
  -21.1117  -13.1261   22.2616 H   0  0  0  0  0  0
  -24.6560  -15.8378   20.4971 H   0  0  0  0  0  0
  -26.2644  -15.6185   20.0300 H   0  0  0  0  0  0
  -26.7167  -32.5454   23.1106 H   0  0  0  0  0  0
  -25.0087  -33.9731   25.0447 H   0  0  0  0  0  0
  -22.7103  -31.3058   21.4062 H   0  0  0  0  0  0
  -23.3753  -35.9628   23.3300 H   0  0  0  0  0  0
  -24.3588  -36.8911   22.2053 H   0  0  0  0  0  0
  -23.7245  -37.6498   23.6657 H   0  0  0  0  0  0
  -26.0889  -31.5605   20.6085 H   0  0  0  0  0  0
  -26.8391  -30.8416   22.0031 H   0  0  0  0  0  0
  -28.1109  -28.9912   21.1908 H   0  0  0  0  0  0
  -25.9653  -25.9534   18.9762 H   0  0  0  0  0  0
  -23.9692  -27.3218   19.0017 H   0  0  0  0  0  0
  -23.7466  -30.6010   19.4059 H   0  0  0  0  0  0
  -22.7513  -29.2515   19.8597 H   0  0  0  0  0  0
  -25.1289  -36.1937   25.0828 H   0  0  0  0  0  0
  -20.9968  -28.3249   24.1412 H   0  0  0  0  0  0
  -20.5686  -26.2284   23.3605 H   0  0  0  0  0  0
  -21.6645  -26.7443   22.1197 H   0  0  0  0  0  0
  -19.6925  -25.6294   21.1233 H   0  0  0  0  0  0
  -19.6698  -27.3195   20.6743 H   0  0  0  0  0  0
  -17.4205  -26.6662   21.4022 H   0  0  0  0  0  0
  -18.0337  -26.0064   22.9018 H   0  0  0  0  0  0
  -19.7941  -30.7266   24.2249 H   0  0  0  0  0  0
  -17.5021  -31.6262   24.5160 H   0  0  0  0  0  0
  -15.5353  -30.2978   23.7666 H   0  0  0  0  0  0
  -15.8672  -28.0825   22.7054 H   0  0  0  0  0  0
  -24.5908  -30.7056   25.7795 H   0  0  0  0  0  0
  -24.8905  -32.2886   26.4866 H   0  0  0  0  0  0
  -25.8052  -30.8916   27.0241 H   0  0  0  0  0  0
  -26.2910  -29.6759   24.1190 H   0  0  0  0  0  0
  -27.4056  -29.7261   25.4653 H   0  0  0  0  0  0
  -27.8767  -30.4312   23.9374 H   0  0  0  0  0  0
  -27.2674  -33.3618   26.2055 H   0  0  0  0  0  0
  -28.3867  -32.6849   25.0315 H   0  0  0  0  0  0
  -28.0714  -31.8437   26.5413 H   0  0  0  0  0  0
  -28.2592  -38.0102   24.7511 H   0  0  0  0  0  0
  -28.1079  -36.2631   24.6288 H   0  0  0  0  0  0
  -27.2300  -37.1445   25.8870 H   0  0  0  0  0  0
  -20.9361  -29.8758   21.6898 H   0  0  0  0  0  0
  -26.0174  -38.2854   24.1409 H   0  0  0  0  0  0
  -31.8919  -17.3528   20.0963 H   0  0  0  0  0  0
  -27.8061  -17.2988   21.4124 H   0  0  0  0  0  0
  -32.9743  -19.3307   19.5477 H   0  0  0  0  0  0
  -32.5674  -20.6257   20.6692 H   0  0  0  0  0  0
  -31.9857  -20.6799   18.9979 H   0  0  0  0  0  0
  -30.1386  -24.1874   19.7942 H   0  0  0  0  0  0
  -29.5150  -24.1502   21.4224 H   0  0  0  0  0  0
  -27.2250  -24.7632   20.5368 H   0  0  0  0  0  0
  -27.8927  -24.8746   18.9229 H   0  0  0  0  0  0
  -26.5915  -19.3233   21.3336 H   0  0  0  0  0  0
  -27.3052  -20.7920   20.9377 H   0  0  0  0  0  0
  -30.6840  -21.8814   20.8393 H   0  0  0  0  0  0
  -28.9135  -15.2901   21.2263 H   0  0  0  0  0  0
  1 25  1  0  0  0
  1 30  2  0  0  0
  1 83  1  0  0  0
  2  3  1  0  0  0
  2 25  1  0  0  0
  2 85  1  0  0  0
  2 86  1  0  0  0
  3  4  1  0  0  0
  3 87  1  0  0  0
  3 88  1  0  0  0
  4  5  1  0  0  0
  4 89  1  0  0  0
  4 90  1  0  0  0
  5  6  1  0  0  0
  5 26  1  0  0  0
  5 91  1  0  0  0
  6 25  1  0  0  0
  6 92  1  0  0  0
  6 93  1  0  0  0
  7  8  2  0  0  0
  7 26  1  0  0  0
  7 29  1  0  0  0
  8  9  1  0  0  0
  8 22  1  0  0  0
  9 10  1  0  0  0
  9 27  2  0  0  0
 10 11  2  0  0  0
 10 15  1  0  0  0
 11 12  1  0  0  0
 11 94  1  0  0  0
 12 13  2  0  0  0
 12 95  1  0  0  0
 13 14  1  0  0  0
 13 31  1  0  0  0
 14 15  2  0  0  0
 14 96  1  0  0  0
 15 97  1  0  0  0
 16 17  2  0  0  0
 16 21  1  0  0  0
 16 31  1  0  0  0
 17 18  1  0  0  0
 17 98  1  0  0  0
 18 19  2  0  0  0
 18 99  1  0  0  0
 19 20  1  0  0  0
 19 24  1  0  0  0
 20 21  2  0  0  0
 20100  1  0  0  0
 21 23  1  0  0  0
 22 28  1  0  0  0
 22 32  2  0  0  0
 26 27  1  0  0  0
 28101  1  0  0  0
 28102  1  0  0  0
 29103  1  0  0  0
 29104  1  0  0  0
 33 34  1  0  0  0
 33 66  1  0  0  0
 33 70  2  0  0  0
 34 36  1  0  0  0
 34 59  1  0  0  0
 34105  1  0  0  0
 35 44  2  0  0  0
 35 45  1  0  0  0
 35 68  1  0  0  0
 36 56  1  0  0  0
 36106  1  0  0  0
 37 39  1  0  0  0
 37 47  1  0  0  0
 37 66  1  0  0  0
 37107  1  0  0  0
 38 43  2  0  0  0
 38 46  1  0  0  0
 38 47  1  0  0  0
 39 64  1  0  0  0
 39 67  2  0  0  0
 40 52  1  0  0  0
 40 53  2  0  0  0
 40 58  1  0  0  0
 41108  1  0  0  0
 41109  1  0  0  0
 41110  1  0  0  0
 41 48  1  0  0  0
 42 43  1  0  0  0
 42 66  1  0  0  0
 42111  1  0  0  0
 42112  1  0  0  0
 43 44  1  0  0  0
 44113  1  0  0  0
 45 46  2  0  0  0
 45114  1  0  0  0
 46115  1  0  0  0
 47116  1  0  0  0
 47117  1  0  0  0
 48 56  1  0  0  0
 48 65  1  0  0  0
 48118  1  0  0  0
 49 50  1  0  0  0
 49 53  1  0  0  0
 49 64  1  0  0  0
 49119  1  0  0  0
 50 51  1  0  0  0
 50120  1  0  0  0
 50121  1  0  0  0
 51 52  1  0  0  0
 51122  1  0  0  0
 51123  1  0  0  0
 52124  1  0  0  0
 52125  1  0  0  0
 53 54  1  0  0  0
 54 55  2  0  0  0
 54126  1  0  0  0
 55 57  1  0  0  0
 55127  1  0  0  0
 56 69  2  0  0  0
 57 58  2  0  0  0
 57128  1  0  0  0
 58129  1  0  0  0
 59 60  1  0  0  0
 59 61  1  0  0  0
 59 62  1  0  0  0
 60130  1  0  0  0
 60131  1  0  0  0
 60132  1  0  0  0
 61133  1  0  0  0
 61134  1  0  0  0
 61135  1  0  0  0
 62136  1  0  0  0
 62137  1  0  0  0
 62138  1  0  0  0
 63 65  1  0  0  0
 63139  1  0  0  0
 63140  1  0  0  0
 63141  1  0  0  0
 64142  1  0  0  0
 65143  1  0  0  0
 68 80  1  0  0  0
 71 73  2  0  0  0
 71 74  1  0  0  0
 71144  1  0  0  0
 72 74  2  0  0  0
 72 75  1  0  0  0
 72145  1  0  0  0
 73 76  1  0  0  0
 73 78  1  0  0  0
 74 83  1  0  0  0
 75 76  2  0  0  0
 75 81  1  0  0  0
 76 82  1  0  0  0
 77 79  1  0  0  0
 77 82  1  0  0  0
 77 84  2  0  0  0
 78146  1  0  0  0
 78147  1  0  0  0
 78148  1  0  0  0
 79 80  1  0  0  0
 79149  1  0  0  0
 79150  1  0  0  0
 80151  1  0  0  0
 80152  1  0  0  0
 81153  1  0  0  0
 81154  1  0  0  0
 82155  1  0  0  0
 83156  1  0  0  0
M  ISO  4   1 100  68 101  80 101  83 100
M  END
> <chiral flag>
0

> <version>
0

> <s_m_source_file>
/data/baiqing/PycharmProjects/Reinvent-master-3.2/result/LINK_invent/BTK/process_docking_weight1_custom_product_contain_oxygen_bond_distance_aromatic_linkinvent_7_9_3/rearranged_h_0099.sdf

> <i_m_source_file_index>
25

> <r_mmod_Potential_Energy-OPLS-2005>
-59.6309242248535

> <r_mmod_Stretch_Energy-OPLS-2005>
76.2419204711914

> <r_mmod_Bend_Energy-OPLS-2005>
139.512573242188

> <r_mmod_Torsional_Energy-OPLS-2005>
231.512649536133

> <r_mmod_Improper_Torsional_Energy-OPLS-2005>
9.4824743270874

> <r_mmod_Van_der_Waal_Energy-OPLS-2005>
156.445938110352

> <r_mmod_Electrostatic_Energy-OPLS-2005>
-485.630187988281

> <r_mmod_Solvation_Energy-OPLS-2005>
-229.997146606445

> <b_mmod_Minimization_Converged-OPLS-2005>
0

> <r_mmod_RMS_Derivative-OPLS-2005>
0.546681463718414

$$$$
25
                    3D
 Structure written by MMmdl.
156164  0  0  1  0            999 V2000
  -30.6990  -14.4672   20.5775 C   0  0  0  0  0  0
  -30.4279  -12.3047   19.4189 C   0  0  0  0  0  0
  -29.4970  -12.5072   18.2053 C   0  0  0  0  0  0
  -28.0185  -12.3666   18.6188 C   0  0  0  0  0  0
  -27.6663  -13.2028   19.8775 C   0  0  2  0  0  0
  -28.7083  -12.9731   20.9960 C   0  0  0  0  0  0
  -25.2620  -13.8148   20.5692 C   0  0  0  0  0  0
  -24.1856  -13.0434   20.9168 C   0  0  0  0  0  0
  -24.6399  -11.6897   20.8725 C   0  0  0  0  0  0
  -23.9057  -10.4288   21.0393 C   0  0  0  0  0  0
  -24.3604   -9.4207   21.9176 C   0  0  0  0  0  0
  -23.6283   -8.2242   22.0752 C   0  0  0  0  0  0
  -22.4269   -8.0279   21.3541 C   0  0  0  0  0  0
  -21.9899   -9.0254   20.4650 C   0  0  0  0  0  0
  -22.7225  -10.2131   20.3054 C   0  0  0  0  0  0
  -21.6850   -6.0734   22.5277 C   0  0  0  0  0  0
  -21.4014   -6.5635   23.8213 C   0  0  0  0  0  0
  -21.3662   -5.6788   24.9174 C   0  0  0  0  0  0
  -21.6043   -4.3050   24.7222 C   0  0  0  0  0  0
  -21.8819   -3.8144   23.4342 C   0  0  0  0  0  0
  -21.9196   -4.6962   22.3401 C   0  0  0  0  0  0
  -22.7879  -13.5245   21.1830 C   0  0  0  0  0  0
  -22.1661   -4.2149   21.0977 F   0  0  0  0  0  0
  -21.5629   -3.4536   25.7732 F   0  0  0  0  0  0
  -30.0421  -13.2815   20.4495 N   0  0  0  0  0  0
  -26.3054  -12.9308   20.3379 N   0  0  0  0  0  0
  -25.9327  -11.6469   20.5766 N   0  0  0  0  0  0
  -22.0515  -12.8247   22.0389 N   0  0  0  0  0  0
  -25.4370  -15.1866   20.4125 N   0  0  0  0  0  0
  -31.8051  -14.6814   20.0715 O   0  0  0  0  0  0
  -21.6633   -6.8876   21.4240 O   0  0  0  0  0  0
  -22.3569  -14.5564   20.6697 O   0  0  0  0  0  0
  -24.6170  -31.8670   23.2106 C   0  0  0  0  0  0
  -25.9061  -32.4815   23.8398 C   0  0  1  0  0  0
  -27.2297  -27.4139   20.0954 C   0  0  0  0  0  0
  -25.5910  -33.8614   24.2322 N   0  0  0  0  0  0
  -23.4047  -30.4926   21.5514 C   0  0  2  0  0  0
  -24.8493  -28.9608   20.1121 C   0  0  0  0  0  0
  -22.7422  -29.4659   22.4984 C   0  0  0  0  0  0
  -18.0272  -28.1388   22.8485 C   0  0  0  0  0  0
  -24.1482  -36.7314   23.2635 C   0  0  0  0  0  0
  -25.9369  -30.8253   21.3683 C   0  0  0  0  0  0
  -26.0112  -29.4600   20.7124 C   0  0  0  0  0  0
  -27.2020  -28.6944   20.7017 C   0  0  0  0  0  0
  -26.0455  -26.9418   19.4776 C   0  0  0  0  0  0
  -24.8631  -27.7023   19.4911 C   0  0  0  0  0  0
  -23.6135  -29.8298   20.1641 C   0  0  0  0  0  0
  -25.4102  -36.3106   24.0335 C   0  0  1  0  0  0
  -20.5864  -28.3674   23.1313 C   0  0  2  0  0  0
  -20.6765  -26.9409   22.5415 C   0  0  0  0  0  0
  -19.5744  -26.6393   21.5213 C   0  0  0  0  0  0
  -18.1921  -26.7932   22.1624 C   0  0  0  0  0  0
  -19.1522  -28.8848   23.2894 C   0  0  0  0  0  0
  -18.9450  -30.1455   23.8905 C   0  0  0  0  0  0
  -17.6452  -30.6590   24.0569 C   0  0  0  0  0  0
  -25.9038  -34.9473   23.5126 C   0  0  0  0  0  0
  -16.5342  -29.9092   23.6329 C   0  0  0  0  0  0
  -16.7262  -28.6513   23.0340 C   0  0  0  0  0  0
  -26.4477  -31.6604   25.0737 C   0  0  0  0  0  0
  -25.3746  -31.3719   26.1490 C   0  0  0  0  0  0
  -27.0318  -30.3044   24.6138 C   0  0  0  0  0  0
  -27.6045  -32.4335   25.7497 C   0  0  0  0  0  0
  -27.5582  -37.1801   24.8456 C   0  0  0  0  0  0
  -21.4149  -29.3039   22.3724 N   0  0  0  0  0  0
  -26.4282  -37.3799   23.9421 N   0  0  0  0  0  0
  -24.6710  -31.0763   22.1012 N   0  0  0  0  0  0
  -23.4189  -28.8195   23.3024 O   0  0  0  0  0  0
  -28.3947  -26.6634   20.1353 O   0  0  0  0  0  0
  -26.5599  -34.8927   22.4686 O   0  0  0  0  0  0
  -23.5359  -32.1428   23.7498 O   0  0  0  0  0  0
  -30.9158  -18.9997   21.9930 C   0  0  0  0  0  0
  -30.7744  -17.5987   22.1193 C   0  0  0  0  0  0
  -29.7592  -17.5145   19.9139 C   0  0  0  0  0  0
  -30.4759  -19.6845   20.8330 C   0  0  0  0  0  0
  -30.2103  -16.8400   21.0725 C   0  0  0  0  0  0
  -29.8906  -18.9187   19.7909 C   0  0  0  0  0  0
  -30.7413  -21.1715   20.6961 C   0  0  0  0  0  0
  -29.4621  -24.4181   20.3035 C   0  0  0  0  0  0
  -29.6166  -23.2500   18.0001 C   0  0  0  0  0  0
  -28.3109  -25.2796   19.7258 C   0  0  0  0  0  0
  -30.1003  -23.2614   19.4636 C   0  0  2  0  0  0
  -30.0217  -15.4341   21.2257 N   0  0  0  0  0  0
  -29.8467  -21.9171   20.0224 N   0  0  0  0  0  0
  -31.7572  -21.6613   21.1956 O   0  0  0  0  0  0
  -29.8567  -24.6548   21.4500 O   0  0  0  0  0  0
  -29.4547  -19.5148   18.6533 F   0  0  0  0  0  0
  -31.4722  -12.4031   19.1176 H   0  0  0  0  0  0
  -30.3276  -11.2907   19.8100 H   0  0  0  0  0  0
  -29.7341  -11.7832   17.4248 H   0  0  0  0  0  0
  -29.6668  -13.4928   17.7685 H   0  0  0  0  0  0
  -27.8290  -11.3103   18.8143 H   0  0  0  0  0  0
  -27.3671  -12.6415   17.7887 H   0  0  0  0  0  0
  -27.7151  -14.2518   19.5847 H   0  0  0  0  0  0
  -28.6835  -11.9336   21.3271 H   0  0  0  0  0  0
  -28.4659  -13.5604   21.8820 H   0  0  0  0  0  0
  -25.2754   -9.5681   22.4747 H   0  0  0  0  0  0
  -23.9995   -7.4633   22.7467 H   0  0  0  0  0  0
  -21.0832   -8.8771   19.8958 H   0  0  0  0  0  0
  -22.3685  -10.9665   19.6162 H   0  0  0  0  0  0
  -21.2004   -7.6142   23.9713 H   0  0  0  0  0  0
  -21.1487   -6.0516   25.9075 H   0  0  0  0  0  0
  -22.0600   -2.7607   23.2839 H   0  0  0  0  0  0
  -22.4122  -11.9907   22.4780 H   0  0  0  0  0  0
  -21.1144  -13.1299   22.2609 H   0  0  0  0  0  0
  -24.6762  -15.8474   20.5294 H   0  0  0  0  0  0
  -26.2976  -15.6243   20.1077 H   0  0  0  0  0  0
  -26.7130  -32.5517   23.1157 H   0  0  0  0  0  0
  -25.0061  -33.9771   25.0468 H   0  0  0  0  0  0
  -22.6940  -31.3104   21.4150 H   0  0  0  0  0  0
  -23.3742  -35.9648   23.3295 H   0  0  0  0  0  0
  -24.3577  -36.8933   22.2050 H   0  0  0  0  0  0
  -23.7234  -37.6519   23.6650 H   0  0  0  0  0  0
  -26.0570  -31.5923   20.6021 H   0  0  0  0  0  0
  -26.8221  -30.8732   21.9907 H   0  0  0  0  0  0
  -28.0968  -29.0762   21.1739 H   0  0  0  0  0  0
  -26.0026  -25.9865   18.9759 H   0  0  0  0  0  0
  -23.9717  -27.3154   19.0168 H   0  0  0  0  0  0
  -23.7252  -30.6076   19.4079 H   0  0  0  0  0  0
  -22.7357  -29.2540   19.8653 H   0  0  0  0  0  0
  -25.1272  -36.1962   25.0827 H   0  0  0  0  0  0
  -20.9947  -28.3238   24.1439 H   0  0  0  0  0  0
  -20.5677  -26.2277   23.3600 H   0  0  0  0  0  0
  -21.6635  -26.7459   22.1203 H   0  0  0  0  0  0
  -19.6904  -25.6307   21.1234 H   0  0  0  0  0  0
  -19.6683  -27.3212   20.6749 H   0  0  0  0  0  0
  -17.4188  -26.6669   21.4030 H   0  0  0  0  0  0
  -18.0329  -26.0079   22.9028 H   0  0  0  0  0  0
  -19.7927  -30.7270   24.2273 H   0  0  0  0  0  0
  -17.5010  -31.6269   24.5175 H   0  0  0  0  0  0
  -15.5346  -30.2997   23.7663 H   0  0  0  0  0  0
  -15.8658  -28.0852   22.7034 H   0  0  0  0  0  0
  -24.5898  -30.7086   25.7835 H   0  0  0  0  0  0
  -24.8965  -32.2882   26.4965 H   0  0  0  0  0  0
  -25.8104  -30.8868   27.0234 H   0  0  0  0  0  0
  -26.2878  -29.6802   24.1175 H   0  0  0  0  0  0
  -27.4058  -29.7284   25.4613 H   0  0  0  0  0  0
  -27.8724  -30.4355   23.9320 H   0  0  0  0  0  0
  -27.2643  -33.3607   26.2123 H   0  0  0  0  0  0
  -28.3824  -32.6951   25.0312 H   0  0  0  0  0  0
  -28.0753  -31.8443   26.5376 H   0  0  0  0  0  0
  -28.2575  -38.0123   24.7550 H   0  0  0  0  0  0
  -28.1101  -36.2660   24.6213 H   0  0  0  0  0  0
  -27.2313  -37.1373   25.8861 H   0  0  0  0  0  0
  -20.9314  -29.8765   21.6950 H   0  0  0  0  0  0
  -26.0165  -38.2869   24.1455 H   0  0  0  0  0  0
  -31.3750  -19.5546   22.7990 H   0  0  0  0  0  0
  -31.1114  -17.1113   23.0241 H   0  0  0  0  0  0
  -29.3075  -16.9609   19.1036 H   0  0  0  0  0  0
  -29.8227  -24.1974   17.5002 H   0  0  0  0  0  0
  -28.5488  -23.0431   17.9189 H   0  0  0  0  0  0
  -30.1399  -22.4806   17.4311 H   0  0  0  0  0  0
  -27.3924  -24.8293   20.1024 H   0  0  0  0  0  0
  -28.2726  -25.2431   18.6398 H   0  0  0  0  0  0
  -31.1765  -23.4426   19.4381 H   0  0  0  0  0  0
  -29.1647  -15.1397   21.6686 H   0  0  0  0  0  0
  -29.0290  -21.4283   19.6863 H   0  0  0  0  0  0
  1 25  1  0  0  0
  1 30  2  0  0  0
  1 82  1  0  0  0
  2  3  1  0  0  0
  2 25  1  0  0  0
  2 87  1  0  0  0
  2 88  1  0  0  0
  3  4  1  0  0  0
  3 89  1  0  0  0
  3 90  1  0  0  0
  4  5  1  0  0  0
  4 91  1  0  0  0
  4 92  1  0  0  0
  5  6  1  0  0  0
  5 26  1  0  0  0
  5 93  1  0  0  0
  6 25  1  0  0  0
  6 94  1  0  0  0
  6 95  1  0  0  0
  7  8  2  0  0  0
  7 26  1  0  0  0
  7 29  1  0  0  0
  8  9  1  0  0  0
  8 22  1  0  0  0
  9 10  1  0  0  0
  9 27  2  0  0  0
 10 11  2  0  0  0
 10 15  1  0  0  0
 11 12  1  0  0  0
 11 96  1  0  0  0
 12 13  2  0  0  0
 12 97  1  0  0  0
 13 14  1  0  0  0
 13 31  1  0  0  0
 14 15  2  0  0  0
 14 98  1  0  0  0
 15 99  1  0  0  0
 16 17  2  0  0  0
 16 21  1  0  0  0
 16 31  1  0  0  0
 17 18  1  0  0  0
 17100  1  0  0  0
 18 19  2  0  0  0
 18101  1  0  0  0
 19 20  1  0  0  0
 19 24  1  0  0  0
 20 21  2  0  0  0
 20102  1  0  0  0
 21 23  1  0  0  0
 22 28  1  0  0  0
 22 32  2  0  0  0
 26 27  1  0  0  0
 28103  1  0  0  0
 28104  1  0  0  0
 29105  1  0  0  0
 29106  1  0  0  0
 33 34  1  0  0  0
 33 66  1  0  0  0
 33 70  2  0  0  0
 34 36  1  0  0  0
 34 59  1  0  0  0
 34107  1  0  0  0
 35 44  2  0  0  0
 35 45  1  0  0  0
 35 68  1  0  0  0
 36 56  1  0  0  0
 36108  1  0  0  0
 37 39  1  0  0  0
 37 47  1  0  0  0
 37 66  1  0  0  0
 37109  1  0  0  0
 38 43  2  0  0  0
 38 46  1  0  0  0
 38 47  1  0  0  0
 39 64  1  0  0  0
 39 67  2  0  0  0
 40 52  1  0  0  0
 40 53  2  0  0  0
 40 58  1  0  0  0
 41110  1  0  0  0
 41111  1  0  0  0
 41112  1  0  0  0
 41 48  1  0  0  0
 42 43  1  0  0  0
 42 66  1  0  0  0
 42113  1  0  0  0
 42114  1  0  0  0
 43 44  1  0  0  0
 44115  1  0  0  0
 45 46  2  0  0  0
 45116  1  0  0  0
 46117  1  0  0  0
 47118  1  0  0  0
 47119  1  0  0  0
 48 56  1  0  0  0
 48 65  1  0  0  0
 48120  1  0  0  0
 49 50  1  0  0  0
 49 53  1  0  0  0
 49 64  1  0  0  0
 49121  1  0  0  0
 50 51  1  0  0  0
 50122  1  0  0  0
 50123  1  0  0  0
 51 52  1  0  0  0
 51124  1  0  0  0
 51125  1  0  0  0
 52126  1  0  0  0
 52127  1  0  0  0
 53 54  1  0  0  0
 54 55  2  0  0  0
 54128  1  0  0  0
 55 57  1  0  0  0
 55129  1  0  0  0
 56 69  2  0  0  0
 57 58  2  0  0  0
 57130  1  0  0  0
 58131  1  0  0  0
 59 60  1  0  0  0
 59 61  1  0  0  0
 59 62  1  0  0  0
 60132  1  0  0  0
 60133  1  0  0  0
 60134  1  0  0  0
 61135  1  0  0  0
 61136  1  0  0  0
 61137  1  0  0  0
 62138  1  0  0  0
 62139  1  0  0  0
 62140  1  0  0  0
 63 65  1  0  0  0
 63141  1  0  0  0
 63142  1  0  0  0
 63143  1  0  0  0
 64144  1  0  0  0
 65145  1  0  0  0
 68 80  1  0  0  0
 71 72  2  0  0  0
 71 74  1  0  0  0
 71146  1  0  0  0
 72 75  1  0  0  0
 72147  1  0  0  0
 73 75  2  0  0  0
 73 76  1  0  0  0
 73148  1  0  0  0
 74 76  2  0  0  0
 74 77  1  0  0  0
 75 82  1  0  0  0
 76 86  1  0  0  0
 77 83  1  0  0  0
 77 84  2  0  0  0
 78 80  1  0  0  0
 78 81  1  0  0  0
 78 85  2  0  0  0
 79149  1  0  0  0
 79150  1  0  0  0
 79151  1  0  0  0
 79 81  1  0  0  0
 80152  1  0  0  0
 80153  1  0  0  0
 81 83  1  0  0  0
 81154  1  0  0  0
 82155  1  0  0  0
 83156  1  0  0  0
M  ISO  4   1 100  68 101  80 101  82 100
M  END
> <chiral flag>
0

> <version>
0

> <s_m_source_file>
/data/baiqing/PycharmProjects/Reinvent-master-3.2/result/LINK_invent/BTK/process_docking_weight1_custom_product_contain_oxygen_bond_distance_aromatic_linkinvent_7_9_3/rearranged_h_0099.sdf

> <i_m_source_file_index>
26

> <r_mmod_Potential_Energy-OPLS-2005>
-33.1646614074707

> <r_mmod_Stretch_Energy-OPLS-2005>
42.3470306396484

> <r_mmod_Bend_Energy-OPLS-2005>
98.0784759521484

> <r_mmod_Torsional_Energy-OPLS-2005>
263.911315917969

> <r_mmod_Improper_Torsional_Energy-OPLS-2005>
4.11942434310913

> <r_mmod_Van_der_Waal_Energy-OPLS-2005>
158.210372924805

> <r_mmod_Electrostatic_Energy-OPLS-2005>
-355.702575683594

> <r_mmod_Solvation_Energy-OPLS-2005>
-258.088653564453

> <b_mmod_Minimization_Converged-OPLS-2005>
0

> <r_mmod_RMS_Derivative-OPLS-2005>
1.07439768314362

$$$$
26
                    3D
 Structure written by MMmdl.
159167  0  0  1  0            999 V2000
  -30.6254  -14.6462   20.5073 C   0  0  0  0  0  0
  -30.4394  -12.3971   19.4521 C   0  0  0  0  0  0
  -29.5084  -12.5095   18.2238 C   0  0  0  0  0  0
  -28.0320  -12.3465   18.6367 C   0  0  0  0  0  0
  -27.6551  -13.2152   19.8654 C   0  0  2  0  0  0
  -28.6996  -13.0681   20.9952 C   0  0  0  0  0  0
  -25.2572  -13.8165   20.5665 C   0  0  0  0  0  0
  -24.1834  -13.0431   20.9192 C   0  0  0  0  0  0
  -24.6406  -11.6906   20.8751 C   0  0  0  0  0  0
  -23.9071  -10.4297   21.0414 C   0  0  0  0  0  0
  -24.3623   -9.4211   21.9190 C   0  0  0  0  0  0
  -23.6299   -8.2244   22.0758 C   0  0  0  0  0  0
  -22.4282   -8.0284   21.3546 C   0  0  0  0  0  0
  -21.9918   -9.0261   20.4649 C   0  0  0  0  0  0
  -22.7246  -10.2139   20.3060 C   0  0  0  0  0  0
  -21.6850   -6.0743   22.5285 C   0  0  0  0  0  0
  -21.4013   -6.5646   23.8220 C   0  0  0  0  0  0
  -21.3658   -5.6797   24.9183 C   0  0  0  0  0  0
  -21.6043   -4.3060   24.7233 C   0  0  0  0  0  0
  -21.8817   -3.8152   23.4354 C   0  0  0  0  0  0
  -21.9195   -4.6971   22.3410 C   0  0  0  0  0  0
  -22.7857  -13.5235   21.1849 C   0  0  0  0  0  0
  -22.1659   -4.2155   21.0987 F   0  0  0  0  0  0
  -21.5633   -3.4543   25.7746 F   0  0  0  0  0  0
  -30.0159  -13.4178   20.4353 N   0  0  0  0  0  0
  -26.3003  -12.9341   20.3323 N   0  0  0  0  0  0
  -25.9335  -11.6503   20.5764 N   0  0  0  0  0  0
  -22.0493  -12.8224   22.0405 N   0  0  0  0  0  0
  -25.4280  -15.1872   20.4029 N   0  0  0  0  0  0
  -31.7788  -14.7860   20.0978 O   0  0  0  0  0  0
  -21.6637   -6.8883   21.4243 O   0  0  0  0  0  0
  -22.3548  -14.5546   20.6706 O   0  0  0  0  0  0
  -24.6256  -31.8585   23.2022 C   0  0  0  0  0  0
  -25.9092  -32.4772   23.8353 C   0  0  1  0  0  0
  -27.2285  -27.3138   20.1195 C   0  0  0  0  0  0
  -25.5910  -33.8576   24.2268 N   0  0  0  0  0  0
  -23.4204  -30.4805   21.5445 C   0  0  2  0  0  0
  -24.8686  -28.9361   20.1078 C   0  0  0  0  0  0
  -22.7478  -29.4609   22.4942 C   0  0  0  0  0  0
  -18.0280  -28.1375   22.8474 C   0  0  0  0  0  0
  -24.1490  -36.7301   23.2639 C   0  0  0  0  0  0
  -25.9608  -30.7861   21.3753 C   0  0  0  0  0  0
  -26.0351  -29.4133   20.7173 C   0  0  0  0  0  0
  -27.2152  -28.6128   20.7155 C   0  0  0  0  0  0
  -26.0413  -26.8960   19.4723 C   0  0  0  0  0  0
  -24.8741  -27.6830   19.4756 C   0  0  0  0  0  0
  -23.6355  -29.8146   20.1591 C   0  0  0  0  0  0
  -25.4110  -36.3078   24.0328 C   0  0  1  0  0  0
  -20.5883  -28.3673   23.1277 C   0  0  2  0  0  0
  -20.6769  -26.9397   22.5410 C   0  0  0  0  0  0
  -19.5748  -26.6370   21.5208 C   0  0  0  0  0  0
  -18.1925  -26.7914   22.1620 C   0  0  0  0  0  0
  -19.1538  -28.8841   23.2865 C   0  0  0  0  0  0
  -18.9469  -30.1446   23.8873 C   0  0  0  0  0  0
  -17.6470  -30.6577   24.0557 C   0  0  0  0  0  0
  -25.9047  -34.9450   23.5097 C   0  0  0  0  0  0
  -16.5357  -29.9076   23.6337 C   0  0  0  0  0  0
  -16.7273  -28.6501   23.0335 C   0  0  0  0  0  0
  -26.4476  -31.6595   25.0735 C   0  0  0  0  0  0
  -25.3726  -31.3745   26.1486 C   0  0  0  0  0  0
  -27.0316  -30.3013   24.6202 C   0  0  0  0  0  0
  -27.6015  -32.4348   25.7516 C   0  0  0  0  0  0
  -27.5574  -37.1803   24.8455 C   0  0  0  0  0  0
  -21.4195  -29.3028   22.3682 N   0  0  0  0  0  0
  -26.4281  -37.3774   23.9406 N   0  0  0  0  0  0
  -24.6875  -31.0581   22.0977 N   0  0  0  0  0  0
  -23.4200  -28.8144   23.3022 O   0  0  0  0  0  0
  -28.3498  -26.4691   20.1974 O   0  0  0  0  0  0
  -26.5629  -34.8917   22.4673 O   0  0  0  0  0  0
  -23.5423  -32.1386   23.7349 O   0  0  0  0  0  0
  -30.4529  -19.5335   20.4605 C   0  0  0  0  0  0
  -28.4971  -17.7006   21.1902 C   0  0  0  0  0  0
  -30.7572  -18.1217   20.4527 C   0  0  0  0  0  0
  -29.7576  -17.1538   20.8295 C   0  0  0  0  0  0
  -28.2196  -19.0945   21.2083 C   0  0  0  0  0  0
  -29.1904  -20.0595   20.8510 C   0  0  0  0  0  0
  -33.2110  -18.7723   19.8192 C   0  0  0  0  0  0
  -32.1643  -17.6722   20.0643 C   0  0  0  0  0  0
  -29.1995  -23.9948   20.6234 C   0  0  0  0  0  0
  -28.2035  -25.0171   19.9212 C   0  0  0  0  0  0
  -29.3035  -22.4822   20.1020 C   0  0  0  0  0  0
  -26.9540  -19.5390   21.5896 N   0  0  0  0  0  0
  -29.8281  -15.6798   20.9406 N   0  0  0  0  0  0
  -28.8602  -21.4272   21.0109 O   0  0  0  0  0  0
  -31.4789  -12.5246   19.1451 H   0  0  0  0  0  0
  -30.3800  -11.4000   19.8910 H   0  0  0  0  0  0
  -29.7708  -11.7571   17.4786 H   0  0  0  0  0  0
  -29.6502  -13.4784   17.7425 H   0  0  0  0  0  0
  -27.8686  -11.2936   18.8674 H   0  0  0  0  0  0
  -27.3769  -12.5754   17.7955 H   0  0  0  0  0  0
  -27.6752  -14.2509   19.5270 H   0  0  0  0  0  0
  -28.7131  -12.0447   21.3730 H   0  0  0  0  0  0
  -28.4408  -13.6910   21.8522 H   0  0  0  0  0  0
  -25.2774   -9.5681   22.4763 H   0  0  0  0  0  0
  -24.0013   -7.4634   22.7473 H   0  0  0  0  0  0
  -21.0854   -8.8787   19.8948 H   0  0  0  0  0  0
  -22.3719  -10.9683   19.6174 H   0  0  0  0  0  0
  -21.1994   -7.6152   23.9722 H   0  0  0  0  0  0
  -21.1477   -6.0529   25.9085 H   0  0  0  0  0  0
  -22.0593   -2.7615   23.2856 H   0  0  0  0  0  0
  -22.4112  -11.9902   22.4820 H   0  0  0  0  0  0
  -21.1105  -13.1241   22.2576 H   0  0  0  0  0  0
  -24.6540  -15.8361   20.4945 H   0  0  0  0  0  0
  -26.2595  -15.6186   20.0199 H   0  0  0  0  0  0
  -26.7161  -32.5436   23.1106 H   0  0  0  0  0  0
  -25.0009  -33.9700   25.0379 H   0  0  0  0  0  0
  -22.7147  -31.3012   21.4020 H   0  0  0  0  0  0
  -23.3742  -35.9642   23.3299 H   0  0  0  0  0  0
  -24.3574  -36.8931   22.2052 H   0  0  0  0  0  0
  -23.7262  -37.6508   23.6674 H   0  0  0  0  0  0
  -26.0926  -31.5485   20.6066 H   0  0  0  0  0  0
  -26.8403  -30.8348   22.0058 H   0  0  0  0  0  0
  -28.1084  -28.9738   21.2056 H   0  0  0  0  0  0
  -25.9851  -25.9454   18.9628 H   0  0  0  0  0  0
  -23.9816  -27.3146   18.9891 H   0  0  0  0  0  0
  -23.7525  -30.5925   19.4033 H   0  0  0  0  0  0
  -22.7565  -29.2413   19.8583 H   0  0  0  0  0  0
  -25.1294  -36.1926   25.0822 H   0  0  0  0  0  0
  -20.9959  -28.3244   24.1404 H   0  0  0  0  0  0
  -20.5662  -26.2282   23.3612 H   0  0  0  0  0  0
  -21.6636  -26.7416   22.1212 H   0  0  0  0  0  0
  -19.6910  -25.6284   21.1228 H   0  0  0  0  0  0
  -19.6684  -27.3189   20.6746 H   0  0  0  0  0  0
  -17.4197  -26.6651   21.4022 H   0  0  0  0  0  0
  -18.0327  -26.0061   22.9024 H   0  0  0  0  0  0
  -19.7953  -30.7261   24.2225 H   0  0  0  0  0  0
  -17.5035  -31.6258   24.5160 H   0  0  0  0  0  0
  -15.5358  -30.2964   23.7684 H   0  0  0  0  0  0
  -15.8674  -28.0823   22.7037 H   0  0  0  0  0  0
  -24.5881  -30.7103   25.7854 H   0  0  0  0  0  0
  -24.8941  -32.2918   26.4922 H   0  0  0  0  0  0
  -25.8069  -30.8937   27.0260 H   0  0  0  0  0  0
  -26.2895  -29.6779   24.1206 H   0  0  0  0  0  0
  -27.3978  -29.7252   25.4708 H   0  0  0  0  0  0
  -27.8780  -30.4280   23.9449 H   0  0  0  0  0  0
  -27.2586  -33.3635   26.2085 H   0  0  0  0  0  0
  -28.3834  -32.6934   25.0369 H   0  0  0  0  0  0
  -28.0679  -31.8500   26.5454 H   0  0  0  0  0  0
  -28.2584  -38.0108   24.7505 H   0  0  0  0  0  0
  -28.1081  -36.2638   24.6279 H   0  0  0  0  0  0
  -27.2290  -37.1446   25.8858 H   0  0  0  0  0  0
  -20.9382  -29.8770   21.6905 H   0  0  0  0  0  0
  -26.0165  -38.2847   24.1421 H   0  0  0  0  0  0
  -31.2169  -20.2507   20.2090 H   0  0  0  0  0  0
  -27.7051  -17.0233   21.4779 H   0  0  0  0  0  0
  -32.9292  -19.4264   18.9933 H   0  0  0  0  0  0
  -34.1726  -18.3283   19.5618 H   0  0  0  0  0  0
  -33.3641  -19.3795   20.7123 H   0  0  0  0  0  0
  -32.0847  -17.0705   19.1590 H   0  0  0  0  0  0
  -32.5436  -17.0323   20.8611 H   0  0  0  0  0  0
  -28.9960  -23.9867   21.6937 H   0  0  0  0  0  0
  -30.1982  -24.4225   20.5365 H   0  0  0  0  0  0
  -27.2073  -24.6804   20.2060 H   0  0  0  0  0  0
  -28.2811  -24.8865   18.8411 H   0  0  0  0  0  0
  -28.7289  -22.3833   19.1813 H   0  0  0  0  0  0
  -30.3398  -22.2924   19.8231 H   0  0  0  0  0  0
  -26.3709  -18.9390   22.1627 H   0  0  0  0  0  0
  -26.8812  -20.5230   21.8300 H   0  0  0  0  0  0
  -28.9741  -15.2930   21.3089 H   0  0  0  0  0  0
  1 25  1  0  0  0
  1 30  2  0  0  0
  1 83  1  0  0  0
  2  3  1  0  0  0
  2 25  1  0  0  0
  2 85  1  0  0  0
  2 86  1  0  0  0
  3  4  1  0  0  0
  3 87  1  0  0  0
  3 88  1  0  0  0
  4  5  1  0  0  0
  4 89  1  0  0  0
  4 90  1  0  0  0
  5  6  1  0  0  0
  5 26  1  0  0  0
  5 91  1  0  0  0
  6 25  1  0  0  0
  6 92  1  0  0  0
  6 93  1  0  0  0
  7  8  2  0  0  0
  7 26  1  0  0  0
  7 29  1  0  0  0
  8  9  1  0  0  0
  8 22  1  0  0  0
  9 10  1  0  0  0
  9 27  2  0  0  0
 10 11  2  0  0  0
 10 15  1  0  0  0
 11 12  1  0  0  0
 11 94  1  0  0  0
 12 13  2  0  0  0
 12 95  1  0  0  0
 13 14  1  0  0  0
 13 31  1  0  0  0
 14 15  2  0  0  0
 14 96  1  0  0  0
 15 97  1  0  0  0
 16 17  2  0  0  0
 16 21  1  0  0  0
 16 31  1  0  0  0
 17 18  1  0  0  0
 17 98  1  0  0  0
 18 19  2  0  0  0
 18 99  1  0  0  0
 19 20  1  0  0  0
 19 24  1  0  0  0
 20 21  2  0  0  0
 20100  1  0  0  0
 21 23  1  0  0  0
 22 28  1  0  0  0
 22 32  2  0  0  0
 26 27  1  0  0  0
 28101  1  0  0  0
 28102  1  0  0  0
 29103  1  0  0  0
 29104  1  0  0  0
 33 34  1  0  0  0
 33 66  1  0  0  0
 33 70  2  0  0  0
 34 36  1  0  0  0
 34 59  1  0  0  0
 34105  1  0  0  0
 35 44  2  0  0  0
 35 45  1  0  0  0
 35 68  1  0  0  0
 36 56  1  0  0  0
 36106  1  0  0  0
 37 39  1  0  0  0
 37 47  1  0  0  0
 37 66  1  0  0  0
 37107  1  0  0  0
 38 43  2  0  0  0
 38 46  1  0  0  0
 38 47  1  0  0  0
 39 64  1  0  0  0
 39 67  2  0  0  0
 40 52  1  0  0  0
 40 53  2  0  0  0
 40 58  1  0  0  0
 41108  1  0  0  0
 41109  1  0  0  0
 41110  1  0  0  0
 41 48  1  0  0  0
 42 43  1  0  0  0
 42 66  1  0  0  0
 42111  1  0  0  0
 42112  1  0  0  0
 43 44  1  0  0  0
 44113  1  0  0  0
 45 46  2  0  0  0
 45114  1  0  0  0
 46115  1  0  0  0
 47116  1  0  0  0
 47117  1  0  0  0
 48 56  1  0  0  0
 48 65  1  0  0  0
 48118  1  0  0  0
 49 50  1  0  0  0
 49 53  1  0  0  0
 49 64  1  0  0  0
 49119  1  0  0  0
 50 51  1  0  0  0
 50120  1  0  0  0
 50121  1  0  0  0
 51 52  1  0  0  0
 51122  1  0  0  0
 51123  1  0  0  0
 52124  1  0  0  0
 52125  1  0  0  0
 53 54  1  0  0  0
 54 55  2  0  0  0
 54126  1  0  0  0
 55 57  1  0  0  0
 55127  1  0  0  0
 56 69  2  0  0  0
 57 58  2  0  0  0
 57128  1  0  0  0
 58129  1  0  0  0
 59 60  1  0  0  0
 59 61  1  0  0  0
 59 62  1  0  0  0
 60130  1  0  0  0
 60131  1  0  0  0
 60132  1  0  0  0
 61133  1  0  0  0
 61134  1  0  0  0
 61135  1  0  0  0
 62136  1  0  0  0
 62137  1  0  0  0
 62138  1  0  0  0
 63 65  1  0  0  0
 63139  1  0  0  0
 63140  1  0  0  0
 63141  1  0  0  0
 64142  1  0  0  0
 65143  1  0  0  0
 68 80  1  0  0  0
 71 73  2  0  0  0
 71 76  1  0  0  0
 71144  1  0  0  0
 72 74  2  0  0  0
 72 75  1  0  0  0
 72145  1  0  0  0
 73 74  1  0  0  0
 73 78  1  0  0  0
 74 83  1  0  0  0
 75 76  2  0  0  0
 75 82  1  0  0  0
 76 84  1  0  0  0
 77 78  1  0  0  0
 77146  1  0  0  0
 77147  1  0  0  0
 77148  1  0  0  0
 78149  1  0  0  0
 78150  1  0  0  0
 79 80  1  0  0  0
 79 81  1  0  0  0
 79151  1  0  0  0
 79152  1  0  0  0
 80153  1  0  0  0
 80154  1  0  0  0
 81 84  1  0  0  0
 81155  1  0  0  0
 81156  1  0  0  0
 82157  1  0  0  0
 82158  1  0  0  0
 83159  1  0  0  0
M  ISO  4   1 100  68 101  80 101  83 100
M  END
> <chiral flag>
0

> <version>
0

> <s_m_source_file>
/data/baiqing/PycharmProjects/Reinvent-master-3.2/result/LINK_invent/BTK/process_docking_weight1_custom_product_contain_oxygen_bond_distance_aromatic_linkinvent_7_9_3/rearranged_h_0099.sdf

> <i_m_source_file_index>
27

> <r_mmod_Potential_Energy-OPLS-2005>
103.630729675293

> <r_mmod_Stretch_Energy-OPLS-2005>
87.809440612793

> <r_mmod_Bend_Energy-OPLS-2005>
186.610885620117

> <r_mmod_Torsional_Energy-OPLS-2005>
237.821548461914

> <r_mmod_Improper_Torsional_Energy-OPLS-2005>
7.25029993057251

> <r_mmod_Van_der_Waal_Energy-OPLS-2005>
151.415710449219

> <r_mmod_Electrostatic_Energy-OPLS-2005>
-405.919219970703

> <r_mmod_Solvation_Energy-OPLS-2005>
-211.296661376953

> <b_mmod_Minimization_Converged-OPLS-2005>
0

> <r_mmod_RMS_Derivative-OPLS-2005>
1.60472428798676

$$$$
27
                    3D
 Structure written by MMmdl.
159167  0  0  1  0            999 V2000
  -30.6771  -14.5176   20.4895 C   0  0  0  0  0  0
  -30.4203  -12.3096   19.4420 C   0  0  0  0  0  0
  -29.5021  -12.4957   18.2162 C   0  0  0  0  0  0
  -28.0221  -12.3488   18.6213 C   0  0  0  0  0  0
  -27.6556  -13.2092   19.8620 C   0  0  2  0  0  0
  -28.6972  -13.0354   20.9926 C   0  0  0  0  0  0
  -25.2575  -13.8166   20.5662 C   0  0  0  0  0  0
  -24.1830  -13.0449   20.9168 C   0  0  0  0  0  0
  -24.6382  -11.6917   20.8723 C   0  0  0  0  0  0
  -23.9059  -10.4303   21.0410 C   0  0  0  0  0  0
  -24.3620   -9.4221   21.9187 C   0  0  0  0  0  0
  -23.6305   -8.2254   22.0770 C   0  0  0  0  0  0
  -22.4291   -8.0281   21.3556 C   0  0  0  0  0  0
  -21.9916   -9.0242   20.4655 C   0  0  0  0  0  0
  -22.7233  -10.2128   20.3064 C   0  0  0  0  0  0
  -21.6856   -6.0740   22.5294 C   0  0  0  0  0  0
  -21.4009   -6.5649   23.8226 C   0  0  0  0  0  0
  -21.3665   -5.6806   24.9191 C   0  0  0  0  0  0
  -21.6050   -4.3067   24.7243 C   0  0  0  0  0  0
  -21.8816   -3.8154   23.4366 C   0  0  0  0  0  0
  -21.9191   -4.6966   22.3417 C   0  0  0  0  0  0
  -22.7851  -13.5251   21.1820 C   0  0  0  0  0  0
  -22.1658   -4.2155   21.0992 F   0  0  0  0  0  0
  -21.5626   -3.4555   25.7756 F   0  0  0  0  0  0
  -30.0273  -13.3228   20.4335 N   0  0  0  0  0  0
  -26.3001  -12.9335   20.3291 N   0  0  0  0  0  0
  -25.9302  -11.6501   20.5725 N   0  0  0  0  0  0
  -22.0473  -12.8257   22.0377 N   0  0  0  0  0  0
  -25.4302  -15.1888   20.4082 N   0  0  0  0  0  0
  -31.8612  -14.6438   20.1690 O   0  0  0  0  0  0
  -21.6647   -6.8884   21.4262 O   0  0  0  0  0  0
  -22.3550  -14.5556   20.6656 O   0  0  0  0  0  0
  -24.6203  -31.8664   23.2118 C   0  0  0  0  0  0
  -25.9089  -32.4813   23.8396 C   0  0  1  0  0  0
  -27.2135  -27.3926   20.0855 C   0  0  0  0  0  0
  -25.5944  -33.8615   24.2320 N   0  0  0  0  0  0
  -23.4055  -30.4966   21.5552 C   0  0  2  0  0  0
  -24.8436  -28.9667   20.1151 C   0  0  0  0  0  0
  -22.7415  -29.4674   22.4991 C   0  0  0  0  0  0
  -18.0272  -28.1383   22.8497 C   0  0  0  0  0  0
  -24.1497  -36.7308   23.2636 C   0  0  0  0  0  0
  -25.9424  -30.8197   21.3717 C   0  0  0  0  0  0
  -26.0129  -29.4555   20.7104 C   0  0  0  0  0  0
  -27.1991  -28.6767   20.6931 C   0  0  0  0  0  0
  -26.0133  -26.9390   19.4828 C   0  0  0  0  0  0
  -24.8408  -27.7084   19.5006 C   0  0  0  0  0  0
  -23.6107  -29.8388   20.1676 C   0  0  0  0  0  0
  -25.4122  -36.3101   24.0327 C   0  0  1  0  0  0
  -20.5864  -28.3675   23.1311 C   0  0  2  0  0  0
  -20.6765  -26.9413   22.5416 C   0  0  0  0  0  0
  -19.5740  -26.6385   21.5218 C   0  0  0  0  0  0
  -18.1914  -26.7934   22.1627 C   0  0  0  0  0  0
  -19.1522  -28.8849   23.2897 C   0  0  0  0  0  0
  -18.9448  -30.1461   23.8896 C   0  0  0  0  0  0
  -17.6446  -30.6594   24.0561 C   0  0  0  0  0  0
  -25.9050  -34.9471   23.5109 C   0  0  0  0  0  0
  -16.5339  -29.9088   23.6342 C   0  0  0  0  0  0
  -16.7262  -28.6506   23.0361 C   0  0  0  0  0  0
  -26.4500  -31.6604   25.0743 C   0  0  0  0  0  0
  -25.3753  -31.3717   26.1478 C   0  0  0  0  0  0
  -27.0348  -30.3038   24.6168 C   0  0  0  0  0  0
  -27.6059  -32.4340   25.7513 C   0  0  0  0  0  0
  -27.5581  -37.1812   24.8464 C   0  0  0  0  0  0
  -21.4140  -29.3046   22.3721 N   0  0  0  0  0  0
  -26.4301  -37.3782   23.9398 N   0  0  0  0  0  0
  -24.6749  -31.0747   22.1036 N   0  0  0  0  0  0
  -23.4172  -28.8186   23.3023 O   0  0  0  0  0  0
  -28.3702  -26.6157   20.1119 O   0  0  0  0  0  0
  -26.5596  -34.8918   22.4661 O   0  0  0  0  0  0
  -23.5394  -32.1431   23.7501 O   0  0  0  0  0  0
  -30.1562  -19.5356   19.0801 C   0  0  0  0  0  0
  -30.6234  -18.4251   18.3530 C   0  0  0  0  0  0
  -29.5322  -18.0456   20.9014 C   0  0  0  0  0  0
  -29.5929  -19.3741   20.3676 C   0  0  0  0  0  0
  -30.0258  -16.9149   20.1886 C   0  0  0  0  0  0
  -30.5434  -17.1260   18.8839 C   0  0  0  0  0  0
  -29.7101  -21.9595   20.9095 C   0  0  0  0  0  0
  -29.3562  -24.3144   20.2861 C   0  0  0  0  0  0
  -28.4969  -25.2479   18.0988 C   0  0  0  0  0  0
  -28.9694  -20.6015   21.1018 C   0  0  2  0  0  0
  -28.3002  -25.2433   19.6271 C   0  0  2  0  0  0
  -29.8991  -15.5930   20.7522 N   0  0  0  0  0  0
  -28.9962  -23.0122   20.4374 N   0  0  0  0  0  0
  -28.8910  -20.4034   22.5588 N   0  3  0  0  0  0
  -30.8954  -22.0249   21.2505 O   0  0  0  0  0  0
  -30.4481  -24.7872   20.6239 O   0  0  0  0  0  0
  -30.9150  -16.0904   18.0928 F   0  0  0  0  0  0
  -31.4695  -12.3950   19.1506 H   0  0  0  0  0  0
  -30.3065  -11.3079   19.8597 H   0  0  0  0  0  0
  -29.7523  -11.7704   17.4426 H   0  0  0  0  0  0
  -29.6684  -13.4805   17.7763 H   0  0  0  0  0  0
  -27.8426  -11.2944   18.8343 H   0  0  0  0  0  0
  -27.3769  -12.5987   17.7786 H   0  0  0  0  0  0
  -27.6837  -14.2471   19.5324 H   0  0  0  0  0  0
  -28.6725  -12.0170   21.3823 H   0  0  0  0  0  0
  -28.4648  -13.6827   21.8400 H   0  0  0  0  0  0
  -25.2756   -9.5696   22.4774 H   0  0  0  0  0  0
  -24.0010   -7.4661   22.7505 H   0  0  0  0  0  0
  -21.0846   -8.8752   19.8972 H   0  0  0  0  0  0
  -22.3686  -10.9661   19.6178 H   0  0  0  0  0  0
  -21.1995   -7.6154   23.9737 H   0  0  0  0  0  0
  -21.1491   -6.0531   25.9094 H   0  0  0  0  0  0
  -22.0585   -2.7617   23.2875 H   0  0  0  0  0  0
  -22.4064  -11.9916   22.4767 H   0  0  0  0  0  0
  -21.1085  -13.1303   22.2559 H   0  0  0  0  0  0
  -24.6574  -15.8397   20.4973 H   0  0  0  0  0  0
  -26.2782  -15.6259   20.0711 H   0  0  0  0  0  0
  -26.7158  -32.5493   23.1147 H   0  0  0  0  0  0
  -25.0129  -33.9782   25.0489 H   0  0  0  0  0  0
  -22.6970  -31.3168   21.4219 H   0  0  0  0  0  0
  -23.3753  -35.9646   23.3308 H   0  0  0  0  0  0
  -24.3579  -36.8920   22.2046 H   0  0  0  0  0  0
  -23.7264  -37.6519   23.6652 H   0  0  0  0  0  0
  -26.0696  -31.5896   20.6090 H   0  0  0  0  0  0
  -26.8261  -30.8605   21.9975 H   0  0  0  0  0  0
  -28.1000  -29.0511   21.1584 H   0  0  0  0  0  0
  -25.9277  -25.9868   18.9837 H   0  0  0  0  0  0
  -23.9398  -27.3251   19.0416 H   0  0  0  0  0  0
  -23.7211  -30.6180   19.4131 H   0  0  0  0  0  0
  -22.7305  -29.2658   19.8697 H   0  0  0  0  0  0
  -25.1303  -36.1955   25.0819 H   0  0  0  0  0  0
  -20.9958  -28.3240   24.1430 H   0  0  0  0  0  0
  -20.5700  -26.2273   23.3594 H   0  0  0  0  0  0
  -21.6632  -26.7467   22.1185 H   0  0  0  0  0  0
  -19.6896  -25.6296   21.1246 H   0  0  0  0  0  0
  -19.6681  -27.3200   20.6750 H   0  0  0  0  0  0
  -17.4187  -26.6707   21.4020 H   0  0  0  0  0  0
  -18.0296  -26.0070   22.9014 H   0  0  0  0  0  0
  -19.7919  -30.7297   24.2243 H   0  0  0  0  0  0
  -17.4998  -31.6282   24.5149 H   0  0  0  0  0  0
  -15.5339  -30.2989   23.7672 H   0  0  0  0  0  0
  -15.8657  -28.0834   22.7072 H   0  0  0  0  0  0
  -24.5924  -30.7073   25.7803 H   0  0  0  0  0  0
  -24.8963  -32.2884   26.4928 H   0  0  0  0  0  0
  -25.8106  -30.8874   27.0230 H   0  0  0  0  0  0
  -26.2919  -29.6782   24.1214 H   0  0  0  0  0  0
  -27.4078  -29.7301   25.4663 H   0  0  0  0  0  0
  -27.8767  -30.4335   23.9363 H   0  0  0  0  0  0
  -27.2659  -33.3629   26.2099 H   0  0  0  0  0  0
  -28.3864  -32.6919   25.0344 H   0  0  0  0  0  0
  -28.0727  -31.8465   26.5426 H   0  0  0  0  0  0
  -28.2602  -38.0105   24.7511 H   0  0  0  0  0  0
  -28.1080  -36.2641   24.6304 H   0  0  0  0  0  0
  -27.2292  -37.1471   25.8863 H   0  0  0  0  0  0
  -20.9288  -29.8788   21.6970 H   0  0  0  0  0  0
  -26.0189  -38.2859   24.1398 H   0  0  0  0  0  0
  -30.2084  -20.5086   18.6126 H   0  0  0  0  0  0
  -31.0223  -18.5633   17.3585 H   0  0  0  0  0  0
  -29.0907  -17.8695   21.8704 H   0  0  0  0  0  0
  -28.4394  -24.2382   17.6885 H   0  0  0  0  0  0
  -29.4680  -25.6622   17.8285 H   0  0  0  0  0  0
  -27.7395  -25.8445   17.5911 H   0  0  0  0  0  0
  -27.9507  -20.7027   20.7251 H   0  0  0  0  0  0
  -27.3453  -24.7880   19.8913 H   0  0  0  0  0  0
  -29.0188  -15.3870   21.1971 H   0  0  0  0  0  0
  -28.0547  -22.8037   20.1436 H   0  0  0  0  0  0
  -29.8180  -20.3237   22.9367 H   0  0  0  0  0  0
  -28.3567  -19.5877   22.7902 H   0  0  0  0  0  0
  -28.4529  -21.1975   22.9884 H   0  0  0  0  0  0
  1 25  1  0  0  0
  1 30  2  0  0  0
  1 82  1  0  0  0
  2  3  1  0  0  0
  2 25  1  0  0  0
  2 88  1  0  0  0
  2 89  1  0  0  0
  3  4  1  0  0  0
  3 90  1  0  0  0
  3 91  1  0  0  0
  4  5  1  0  0  0
  4 92  1  0  0  0
  4 93  1  0  0  0
  5  6  1  0  0  0
  5 26  1  0  0  0
  5 94  1  0  0  0
  6 25  1  0  0  0
  6 95  1  0  0  0
  6 96  1  0  0  0
  7  8  2  0  0  0
  7 26  1  0  0  0
  7 29  1  0  0  0
  8  9  1  0  0  0
  8 22  1  0  0  0
  9 10  1  0  0  0
  9 27  2  0  0  0
 10 11  2  0  0  0
 10 15  1  0  0  0
 11 12  1  0  0  0
 11 97  1  0  0  0
 12 13  2  0  0  0
 12 98  1  0  0  0
 13 14  1  0  0  0
 13 31  1  0  0  0
 14 15  2  0  0  0
 14 99  1  0  0  0
 15100  1  0  0  0
 16 17  2  0  0  0
 16 21  1  0  0  0
 16 31  1  0  0  0
 17 18  1  0  0  0
 17101  1  0  0  0
 18 19  2  0  0  0
 18102  1  0  0  0
 19 20  1  0  0  0
 19 24  1  0  0  0
 20 21  2  0  0  0
 20103  1  0  0  0
 21 23  1  0  0  0
 22 28  1  0  0  0
 22 32  2  0  0  0
 26 27  1  0  0  0
 28104  1  0  0  0
 28105  1  0  0  0
 29106  1  0  0  0
 29107  1  0  0  0
 33 34  1  0  0  0
 33 66  1  0  0  0
 33 70  2  0  0  0
 34 36  1  0  0  0
 34 59  1  0  0  0
 34108  1  0  0  0
 35 44  2  0  0  0
 35 45  1  0  0  0
 35 68  1  0  0  0
 36 56  1  0  0  0
 36109  1  0  0  0
 37 39  1  0  0  0
 37 47  1  0  0  0
 37 66  1  0  0  0
 37110  1  0  0  0
 38 43  2  0  0  0
 38 46  1  0  0  0
 38 47  1  0  0  0
 39 64  1  0  0  0
 39 67  2  0  0  0
 40 52  1  0  0  0
 40 53  2  0  0  0
 40 58  1  0  0  0
 41111  1  0  0  0
 41112  1  0  0  0
 41113  1  0  0  0
 41 48  1  0  0  0
 42 43  1  0  0  0
 42 66  1  0  0  0
 42114  1  0  0  0
 42115  1  0  0  0
 43 44  1  0  0  0
 44116  1  0  0  0
 45 46  2  0  0  0
 45117  1  0  0  0
 46118  1  0  0  0
 47119  1  0  0  0
 47120  1  0  0  0
 48 56  1  0  0  0
 48 65  1  0  0  0
 48121  1  0  0  0
 49 50  1  0  0  0
 49 53  1  0  0  0
 49 64  1  0  0  0
 49122  1  0  0  0
 50 51  1  0  0  0
 50123  1  0  0  0
 50124  1  0  0  0
 51 52  1  0  0  0
 51125  1  0  0  0
 51126  1  0  0  0
 52127  1  0  0  0
 52128  1  0  0  0
 53 54  1  0  0  0
 54 55  2  0  0  0
 54129  1  0  0  0
 55 57  1  0  0  0
 55130  1  0  0  0
 56 69  2  0  0  0
 57 58  2  0  0  0
 57131  1  0  0  0
 58132  1  0  0  0
 59 60  1  0  0  0
 59 61  1  0  0  0
 59 62  1  0  0  0
 60133  1  0  0  0
 60134  1  0  0  0
 60135  1  0  0  0
 61136  1  0  0  0
 61137  1  0  0  0
 61138  1  0  0  0
 62139  1  0  0  0
 62140  1  0  0  0
 62141  1  0  0  0
 63 65  1  0  0  0
 63142  1  0  0  0
 63143  1  0  0  0
 63144  1  0  0  0
 64145  1  0  0  0
 65146  1  0  0  0
 68 81  1  0  0  0
 71 72  2  0  0  0
 71 74  1  0  0  0
 71147  1  0  0  0
 72 76  1  0  0  0
 72148  1  0  0  0
 73 74  2  0  0  0
 73 75  1  0  0  0
 73149  1  0  0  0
 74 80  1  0  0  0
 75 76  2  0  0  0
 75 82  1  0  0  0
 76 87  1  0  0  0
 77 80  1  0  0  0
 77 83  1  0  0  0
 77 85  2  0  0  0
 78 81  1  0  0  0
 78 83  1  0  0  0
 78 86  2  0  0  0
 79150  1  0  0  0
 79151  1  0  0  0
 79152  1  0  0  0
 79 81  1  0  0  0
 80 84  1  0  0  0
 80153  1  0  0  0
 81154  1  0  0  0
 82155  1  0  0  0
 83156  1  0  0  0
 84157  1  0  0  0
 84158  1  0  0  0
 84159  1  0  0  0
M  CHG  1  84   1
M  ISO  4   1 100  68 101  81 101  82 100
M  END
> <chiral flag>
0

> <version>
0

> <s_m_source_file>
/data/baiqing/PycharmProjects/Reinvent-master-3.2/result/LINK_invent/BTK/process_docking_weight1_custom_product_contain_oxygen_bond_distance_aromatic_linkinvent_7_9_3/rearranged_h_0099.sdf

> <i_m_source_file_index>
28

> <r_mmod_Potential_Energy-OPLS-2005>
-573.652587890625

> <r_mmod_Stretch_Energy-OPLS-2005>
51.5398483276367

> <r_mmod_Bend_Energy-OPLS-2005>
111.925086975098

> <r_mmod_Torsional_Energy-OPLS-2005>
231.535583496094

> <r_mmod_Improper_Torsional_Energy-OPLS-2005>
5.55703449249268

> <r_mmod_Van_der_Waal_Energy-OPLS-2005>
167.706008911133

> <r_mmod_Electrostatic_Energy-OPLS-2005>
-509.686340332031

> <r_mmod_Solvation_Energy-OPLS-2005>
-656.304809570312

> <b_mmod_Minimization_Converged-OPLS-2005>
0

> <r_mmod_RMS_Derivative-OPLS-2005>
1.97302639484406

$$$$
28
                    3D
 Structure written by MMmdl.
158167  0  0  1  0            999 V2000
  -30.6789  -14.4732   20.5973 C   0  0  0  0  0  0
  -30.4327  -12.3144   19.4214 C   0  0  0  0  0  0
  -29.4987  -12.4991   18.2058 C   0  0  0  0  0  0
  -28.0176  -12.3682   18.6146 C   0  0  0  0  0  0
  -27.6650  -13.2014   19.8767 C   0  0  2  0  0  0
  -28.7033  -12.9554   20.9944 C   0  0  0  0  0  0
  -25.2585  -13.8145   20.5666 C   0  0  0  0  0  0
  -24.1844  -13.0444   20.9188 C   0  0  0  0  0  0
  -24.6394  -11.6908   20.8774 C   0  0  0  0  0  0
  -23.9065  -10.4306   21.0438 C   0  0  0  0  0  0
  -24.3623   -9.4212   21.9187 C   0  0  0  0  0  0
  -23.6313   -8.2244   22.0739 C   0  0  0  0  0  0
  -22.4288   -8.0291   21.3552 C   0  0  0  0  0  0
  -21.9922   -9.0265   20.4647 C   0  0  0  0  0  0
  -22.7246  -10.2149   20.3070 C   0  0  0  0  0  0
  -21.6841   -6.0752   22.5295 C   0  0  0  0  0  0
  -21.4013   -6.5648   23.8234 C   0  0  0  0  0  0
  -21.3663   -5.6789   24.9187 C   0  0  0  0  0  0
  -21.6032   -4.3053   24.7226 C   0  0  0  0  0  0
  -21.8823   -3.8160   23.4347 C   0  0  0  0  0  0
  -21.9190   -4.6981   22.3411 C   0  0  0  0  0  0
  -22.7866  -13.5259   21.1840 C   0  0  0  0  0  0
  -22.1655   -4.2167   21.0987 F   0  0  0  0  0  0
  -21.5623   -3.4538   25.7739 F   0  0  0  0  0  0
  -30.0365  -13.2802   20.4584 N   0  0  0  0  0  0
  -26.3021  -12.9315   20.3357 N   0  0  0  0  0  0
  -25.9308  -11.6479   20.5792 N   0  0  0  0  0  0
  -22.0500  -12.8294   22.0416 N   0  0  0  0  0  0
  -25.4287  -15.1861   20.4047 N   0  0  0  0  0  0
  -31.7785  -14.6871   20.0813 O   0  0  0  0  0  0
  -21.6631   -6.8908   21.4265 O   0  0  0  0  0  0
  -22.3572  -14.5563   20.6650 O   0  0  0  0  0  0
  -24.6168  -31.8659   23.2068 C   0  0  0  0  0  0
  -25.9051  -32.4817   23.8373 C   0  0  1  0  0  0
  -27.2316  -27.4134   20.1201 C   0  0  0  0  0  0
  -25.5905  -33.8613   24.2306 N   0  0  0  0  0  0
  -23.4062  -30.4886   21.5441 C   0  0  2  0  0  0
  -24.8551  -28.9444   20.1173 C   0  0  0  0  0  0
  -22.7414  -29.4669   22.4961 C   0  0  0  0  0  0
  -18.0276  -28.1383   22.8494 C   0  0  0  0  0  0
  -24.1486  -36.7304   23.2642 C   0  0  0  0  0  0
  -25.9357  -30.8227   21.3645 C   0  0  0  0  0  0
  -26.0132  -29.4533   20.7197 C   0  0  0  0  0  0
  -27.2070  -28.6937   20.7213 C   0  0  0  0  0  0
  -26.0641  -26.9214   19.5062 C   0  0  0  0  0  0
  -24.8751  -27.6767   19.5068 C   0  0  0  0  0  0
  -23.6190  -29.8149   20.1610 C   0  0  0  0  0  0
  -25.4111  -36.3102   24.0342 C   0  0  1  0  0  0
  -20.5872  -28.3680   23.1314 C   0  0  2  0  0  0
  -20.6772  -26.9416   22.5421 C   0  0  0  0  0  0
  -19.5754  -26.6397   21.5211 C   0  0  0  0  0  0
  -18.1931  -26.7933   22.1619 C   0  0  0  0  0  0
  -19.1526  -28.8849   23.2903 C   0  0  0  0  0  0
  -18.9459  -30.1457   23.8916 C   0  0  0  0  0  0
  -17.6468  -30.6592   24.0574 C   0  0  0  0  0  0
  -25.9036  -34.9471   23.5113 C   0  0  0  0  0  0
  -16.5359  -29.9095   23.6335 C   0  0  0  0  0  0
  -16.7270  -28.6512   23.0352 C   0  0  0  0  0  0
  -26.4481  -31.6598   25.0707 C   0  0  0  0  0  0
  -25.3766  -31.3715   26.1471 C   0  0  0  0  0  0
  -27.0307  -30.3037   24.6083 C   0  0  0  0  0  0
  -27.6046  -32.4333   25.7487 C   0  0  0  0  0  0
  -27.5575  -37.1810   24.8467 C   0  0  0  0  0  0
  -21.4144  -29.3040   22.3708 N   0  0  0  0  0  0
  -26.4289  -37.3793   23.9413 N   0  0  0  0  0  0
  -24.6704  -31.0754   22.0965 N   0  0  0  0  0  0
  -23.4174  -28.8224   23.3025 O   0  0  0  0  0  0
  -28.3742  -26.6425   20.1039 O   0  0  0  0  0  0
  -26.5602  -34.8937   22.4674 O   0  0  0  0  0  0
  -23.5353  -32.1418   23.7448 O   0  0  0  0  0  0
  -28.6594  -18.8714   20.5575 C   0  0  0  0  0  0
  -28.7251  -17.4888   20.8628 C   0  0  0  0  0  0
  -31.0821  -18.9779   20.6062 C   0  0  0  0  0  0
  -29.8436  -19.6331   20.4054 C   0  0  0  0  0  0
  -29.9695  -16.8279   21.0137 C   0  0  0  0  0  0
  -31.1508  -17.6064   20.9355 C   0  0  0  0  0  0
  -29.8411  -21.0650   19.8997 C   0  0  0  0  0  0
  -28.0483  -23.3760   22.1871 C   0  0  0  0  0  0
  -28.2960  -21.9288   21.7194 C   0  0  0  0  0  0
  -29.1512  -23.4486   20.0711 C   0  0  0  0  0  0
  -28.1491  -24.2456   20.9278 C   0  0  2  0  0  0
  -28.5165  -25.7358   21.2141 C   0  0  0  0  0  0
  -29.1029  -22.0370   20.5038 N   0  0  0  0  0  0
  -29.9758  -15.4156   21.2635 N   0  0  0  0  0  0
  -30.5678  -21.3270   18.9373 O   0  0  0  0  0  0
  -32.3622  -17.0596   21.1901 F   0  0  0  0  0  0
  -31.4735  -12.4295   19.1170 H   0  0  0  0  0  0
  -30.3531  -11.2988   19.8111 H   0  0  0  0  0  0
  -29.7368  -11.7613   17.4380 H   0  0  0  0  0  0
  -29.6672  -13.4772   17.7547 H   0  0  0  0  0  0
  -27.8210  -11.3135   18.8053 H   0  0  0  0  0  0
  -27.3709  -12.6467   17.7819 H   0  0  0  0  0  0
  -27.7219  -14.2548   19.5970 H   0  0  0  0  0  0
  -28.6794  -11.9079   21.2966 H   0  0  0  0  0  0
  -28.4497  -13.5162   21.8962 H   0  0  0  0  0  0
  -25.2782   -9.5677   22.4740 H   0  0  0  0  0  0
  -24.0017   -7.4638   22.7448 H   0  0  0  0  0  0
  -21.0842   -8.8804   19.8977 H   0  0  0  0  0  0
  -22.3719  -10.9679   19.6175 H   0  0  0  0  0  0
  -21.2011   -7.6156   23.9758 H   0  0  0  0  0  0
  -21.1466   -6.0506   25.9090 H   0  0  0  0  0  0
  -22.0597   -2.7623   23.2841 H   0  0  0  0  0  0
  -22.4096  -11.9984   22.4862 H   0  0  0  0  0  0
  -21.1110  -13.1322   22.2591 H   0  0  0  0  0  0
  -24.6548  -15.8333   20.5063 H   0  0  0  0  0  0
  -26.2607  -15.6185   20.0262 H   0  0  0  0  0  0
  -26.7118  -32.5521   23.1131 H   0  0  0  0  0  0
  -25.0097  -33.9769   25.0477 H   0  0  0  0  0  0
  -22.6965  -31.3065   21.3990 H   0  0  0  0  0  0
  -23.3742  -35.9643   23.3332 H   0  0  0  0  0  0
  -24.3580  -36.8876   22.2048 H   0  0  0  0  0  0
  -23.7251  -37.6525   23.6633 H   0  0  0  0  0  0
  -26.0539  -31.5824   20.5906 H   0  0  0  0  0  0
  -26.8225  -30.8787   21.9840 H   0  0  0  0  0  0
  -28.1036  -29.0789   21.1873 H   0  0  0  0  0  0
  -26.0749  -25.9490   19.0349 H   0  0  0  0  0  0
  -23.9859  -27.2767   19.0389 H   0  0  0  0  0  0
  -23.7337  -30.5845   19.3982 H   0  0  0  0  0  0
  -22.7436  -29.2358   19.8626 H   0  0  0  0  0  0
  -25.1288  -36.1959   25.0838 H   0  0  0  0  0  0
  -20.9985  -28.3244   24.1418 H   0  0  0  0  0  0
  -20.5664  -26.2283   23.3609 H   0  0  0  0  0  0
  -21.6644  -26.7440   22.1217 H   0  0  0  0  0  0
  -19.6911  -25.6305   21.1228 H   0  0  0  0  0  0
  -19.6689  -27.3218   20.6757 H   0  0  0  0  0  0
  -17.4199  -26.6692   21.4016 H   0  0  0  0  0  0
  -18.0320  -26.0067   22.9009 H   0  0  0  0  0  0
  -19.7943  -30.7265   24.2274 H   0  0  0  0  0  0
  -17.5028  -31.6267   24.5171 H   0  0  0  0  0  0
  -15.5360  -30.3000   23.7660 H   0  0  0  0  0  0
  -15.8670  -28.0845   22.7045 H   0  0  0  0  0  0
  -24.5934  -30.7049   25.7828 H   0  0  0  0  0  0
  -24.8979  -32.2874   26.4940 H   0  0  0  0  0  0
  -25.8159  -30.8887   27.0204 H   0  0  0  0  0  0
  -26.2828  -29.6821   24.1133 H   0  0  0  0  0  0
  -27.4057  -29.7267   25.4541 H   0  0  0  0  0  0
  -27.8687  -30.4355   23.9238 H   0  0  0  0  0  0
  -27.2626  -33.3603   26.2114 H   0  0  0  0  0  0
  -28.3850  -32.6945   25.0321 H   0  0  0  0  0  0
  -28.0721  -31.8428   26.5373 H   0  0  0  0  0  0
  -28.2611  -38.0091   24.7506 H   0  0  0  0  0  0
  -28.1056  -36.2623   24.6300 H   0  0  0  0  0  0
  -27.2302  -37.1468   25.8875 H   0  0  0  0  0  0
  -20.9300  -29.8765   21.6937 H   0  0  0  0  0  0
  -26.0174  -38.2869   24.1402 H   0  0  0  0  0  0
  -27.6942  -19.3272   20.3800 H   0  0  0  0  0  0
  -27.8024  -16.9300   20.9455 H   0  0  0  0  0  0
  -32.0033  -19.5308   20.4937 H   0  0  0  0  0  0
  -28.8242  -23.6655   22.8988 H   0  0  0  0  0  0
  -27.0889  -23.4902   22.6929 H   0  0  0  0  0  0
  -27.3498  -21.4419   21.4777 H   0  0  0  0  0  0
  -28.7929  -21.3327   22.4887 H   0  0  0  0  0  0
  -30.1643  -23.8214   20.2266 H   0  0  0  0  0  0
  -28.9229  -23.5419   19.0074 H   0  0  0  0  0  0
  -27.1767  -24.2126   20.4358 H   0  0  0  0  0  0
  -29.5525  -25.7874   21.5504 H   0  0  0  0  0  0
  -27.9267  -26.0931   22.0609 H   0  0  0  0  0  0
  -29.1325  -15.0483   21.6741 H   0  0  0  0  0  0
  1 25  1  0  0  0
  1 30  2  0  0  0
  1 84  1  0  0  0
  2  3  1  0  0  0
  2 25  1  0  0  0
  2 87  1  0  0  0
  2 88  1  0  0  0
  3  4  1  0  0  0
  3 89  1  0  0  0
  3 90  1  0  0  0
  4  5  1  0  0  0
  4 91  1  0  0  0
  4 92  1  0  0  0
  5  6  1  0  0  0
  5 26  1  0  0  0
  5 93  1  0  0  0
  6 25  1  0  0  0
  6 94  1  0  0  0
  6 95  1  0  0  0
  7  8  2  0  0  0
  7 26  1  0  0  0
  7 29  1  0  0  0
  8  9  1  0  0  0
  8 22  1  0  0  0
  9 10  1  0  0  0
  9 27  2  0  0  0
 10 11  2  0  0  0
 10 15  1  0  0  0
 11 12  1  0  0  0
 11 96  1  0  0  0
 12 13  2  0  0  0
 12 97  1  0  0  0
 13 14  1  0  0  0
 13 31  1  0  0  0
 14 15  2  0  0  0
 14 98  1  0  0  0
 15 99  1  0  0  0
 16 17  2  0  0  0
 16 21  1  0  0  0
 16 31  1  0  0  0
 17 18  1  0  0  0
 17100  1  0  0  0
 18 19  2  0  0  0
 18101  1  0  0  0
 19 20  1  0  0  0
 19 24  1  0  0  0
 20 21  2  0  0  0
 20102  1  0  0  0
 21 23  1  0  0  0
 22 28  1  0  0  0
 22 32  2  0  0  0
 26 27  1  0  0  0
 28103  1  0  0  0
 28104  1  0  0  0
 29105  1  0  0  0
 29106  1  0  0  0
 33 34  1  0  0  0
 33 66  1  0  0  0
 33 70  2  0  0  0
 34 36  1  0  0  0
 34 59  1  0  0  0
 34107  1  0  0  0
 35 44  2  0  0  0
 35 45  1  0  0  0
 35 68  1  0  0  0
 36 56  1  0  0  0
 36108  1  0  0  0
 37 39  1  0  0  0
 37 47  1  0  0  0
 37 66  1  0  0  0
 37109  1  0  0  0
 38 43  2  0  0  0
 38 46  1  0  0  0
 38 47  1  0  0  0
 39 64  1  0  0  0
 39 67  2  0  0  0
 40 52  1  0  0  0
 40 53  2  0  0  0
 40 58  1  0  0  0
 41110  1  0  0  0
 41111  1  0  0  0
 41112  1  0  0  0
 41 48  1  0  0  0
 42 43  1  0  0  0
 42 66  1  0  0  0
 42113  1  0  0  0
 42114  1  0  0  0
 43 44  1  0  0  0
 44115  1  0  0  0
 45 46  2  0  0  0
 45116  1  0  0  0
 46117  1  0  0  0
 47118  1  0  0  0
 47119  1  0  0  0
 48 56  1  0  0  0
 48 65  1  0  0  0
 48120  1  0  0  0
 49 50  1  0  0  0
 49 53  1  0  0  0
 49 64  1  0  0  0
 49121  1  0  0  0
 50 51  1  0  0  0
 50122  1  0  0  0
 50123  1  0  0  0
 51 52  1  0  0  0
 51124  1  0  0  0
 51125  1  0  0  0
 52126  1  0  0  0
 52127  1  0  0  0
 53 54  1  0  0  0
 54 55  2  0  0  0
 54128  1  0  0  0
 55 57  1  0  0  0
 55129  1  0  0  0
 56 69  2  0  0  0
 57 58  2  0  0  0
 57130  1  0  0  0
 58131  1  0  0  0
 59 60  1  0  0  0
 59 61  1  0  0  0
 59 62  1  0  0  0
 60132  1  0  0  0
 60133  1  0  0  0
 60134  1  0  0  0
 61135  1  0  0  0
 61136  1  0  0  0
 61137  1  0  0  0
 62138  1  0  0  0
 62139  1  0  0  0
 62140  1  0  0  0
 63 65  1  0  0  0
 63141  1  0  0  0
 63142  1  0  0  0
 63143  1  0  0  0
 64144  1  0  0  0
 65145  1  0  0  0
 68 82  1  0  0  0
 71 72  2  0  0  0
 71 74  1  0  0  0
 71146  1  0  0  0
 72 75  1  0  0  0
 72147  1  0  0  0
 73 74  2  0  0  0
 73 76  1  0  0  0
 73148  1  0  0  0
 74 77  1  0  0  0
 75 76  2  0  0  0
 75 84  1  0  0  0
 76 86  1  0  0  0
 77 83  1  0  0  0
 77 85  2  0  0  0
 78 79  1  0  0  0
 78 81  1  0  0  0
 78149  1  0  0  0
 78150  1  0  0  0
 79 83  1  0  0  0
 79151  1  0  0  0
 79152  1  0  0  0
 80 81  1  0  0  0
 80 83  1  0  0  0
 80153  1  0  0  0
 80154  1  0  0  0
 81 82  1  0  0  0
 81155  1  0  0  0
 82156  1  0  0  0
 82157  1  0  0  0
 84158  1  0  0  0
M  ISO  4   1 100  68 101  82 101  84 100
M  END
> <chiral flag>
0

> <version>
0

> <s_m_source_file>
/data/baiqing/PycharmProjects/Reinvent-master-3.2/result/LINK_invent/BTK/process_docking_weight1_custom_product_contain_oxygen_bond_distance_aromatic_linkinvent_7_9_3/rearranged_h_0099.sdf

> <i_m_source_file_index>
29

> <r_mmod_Potential_Energy-OPLS-2005>
61.5994758605957

> <r_mmod_Stretch_Energy-OPLS-2005>
42.0884399414062

> <r_mmod_Bend_Energy-OPLS-2005>
121.888999938965

> <r_mmod_Torsional_Energy-OPLS-2005>
345.329681396484

> <r_mmod_Improper_Torsional_Energy-OPLS-2005>
5.24740695953369

> <r_mmod_Van_der_Waal_Energy-OPLS-2005>
143.141616821289

> <r_mmod_Electrostatic_Energy-OPLS-2005>
-371.111633300781

> <r_mmod_Solvation_Energy-OPLS-2005>
-238.52311706543

> <b_mmod_Minimization_Converged-OPLS-2005>
0

> <r_mmod_RMS_Derivative-OPLS-2005>
3.09271645545959

$$$$
29
                    3D
 Structure written by MMmdl.
156164  0  0  1  0            999 V2000
  -30.6712  -14.5405   20.4641 C   0  0  0  0  0  0
  -30.4242  -12.3219   19.4366 C   0  0  0  0  0  0
  -29.4925  -12.4508   18.2119 C   0  0  0  0  0  0
  -28.0130  -12.3390   18.6265 C   0  0  0  0  0  0
  -27.6508  -13.2098   19.8591 C   0  0  2  0  0  0
  -28.6983  -13.0511   20.9832 C   0  0  0  0  0  0
  -25.2552  -13.8178   20.5703 C   0  0  0  0  0  0
  -24.1812  -13.0448   20.9204 C   0  0  0  0  0  0
  -24.6373  -11.6917   20.8761 C   0  0  0  0  0  0
  -23.9047  -10.4309   21.0440 C   0  0  0  0  0  0
  -24.3606   -9.4210   21.9206 C   0  0  0  0  0  0
  -23.6280   -8.2240   22.0769 C   0  0  0  0  0  0
  -22.4257   -8.0295   21.3561 C   0  0  0  0  0  0
  -21.9894   -9.0272   20.4666 C   0  0  0  0  0  0
  -22.7227  -10.2148   20.3083 C   0  0  0  0  0  0
  -21.6844   -6.0744   22.5298 C   0  0  0  0  0  0
  -21.4017   -6.5646   23.8234 C   0  0  0  0  0  0
  -21.3657   -5.6797   24.9192 C   0  0  0  0  0  0
  -21.6032   -4.3057   24.7238 C   0  0  0  0  0  0
  -21.8820   -3.8148   23.4360 C   0  0  0  0  0  0
  -21.9190   -4.6969   22.3413 C   0  0  0  0  0  0
  -22.7837  -13.5242   21.1862 C   0  0  0  0  0  0
  -22.1660   -4.2152   21.0991 F   0  0  0  0  0  0
  -21.5606   -3.4537   25.7746 F   0  0  0  0  0  0
  -30.0213  -13.3443   20.4141 N   0  0  0  0  0  0
  -26.2969  -12.9342   20.3323 N   0  0  0  0  0  0
  -25.9295  -11.6502   20.5776 N   0  0  0  0  0  0
  -22.0463  -12.8247   22.0416 N   0  0  0  0  0  0
  -25.4248  -15.1915   20.4132 N   0  0  0  0  0  0
  -31.8676  -14.6519   20.1943 O   0  0  0  0  0  0
  -21.6621   -6.8893   21.4266 O   0  0  0  0  0  0
  -22.3521  -14.5543   20.6713 O   0  0  0  0  0  0
  -24.6159  -31.8669   23.2101 C   0  0  0  0  0  0
  -25.9060  -32.4812   23.8397 C   0  0  1  0  0  0
  -27.2340  -27.4315   20.1008 C   0  0  0  0  0  0
  -25.5910  -33.8610   24.2316 N   0  0  0  0  0  0
  -23.4051  -30.4896   21.5498 C   0  0  2  0  0  0
  -24.8527  -28.9533   20.1147 C   0  0  0  0  0  0
  -22.7422  -29.4657   22.4991 C   0  0  0  0  0  0
  -18.0271  -28.1391   22.8487 C   0  0  0  0  0  0
  -24.1482  -36.7308   23.2640 C   0  0  0  0  0  0
  -25.9346  -30.8297   21.3667 C   0  0  0  0  0  0
  -26.0122  -29.4654   20.7108 C   0  0  0  0  0  0
  -27.2096  -28.7127   20.6973 C   0  0  0  0  0  0
  -26.0615  -26.9309   19.4997 C   0  0  0  0  0  0
  -24.8717  -27.6853   19.5053 C   0  0  0  0  0  0
  -23.6144  -29.8205   20.1643 C   0  0  0  0  0  0
  -25.4107  -36.3102   24.0330 C   0  0  1  0  0  0
  -20.5863  -28.3677   23.1310 C   0  0  2  0  0  0
  -20.6762  -26.9409   22.5424 C   0  0  0  0  0  0
  -19.5744  -26.6391   21.5219 C   0  0  0  0  0  0
  -18.1920  -26.7933   22.1628 C   0  0  0  0  0  0
  -19.1521  -28.8853   23.2893 C   0  0  0  0  0  0
  -18.9450  -30.1456   23.8910 C   0  0  0  0  0  0
  -17.6453  -30.6593   24.0572 C   0  0  0  0  0  0
  -25.9037  -34.9468   23.5116 C   0  0  0  0  0  0
  -16.5343  -29.9098   23.6331 C   0  0  0  0  0  0
  -16.7262  -28.6518   23.0344 C   0  0  0  0  0  0
  -26.4494  -31.6613   25.0743 C   0  0  0  0  0  0
  -25.3773  -31.3723   26.1500 C   0  0  0  0  0  0
  -27.0334  -30.3051   24.6159 C   0  0  0  0  0  0
  -27.6057  -32.4358   25.7497 C   0  0  0  0  0  0
  -27.5570  -37.1804   24.8460 C   0  0  0  0  0  0
  -21.4151  -29.3031   22.3715 N   0  0  0  0  0  0
  -26.4285  -37.3791   23.9403 N   0  0  0  0  0  0
  -24.6695  -31.0771   22.1002 N   0  0  0  0  0  0
  -23.4186  -28.8200   23.3040 O   0  0  0  0  0  0
  -28.3830  -26.6716   20.0917 O   0  0  0  0  0  0
  -26.5602  -34.8919   22.4679 O   0  0  0  0  0  0
  -23.5347  -32.1431   23.7486 O   0  0  0  0  0  0
  -30.3163  -19.6960   19.2759 C   0  0  0  0  0  0
  -30.7503  -18.6479   18.4511 C   0  0  0  0  0  0
  -29.5944  -18.0607   20.9277 C   0  0  0  0  0  0
  -29.7021  -19.4247   20.5155 C   0  0  0  0  0  0
  -30.6130  -17.3010   18.8435 C   0  0  0  0  0  0
  -30.0668  -16.9807   20.1247 C   0  0  0  0  0  0
  -29.2107  -20.5669   21.3905 C   0  0  0  0  0  0
  -28.6689  -22.9634   21.2839 C   0  0  0  0  0  0
  -31.0280  -16.2669   17.8104 C   0  0  0  0  0  0
  -28.6389  -24.1758   20.3128 C   0  0  0  0  0  0
  -28.3724  -25.5498   20.9977 C   0  0  0  0  0  0
  -29.8713  -15.6289   20.6033 N   0  0  0  0  0  0
  -29.0699  -21.7709   20.7787 N   0  0  0  0  0  0
  -28.9504  -20.3451   22.5783 O   0  0  0  0  0  0
  -28.3298  -23.1334   22.4603 O   0  0  0  0  0  0
  -31.4649  -12.4306   19.1281 H   0  0  0  0  0  0
  -30.3443  -11.3267   19.8770 H   0  0  0  0  0  0
  -29.7288  -11.6807   17.4771 H   0  0  0  0  0  0
  -29.6560  -13.3988   17.7050 H   0  0  0  0  0  0
  -27.8204  -11.2890   18.8439 H   0  0  0  0  0  0
  -27.3684  -12.5953   17.7858 H   0  0  0  0  0  0
  -27.6718  -14.2456   19.5205 H   0  0  0  0  0  0
  -28.6794  -12.0341   21.3791 H   0  0  0  0  0  0
  -28.4711  -13.7079   21.8242 H   0  0  0  0  0  0
  -25.2775   -9.5637   22.4752 H   0  0  0  0  0  0
  -23.9997   -7.4610   22.7459 H   0  0  0  0  0  0
  -21.0828   -8.8791   19.8959 H   0  0  0  0  0  0
  -22.3724  -10.9683   19.6162 H   0  0  0  0  0  0
  -21.2032   -7.6159   23.9740 H   0  0  0  0  0  0
  -21.1462   -6.0528   25.9094 H   0  0  0  0  0  0
  -22.0597   -2.7614   23.2863 H   0  0  0  0  0  0
  -22.4070  -11.9923   22.4833 H   0  0  0  0  0  0
  -21.1083  -13.1298   22.2612 H   0  0  0  0  0  0
  -24.6557  -15.8421   20.5300 H   0  0  0  0  0  0
  -26.2693  -15.6399   20.0821 H   0  0  0  0  0  0
  -26.7124  -32.5521   23.1147 H   0  0  0  0  0  0
  -25.0049  -33.9775   25.0456 H   0  0  0  0  0  0
  -22.6948  -31.3073   21.4104 H   0  0  0  0  0  0
  -23.3739  -35.9647   23.3333 H   0  0  0  0  0  0
  -24.3554  -36.8906   22.2046 H   0  0  0  0  0  0
  -23.7249  -37.6521   23.6650 H   0  0  0  0  0  0
  -26.0588  -31.6008   20.6048 H   0  0  0  0  0  0
  -26.8159  -30.8717   21.9949 H   0  0  0  0  0  0
  -28.1064  -29.1058   21.1549 H   0  0  0  0  0  0
  -26.0705  -25.9586   19.0272 H   0  0  0  0  0  0
  -23.9798  -27.2874   19.0394 H   0  0  0  0  0  0
  -23.7212  -30.5963   19.4050 H   0  0  0  0  0  0
  -22.7400  -29.2370   19.8687 H   0  0  0  0  0  0
  -25.1290  -36.1952   25.0823 H   0  0  0  0  0  0
  -20.9937  -28.3238   24.1439 H   0  0  0  0  0  0
  -20.5653  -26.2289   23.3615 H   0  0  0  0  0  0
  -21.6633  -26.7438   22.1230 H   0  0  0  0  0  0
  -19.6904  -25.6304   21.1237 H   0  0  0  0  0  0
  -19.6691  -27.3212   20.6759 H   0  0  0  0  0  0
  -17.4194  -26.6679   21.4028 H   0  0  0  0  0  0
  -18.0316  -26.0077   22.9025 H   0  0  0  0  0  0
  -19.7928  -30.7260   24.2293 H   0  0  0  0  0  0
  -17.5013  -31.6270   24.5180 H   0  0  0  0  0  0
  -15.5345  -30.3001   23.7664 H   0  0  0  0  0  0
  -15.8662  -28.0845   22.7046 H   0  0  0  0  0  0
  -24.5898  -30.7137   25.7826 H   0  0  0  0  0  0
  -24.9044  -32.2890   26.5032 H   0  0  0  0  0  0
  -25.8131  -30.8808   27.0212 H   0  0  0  0  0  0
  -26.2888  -29.6793   24.1228 H   0  0  0  0  0  0
  -27.4095  -29.7313   25.4643 H   0  0  0  0  0  0
  -27.8731  -30.4362   23.9330 H   0  0  0  0  0  0
  -27.2652  -33.3621   26.2139 H   0  0  0  0  0  0
  -28.3822  -32.6995   25.0304 H   0  0  0  0  0  0
  -28.0798  -31.8477   26.5367 H   0  0  0  0  0  0
  -28.2606  -38.0084   24.7486 H   0  0  0  0  0  0
  -28.1044  -36.2612   24.6308 H   0  0  0  0  0  0
  -27.2285  -37.1486   25.8864 H   0  0  0  0  0  0
  -20.9330  -29.8746   21.6918 H   0  0  0  0  0  0
  -26.0170  -38.2863   24.1417 H   0  0  0  0  0  0
  -30.4557  -20.7088   18.9252 H   0  0  0  0  0  0
  -31.1807  -18.8919   17.4894 H   0  0  0  0  0  0
  -29.1464  -17.8438   21.8871 H   0  0  0  0  0  0
  -31.0516  -16.6945   16.8082 H   0  0  0  0  0  0
  -30.3212  -15.4435   17.7817 H   0  0  0  0  0  0
  -32.0281  -15.8890   18.0180 H   0  0  0  0  0  0
  -27.8697  -23.9956   19.5611 H   0  0  0  0  0  0
  -29.5909  -24.2221   19.7823 H   0  0  0  0  0  0
  -29.1513  -25.7429   21.7370 H   0  0  0  0  0  0
  -27.4384  -25.5051   21.5625 H   0  0  0  0  0  0
  -28.9559  -15.4284   20.9731 H   0  0  0  0  0  0
  -29.3198  -21.7694   19.8033 H   0  0  0  0  0  0
  1 25  1  0  0  0
  1 30  2  0  0  0
  1 82  1  0  0  0
  2  3  1  0  0  0
  2 25  1  0  0  0
  2 86  1  0  0  0
  2 87  1  0  0  0
  3  4  1  0  0  0
  3 88  1  0  0  0
  3 89  1  0  0  0
  4  5  1  0  0  0
  4 90  1  0  0  0
  4 91  1  0  0  0
  5  6  1  0  0  0
  5 26  1  0  0  0
  5 92  1  0  0  0
  6 25  1  0  0  0
  6 93  1  0  0  0
  6 94  1  0  0  0
  7  8  2  0  0  0
  7 26  1  0  0  0
  7 29  1  0  0  0
  8  9  1  0  0  0
  8 22  1  0  0  0
  9 10  1  0  0  0
  9 27  2  0  0  0
 10 11  2  0  0  0
 10 15  1  0  0  0
 11 12  1  0  0  0
 11 95  1  0  0  0
 12 13  2  0  0  0
 12 96  1  0  0  0
 13 14  1  0  0  0
 13 31  1  0  0  0
 14 15  2  0  0  0
 14 97  1  0  0  0
 15 98  1  0  0  0
 16 17  2  0  0  0
 16 21  1  0  0  0
 16 31  1  0  0  0
 17 18  1  0  0  0
 17 99  1  0  0  0
 18 19  2  0  0  0
 18100  1  0  0  0
 19 20  1  0  0  0
 19 24  1  0  0  0
 20 21  2  0  0  0
 20101  1  0  0  0
 21 23  1  0  0  0
 22 28  1  0  0  0
 22 32  2  0  0  0
 26 27  1  0  0  0
 28102  1  0  0  0
 28103  1  0  0  0
 29104  1  0  0  0
 29105  1  0  0  0
 33 34  1  0  0  0
 33 66  1  0  0  0
 33 70  2  0  0  0
 34 36  1  0  0  0
 34 59  1  0  0  0
 34106  1  0  0  0
 35 44  2  0  0  0
 35 45  1  0  0  0
 35 68  1  0  0  0
 36 56  1  0  0  0
 36107  1  0  0  0
 37 39  1  0  0  0
 37 47  1  0  0  0
 37 66  1  0  0  0
 37108  1  0  0  0
 38 43  2  0  0  0
 38 46  1  0  0  0
 38 47  1  0  0  0
 39 64  1  0  0  0
 39 67  2  0  0  0
 40 52  1  0  0  0
 40 53  2  0  0  0
 40 58  1  0  0  0
 41109  1  0  0  0
 41110  1  0  0  0
 41111  1  0  0  0
 41 48  1  0  0  0
 42 43  1  0  0  0
 42 66  1  0  0  0
 42112  1  0  0  0
 42113  1  0  0  0
 43 44  1  0  0  0
 44114  1  0  0  0
 45 46  2  0  0  0
 45115  1  0  0  0
 46116  1  0  0  0
 47117  1  0  0  0
 47118  1  0  0  0
 48 56  1  0  0  0
 48 65  1  0  0  0
 48119  1  0  0  0
 49 50  1  0  0  0
 49 53  1  0  0  0
 49 64  1  0  0  0
 49120  1  0  0  0
 50 51  1  0  0  0
 50121  1  0  0  0
 50122  1  0  0  0
 51 52  1  0  0  0
 51123  1  0  0  0
 51124  1  0  0  0
 52125  1  0  0  0
 52126  1  0  0  0
 53 54  1  0  0  0
 54 55  2  0  0  0
 54127  1  0  0  0
 55 57  1  0  0  0
 55128  1  0  0  0
 56 69  2  0  0  0
 57 58  2  0  0  0
 57129  1  0  0  0
 58130  1  0  0  0
 59 60  1  0  0  0
 59 61  1  0  0  0
 59 62  1  0  0  0
 60131  1  0  0  0
 60132  1  0  0  0
 60133  1  0  0  0
 61134  1  0  0  0
 61135  1  0  0  0
 61136  1  0  0  0
 62137  1  0  0  0
 62138  1  0  0  0
 62139  1  0  0  0
 63 65  1  0  0  0
 63140  1  0  0  0
 63141  1  0  0  0
 63142  1  0  0  0
 64143  1  0  0  0
 65144  1  0  0  0
 68 81  1  0  0  0
 71 72  2  0  0  0
 71 74  1  0  0  0
 71145  1  0  0  0
 72 75  1  0  0  0
 72146  1  0  0  0
 73 74  2  0  0  0
 73 76  1  0  0  0
 73147  1  0  0  0
 74 77  1  0  0  0
 75 76  2  0  0  0
 75 79  1  0  0  0
 76 82  1  0  0  0
 77 83  1  0  0  0
 77 84  2  0  0  0
 78 80  1  0  0  0
 78 83  1  0  0  0
 78 85  2  0  0  0
 79148  1  0  0  0
 79149  1  0  0  0
 79150  1  0  0  0
 80 81  1  0  0  0
 80151  1  0  0  0
 80152  1  0  0  0
 81153  1  0  0  0
 81154  1  0  0  0
 82155  1  0  0  0
 83156  1  0  0  0
M  ISO  4   1 100  68 101  81 101  82 100
M  END
> <chiral flag>
0

> <version>
0

> <s_m_source_file>
/data/baiqing/PycharmProjects/Reinvent-master-3.2/result/LINK_invent/BTK/process_docking_weight1_custom_product_contain_oxygen_bond_distance_aromatic_linkinvent_7_9_3/rearranged_h_0099.sdf

> <i_m_source_file_index>
30

> <r_mmod_Potential_Energy-OPLS-2005>
-161.637725830078

> <r_mmod_Stretch_Energy-OPLS-2005>
45.9495964050293

> <r_mmod_Bend_Energy-OPLS-2005>
105.337181091309

> <r_mmod_Torsional_Energy-OPLS-2005>
266.516998291016

> <r_mmod_Improper_Torsional_Energy-OPLS-2005>
5.75118541717529

> <r_mmod_Van_der_Waal_Energy-OPLS-2005>
159.566650390625

> <r_mmod_Electrostatic_Energy-OPLS-2005>
-501.550140380859

> <r_mmod_Solvation_Energy-OPLS-2005>
-267.435119628906

> <b_mmod_Minimization_Converged-OPLS-2005>
0

> <r_mmod_RMS_Derivative-OPLS-2005>
2.67309188842773

$$$$
30
                    3D
 Structure written by MMmdl.
163172  0  0  1  0            999 V2000
  -30.7086  -14.5093   20.5228 C   0  0  0  0  0  0
  -30.4286  -12.3182   19.4299 C   0  0  0  0  0  0
  -29.4895  -12.4771   18.2173 C   0  0  0  0  0  0
  -28.0136  -12.3542   18.6568 C   0  0  0  0  0  0
  -27.6681  -13.2028   19.9097 C   0  0  2  0  0  0
  -28.7280  -12.9831   21.0126 C   0  0  0  0  0  0
  -25.2560  -13.8053   20.5874 C   0  0  0  0  0  0
  -24.1785  -13.0342   20.9268 C   0  0  0  0  0  0
  -24.6382  -11.6843   20.8873 C   0  0  0  0  0  0
  -23.9010  -10.4242   21.0473 C   0  0  0  0  0  0
  -24.3553   -9.4146   21.9245 C   0  0  0  0  0  0
  -23.6234   -8.2204   22.0767 C   0  0  0  0  0  0
  -22.4241   -8.0247   21.3543 C   0  0  0  0  0  0
  -21.9858   -9.0210   20.4665 C   0  0  0  0  0  0
  -22.7173  -10.2095   20.3100 C   0  0  0  0  0  0
  -21.6825   -6.0694   22.5279 C   0  0  0  0  0  0
  -21.4014   -6.5611   23.8198 C   0  0  0  0  0  0
  -21.3663   -5.6786   24.9182 C   0  0  0  0  0  0
  -21.6047   -4.3030   24.7259 C   0  0  0  0  0  0
  -21.8805   -3.8102   23.4369 C   0  0  0  0  0  0
  -21.9173   -4.6929   22.3422 C   0  0  0  0  0  0
  -22.7806  -13.5214   21.1865 C   0  0  0  0  0  0
  -22.1638   -4.2097   21.1011 F   0  0  0  0  0  0
  -21.5638   -3.4532   25.7769 F   0  0  0  0  0  0
  -30.0263  -13.3281   20.4240 N   0  0  0  0  0  0
  -26.3083  -12.9311   20.3704 N   0  0  0  0  0  0
  -25.9341  -11.6441   20.6031 N   0  0  0  0  0  0
  -22.0380  -12.8261   22.0384 N   0  0  0  0  0  0
  -25.4157  -15.1759   20.4354 N   0  0  0  0  0  0
  -31.8801  -14.6132   20.1628 O   0  0  0  0  0  0
  -21.6595   -6.8835   21.4233 O   0  0  0  0  0  0
  -22.3561  -14.5542   20.6716 O   0  0  0  0  0  0
  -24.6176  -31.8737   23.2021 C   0  0  0  0  0  0
  -25.9037  -32.4790   23.8363 C   0  0  1  0  0  0
  -27.2361  -27.4003   20.1082 C   0  0  0  0  0  0
  -25.5874  -33.8577   24.2320 N   0  0  0  0  0  0
  -23.4107  -30.4986   21.5356 C   0  0  2  0  0  0
  -24.8564  -28.9403   20.1194 C   0  0  0  0  0  0
  -22.7456  -29.4782   22.4844 C   0  0  0  0  0  0
  -18.0295  -28.1345   22.8357 C   0  0  0  0  0  0
  -24.1456  -36.7368   23.2638 C   0  0  0  0  0  0
  -25.9422  -30.8100   21.3701 C   0  0  0  0  0  0
  -26.0170  -29.4400   20.7228 C   0  0  0  0  0  0
  -27.2123  -28.6785   20.7199 C   0  0  0  0  0  0
  -26.0608  -26.9214   19.4982 C   0  0  0  0  0  0
  -24.8733  -27.6793   19.5006 C   0  0  0  0  0  0
  -23.6304  -29.8238   20.1509 C   0  0  0  0  0  0
  -25.4054  -36.3092   24.0380 C   0  0  1  0  0  0
  -20.5856  -28.3832   23.1249 C   0  0  2  0  0  0
  -20.6789  -26.9510   22.5603 C   0  0  0  0  0  0
  -19.5843  -26.6076   21.5466 C   0  0  0  0  0  0
  -18.2041  -26.7795   22.1824 C   0  0  0  0  0  0
  -19.1469  -28.8862   23.2876 C   0  0  0  0  0  0
  -18.9273  -30.1421   23.8942 C   0  0  0  0  0  0
  -17.6230  -30.6426   24.0574 C   0  0  0  0  0  0
  -25.9005  -34.9449   23.5141 C   0  0  0  0  0  0
  -16.5179  -29.8872   23.6111 C   0  0  0  0  0  0
  -16.7292  -28.6365   23.0109 C   0  0  0  0  0  0
  -26.4516  -31.6515   25.0682 C   0  0  0  0  0  0
  -25.3746  -31.3620   26.1363 C   0  0  0  0  0  0
  -27.0278  -30.2927   24.6040 C   0  0  0  0  0  0
  -27.6090  -32.4120   25.7551 C   0  0  0  0  0  0
  -27.5548  -37.1820   24.8474 C   0  0  0  0  0  0
  -21.4129  -29.3192   22.3626 N   0  0  0  0  0  0
  -26.4229  -37.3782   23.9453 N   0  0  0  0  0  0
  -24.6726  -31.0835   22.0915 N   0  0  0  0  0  0
  -23.4223  -28.8286   23.2819 O   0  0  0  0  0  0
  -28.3736  -26.6257   19.9800 O   0  0  0  0  0  0
  -26.5563  -34.8925   22.4703 O   0  0  0  0  0  0
  -23.5387  -32.1512   23.7412 O   0  0  0  0  0  0
  -27.5743  -17.7385   20.1651 C   0  0  0  0  0  0
  -26.9236  -18.9722   19.9579 C   0  0  0  0  0  0
  -28.9534  -18.7665   21.8674 C   0  0  0  0  0  0
  -28.3041  -20.0285   21.6955 C   0  0  0  0  0  0
  -28.5582  -17.6051   21.1613 C   0  0  0  0  0  0
  -27.2278  -20.1043   20.7506 C   0  0  0  0  0  0
  -28.6296  -21.1044   22.7246 C   0  0  0  0  0  0
  -28.2666  -24.7455   23.2158 C   0  0  0  0  0  0
  -28.1411  -23.2922   23.6454 C   0  0  0  0  0  0
  -28.8207  -23.3243   21.3500 C   0  0  0  0  0  0
  -28.2344  -24.7371   21.6911 C   0  0  2  0  0  0
  -29.0874  -16.2061   21.5205 C   0  0  0  0  0  0
  -28.9401  -26.0314   21.1502 C   0  0  0  0  0  0
  -28.4926  -22.4479   22.5073 N   0  0  0  0  0  0
  -26.3979  -21.2243   20.5901 N   0  0  0  0  0  0
  -30.0035  -15.6595   20.5216 N   0  0  0  0  0  0
  -28.9165  -20.6987   23.8618 O   0  0  0  0  0  0
  -31.4740  -12.4176   19.1284 H   0  0  0  0  0  0
  -30.3488  -11.3140   19.8547 H   0  0  0  0  0  0
  -29.7181  -11.7275   17.4598 H   0  0  0  0  0  0
  -29.6617  -13.4419   17.7331 H   0  0  0  0  0  0
  -27.8480  -11.3040   18.8927 H   0  0  0  0  0  0
  -27.3371  -12.6015   17.8380 H   0  0  0  0  0  0
  -27.7126  -14.2537   19.6212 H   0  0  0  0  0  0
  -28.7282  -11.9302   21.3186 H   0  0  0  0  0  0
  -28.5416  -13.5469   21.9252 H   0  0  0  0  0  0
  -25.2686   -9.5620   22.4826 H   0  0  0  0  0  0
  -23.9916   -7.4567   22.7490 H   0  0  0  0  0  0
  -21.0765   -8.8726   19.8955 H   0  0  0  0  0  0
  -22.3630  -10.9655   19.6208 H   0  0  0  0  0  0
  -21.2008   -7.6125   23.9701 H   0  0  0  0  0  0
  -21.1511   -6.0524   25.9084 H   0  0  0  0  0  0
  -22.0583   -2.7565   23.2907 H   0  0  0  0  0  0
  -22.3931  -11.9981   22.4958 H   0  0  0  0  0  0
  -21.1012  -13.1358   22.2539 H   0  0  0  0  0  0
  -24.6342  -15.8220   20.5266 H   0  0  0  0  0  0
  -26.2754  -15.6156   20.1458 H   0  0  0  0  0  0
  -26.7132  -32.5517   23.1117 H   0  0  0  0  0  0
  -24.9985  -33.9744   25.0433 H   0  0  0  0  0  0
  -22.7065  -31.3187   21.3919 H   0  0  0  0  0  0
  -23.3668  -35.9756   23.3280 H   0  0  0  0  0  0
  -24.3591  -36.8973   22.2060 H   0  0  0  0  0  0
  -23.7224  -37.6587   23.6632 H   0  0  0  0  0  0
  -26.0725  -31.5690   20.5988 H   0  0  0  0  0  0
  -26.8213  -30.8568   22.0025 H   0  0  0  0  0  0
  -28.1116  -29.0748   21.1671 H   0  0  0  0  0  0
  -26.0731  -25.9541   19.0182 H   0  0  0  0  0  0
  -23.9882  -27.2871   19.0207 H   0  0  0  0  0  0
  -23.7604  -30.5870   19.3830 H   0  0  0  0  0  0
  -22.7562  -29.2475   19.8441 H   0  0  0  0  0  0
  -25.1228  -36.1998   25.0899 H   0  0  0  0  0  0
  -21.0089  -28.3653   24.1287 H   0  0  0  0  0  0
  -20.5952  -26.2519   23.3984 H   0  0  0  0  0  0
  -21.6645  -26.7561   22.1373 H   0  0  0  0  0  0
  -19.7180  -25.5772   21.2115 H   0  0  0  0  0  0
  -19.6776  -27.2509   20.6699 H   0  0  0  0  0  0
  -17.4150  -26.6370   21.4401 H   0  0  0  0  0  0
  -18.0650  -26.0285   22.9620 H   0  0  0  0  0  0
  -19.7746  -30.7207   24.2337 H   0  0  0  0  0  0
  -17.4595  -31.5963   24.5337 H   0  0  0  0  0  0
  -15.5022  -30.2489   23.7129 H   0  0  0  0  0  0
  -15.8757  -28.0741   22.6531 H   0  0  0  0  0  0
  -24.5641  -30.7316   25.7641 H   0  0  0  0  0  0
  -24.9248  -32.2871   26.5054 H   0  0  0  0  0  0
  -25.8016  -30.8355   26.9896 H   0  0  0  0  0  0
  -27.3669  -29.7018   25.4564 H   0  0  0  0  0  0
  -27.8833  -30.4087   23.9396 H   0  0  0  0  0  0
  -26.2788  -29.6910   24.0843 H   0  0  0  0  0  0
  -27.2732  -33.3338   26.2323 H   0  0  0  0  0  0
  -28.3913  -32.6813   25.0447 H   0  0  0  0  0  0
  -28.0733  -31.8056   26.5292 H   0  0  0  0  0  0
  -28.2542  -38.0124   24.7458 H   0  0  0  0  0  0
  -28.1050  -36.2645   24.6342 H   0  0  0  0  0  0
  -27.2311  -37.1556   25.8885 H   0  0  0  0  0  0
  -20.9400  -29.8807   21.6682 H   0  0  0  0  0  0
  -26.0146  -38.2885   24.1413 H   0  0  0  0  0  0
  -27.2794  -16.8808   19.5895 H   0  0  0  0  0  0
  -26.1331  -18.9979   19.2128 H   0  0  0  0  0  0
  -29.7176  -18.6656   22.6278 H   0  0  0  0  0  0
  -29.2225  -25.1366   23.5712 H   0  0  0  0  0  0
  -27.4819  -25.3702   23.6367 H   0  0  0  0  0  0
  -27.1117  -23.0742   23.9295 H   0  0  0  0  0  0
  -28.7754  -23.1075   24.5157 H   0  0  0  0  0  0
  -29.9086  -23.3800   21.2703 H   0  0  0  0  0  0
  -28.4460  -22.9439   20.4027 H   0  0  0  0  0  0
  -27.1854  -24.7492   21.3925 H   0  0  0  0  0  0
  -28.1998  -15.5773   21.5895 H   0  0  0  0  0  0
  -29.5565  -16.2085   22.5034 H   0  0  0  0  0  0
  -29.9881  -25.8117   20.9341 H   0  0  0  0  0  0
  -28.9593  -26.7960   21.9304 H   0  0  0  0  0  0
  -25.4296  -21.0976   20.3032 H   0  0  0  0  0  0
  -26.4967  -22.0205   21.2093 H   0  0  0  0  0  0
  -30.5643  -16.3935   20.1149 H   0  0  0  0  0  0
  1 25  1  0  0  0
  1 30  2  0  0  0
  1 86  1  0  0  0
  2  3  1  0  0  0
  2 25  1  0  0  0
  2 88  1  0  0  0
  2 89  1  0  0  0
  3  4  1  0  0  0
  3 90  1  0  0  0
  3 91  1  0  0  0
  4  5  1  0  0  0
  4 92  1  0  0  0
  4 93  1  0  0  0
  5  6  1  0  0  0
  5 26  1  0  0  0
  5 94  1  0  0  0
  6 25  1  0  0  0
  6 95  1  0  0  0
  6 96  1  0  0  0
  7  8  2  0  0  0
  7 26  1  0  0  0
  7 29  1  0  0  0
  8  9  1  0  0  0
  8 22  1  0  0  0
  9 10  1  0  0  0
  9 27  2  0  0  0
 10 11  2  0  0  0
 10 15  1  0  0  0
 11 12  1  0  0  0
 11 97  1  0  0  0
 12 13  2  0  0  0
 12 98  1  0  0  0
 13 14  1  0  0  0
 13 31  1  0  0  0
 14 15  2  0  0  0
 14 99  1  0  0  0
 15100  1  0  0  0
 16 17  2  0  0  0
 16 21  1  0  0  0
 16 31  1  0  0  0
 17 18  1  0  0  0
 17101  1  0  0  0
 18 19  2  0  0  0
 18102  1  0  0  0
 19 20  1  0  0  0
 19 24  1  0  0  0
 20 21  2  0  0  0
 20103  1  0  0  0
 21 23  1  0  0  0
 22 28  1  0  0  0
 22 32  2  0  0  0
 26 27  1  0  0  0
 28104  1  0  0  0
 28105  1  0  0  0
 29106  1  0  0  0
 29107  1  0  0  0
 33 34  1  0  0  0
 33 66  1  0  0  0
 33 70  2  0  0  0
 34 36  1  0  0  0
 34 59  1  0  0  0
 34108  1  0  0  0
 35 44  2  0  0  0
 35 45  1  0  0  0
 35 68  1  0  0  0
 36 56  1  0  0  0
 36109  1  0  0  0
 37 39  1  0  0  0
 37 47  1  0  0  0
 37 66  1  0  0  0
 37110  1  0  0  0
 38 43  2  0  0  0
 38 46  1  0  0  0
 38 47  1  0  0  0
 39 64  1  0  0  0
 39 67  2  0  0  0
 40 52  1  0  0  0
 40 53  2  0  0  0
 40 58  1  0  0  0
 41111  1  0  0  0
 41112  1  0  0  0
 41113  1  0  0  0
 41 48  1  0  0  0
 42 43  1  0  0  0
 42 66  1  0  0  0
 42114  1  0  0  0
 42115  1  0  0  0
 43 44  1  0  0  0
 44116  1  0  0  0
 45 46  2  0  0  0
 45117  1  0  0  0
 46118  1  0  0  0
 47119  1  0  0  0
 47120  1  0  0  0
 48 56  1  0  0  0
 48 65  1  0  0  0
 48121  1  0  0  0
 49 50  1  0  0  0
 49 53  1  0  0  0
 49 64  1  0  0  0
 49122  1  0  0  0
 50 51  1  0  0  0
 50123  1  0  0  0
 50124  1  0  0  0
 51 52  1  0  0  0
 51125  1  0  0  0
 51126  1  0  0  0
 52127  1  0  0  0
 52128  1  0  0  0
 53 54  1  0  0  0
 54 55  2  0  0  0
 54129  1  0  0  0
 55 57  1  0  0  0
 55130  1  0  0  0
 56 69  2  0  0  0
 57 58  2  0  0  0
 57131  1  0  0  0
 58132  1  0  0  0
 59 60  1  0  0  0
 59 61  1  0  0  0
 59 62  1  0  0  0
 60133  1  0  0  0
 60134  1  0  0  0
 60135  1  0  0  0
 61136  1  0  0  0
 61137  1  0  0  0
 61138  1  0  0  0
 62139  1  0  0  0
 62140  1  0  0  0
 62141  1  0  0  0
 63 65  1  0  0  0
 63142  1  0  0  0
 63143  1  0  0  0
 63144  1  0  0  0
 64145  1  0  0  0
 65146  1  0  0  0
 68 83  1  0  0  0
 71 72  2  0  0  0
 71 75  1  0  0  0
 71147  1  0  0  0
 72 76  1  0  0  0
 72148  1  0  0  0
 73 74  1  0  0  0
 73 75  2  0  0  0
 73149  1  0  0  0
 74 76  2  0  0  0
 74 77  1  0  0  0
 75 82  1  0  0  0
 76 85  1  0  0  0
 77 84  1  0  0  0
 77 87  2  0  0  0
 78 79  1  0  0  0
 78 81  1  0  0  0
 78150  1  0  0  0
 78151  1  0  0  0
 79 84  1  0  0  0
 79152  1  0  0  0
 79153  1  0  0  0
 80 81  1  0  0  0
 80 84  1  0  0  0
 80154  1  0  0  0
 80155  1  0  0  0
 81 83  1  0  0  0
 81156  1  0  0  0
 82 86  1  0  0  0
 82157  1  0  0  0
 82158  1  0  0  0
 83159  1  0  0  0
 83160  1  0  0  0
 85161  1  0  0  0
 85162  1  0  0  0
 86163  1  0  0  0
M  ISO  4   1 100  68 101  83 101  86 100
M  END
> <chiral flag>
0

> <version>
0

> <s_m_source_file>
/data/baiqing/PycharmProjects/Reinvent-master-3.2/result/LINK_invent/BTK/process_docking_weight1_custom_product_contain_oxygen_bond_distance_aromatic_linkinvent_7_9_3/rearranged_h_0099.sdf

> <i_m_source_file_index>
31

> <r_mmod_Potential_Energy-OPLS-2005>
256.709564208984

> <r_mmod_Stretch_Energy-OPLS-2005>
49.5622215270996

> <r_mmod_Bend_Energy-OPLS-2005>
178.722381591797

> <r_mmod_Torsional_Energy-OPLS-2005>
403.005584716797

> <r_mmod_Improper_Torsional_Energy-OPLS-2005>
25.7783527374268

> <r_mmod_Van_der_Waal_Energy-OPLS-2005>
143.801895141602

> <r_mmod_Electrostatic_Energy-OPLS-2005>
-342.789337158203

> <r_mmod_Solvation_Energy-OPLS-2005>
-223.223022460938

> <b_mmod_Minimization_Converged-OPLS-2005>
0

> <r_mmod_RMS_Derivative-OPLS-2005>
10.808048248291

$$$$
31
                    3D
 Structure written by MMmdl.
165173  0  0  1  0            999 V2000
  -31.3457  -14.9905   20.9688 C   0  0  0  0  0  0
  -31.0344  -13.9343   19.2090 C   0  0  0  0  0  0
  -28.7342  -13.9555   17.0849 C   0  0  0  0  0  0
  -27.1872  -13.7187   18.1300 C   0  0  0  0  0  0
  -27.3034  -13.8065   19.9973 C   0  0  2  0  0  0
  -28.7794  -13.8078   21.1372 C   0  0  0  0  0  0
  -25.0156  -13.9208   20.6791 C   0  0  0  0  0  0
  -24.0456  -13.0411   20.9785 C   0  0  0  0  0  0
  -24.6156  -11.7307   20.8978 C   0  0  0  0  0  0
  -23.9290  -10.4328   21.0302 C   0  0  0  0  0  0
  -24.3788   -9.4253   21.9130 C   0  0  0  0  0  0
  -23.6424   -8.2287   22.0728 C   0  0  0  0  0  0
  -22.4403   -8.0290   21.3519 C   0  0  0  0  0  0
  -22.0086   -9.0231   20.4571 C   0  0  0  0  0  0
  -22.7455  -10.2089   20.2948 C   0  0  0  0  0  0
  -21.6906   -6.0750   22.5285 C   0  0  0  0  0  0
  -21.4051   -6.5650   23.8214 C   0  0  0  0  0  0
  -21.3680   -5.6800   24.9178 C   0  0  0  0  0  0
  -21.6053   -4.3059   24.7229 C   0  0  0  0  0  0
  -21.8812   -3.8149   23.4349 C   0  0  0  0  0  0
  -21.9207   -4.6968   22.3407 C   0  0  0  0  0  0
  -22.6398  -13.4586   21.2158 C   0  0  0  0  0  0
  -22.1669   -4.2149   21.0981 F   0  0  0  0  0  0
  -21.5624   -3.4541   25.7738 F   0  0  0  0  0  0
  -30.4070  -14.0480   20.6975 N   0  0  0  0  0  0
  -26.1339  -13.1751   20.4942 N   0  0  0  0  0  0
  -25.9249  -11.8241   20.6155 N   0  0  0  0  0  0
  -21.9369  -12.7480   22.0808 N   0  0  0  0  0  0
  -25.0002  -15.3069   20.5179 N   0  0  0  0  0  0
  -32.4851  -14.6116   21.1276 O   0  0  0  0  0  0
  -21.6715   -6.8909   21.4253 O   0  0  0  0  0  0
  -22.1917  -14.4796   20.6917 O   0  0  0  0  0  0
  -24.7269  -31.7457   23.1147 C   0  0  0  0  0  0
  -25.9649  -32.4183   23.7837 C   0  0  1  0  0  0
  -27.1037  -26.2464   20.1234 C   0  0  0  0  0  0
  -25.6048  -33.8039   24.1682 N   0  0  0  0  0  0
  -23.5582  -30.3431   21.4851 C   0  0  2  0  0  0
  -24.9787  -28.6014   20.0983 C   0  0  0  0  0  0
  -22.7909  -29.4042   22.4587 C   0  0  0  0  0  0
  -18.0348  -28.1443   22.8418 C   0  0  0  0  0  0
  -24.1505  -36.7042   23.2661 C   0  0  0  0  0  0
  -26.1544  -30.3122   21.4394 C   0  0  0  0  0  0
  -26.1828  -28.8375   20.7682 C   0  0  0  0  0  0
  -27.2167  -27.6941   20.7475 C   0  0  0  0  0  0
  -25.8825  -26.3416   19.3992 C   0  0  0  0  0  0
  -24.8915  -27.3860   19.3969 C   0  0  0  0  0  0
  -23.8163  -29.6249   20.1268 C   0  0  0  0  0  0
  -25.4172  -36.2739   24.0245 C   0  0  1  0  0  0
  -20.5998  -28.3808   23.1077 C   0  0  2  0  0  0
  -20.6805  -26.9433   22.5409 C   0  0  0  0  0  0
  -19.5798  -26.6357   21.5214 C   0  0  0  0  0  0
  -18.1973  -26.7960   22.1598 C   0  0  0  0  0  0
  -19.1623  -28.8957   23.2716 C   0  0  0  0  0  0
  -18.9528  -30.1527   23.8783 C   0  0  0  0  0  0
  -17.6521  -30.6618   24.0536 C   0  0  0  0  0  0
  -25.9183  -34.9136   23.4837 C   0  0  0  0  0  0
  -16.5404  -29.9098   23.6361 C   0  0  0  0  0  0
  -16.7325  -28.6522   23.0368 C   0  0  0  0  0  0
  -26.4675  -31.6417   25.0652 C   0  0  0  0  0  0
  -25.3635  -31.3870   26.1198 C   0  0  0  0  0  0
  -27.0665  -30.2706   24.6871 C   0  0  0  0  0  0
  -27.6037  -32.4377   25.7492 C   0  0  0  0  0  0
  -27.5557  -37.1678   24.8466 C   0  0  0  0  0  0
  -21.4519  -29.2980   22.3356 N   0  0  0  0  0  0
  -26.4258  -37.3553   23.9409 N   0  0  0  0  0  0
  -24.8452  -30.8460   22.0639 N   0  0  0  0  0  0
  -23.4184  -28.7675   23.3077 O   0  0  0  0  0  0
  -27.9074  -24.7814   20.1357 O   0  0  0  0  0  0
  -26.5878  -34.8810   22.4493 O   0  0  0  0  0  0
  -23.6213  -32.0742   23.5864 O   0  0  0  0  0  0
  -30.0491  -15.8025   17.8765 C   0  0  0  0  0  0
  -30.2733  -12.2947   17.7020 C   0  0  0  0  0  0
  -31.0614  -15.0127   17.0520 C   0  0  0  0  0  0
  -29.1032  -15.1735   18.9378 C   0  0  0  0  0  0
  -31.1214  -13.4029   16.8496 C   0  0  0  0  0  0
  -29.2114  -12.8340   18.8908 C   0  0  0  0  0  0
  -28.2704  -20.7172   19.9515 C   0  0  0  0  0  0
  -28.3785  -18.6410   19.2099 C   0  0  0  0  0  0
  -32.3136  -16.5476   19.0770 C   0  0  0  0  0  0
  -27.7597  -22.8549   19.6885 C   0  0  0  0  0  0
  -32.3350  -15.8349   17.5382 C   0  0  2  0  0  0
  -32.1129  -12.9137   15.9966 N   0  0  0  0  0  0
  -28.7148  -11.6495   19.5214 N   0  0  0  0  0  0
  -28.5730  -16.7514   19.5493 N   0  0  0  0  0  0
  -31.3474  -16.1663   20.2427 N   0  0  0  0  0  0
  -32.7814  -16.7819   16.5056 N   0  3  0  0  0  0
  -32.0978  -14.0337   18.9672 H   0  0  0  0  0  0
  -31.4381  -12.9472   19.5211 H   0  0  0  0  0  0
  -28.6838  -13.2010   16.2858 H   0  0  0  0  0  0
  -28.5318  -14.8297   16.4512 H   0  0  0  0  0  0
  -26.7587  -12.7503   17.8649 H   0  0  0  0  0  0
  -26.4310  -14.4298   17.7991 H   0  0  0  0  0  0
  -27.1543  -14.8533   20.1645 H   0  0  0  0  0  0
  -28.7603  -12.8918   21.7286 H   0  0  0  0  0  0
  -28.5781  -14.5705   21.8899 H   0  0  0  0  0  0
  -25.2843   -9.5802   22.4829 H   0  0  0  0  0  0
  -24.0086   -7.4719   22.7520 H   0  0  0  0  0  0
  -21.1014   -8.8761   19.8879 H   0  0  0  0  0  0
  -22.3851  -10.9623   19.6090 H   0  0  0  0  0  0
  -21.2050   -7.6158   23.9718 H   0  0  0  0  0  0
  -21.1517   -6.0531   25.9084 H   0  0  0  0  0  0
  -22.0564   -2.7605   23.2852 H   0  0  0  0  0  0
  -22.3315  -11.9365   22.5332 H   0  0  0  0  0  0
  -20.9888  -13.0186   22.2992 H   0  0  0  0  0  0
  -24.1239  -15.8153   20.5617 H   0  0  0  0  0  0
  -25.7544  -15.8476   20.1147 H   0  0  0  0  0  0
  -26.7761  -32.4506   23.0557 H   0  0  0  0  0  0
  -25.0051  -33.8987   24.9743 H   0  0  0  0  0  0
  -22.9088  -31.1951   21.2766 H   0  0  0  0  0  0
  -23.3800  -35.9335   23.3228 H   0  0  0  0  0  0
  -24.3559  -36.8833   22.2095 H   0  0  0  0  0  0
  -23.7235  -37.6161   23.6843 H   0  0  0  0  0  0
  -26.4184  -31.0117   20.6454 H   0  0  0  0  0  0
  -26.9896  -30.3667   22.1241 H   0  0  0  0  0  0
  -28.1132  -27.8731   21.3240 H   0  0  0  0  0  0
  -25.6140  -25.4599   18.8352 H   0  0  0  0  0  0
  -23.9890  -27.1983   18.8318 H   0  0  0  0  0  0
  -24.0378  -30.3758   19.3672 H   0  0  0  0  0  0
  -22.9024  -29.1347   19.7877 H   0  0  0  0  0  0
  -25.1404  -36.1434   25.0732 H   0  0  0  0  0  0
  -21.0052  -28.3479   24.1219 H   0  0  0  0  0  0
  -20.5642  -26.2441   23.3700 H   0  0  0  0  0  0
  -21.6667  -26.7333   22.1253 H   0  0  0  0  0  0
  -19.6959  -25.6240   21.1317 H   0  0  0  0  0  0
  -19.6778  -27.3109   20.6703 H   0  0  0  0  0  0
  -17.4249  -26.6673   21.4000 H   0  0  0  0  0  0
  -18.0359  -26.0132   22.9023 H   0  0  0  0  0  0
  -19.8004  -30.7352   24.2126 H   0  0  0  0  0  0
  -17.5077  -31.6287   24.5161 H   0  0  0  0  0  0
  -15.5402  -30.2978   23.7762 H   0  0  0  0  0  0
  -15.8709  -28.0814   22.7166 H   0  0  0  0  0  0
  -24.5876  -30.7153   25.7518 H   0  0  0  0  0  0
  -24.8765  -32.3127   26.4267 H   0  0  0  0  0  0
  -25.7728  -30.9278   27.0208 H   0  0  0  0  0  0
  -26.3447  -29.6173   24.1966 H   0  0  0  0  0  0
  -27.4018  -29.7344   25.5762 H   0  0  0  0  0  0
  -27.9455  -30.3734   24.0508 H   0  0  0  0  0  0
  -27.2533  -33.3811   26.1692 H   0  0  0  0  0  0
  -28.4044  -32.6718   25.0467 H   0  0  0  0  0  0
  -28.0491  -31.8758   26.5713 H   0  0  0  0  0  0
  -28.2511  -38.0028   24.7521 H   0  0  0  0  0  0
  -28.1114  -36.2544   24.6289 H   0  0  0  0  0  0
  -27.2271  -37.1303   25.8865 H   0  0  0  0  0  0
  -20.9912  -29.8593   21.6324 H   0  0  0  0  0  0
  -26.0045  -38.2580   24.1431 H   0  0  0  0  0  0
  -30.1225  -16.8779   17.8242 H   0  0  0  0  0  0
  -30.4398  -11.2396   17.5414 H   0  0  0  0  0  0
  -29.3063  -20.8332   20.2702 H   0  0  0  0  0  0
  -27.7429  -20.5402   20.8895 H   0  0  0  0  0  0
  -27.4121  -18.5894   18.7075 H   0  0  0  0  0  0
  -29.0726  -18.7657   18.3793 H   0  0  0  0  0  0
  -32.1088  -17.6083   18.9346 H   0  0  0  0  0  0
  -33.3312  -16.5327   19.4696 H   0  0  0  0  0  0
  -26.6725  -22.7801   19.7387 H   0  0  0  0  0  0
  -27.9534  -22.9502   18.6201 H   0  0  0  0  0  0
  -33.1544  -15.1139   17.5476 H   0  0  0  0  0  0
  -32.0862  -11.9336   15.7335 H   0  0  0  0  0  0
  -32.4477  -13.4994   15.2389 H   0  0  0  0  0  0
  -28.7927  -10.7848   19.0031 H   0  0  0  0  0  0
  -27.8070  -11.7270   19.9817 H   0  0  0  0  0  0
  -28.0512  -16.5792   20.4051 H   0  0  0  0  0  0
  -30.3966  -16.4969   20.0697 H   0  0  0  0  0  0
  -32.1017  -17.5046   16.3553 H   0  0  0  0  0  0
  -32.9152  -16.2941   15.6396 H   0  0  0  0  0  0
  -33.6554  -17.2035   16.7631 H   0  0  0  0  0  0
  1 25  1  0  0  0
  1 30  2  0  0  0
  1 85  1  0  0  0
  2  3  1  0  0  0
  2 25  1  0  0  0
  2 87  1  0  0  0
  2 88  1  0  0  0
  3  4  1  0  0  0
  3 89  1  0  0  0
  3 90  1  0  0  0
  4  5  1  0  0  0
  4 91  1  0  0  0
  4 92  1  0  0  0
  5  6  1  0  0  0
  5 26  1  0  0  0
  5 93  1  0  0  0
  6 25  1  0  0  0
  6 94  1  0  0  0
  6 95  1  0  0  0
  7  8  2  0  0  0
  7 26  1  0  0  0
  7 29  1  0  0  0
  8  9  1  0  0  0
  8 22  1  0  0  0
  9 10  1  0  0  0
  9 27  2  0  0  0
 10 11  2  0  0  0
 10 15  1  0  0  0
 11 12  1  0  0  0
 11 96  1  0  0  0
 12 13  2  0  0  0
 12 97  1  0  0  0
 13 14  1  0  0  0
 13 31  1  0  0  0
 14 15  2  0  0  0
 14 98  1  0  0  0
 15 99  1  0  0  0
 16 17  2  0  0  0
 16 21  1  0  0  0
 16 31  1  0  0  0
 17 18  1  0  0  0
 17100  1  0  0  0
 18 19  2  0  0  0
 18101  1  0  0  0
 19 20  1  0  0  0
 19 24  1  0  0  0
 20 21  2  0  0  0
 20102  1  0  0  0
 21 23  1  0  0  0
 22 28  1  0  0  0
 22 32  2  0  0  0
 26 27  1  0  0  0
 28103  1  0  0  0
 28104  1  0  0  0
 29105  1  0  0  0
 29106  1  0  0  0
 33 34  1  0  0  0
 33 66  1  0  0  0
 33 70  2  0  0  0
 34 36  1  0  0  0
 34 59  1  0  0  0
 34107  1  0  0  0
 35 44  2  0  0  0
 35 45  1  0  0  0
 35 68  1  0  0  0
 36 56  1  0  0  0
 36108  1  0  0  0
 37 39  1  0  0  0
 37 47  1  0  0  0
 37 66  1  0  0  0
 37109  1  0  0  0
 38 43  2  0  0  0
 38 46  1  0  0  0
 38 47  1  0  0  0
 39 64  1  0  0  0
 39 67  2  0  0  0
 40 52  1  0  0  0
 40 53  2  0  0  0
 40 58  1  0  0  0
 41110  1  0  0  0
 41111  1  0  0  0
 41112  1  0  0  0
 41 48  1  0  0  0
 42 43  1  0  0  0
 42 66  1  0  0  0
 42113  1  0  0  0
 42114  1  0  0  0
 43 44  1  0  0  0
 44115  1  0  0  0
 45 46  2  0  0  0
 45116  1  0  0  0
 46117  1  0  0  0
 47118  1  0  0  0
 47119  1  0  0  0
 48 56  1  0  0  0
 48 65  1  0  0  0
 48120  1  0  0  0
 49 50  1  0  0  0
 49 53  1  0  0  0
 49 64  1  0  0  0
 49121  1  0  0  0
 50 51  1  0  0  0
 50122  1  0  0  0
 50123  1  0  0  0
 51 52  1  0  0  0
 51124  1  0  0  0
 51125  1  0  0  0
 52126  1  0  0  0
 52127  1  0  0  0
 53 54  1  0  0  0
 54 55  2  0  0  0
 54128  1  0  0  0
 55 57  1  0  0  0
 55129  1  0  0  0
 56 69  2  0  0  0
 57 58  2  0  0  0
 57130  1  0  0  0
 58131  1  0  0  0
 59 60  1  0  0  0
 59 61  1  0  0  0
 59 62  1  0  0  0
 60132  1  0  0  0
 60133  1  0  0  0
 60134  1  0  0  0
 61135  1  0  0  0
 61136  1  0  0  0
 61137  1  0  0  0
 62138  1  0  0  0
 62139  1  0  0  0
 62140  1  0  0  0
 63 65  1  0  0  0
 63141  1  0  0  0
 63142  1  0  0  0
 63143  1  0  0  0
 64144  1  0  0  0
 65145  1  0  0  0
 68 80  1  0  0  0
 71 73  2  0  0  0
 71 74  1  0  0  0
 71146  1  0  0  0
 72 75  2  0  0  0
 72 76  1  0  0  0
 72147  1  0  0  0
 73 75  1  0  0  0
 73 81  1  0  0  0
 74 76  2  0  0  0
 74 84  1  0  0  0
 75 82  1  0  0  0
 76 83  1  0  0  0
 77 78  1  0  0  0
 77 80  1  0  0  0
 77148  1  0  0  0
 77149  1  0  0  0
 78 84  1  0  0  0
 78150  1  0  0  0
 78151  1  0  0  0
 79 81  1  0  0  0
 79 85  1  0  0  0
 79152  1  0  0  0
 79153  1  0  0  0
 80154  1  0  0  0
 80155  1  0  0  0
 81 86  1  0  0  0
 81156  1  0  0  0
 82157  1  0  0  0
 82158  1  0  0  0
 83159  1  0  0  0
 83160  1  0  0  0
 84161  1  0  0  0
 85162  1  0  0  0
 86163  1  0  0  0
 86164  1  0  0  0
 86165  1  0  0  0
M  CHG  1  86   1
M  ISO  4   1 100  68 101  80 101  85 100
M  END
> <chiral flag>
0

> <version>
0

> <s_m_source_file>
/data/baiqing/PycharmProjects/Reinvent-master-3.2/result/LINK_invent/BTK/process_docking_weight1_custom_product_contain_oxygen_bond_distance_aromatic_linkinvent_7_9_3/rearranged_h_0099.sdf

> <i_m_source_file_index>
32

> <r_mmod_Potential_Energy-OPLS-2005>
14442.8291015625

> <r_mmod_Stretch_Energy-OPLS-2005>
8157.904296875

> <r_mmod_Bend_Energy-OPLS-2005>
1543.22412109375

> <r_mmod_Torsional_Energy-OPLS-2005>
421.871795654297

> <r_mmod_Improper_Torsional_Energy-OPLS-2005>
69.8065338134766

> <r_mmod_Van_der_Waal_Energy-OPLS-2005>
2910.15380859375

> <r_mmod_Electrostatic_Energy-OPLS-2005>
-503.943756103516

> <r_mmod_Solvation_Energy-OPLS-2005>
-520.822021484375

> <b_mmod_Minimization_Converged-OPLS-2005>
0

> <r_mmod_RMS_Derivative-OPLS-2005>
3.1137068271637

$$$$
32
                    3D
 Structure written by MMmdl.
154162  0  0  1  0            999 V2000
  -30.7504  -14.4424   20.6531 C   0  0  0  0  0  0
  -30.4158  -12.3243   19.4160 C   0  0  0  0  0  0
  -29.4891  -12.5254   18.2028 C   0  0  0  0  0  0
  -28.0133  -12.3756   18.6163 C   0  0  0  0  0  0
  -27.6601  -13.2132   19.8739 C   0  0  2  0  0  0
  -28.6999  -13.0004   20.9969 C   0  0  0  0  0  0
  -25.2523  -13.8156   20.5607 C   0  0  0  0  0  0
  -24.1814  -13.0433   20.9187 C   0  0  0  0  0  0
  -24.6392  -11.6903   20.8753 C   0  0  0  0  0  0
  -23.9067  -10.4293   21.0409 C   0  0  0  0  0  0
  -24.3617   -9.4205   21.9184 C   0  0  0  0  0  0
  -23.6288   -8.2242   22.0762 C   0  0  0  0  0  0
  -22.4271   -8.0282   21.3549 C   0  0  0  0  0  0
  -21.9906   -9.0259   20.4654 C   0  0  0  0  0  0
  -22.7239  -10.2134   20.3058 C   0  0  0  0  0  0
  -21.6847   -6.0730   22.5279 C   0  0  0  0  0  0
  -21.4013   -6.5635   23.8214 C   0  0  0  0  0  0
  -21.3658   -5.6789   24.9175 C   0  0  0  0  0  0
  -21.6039   -4.3054   24.7224 C   0  0  0  0  0  0
  -21.8820   -3.8141   23.4349 C   0  0  0  0  0  0
  -21.9196   -4.6956   22.3402 C   0  0  0  0  0  0
  -22.7834  -13.5225   21.1850 C   0  0  0  0  0  0
  -22.1661   -4.2144   21.0978 F   0  0  0  0  0  0
  -21.5628   -3.4536   25.7739 F   0  0  0  0  0  0
  -30.0353  -13.2986   20.4546 N   0  0  0  0  0  0
  -26.3005  -12.9359   20.3342 N   0  0  0  0  0  0
  -25.9323  -11.6513   20.5770 N   0  0  0  0  0  0
  -22.0467  -12.8230   22.0406 N   0  0  0  0  0  0
  -25.4138  -15.1854   20.3835 N   0  0  0  0  0  0
  -31.8015  -14.6813   20.0535 O   0  0  0  0  0  0
  -21.6638   -6.8875   21.4242 O   0  0  0  0  0  0
  -22.3513  -14.5522   20.6690 O   0  0  0  0  0  0
  -24.6155  -31.8672   23.2079 C   0  0  0  0  0  0
  -25.9039  -32.4817   23.8376 C   0  0  1  0  0  0
  -27.2335  -27.4283   20.1030 C   0  0  0  0  0  0
  -25.5890  -33.8617   24.2300 N   0  0  0  0  0  0
  -23.4039  -30.4912   21.5481 C   0  0  2  0  0  0
  -24.8519  -28.9524   20.1159 C   0  0  0  0  0  0
  -22.7420  -29.4669   22.4986 C   0  0  0  0  0  0
  -18.0284  -28.1384   22.8498 C   0  0  0  0  0  0
  -24.1488  -36.7318   23.2642 C   0  0  0  0  0  0
  -25.9331  -30.8329   21.3596 C   0  0  0  0  0  0
  -26.0128  -29.4651   20.7108 C   0  0  0  0  0  0
  -27.2100  -28.7107   20.7001 C   0  0  0  0  0  0
  -26.0603  -26.9289   19.5042 C   0  0  0  0  0  0
  -24.8706  -27.6836   19.5082 C   0  0  0  0  0  0
  -23.6129  -29.8200   20.1634 C   0  0  0  0  0  0
  -25.4110  -36.3109   24.0333 C   0  0  1  0  0  0
  -20.5877  -28.3672   23.1318 C   0  0  2  0  0  0
  -20.6779  -26.9410   22.5421 C   0  0  0  0  0  0
  -19.5749  -26.6402   21.5220 C   0  0  0  0  0  0
  -18.1925  -26.7934   22.1629 C   0  0  0  0  0  0
  -19.1535  -28.8843   23.2908 C   0  0  0  0  0  0
  -18.9461  -30.1455   23.8912 C   0  0  0  0  0  0
  -17.6463  -30.6588   24.0574 C   0  0  0  0  0  0
  -25.9036  -34.9478   23.5115 C   0  0  0  0  0  0
  -16.5352  -29.9092   23.6332 C   0  0  0  0  0  0
  -16.7274  -28.6511   23.0342 C   0  0  0  0  0  0
  -26.4462  -31.6607   25.0716 C   0  0  0  0  0  0
  -25.3727  -31.3729   26.1469 C   0  0  0  0  0  0
  -27.0274  -30.3045   24.6082 C   0  0  0  0  0  0
  -27.6034  -32.4331   25.7472 C   0  0  0  0  0  0
  -27.5578  -37.1816   24.8468 C   0  0  0  0  0  0
  -21.4149  -29.3034   22.3719 N   0  0  0  0  0  0
  -26.4293  -37.3798   23.9410 N   0  0  0  0  0  0
  -24.6694  -31.0782   22.0972 N   0  0  0  0  0  0
  -23.4196  -28.8228   23.3039 O   0  0  0  0  0  0
  -28.3763  -26.6588   20.0952 O   0  0  0  0  0  0
  -26.5614  -34.8929   22.4688 O   0  0  0  0  0  0
  -23.5346  -32.1409   23.7484 O   0  0  0  0  0  0
  -30.0917  -19.0019   21.4397 C   0  0  0  0  0  0
  -30.6357  -17.6941   21.4436 C   0  0  0  0  0  0
  -28.3999  -16.7575   21.4424 C   0  0  0  0  0  0
  -28.6901  -19.2109   21.4689 C   0  0  0  0  0  0
  -29.7955  -16.5559   21.4584 C   0  0  0  0  0  0
  -27.8517  -18.0628   21.4439 C   0  0  0  0  0  0
  -28.1103  -20.5970   21.6973 C   0  0  0  0  0  0
  -28.5479  -24.1564   20.4530 C   0  0  0  0  0  0
  -28.4643  -23.0637   21.5562 C   0  0  0  0  0  0
  -28.3758  -25.5827   21.0521 C   0  0  0  0  0  0
  -30.3531  -15.2524   21.6511 N   0  0  0  0  0  0
  -28.7141  -21.6664   21.1320 N   0  0  0  0  0  0
  -27.1231  -20.7319   22.4256 O   0  0  0  0  0  0
  -26.5023  -18.1885   21.4608 F   0  0  0  0  0  0
  -31.4594  -12.4208   19.1119 H   0  0  0  0  0  0
  -30.3170  -11.3098   19.8065 H   0  0  0  0  0  0
  -29.7340  -11.8072   17.4192 H   0  0  0  0  0  0
  -29.6551  -13.5150   17.7731 H   0  0  0  0  0  0
  -27.8280  -11.3183   18.8089 H   0  0  0  0  0  0
  -27.3616  -12.6513   17.7867 H   0  0  0  0  0  0
  -27.7039  -14.2616   19.5785 H   0  0  0  0  0  0
  -28.6729  -11.9677   21.3470 H   0  0  0  0  0  0
  -28.4509  -13.6100   21.8654 H   0  0  0  0  0  0
  -25.2765   -9.5676   22.4754 H   0  0  0  0  0  0
  -24.0001   -7.4628   22.7474 H   0  0  0  0  0  0
  -21.0842   -8.8775   19.8954 H   0  0  0  0  0  0
  -22.3701  -10.9675   19.6165 H   0  0  0  0  0  0
  -21.2000   -7.6142   23.9716 H   0  0  0  0  0  0
  -21.1481   -6.0517   25.9078 H   0  0  0  0  0  0
  -22.0602   -2.7605   23.2851 H   0  0  0  0  0  0
  -22.4101  -11.9922   22.4849 H   0  0  0  0  0  0
  -21.1088  -13.1270   22.2615 H   0  0  0  0  0  0
  -24.6428  -15.8351   20.4903 H   0  0  0  0  0  0
  -26.2473  -15.6237   20.0161 H   0  0  0  0  0  0
  -26.7114  -32.5523   23.1144 H   0  0  0  0  0  0
  -25.0040  -33.9770   25.0442 H   0  0  0  0  0  0
  -22.6952  -31.3095   21.4066 H   0  0  0  0  0  0
  -23.3734  -35.9666   23.3320 H   0  0  0  0  0  0
  -24.3589  -36.8927   22.2055 H   0  0  0  0  0  0
  -23.7254  -37.6535   23.6647 H   0  0  0  0  0  0
  -26.0461  -31.5986   20.5897 H   0  0  0  0  0  0
  -26.8215  -30.8895   21.9764 H   0  0  0  0  0  0
  -28.1069  -29.1017   21.1610 H   0  0  0  0  0  0
  -26.0689  -25.9538   19.0378 H   0  0  0  0  0  0
  -23.9785  -27.2835   19.0457 H   0  0  0  0  0  0
  -23.7231  -30.5939   19.4031 H   0  0  0  0  0  0
  -22.7354  -29.2434   19.8648 H   0  0  0  0  0  0
  -25.1287  -36.1969   25.0826 H   0  0  0  0  0  0
  -20.9976  -28.3237   24.1437 H   0  0  0  0  0  0
  -20.5706  -26.2272   23.3602 H   0  0  0  0  0  0
  -21.6639  -26.7471   22.1190 H   0  0  0  0  0  0
  -19.6908  -25.6324   21.1225 H   0  0  0  0  0  0
  -19.6676  -27.3234   20.6762 H   0  0  0  0  0  0
  -17.4202  -26.6708   21.4024 H   0  0  0  0  0  0
  -18.0305  -26.0068   22.9011 H   0  0  0  0  0  0
  -19.7938  -30.7274   24.2271 H   0  0  0  0  0  0
  -17.5015  -31.6261   24.5186 H   0  0  0  0  0  0
  -15.5350  -30.2994   23.7642 H   0  0  0  0  0  0
  -15.8679  -28.0841   22.7024 H   0  0  0  0  0  0
  -24.5873  -30.7105   25.7804 H   0  0  0  0  0  0
  -24.8946  -32.2899   26.4929 H   0  0  0  0  0  0
  -25.8076  -30.8879   27.0216 H   0  0  0  0  0  0
  -26.2801  -29.6841   24.1114 H   0  0  0  0  0  0
  -27.4025  -29.7254   25.4529 H   0  0  0  0  0  0
  -27.8648  -30.4365   23.9228 H   0  0  0  0  0  0
  -27.2638  -33.3619   26.2071 H   0  0  0  0  0  0
  -28.3817  -32.6930   25.0288 H   0  0  0  0  0  0
  -28.0719  -31.8452   26.5375 H   0  0  0  0  0  0
  -28.2607  -38.0103   24.7502 H   0  0  0  0  0  0
  -28.1062  -36.2637   24.6295 H   0  0  0  0  0  0
  -27.2305  -37.1471   25.8876 H   0  0  0  0  0  0
  -20.9309  -29.8743   21.6929 H   0  0  0  0  0  0
  -26.0179  -38.2876   24.1405 H   0  0  0  0  0  0
  -30.7643  -19.8466   21.4829 H   0  0  0  0  0  0
  -31.7104  -17.5721   21.4757 H   0  0  0  0  0  0
  -27.7339  -15.9110   21.4984 H   0  0  0  0  0  0
  -27.7765  -23.9794   19.7043 H   0  0  0  0  0  0
  -29.5039  -24.0956   19.9327 H   0  0  0  0  0  0
  -27.4854  -23.1484   22.0304 H   0  0  0  0  0  0
  -29.1875  -23.2931   22.3402 H   0  0  0  0  0  0
  -29.1982  -25.7731   21.7436 H   0  0  0  0  0  0
  -27.4728  -25.6074   21.6650 H   0  0  0  0  0  0
  -31.1295  -15.3143   22.2930 H   0  0  0  0  0  0
  -29.5026  -21.4884   20.5254 H   0  0  0  0  0  0
  1 25  1  0  0  0
  1 30  2  0  0  0
  1 81  1  0  0  0
  2  3  1  0  0  0
  2 25  1  0  0  0
  2 85  1  0  0  0
  2 86  1  0  0  0
  3  4  1  0  0  0
  3 87  1  0  0  0
  3 88  1  0  0  0
  4  5  1  0  0  0
  4 89  1  0  0  0
  4 90  1  0  0  0
  5  6  1  0  0  0
  5 26  1  0  0  0
  5 91  1  0  0  0
  6 25  1  0  0  0
  6 92  1  0  0  0
  6 93  1  0  0  0
  7  8  2  0  0  0
  7 26  1  0  0  0
  7 29  1  0  0  0
  8  9  1  0  0  0
  8 22  1  0  0  0
  9 10  1  0  0  0
  9 27  2  0  0  0
 10 11  2  0  0  0
 10 15  1  0  0  0
 11 12  1  0  0  0
 11 94  1  0  0  0
 12 13  2  0  0  0
 12 95  1  0  0  0
 13 14  1  0  0  0
 13 31  1  0  0  0
 14 15  2  0  0  0
 14 96  1  0  0  0
 15 97  1  0  0  0
 16 17  2  0  0  0
 16 21  1  0  0  0
 16 31  1  0  0  0
 17 18  1  0  0  0
 17 98  1  0  0  0
 18 19  2  0  0  0
 18 99  1  0  0  0
 19 20  1  0  0  0
 19 24  1  0  0  0
 20 21  2  0  0  0
 20100  1  0  0  0
 21 23  1  0  0  0
 22 28  1  0  0  0
 22 32  2  0  0  0
 26 27  1  0  0  0
 28101  1  0  0  0
 28102  1  0  0  0
 29103  1  0  0  0
 29104  1  0  0  0
 33 34  1  0  0  0
 33 66  1  0  0  0
 33 70  2  0  0  0
 34 36  1  0  0  0
 34 59  1  0  0  0
 34105  1  0  0  0
 35 44  2  0  0  0
 35 45  1  0  0  0
 35 68  1  0  0  0
 36 56  1  0  0  0
 36106  1  0  0  0
 37 39  1  0  0  0
 37 47  1  0  0  0
 37 66  1  0  0  0
 37107  1  0  0  0
 38 43  2  0  0  0
 38 46  1  0  0  0
 38 47  1  0  0  0
 39 64  1  0  0  0
 39 67  2  0  0  0
 40 52  1  0  0  0
 40 53  2  0  0  0
 40 58  1  0  0  0
 41108  1  0  0  0
 41109  1  0  0  0
 41110  1  0  0  0
 41 48  1  0  0  0
 42 43  1  0  0  0
 42 66  1  0  0  0
 42111  1  0  0  0
 42112  1  0  0  0
 43 44  1  0  0  0
 44113  1  0  0  0
 45 46  2  0  0  0
 45114  1  0  0  0
 46115  1  0  0  0
 47116  1  0  0  0
 47117  1  0  0  0
 48 56  1  0  0  0
 48 65  1  0  0  0
 48118  1  0  0  0
 49 50  1  0  0  0
 49 53  1  0  0  0
 49 64  1  0  0  0
 49119  1  0  0  0
 50 51  1  0  0  0
 50120  1  0  0  0
 50121  1  0  0  0
 51 52  1  0  0  0
 51122  1  0  0  0
 51123  1  0  0  0
 52124  1  0  0  0
 52125  1  0  0  0
 53 54  1  0  0  0
 54 55  2  0  0  0
 54126  1  0  0  0
 55 57  1  0  0  0
 55127  1  0  0  0
 56 69  2  0  0  0
 57 58  2  0  0  0
 57128  1  0  0  0
 58129  1  0  0  0
 59 60  1  0  0  0
 59 61  1  0  0  0
 59 62  1  0  0  0
 60130  1  0  0  0
 60131  1  0  0  0
 60132  1  0  0  0
 61133  1  0  0  0
 61134  1  0  0  0
 61135  1  0  0  0
 62136  1  0  0  0
 62137  1  0  0  0
 62138  1  0  0  0
 63 65  1  0  0  0
 63139  1  0  0  0
 63140  1  0  0  0
 63141  1  0  0  0
 64142  1  0  0  0
 65143  1  0  0  0
 68 80  1  0  0  0
 71 72  2  0  0  0
 71 74  1  0  0  0
 71144  1  0  0  0
 72 75  1  0  0  0
 72145  1  0  0  0
 73 75  2  0  0  0
 73 76  1  0  0  0
 73146  1  0  0  0
 74 76  2  0  0  0
 74 77  1  0  0  0
 75 81  1  0  0  0
 76 84  1  0  0  0
 77 82  1  0  0  0
 77 83  2  0  0  0
 78 79  1  0  0  0
 78 80  1  0  0  0
 78147  1  0  0  0
 78148  1  0  0  0
 79 82  1  0  0  0
 79149  1  0  0  0
 79150  1  0  0  0
 80151  1  0  0  0
 80152  1  0  0  0
 81153  1  0  0  0
 82154  1  0  0  0
M  ISO  4   1 100  68 101  80 101  81 100
M  END
> <chiral flag>
0

> <version>
0

> <s_m_source_file>
/data/baiqing/PycharmProjects/Reinvent-master-3.2/result/LINK_invent/BTK/process_docking_weight1_custom_product_contain_oxygen_bond_distance_aromatic_linkinvent_7_9_3/rearranged_h_0099.sdf

> <i_m_source_file_index>
33

> <r_mmod_Potential_Energy-OPLS-2005>
21.9414215087891

> <r_mmod_Stretch_Energy-OPLS-2005>
40.9112396240234

> <r_mmod_Bend_Energy-OPLS-2005>
106.40217590332

> <r_mmod_Torsional_Energy-OPLS-2005>
307.336486816406

> <r_mmod_Improper_Torsional_Energy-OPLS-2005>
10.3106174468994

> <r_mmod_Van_der_Waal_Energy-OPLS-2005>
141.815414428711

> <r_mmod_Electrostatic_Energy-OPLS-2005>
-371.860229492188

> <r_mmod_Solvation_Energy-OPLS-2005>
-224.117111206055

> <b_mmod_Minimization_Converged-OPLS-2005>
0

> <r_mmod_RMS_Derivative-OPLS-2005>
1.62689161300659

$$$$
33
                    3D
 Structure written by MMmdl.
157165  0  0  1  0            999 V2000
  -30.6603  -14.6132   20.5943 C   0  0  0  0  0  0
  -30.4390  -12.4058   19.4579 C   0  0  0  0  0  0
  -29.5109  -12.5381   18.2294 C   0  0  0  0  0  0
  -28.0318  -12.3655   18.6254 C   0  0  0  0  0  0
  -27.6571  -13.2112   19.8693 C   0  0  2  0  0  0
  -28.6903  -13.0090   20.9946 C   0  0  0  0  0  0
  -25.2571  -13.8166   20.5643 C   0  0  0  0  0  0
  -24.1831  -13.0425   20.9150 C   0  0  0  0  0  0
  -24.6405  -11.6908   20.8727 C   0  0  0  0  0  0
  -23.9081  -10.4296   21.0418 C   0  0  0  0  0  0
  -24.3644   -9.4199   21.9189 C   0  0  0  0  0  0
  -23.6314   -8.2235   22.0753 C   0  0  0  0  0  0
  -22.4290   -8.0292   21.3552 C   0  0  0  0  0  0
  -21.9933   -9.0263   20.4652 C   0  0  0  0  0  0
  -22.7262  -10.2139   20.3057 C   0  0  0  0  0  0
  -21.6851   -6.0750   22.5287 C   0  0  0  0  0  0
  -21.4016   -6.5654   23.8221 C   0  0  0  0  0  0
  -21.3653   -5.6805   24.9184 C   0  0  0  0  0  0
  -21.6041   -4.3067   24.7231 C   0  0  0  0  0  0
  -21.8821   -3.8157   23.4355 C   0  0  0  0  0  0
  -21.9195   -4.6977   22.3410 C   0  0  0  0  0  0
  -22.7864  -13.5225   21.1817 C   0  0  0  0  0  0
  -22.1658   -4.2161   21.0985 F   0  0  0  0  0  0
  -21.5624   -3.4545   25.7741 F   0  0  0  0  0  0
  -30.0157  -13.3984   20.4743 N   0  0  0  0  0  0
  -26.2994  -12.9330   20.3293 N   0  0  0  0  0  0
  -25.9317  -11.6489   20.5722 N   0  0  0  0  0  0
  -22.0526  -12.8220   22.0401 N   0  0  0  0  0  0
  -25.4292  -15.1881   20.4073 N   0  0  0  0  0  0
  -31.7443  -14.8119   20.0319 O   0  0  0  0  0  0
  -21.6642   -6.8895   21.4258 O   0  0  0  0  0  0
  -22.3539  -14.5523   20.6680 O   0  0  0  0  0  0
  -24.6266  -31.8623   23.2049 C   0  0  0  0  0  0
  -25.9111  -32.4799   23.8372 C   0  0  1  0  0  0
  -27.2053  -27.3186   20.1148 C   0  0  0  0  0  0
  -25.5925  -33.8594   24.2291 N   0  0  0  0  0  0
  -23.4210  -30.4885   21.5479 C   0  0  2  0  0  0
  -24.8644  -28.9550   20.1023 C   0  0  0  0  0  0
  -22.7487  -29.4623   22.4923 C   0  0  0  0  0  0
  -18.0298  -28.1376   22.8474 C   0  0  0  0  0  0
  -24.1482  -36.7306   23.2634 C   0  0  0  0  0  0
  -25.9638  -30.7917   21.3790 C   0  0  0  0  0  0
  -26.0342  -29.4226   20.7153 C   0  0  0  0  0  0
  -27.2099  -28.6145   20.7157 C   0  0  0  0  0  0
  -26.0265  -26.9311   19.4346 C   0  0  0  0  0  0
  -24.8630  -27.7148   19.4512 C   0  0  0  0  0  0
  -23.6327  -29.8318   20.1601 C   0  0  0  0  0  0
  -25.4107  -36.3095   24.0327 C   0  0  1  0  0  0
  -20.5893  -28.3685   23.1273 C   0  0  2  0  0  0
  -20.6782  -26.9408   22.5390 C   0  0  0  0  0  0
  -19.5755  -26.6369   21.5201 C   0  0  0  0  0  0
  -18.1935  -26.7923   22.1612 C   0  0  0  0  0  0
  -19.1546  -28.8847   23.2874 C   0  0  0  0  0  0
  -18.9468  -30.1454   23.8886 C   0  0  0  0  0  0
  -17.6462  -30.6579   24.0552 C   0  0  0  0  0  0
  -25.9048  -34.9461   23.5103 C   0  0  0  0  0  0
  -16.5352  -29.9066   23.6330 C   0  0  0  0  0  0
  -16.7282  -28.6482   23.0349 C   0  0  0  0  0  0
  -26.4491  -31.6618   25.0751 C   0  0  0  0  0  0
  -25.3714  -31.3770   26.1474 C   0  0  0  0  0  0
  -27.0332  -30.3037   24.6217 C   0  0  0  0  0  0
  -27.6062  -32.4346   25.7508 C   0  0  0  0  0  0
  -27.5577  -37.1802   24.8464 C   0  0  0  0  0  0
  -21.4198  -29.3052   22.3679 N   0  0  0  0  0  0
  -26.4292  -37.3790   23.9408 N   0  0  0  0  0  0
  -24.6895  -31.0628   22.1010 N   0  0  0  0  0  0
  -23.4208  -28.8143   23.2989 O   0  0  0  0  0  0
  -28.2795  -26.4203   20.2270 O   0  0  0  0  0  0
  -26.5608  -34.8925   22.4664 O   0  0  0  0  0  0
  -23.5426  -32.1412   23.7377 O   0  0  0  0  0  0
  -30.7074  -18.1965   21.8509 C   0  0  0  0  0  0
  -30.6394  -19.5926   21.5865 C   0  0  0  0  0  0
  -29.3780  -17.7539   19.9015 C   0  0  0  0  0  0
  -30.0765  -17.2282   21.0241 C   0  0  0  0  0  0
  -29.3038  -19.1587   19.6323 C   0  0  0  0  0  0
  -29.9182  -20.1185   20.4879 C   0  0  0  0  0  0
  -30.0269  -15.7611   21.4669 C   0  0  0  0  0  0
  -26.9934  -24.7063   21.5009 C   0  0  0  0  0  0
  -29.1810  -23.9440   20.4011 C   0  0  0  0  0  0
  -28.8444  -22.3810   20.4141 C   0  0  0  0  0  0
  -27.9638  -24.9639   20.3189 C   0  0  2  0  0  0
  -29.5425  -15.5401   22.6184 N   0  0  0  0  0  0
  -28.6473  -19.5943   18.4830 N   0  0  0  0  0  0
  -29.9877  -21.4968   20.2073 O   0  0  0  0  0  0
  -31.4778  -12.5397   19.1512 H   0  0  0  0  0  0
  -30.3903  -11.3964   19.8708 H   0  0  0  0  0  0
  -29.7830  -11.8053   17.4690 H   0  0  0  0  0  0
  -29.6510  -13.5198   17.7755 H   0  0  0  0  0  0
  -27.8621  -11.3080   18.8337 H   0  0  0  0  0  0
  -27.3852  -12.6183   17.7838 H   0  0  0  0  0  0
  -27.6938  -14.2576   19.5648 H   0  0  0  0  0  0
  -28.7082  -11.9615   21.2989 H   0  0  0  0  0  0
  -28.3756  -13.5410   21.8875 H   0  0  0  0  0  0
  -25.2807   -9.5653   22.4751 H   0  0  0  0  0  0
  -24.0022   -7.4620   22.7470 H   0  0  0  0  0  0
  -21.0858   -8.8802   19.8958 H   0  0  0  0  0  0
  -22.3750  -10.9687   19.6160 H   0  0  0  0  0  0
  -21.2019   -7.6159   23.9731 H   0  0  0  0  0  0
  -21.1462   -6.0533   25.9086 H   0  0  0  0  0  0
  -22.0606   -2.7621   23.2853 H   0  0  0  0  0  0
  -22.4166  -11.9894   22.4785 H   0  0  0  0  0  0
  -21.1147  -13.1241   22.2622 H   0  0  0  0  0  0
  -24.6711  -15.8503   20.5242 H   0  0  0  0  0  0
  -26.2968  -15.6278   20.1272 H   0  0  0  0  0  0
  -26.7182  -32.5468   23.1126 H   0  0  0  0  0  0
  -25.0109  -33.9756   25.0458 H   0  0  0  0  0  0
  -22.7169  -31.3111   21.4071 H   0  0  0  0  0  0
  -23.3744  -35.9642   23.3319 H   0  0  0  0  0  0
  -24.3570  -36.8916   22.2048 H   0  0  0  0  0  0
  -23.7232  -37.6513   23.6646 H   0  0  0  0  0  0
  -26.0957  -31.5579   20.6135 H   0  0  0  0  0  0
  -26.8449  -30.8381   22.0075 H   0  0  0  0  0  0
  -28.1012  -28.9558   21.2236 H   0  0  0  0  0  0
  -25.9596  -25.9946   18.9043 H   0  0  0  0  0  0
  -23.9721  -27.3581   18.9525 H   0  0  0  0  0  0
  -23.7473  -30.6102   19.4059 H   0  0  0  0  0  0
  -22.7539  -29.2598   19.8580 H   0  0  0  0  0  0
  -25.1277  -36.1969   25.0824 H   0  0  0  0  0  0
  -20.9991  -28.3259   24.1397 H   0  0  0  0  0  0
  -20.5683  -26.2294   23.3583 H   0  0  0  0  0  0
  -21.6650  -26.7426   22.1194 H   0  0  0  0  0  0
  -19.6906  -25.6273   21.1251 H   0  0  0  0  0  0
  -19.6696  -27.3173   20.6723 H   0  0  0  0  0  0
  -17.4201  -26.6680   21.4018 H   0  0  0  0  0  0
  -18.0335  -26.0065   22.9003 H   0  0  0  0  0  0
  -19.7944  -30.7270   24.2251 H   0  0  0  0  0  0
  -17.5023  -31.6263   24.5139 H   0  0  0  0  0  0
  -15.5353  -30.2956   23.7670 H   0  0  0  0  0  0
  -15.8689  -28.0792   22.7067 H   0  0  0  0  0  0
  -24.5847  -30.7179   25.7790 H   0  0  0  0  0  0
  -24.8945  -32.2946   26.4927 H   0  0  0  0  0  0
  -25.8003  -30.8903   27.0238 H   0  0  0  0  0  0
  -26.2916  -29.6796   24.1215 H   0  0  0  0  0  0
  -27.4003  -29.7297   25.4734 H   0  0  0  0  0  0
  -27.8802  -30.4340   23.9474 H   0  0  0  0  0  0
  -27.2693  -33.3649   26.2092 H   0  0  0  0  0  0
  -28.3854  -32.6903   25.0317 H   0  0  0  0  0  0
  -28.0751  -31.8465   26.5411 H   0  0  0  0  0  0
  -28.2593  -38.0102   24.7511 H   0  0  0  0  0  0
  -28.1064  -36.2621   24.6282 H   0  0  0  0  0  0
  -27.2292  -37.1463   25.8869 H   0  0  0  0  0  0
  -20.9368  -29.8803   21.6918 H   0  0  0  0  0  0
  -26.0178  -38.2869   24.1409 H   0  0  0  0  0  0
  -31.2504  -17.8624   22.7244 H   0  0  0  0  0  0
  -31.1616  -20.2724   22.2439 H   0  0  0  0  0  0
  -28.8693  -17.0613   19.2464 H   0  0  0  0  0  0
  -26.7156  -23.6557   21.5767 H   0  0  0  0  0  0
  -26.0509  -25.2441   21.4032 H   0  0  0  0  0  0
  -27.4317  -24.9995   22.4535 H   0  0  0  0  0  0
  -29.8317  -24.1417   19.5498 H   0  0  0  0  0  0
  -29.7740  -24.1751   21.2879 H   0  0  0  0  0  0
  -28.0944  -22.1719   19.6518 H   0  0  0  0  0  0
  -28.3842  -22.1180   21.3672 H   0  0  0  0  0  0
  -27.4653  -24.6759   19.3951 H   0  0  0  0  0  0
  -29.2251  -16.4055   23.0388 H   0  0  0  0  0  0
  -28.5382  -18.9279   17.7260 H   0  0  0  0  0  0
  -28.9078  -20.5147   18.1440 H   0  0  0  0  0  0
  1 25  1  0  0  0
  1 30  2  0  0  0
  1 77  1  0  0  0
  2  3  1  0  0  0
  2 25  1  0  0  0
  2 85  1  0  0  0
  2 86  1  0  0  0
  3  4  1  0  0  0
  3 87  1  0  0  0
  3 88  1  0  0  0
  4  5  1  0  0  0
  4 89  1  0  0  0
  4 90  1  0  0  0
  5  6  1  0  0  0
  5 26  1  0  0  0
  5 91  1  0  0  0
  6 25  1  0  0  0
  6 92  1  0  0  0
  6 93  1  0  0  0
  7  8  2  0  0  0
  7 26  1  0  0  0
  7 29  1  0  0  0
  8  9  1  0  0  0
  8 22  1  0  0  0
  9 10  1  0  0  0
  9 27  2  0  0  0
 10 11  2  0  0  0
 10 15  1  0  0  0
 11 12  1  0  0  0
 11 94  1  0  0  0
 12 13  2  0  0  0
 12 95  1  0  0  0
 13 14  1  0  0  0
 13 31  1  0  0  0
 14 15  2  0  0  0
 14 96  1  0  0  0
 15 97  1  0  0  0
 16 17  2  0  0  0
 16 21  1  0  0  0
 16 31  1  0  0  0
 17 18  1  0  0  0
 17 98  1  0  0  0
 18 19  2  0  0  0
 18 99  1  0  0  0
 19 20  1  0  0  0
 19 24  1  0  0  0
 20 21  2  0  0  0
 20100  1  0  0  0
 21 23  1  0  0  0
 22 28  1  0  0  0
 22 32  2  0  0  0
 26 27  1  0  0  0
 28101  1  0  0  0
 28102  1  0  0  0
 29103  1  0  0  0
 29104  1  0  0  0
 33 34  1  0  0  0
 33 66  1  0  0  0
 33 70  2  0  0  0
 34 36  1  0  0  0
 34 59  1  0  0  0
 34105  1  0  0  0
 35 44  2  0  0  0
 35 45  1  0  0  0
 35 68  1  0  0  0
 36 56  1  0  0  0
 36106  1  0  0  0
 37 39  1  0  0  0
 37 47  1  0  0  0
 37 66  1  0  0  0
 37107  1  0  0  0
 38 43  2  0  0  0
 38 46  1  0  0  0
 38 47  1  0  0  0
 39 64  1  0  0  0
 39 67  2  0  0  0
 40 52  1  0  0  0
 40 53  2  0  0  0
 40 58  1  0  0  0
 41108  1  0  0  0
 41109  1  0  0  0
 41110  1  0  0  0
 41 48  1  0  0  0
 42 43  1  0  0  0
 42 66  1  0  0  0
 42111  1  0  0  0
 42112  1  0  0  0
 43 44  1  0  0  0
 44113  1  0  0  0
 45 46  2  0  0  0
 45114  1  0  0  0
 46115  1  0  0  0
 47116  1  0  0  0
 47117  1  0  0  0
 48 56  1  0  0  0
 48 65  1  0  0  0
 48118  1  0  0  0
 49 50  1  0  0  0
 49 53  1  0  0  0
 49 64  1  0  0  0
 49119  1  0  0  0
 50 51  1  0  0  0
 50120  1  0  0  0
 50121  1  0  0  0
 51 52  1  0  0  0
 51122  1  0  0  0
 51123  1  0  0  0
 52124  1  0  0  0
 52125  1  0  0  0
 53 54  1  0  0  0
 54 55  2  0  0  0
 54126  1  0  0  0
 55 57  1  0  0  0
 55127  1  0  0  0
 56 69  2  0  0  0
 57 58  2  0  0  0
 57128  1  0  0  0
 58129  1  0  0  0
 59 60  1  0  0  0
 59 61  1  0  0  0
 59 62  1  0  0  0
 60130  1  0  0  0
 60131  1  0  0  0
 60132  1  0  0  0
 61133  1  0  0  0
 61134  1  0  0  0
 61135  1  0  0  0
 62136  1  0  0  0
 62137  1  0  0  0
 62138  1  0  0  0
 63 65  1  0  0  0
 63139  1  0  0  0
 63140  1  0  0  0
 63141  1  0  0  0
 64142  1  0  0  0
 65143  1  0  0  0
 68 81  1  0  0  0
 71 72  2  0  0  0
 71 74  1  0  0  0
 71144  1  0  0  0
 72 76  1  0  0  0
 72145  1  0  0  0
 73 74  2  0  0  0
 73 75  1  0  0  0
 73146  1  0  0  0
 74 77  1  0  0  0
 75 76  2  0  0  0
 75 83  1  0  0  0
 76 84  1  0  0  0
 77 82  2  0  0  0
 78147  1  0  0  0
 78148  1  0  0  0
 78149  1  0  0  0
 78 81  1  0  0  0
 79 80  1  0  0  0
 79 81  1  0  0  0
 79150  1  0  0  0
 79151  1  0  0  0
 80 84  1  0  0  0
 80152  1  0  0  0
 80153  1  0  0  0
 81154  1  0  0  0
 82155  1  0  0  0
 83156  1  0  0  0
 83157  1  0  0  0
M  ISO  4   1 100  68 101  77 100  81 101
M  END
> <chiral flag>
0

> <version>
0

> <s_m_source_file>
/data/baiqing/PycharmProjects/Reinvent-master-3.2/result/LINK_invent/BTK/process_docking_weight1_custom_product_contain_oxygen_bond_distance_aromatic_linkinvent_7_9_3/rearranged_h_0099.sdf

> <i_m_source_file_index>
34

> <r_mmod_Potential_Energy-OPLS-2005>
195.001907348633

> <r_mmod_Stretch_Energy-OPLS-2005>
87.4576110839844

> <r_mmod_Bend_Energy-OPLS-2005>
144.161117553711

> <r_mmod_Torsional_Energy-OPLS-2005>
246.104598999023

> <r_mmod_Improper_Torsional_Energy-OPLS-2005>
8.25921249389648

> <r_mmod_Van_der_Waal_Energy-OPLS-2005>
151.998870849609

> <r_mmod_Electrostatic_Energy-OPLS-2005>
-287.048492431641

> <r_mmod_Solvation_Energy-OPLS-2005>
-205.805313110352

> <b_mmod_Minimization_Converged-OPLS-2005>
0

> <r_mmod_RMS_Derivative-OPLS-2005>
2.64576625823975

$$$$
34
                    3D
 Structure written by MMmdl.
149157  0  0  1  0            999 V2000
  -30.3715  -15.4272   20.3336 C   0  0  0  0  0  0
  -30.4330  -12.9157   19.5572 C   0  0  0  0  0  0
  -29.5472  -12.6174   18.3169 C   0  0  0  0  0  0
  -28.1032  -12.3077   18.7417 C   0  0  0  0  0  0
  -27.6069  -13.2933   19.8264 C   0  0  2  0  0  0
  -28.6285  -13.5298   20.9630 C   0  0  0  0  0  0
  -25.2357  -13.8276   20.5776 C   0  0  0  0  0  0
  -24.1725  -13.0440   20.9262 C   0  0  0  0  0  0
  -24.6402  -11.6943   20.8755 C   0  0  0  0  0  0
  -23.9102  -10.4295   21.0396 C   0  0  0  0  0  0
  -24.3644   -9.4208   21.9175 C   0  0  0  0  0  0
  -23.6308   -8.2248   22.0752 C   0  0  0  0  0  0
  -22.4285   -8.0288   21.3547 C   0  0  0  0  0  0
  -21.9926   -9.0264   20.4649 C   0  0  0  0  0  0
  -22.7267  -10.2136   20.3053 C   0  0  0  0  0  0
  -21.6857   -6.0740   22.5278 C   0  0  0  0  0  0
  -21.4019   -6.5643   23.8213 C   0  0  0  0  0  0
  -21.3659   -5.6794   24.9174 C   0  0  0  0  0  0
  -21.6042   -4.3056   24.7224 C   0  0  0  0  0  0
  -21.8820   -3.8149   23.4344 C   0  0  0  0  0  0
  -21.9194   -4.6967   22.3401 C   0  0  0  0  0  0
  -22.7740  -13.5179   21.1907 C   0  0  0  0  0  0
  -22.1662   -4.2153   21.0979 F   0  0  0  0  0  0
  -21.5624   -3.4539   25.7736 F   0  0  0  0  0  0
  -29.8478  -14.0820   20.3422 N   0  0  0  0  0  0
  -26.2798  -12.9581   20.3242 N   0  0  0  0  0  0
  -25.9346  -11.6666   20.5714 N   0  0  0  0  0  0
  -22.0405  -12.8160   22.0465 N   0  0  0  0  0  0
  -25.3980  -15.2017   20.4243 N   0  0  0  0  0  0
  -31.5809  -15.4117   20.0479 O   0  0  0  0  0  0
  -21.6647   -6.8886   21.4242 O   0  0  0  0  0  0
  -22.3413  -14.5477   20.6746 O   0  0  0  0  0  0
  -24.6718  -31.8114   23.1606 C   0  0  0  0  0  0
  -25.9353  -32.4523   23.8114 C   0  0  1  0  0  0
  -27.2284  -26.8239   20.1940 C   0  0  0  0  0  0
  -25.5979  -33.8345   24.2009 N   0  0  0  0  0  0
  -23.4930  -30.4167   21.5102 C   0  0  2  0  0  0
  -24.9510  -28.7826   20.1059 C   0  0  0  0  0  0
  -22.7712  -29.4371   22.4733 C   0  0  0  0  0  0
  -18.0330  -28.1414   22.8462 C   0  0  0  0  0  0
  -24.1498  -36.7183   23.2651 C   0  0  0  0  0  0
  -26.0660  -30.5816   21.4093 C   0  0  0  0  0  0
  -26.1324  -29.1608   20.7540 C   0  0  0  0  0  0
  -27.2547  -28.2014   20.7772 C   0  0  0  0  0  0
  -26.0223  -26.6262   19.4805 C   0  0  0  0  0  0
  -24.9276  -27.5392   19.4479 C   0  0  0  0  0  0
  -23.7402  -29.7223   20.1395 C   0  0  0  0  0  0
  -25.4143  -36.2930   24.0290 C   0  0  1  0  0  0
  -20.5960  -28.3768   23.1165 C   0  0  2  0  0  0
  -20.6801  -26.9437   22.5404 C   0  0  0  0  0  0
  -19.5778  -26.6374   21.5215 C   0  0  0  0  0  0
  -18.1960  -26.7945   22.1621 C   0  0  0  0  0  0
  -19.1593  -28.8913   23.2798 C   0  0  0  0  0  0
  -18.9501  -30.1499   23.8840 C   0  0  0  0  0  0
  -17.6493  -30.6599   24.0553 C   0  0  0  0  0  0
  -25.9113  -34.9315   23.4980 C   0  0  0  0  0  0
  -16.5384  -29.9084   23.6345 C   0  0  0  0  0  0
  -16.7311  -28.6505   23.0363 C   0  0  0  0  0  0
  -26.4572  -31.6518   25.0693 C   0  0  0  0  0  0
  -25.3671  -31.3804   26.1331 C   0  0  0  0  0  0
  -27.0490  -30.2870   24.6519 C   0  0  0  0  0  0
  -27.6039  -32.4360   25.7501 C   0  0  0  0  0  0
  -27.5570  -37.1749   24.8465 C   0  0  0  0  0  0
  -21.4370  -29.3034   22.3492 N   0  0  0  0  0  0
  -26.4279  -37.3678   23.9404 N   0  0  0  0  0  0
  -24.7655  -30.9672   22.0796 N   0  0  0  0  0  0
  -23.4209  -28.7963   23.3031 O   0  0  0  0  0  0
  -28.2042  -25.6691   20.3600 O   0  0  0  0  0  0
  -26.5741  -34.8869   22.4589 O   0  0  0  0  0  0
  -23.5765  -32.1137   23.6632 O   0  0  0  0  0  0
  -29.1043  -19.7254   20.6046 C   0  0  0  0  0  0
  -30.1223  -18.5438   18.7732 C   0  0  0  0  0  0
  -29.0782  -21.1718   19.9614 C   0  0  0  0  0  0
  -29.5993  -21.0311   18.6312 C   0  0  0  0  0  0
  -29.6209  -18.3307   20.0695 C   0  0  0  0  0  0
  -30.0941  -19.7938   18.0980 C   0  0  0  0  0  0
  -28.6885  -22.8269   20.4565 C   0  0  0  0  0  0
  -28.2315  -24.1618   19.9132 C   0  0  0  0  0  0
  -29.7219  -22.2331   17.7377 C   0  0  0  0  0  0
  -28.7867  -22.3637   16.8036 N   0  0  0  0  0  0
  -29.6184  -16.7318   20.5461 N   0  0  0  0  0  0
  -30.6336  -23.0500   17.8706 O   0  0  0  0  0  0
  -30.5961  -19.7877   16.8369 F   0  0  0  0  0  0
  -31.4489  -13.1284   19.2229 H   0  0  0  0  0  0
  -30.5236  -12.0297   20.1879 H   0  0  0  0  0  0
  -29.9586  -11.7862   17.7428 H   0  0  0  0  0  0
  -29.5542  -13.4833   17.6531 H   0  0  0  0  0  0
  -28.0851  -11.2912   19.1366 H   0  0  0  0  0  0
  -27.4373  -12.3148   17.8781 H   0  0  0  0  0  0
  -27.5032  -14.2448   19.3028 H   0  0  0  0  0  0
  -28.8268  -12.6145   21.5228 H   0  0  0  0  0  0
  -28.2336  -14.2508   21.6803 H   0  0  0  0  0  0
  -25.2787   -9.5682   22.4755 H   0  0  0  0  0  0
  -24.0015   -7.4637   22.7471 H   0  0  0  0  0  0
  -21.0855   -8.8789   19.8958 H   0  0  0  0  0  0
  -22.3723  -10.9676   19.6167 H   0  0  0  0  0  0
  -21.2019   -7.6152   23.9718 H   0  0  0  0  0  0
  -21.1478   -6.0524   25.9077 H   0  0  0  0  0  0
  -22.0598   -2.7611   23.2843 H   0  0  0  0  0  0
  -22.4044  -11.9836   22.4862 H   0  0  0  0  0  0
  -21.1017  -13.1164   22.2673 H   0  0  0  0  0  0
  -24.6270  -15.8504   20.5413 H   0  0  0  0  0  0
  -26.2423  -15.6473   20.0892 H   0  0  0  0  0  0
  -26.7427  -32.5024   23.0826 H   0  0  0  0  0  0
  -25.0050  -33.9407   25.0109 H   0  0  0  0  0  0
  -22.8120  -31.2510   21.3297 H   0  0  0  0  0  0
  -23.3770  -35.9501   23.3273 H   0  0  0  0  0  0
  -24.3573  -36.8877   22.2073 H   0  0  0  0  0  0
  -23.7246  -37.6352   23.6744 H   0  0  0  0  0  0
  -26.2610  -31.3164   20.6271 H   0  0  0  0  0  0
  -26.9200  -30.6410   22.0717 H   0  0  0  0  0  0
  -28.1383  -28.4831   21.3323 H   0  0  0  0  0  0
  -25.8831  -25.6749   18.9874 H   0  0  0  0  0  0
  -24.0323  -27.2435   18.9181 H   0  0  0  0  0  0
  -23.9026  -30.4874   19.3794 H   0  0  0  0  0  0
  -22.8479  -29.1815   19.8199 H   0  0  0  0  0  0
  -25.1348  -36.1713   25.0781 H   0  0  0  0  0  0
  -21.0049  -28.3387   24.1289 H   0  0  0  0  0  0
  -20.5674  -26.2389   23.3656 H   0  0  0  0  0  0
  -21.6663  -26.7396   22.1217 H   0  0  0  0  0  0
  -19.6935  -25.6268   21.1285 H   0  0  0  0  0  0
  -19.6717  -27.3150   20.6717 H   0  0  0  0  0  0
  -17.4229  -26.6686   21.4026 H   0  0  0  0  0  0
  -18.0351  -26.0101   22.9031 H   0  0  0  0  0  0
  -19.7975  -30.7329   24.2187 H   0  0  0  0  0  0
  -17.5043  -31.6273   24.5167 H   0  0  0  0  0  0
  -15.5382  -30.2968   23.7699 H   0  0  0  0  0  0
  -15.8712  -28.0804   22.7113 H   0  0  0  0  0  0
  -24.5855  -30.7160   25.7631 H   0  0  0  0  0  0
  -24.8862  -32.3017   26.4625 H   0  0  0  0  0  0
  -25.7871  -30.9044   27.0200 H   0  0  0  0  0  0
  -26.3181  -29.6508   24.1516 H   0  0  0  0  0  0
  -27.3960  -29.7288   25.5226 H   0  0  0  0  0  0
  -27.9147  -30.4022   23.9995 H   0  0  0  0  0  0
  -27.2583  -33.3706   26.1933 H   0  0  0  0  0  0
  -28.3919  -32.6855   25.0383 H   0  0  0  0  0  0
  -28.0634  -31.8593   26.5540 H   0  0  0  0  0  0
  -28.2561  -38.0068   24.7508 H   0  0  0  0  0  0
  -28.1090  -36.2591   24.6295 H   0  0  0  0  0  0
  -27.2283  -37.1390   25.8866 H   0  0  0  0  0  0
  -20.9648  -29.8705   21.6589 H   0  0  0  0  0  0
  -26.0117  -38.2733   24.1405 H   0  0  0  0  0  0
  -28.7031  -19.6886   21.6075 H   0  0  0  0  0  0
  -30.5191  -17.6993   18.2291 H   0  0  0  0  0  0
  -28.9778  -22.9404   21.4915 H   0  0  0  0  0  0
  -27.8975  -24.1498   18.8858 H   0  0  0  0  0  0
  -28.0539  -21.6747   16.7206 H   0  0  0  0  0  0
  -28.8116  -23.1437   16.1638 H   0  0  0  0  0  0
  -28.7675  -16.5162   21.0464 H   0  0  0  0  0  0
  1 25  1  0  0  0
  1 30  2  0  0  0
  1 81  1  0  0  0
  2  3  1  0  0  0
  2 25  1  0  0  0
  2 84  1  0  0  0
  2 85  1  0  0  0
  3  4  1  0  0  0
  3 86  1  0  0  0
  3 87  1  0  0  0
  4  5  1  0  0  0
  4 88  1  0  0  0
  4 89  1  0  0  0
  5  6  1  0  0  0
  5 26  1  0  0  0
  5 90  1  0  0  0
  6 25  1  0  0  0
  6 91  1  0  0  0
  6 92  1  0  0  0
  7  8  2  0  0  0
  7 26  1  0  0  0
  7 29  1  0  0  0
  8  9  1  0  0  0
  8 22  1  0  0  0
  9 10  1  0  0  0
  9 27  2  0  0  0
 10 11  2  0  0  0
 10 15  1  0  0  0
 11 12  1  0  0  0
 11 93  1  0  0  0
 12 13  2  0  0  0
 12 94  1  0  0  0
 13 14  1  0  0  0
 13 31  1  0  0  0
 14 15  2  0  0  0
 14 95  1  0  0  0
 15 96  1  0  0  0
 16 17  2  0  0  0
 16 21  1  0  0  0
 16 31  1  0  0  0
 17 18  1  0  0  0
 17 97  1  0  0  0
 18 19  2  0  0  0
 18 98  1  0  0  0
 19 20  1  0  0  0
 19 24  1  0  0  0
 20 21  2  0  0  0
 20 99  1  0  0  0
 21 23  1  0  0  0
 22 28  1  0  0  0
 22 32  2  0  0  0
 26 27  1  0  0  0
 28100  1  0  0  0
 28101  1  0  0  0
 29102  1  0  0  0
 29103  1  0  0  0
 33 34  1  0  0  0
 33 66  1  0  0  0
 33 70  2  0  0  0
 34 36  1  0  0  0
 34 59  1  0  0  0
 34104  1  0  0  0
 35 44  2  0  0  0
 35 45  1  0  0  0
 35 68  1  0  0  0
 36 56  1  0  0  0
 36105  1  0  0  0
 37 39  1  0  0  0
 37 47  1  0  0  0
 37 66  1  0  0  0
 37106  1  0  0  0
 38 43  2  0  0  0
 38 46  1  0  0  0
 38 47  1  0  0  0
 39 64  1  0  0  0
 39 67  2  0  0  0
 40 52  1  0  0  0
 40 53  2  0  0  0
 40 58  1  0  0  0
 41107  1  0  0  0
 41108  1  0  0  0
 41109  1  0  0  0
 41 48  1  0  0  0
 42 43  1  0  0  0
 42 66  1  0  0  0
 42110  1  0  0  0
 42111  1  0  0  0
 43 44  1  0  0  0
 44112  1  0  0  0
 45 46  2  0  0  0
 45113  1  0  0  0
 46114  1  0  0  0
 47115  1  0  0  0
 47116  1  0  0  0
 48 56  1  0  0  0
 48 65  1  0  0  0
 48117  1  0  0  0
 49 50  1  0  0  0
 49 53  1  0  0  0
 49 64  1  0  0  0
 49118  1  0  0  0
 50 51  1  0  0  0
 50119  1  0  0  0
 50120  1  0  0  0
 51 52  1  0  0  0
 51121  1  0  0  0
 51122  1  0  0  0
 52123  1  0  0  0
 52124  1  0  0  0
 53 54  1  0  0  0
 54 55  2  0  0  0
 54125  1  0  0  0
 55 57  1  0  0  0
 55126  1  0  0  0
 56 69  2  0  0  0
 57 58  2  0  0  0
 57127  1  0  0  0
 58128  1  0  0  0
 59 60  1  0  0  0
 59 61  1  0  0  0
 59 62  1  0  0  0
 60129  1  0  0  0
 60130  1  0  0  0
 60131  1  0  0  0
 61132  1  0  0  0
 61133  1  0  0  0
 61134  1  0  0  0
 62135  1  0  0  0
 62136  1  0  0  0
 62137  1  0  0  0
 63 65  1  0  0  0
 63138  1  0  0  0
 63139  1  0  0  0
 63140  1  0  0  0
 64141  1  0  0  0
 65142  1  0  0  0
 68 78  1  0  0  0
 71 73  2  0  0  0
 71 75  1  0  0  0
 71143  1  0  0  0
 72 75  2  0  0  0
 72 76  1  0  0  0
 72144  1  0  0  0
 73 74  1  0  0  0
 73 77  1  0  0  0
 74 76  2  0  0  0
 74 79  1  0  0  0
 75 81  1  0  0  0
 76 83  1  0  0  0
 77 78  2  0  0  0
 77145  1  0  0  0
 78146  1  0  0  0
 79 80  1  0  0  0
 79 82  2  0  0  0
 80147  1  0  0  0
 80148  1  0  0  0
 81149  1  0  0  0
M  ISO  4   1 100  68 101  78 101  81 100
M  END
> <chiral flag>
0

> <version>
0

> <s_m_source_file>
/data/baiqing/PycharmProjects/Reinvent-master-3.2/result/LINK_invent/BTK/process_docking_weight1_custom_product_contain_oxygen_bond_distance_aromatic_linkinvent_7_9_3/rearranged_h_0099.sdf

> <i_m_source_file_index>
35

> <r_mmod_Potential_Energy-OPLS-2005>
1616.59838867188

> <r_mmod_Stretch_Energy-OPLS-2005>
741.755126953125

> <r_mmod_Bend_Energy-OPLS-2005>
451.090606689453

> <r_mmod_Torsional_Energy-OPLS-2005>
279.518646240234

> <r_mmod_Improper_Torsional_Energy-OPLS-2005>
5.52358055114746

> <r_mmod_Van_der_Waal_Energy-OPLS-2005>
131.050018310547

> <r_mmod_Electrostatic_Energy-OPLS-2005>
-382.462524414062

> <r_mmod_Solvation_Energy-OPLS-2005>
-252.026611328125

> <b_mmod_Minimization_Converged-OPLS-2005>
0

> <r_mmod_RMS_Derivative-OPLS-2005>
0.423137485980988

$$$$
35
                    3D
 Structure written by MMmdl.
154162  0  0  1  0            999 V2000
  -30.6499  -14.6852   20.2928 C   0  0  0  0  0  0
  -30.4385  -12.3746   19.4456 C   0  0  0  0  0  0
  -29.4948  -12.3387   18.2223 C   0  0  0  0  0  0
  -28.0180  -12.2644   18.6519 C   0  0  0  0  0  0
  -27.6413  -13.2149   19.8221 C   0  0  2  0  0  0
  -28.7050  -13.1928   20.9380 C   0  0  0  0  0  0
  -25.2579  -13.8141   20.5704 C   0  0  0  0  0  0
  -24.1814  -13.0438   20.9183 C   0  0  0  0  0  0
  -24.6366  -11.6899   20.8710 C   0  0  0  0  0  0
  -23.9023  -10.4279   21.0369 C   0  0  0  0  0  0
  -24.3596   -9.4202   21.9151 C   0  0  0  0  0  0
  -23.6277   -8.2242   22.0728 C   0  0  0  0  0  0
  -22.4269   -8.0259   21.3521 C   0  0  0  0  0  0
  -21.9892   -9.0217   20.4631 C   0  0  0  0  0  0
  -22.7197  -10.2105   20.3022 C   0  0  0  0  0  0
  -21.6838   -6.0712   22.5259 C   0  0  0  0  0  0
  -21.3994   -6.5621   23.8179 C   0  0  0  0  0  0
  -21.3671   -5.6787   24.9142 C   0  0  0  0  0  0
  -21.6061   -4.3042   24.7219 C   0  0  0  0  0  0
  -21.8825   -3.8126   23.4342 C   0  0  0  0  0  0
  -21.9193   -4.6934   22.3391 C   0  0  0  0  0  0
  -22.7849  -13.5250   21.1866 C   0  0  0  0  0  0
  -22.1676   -4.2121   21.0970 F   0  0  0  0  0  0
  -21.5637   -3.4528   25.7729 F   0  0  0  0  0  0
  -29.9979  -13.4813   20.3079 N   0  0  0  0  0  0
  -26.2973  -12.9337   20.3246 N   0  0  0  0  0  0
  -25.9296  -11.6490   20.5753 N   0  0  0  0  0  0
  -22.0495  -12.8193   22.0402 N   0  0  0  0  0  0
  -25.4357  -15.1863   20.4160 N   0  0  0  0  0  0
  -31.8817  -14.7241   20.3257 O   0  0  0  0  0  0
  -21.6654   -6.8840   21.4207 O   0  0  0  0  0  0
  -22.3551  -14.5606   20.6794 O   0  0  0  0  0  0
  -24.6280  -31.8602   23.2024 C   0  0  0  0  0  0
  -25.9154  -32.4766   23.8337 C   0  0  1  0  0  0
  -27.2044  -27.3172   20.0762 C   0  0  0  0  0  0
  -25.5958  -33.8563   24.2259 N   0  0  0  0  0  0
  -23.4184  -30.4888   21.5487 C   0  0  2  0  0  0
  -24.8567  -28.9515   20.1059 C   0  0  0  0  0  0
  -22.7477  -29.4615   22.4933 C   0  0  0  0  0  0
  -18.0293  -28.1361   22.8483 C   0  0  0  0  0  0
  -24.1500  -36.7293   23.2628 C   0  0  0  0  0  0
  -25.9630  -30.7838   21.3796 C   0  0  0  0  0  0
  -26.0302  -29.4151   20.7119 C   0  0  0  0  0  0
  -27.2085  -28.6081   20.6922 C   0  0  0  0  0  0
  -25.9999  -26.9169   19.4467 C   0  0  0  0  0  0
  -24.8410  -27.7051   19.4703 C   0  0  0  0  0  0
  -23.6305  -29.8341   20.1607 C   0  0  0  0  0  0
  -25.4123  -36.3065   24.0316 C   0  0  1  0  0  0
  -20.5889  -28.3667   23.1265 C   0  0  2  0  0  0
  -20.6787  -26.9388   22.5389 C   0  0  0  0  0  0
  -19.5772  -26.6373   21.5192 C   0  0  0  0  0  0
  -18.1950  -26.7908   22.1610 C   0  0  0  0  0  0
  -19.1544  -28.8839   23.2871 C   0  0  0  0  0  0
  -18.9464  -30.1444   23.8888 C   0  0  0  0  0  0
  -17.6460  -30.6569   24.0560 C   0  0  0  0  0  0
  -25.9055  -34.9435   23.5077 C   0  0  0  0  0  0
  -16.5350  -29.9062   23.6325 C   0  0  0  0  0  0
  -16.7276  -28.6476   23.0348 C   0  0  0  0  0  0
  -26.4539  -31.6575   25.0710 C   0  0  0  0  0  0
  -25.3793  -31.3716   26.1452 C   0  0  0  0  0  0
  -27.0366  -30.2981   24.6178 C   0  0  0  0  0  0
  -27.6080  -32.4306   25.7513 C   0  0  0  0  0  0
  -27.5584  -37.1806   24.8454 C   0  0  0  0  0  0
  -21.4189  -29.3025   22.3675 N   0  0  0  0  0  0
  -26.4293  -37.3777   23.9407 N   0  0  0  0  0  0
  -24.6892  -31.0587   22.0998 N   0  0  0  0  0  0
  -23.4202  -28.8131   23.2996 O   0  0  0  0  0  0
  -28.3095  -26.4493   20.0978 O   0  0  0  0  0  0
  -26.5593  -34.8908   22.4624 O   0  0  0  0  0  0
  -23.5442  -32.1399   23.7357 O   0  0  0  0  0  0
  -28.8519  -17.8176   19.0233 C   0  0  0  0  0  0
  -28.6853  -19.2258   19.1500 C   0  0  0  0  0  0
  -30.2565  -17.7623   20.9804 C   0  0  0  0  0  0
  -29.6838  -17.0491   19.8957 C   0  0  0  0  0  0
  -29.3360  -19.9465   20.1855 C   0  0  0  0  0  0
  -30.0875  -19.1721   21.1129 C   0  0  0  0  0  0
  -28.8455  -22.4357   19.6089 C   0  0  0  0  0  0
  -30.4116  -15.5990   18.0981 C   0  0  0  0  0  0
  -29.1488  -23.9194   20.0609 C   0  0  0  0  0  0
  -28.0702  -25.0312   19.7329 C   0  0  0  0  0  0
  -29.3179  -21.3979   20.3663 N   0  0  0  0  0  0
  -30.0307  -15.6653   19.5302 N   0  0  0  0  0  0
  -28.2073  -22.2497   18.5705 O   0  0  0  0  0  0
  -30.7063  -19.8105   22.1366 F   0  0  0  0  0  0
  -31.4762  -12.4923   19.1171 H   0  0  0  0  0  0
  -30.4031  -11.4352   19.9975 H   0  0  0  0  0  0
  -29.7336  -11.4651   17.6134 H   0  0  0  0  0  0
  -29.6501  -13.1806   17.5577 H   0  0  0  0  0  0
  -27.8459  -11.2329   18.9646 H   0  0  0  0  0  0
  -27.3606  -12.4282   17.7994 H   0  0  0  0  0  0
  -27.6261  -14.2208   19.3996 H   0  0  0  0  0  0
  -28.7256  -12.2263   21.4394 H   0  0  0  0  0  0
  -28.4825  -13.9391   21.7022 H   0  0  0  0  0  0
  -25.2745   -9.5703   22.4702 H   0  0  0  0  0  0
  -23.9978   -7.4642   22.7461 H   0  0  0  0  0  0
  -21.0814   -8.8708   19.8973 H   0  0  0  0  0  0
  -22.3619  -10.9616   19.6112 H   0  0  0  0  0  0
  -21.1970   -7.6121   23.9677 H   0  0  0  0  0  0
  -21.1511   -6.0512   25.9049 H   0  0  0  0  0  0
  -22.0612   -2.7600   23.2839 H   0  0  0  0  0  0
  -22.4109  -11.9821   22.4744 H   0  0  0  0  0  0
  -21.1106  -13.1196   22.2624 H   0  0  0  0  0  0
  -24.6716  -15.8376   20.5436 H   0  0  0  0  0  0
  -26.2977  -15.6298   20.1225 H   0  0  0  0  0  0
  -26.7205  -32.5427   23.1064 H   0  0  0  0  0  0
  -25.0204  -33.9721   25.0466 H   0  0  0  0  0  0
  -22.7131  -31.3115   21.4114 H   0  0  0  0  0  0
  -23.3756  -35.9631   23.3284 H   0  0  0  0  0  0
  -24.3563  -36.8917   22.2035 H   0  0  0  0  0  0
  -23.7267  -37.6500   23.6650 H   0  0  0  0  0  0
  -26.1005  -31.5564   20.6205 H   0  0  0  0  0  0
  -26.8406  -30.8184   22.0147 H   0  0  0  0  0  0
  -28.1094  -28.9552   21.1806 H   0  0  0  0  0  0
  -25.9102  -25.9783   18.9221 H   0  0  0  0  0  0
  -23.9437  -27.3480   18.9815 H   0  0  0  0  0  0
  -23.7533  -30.6147   19.4096 H   0  0  0  0  0  0
  -22.7494  -29.2682   19.8500 H   0  0  0  0  0  0
  -25.1307  -36.1911   25.0807 H   0  0  0  0  0  0
  -20.9976  -28.3244   24.1393 H   0  0  0  0  0  0
  -20.5675  -26.2275   23.3588 H   0  0  0  0  0  0
  -21.6663  -26.7419   22.1198 H   0  0  0  0  0  0
  -19.6931  -25.6290   21.1212 H   0  0  0  0  0  0
  -19.6711  -27.3202   20.6734 H   0  0  0  0  0  0
  -17.4213  -26.6656   21.4006 H   0  0  0  0  0  0
  -18.0345  -26.0032   22.8983 H   0  0  0  0  0  0
  -19.7941  -30.7263   24.2236 H   0  0  0  0  0  0
  -17.5017  -31.6245   24.5171 H   0  0  0  0  0  0
  -15.5352  -30.2961   23.7655 H   0  0  0  0  0  0
  -15.8677  -28.0800   22.7053 H   0  0  0  0  0  0
  -24.5959  -30.7065   25.7830 H   0  0  0  0  0  0
  -24.9019  -32.2875   26.4923 H   0  0  0  0  0  0
  -25.8155  -30.8896   27.0206 H   0  0  0  0  0  0
  -26.2921  -29.6737   24.1221 H   0  0  0  0  0  0
  -27.4056  -29.7244   25.4697 H   0  0  0  0  0  0
  -27.8814  -30.4241   23.9400 H   0  0  0  0  0  0
  -27.2653  -33.3584   26.2109 H   0  0  0  0  0  0
  -28.3907  -32.6887   25.0369 H   0  0  0  0  0  0
  -28.0725  -31.8415   26.5428 H   0  0  0  0  0  0
  -28.2593  -38.0118   24.7497 H   0  0  0  0  0  0
  -28.1087  -36.2629   24.6283 H   0  0  0  0  0  0
  -27.2278  -37.1465   25.8854 H   0  0  0  0  0  0
  -20.9355  -29.8806   21.6950 H   0  0  0  0  0  0
  -26.0163  -38.2846   24.1428 H   0  0  0  0  0  0
  -28.3675  -17.3324   18.1836 H   0  0  0  0  0  0
  -28.0778  -19.7409   18.4176 H   0  0  0  0  0  0
  -30.8993  -17.2570   21.6854 H   0  0  0  0  0  0
  -29.5350  -15.4765   17.4617 H   0  0  0  0  0  0
  -31.1139  -14.8011   17.8537 H   0  0  0  0  0  0
  -30.9230  -16.5106   17.7888 H   0  0  0  0  0  0
  -30.0806  -24.2032   19.5700 H   0  0  0  0  0  0
  -29.3485  -23.9285   21.1297 H   0  0  0  0  0  0
  -27.1553  -24.6913   20.2225 H   0  0  0  0  0  0
  -27.8842  -25.0047   18.6579 H   0  0  0  0  0  0
  -29.8140  -21.6930   21.1966 H   0  0  0  0  0  0
  1 25  1  0  0  0
  1 30  2  0  0  0
  1 82  1  0  0  0
  2  3  1  0  0  0
  2 25  1  0  0  0
  2 85  1  0  0  0
  2 86  1  0  0  0
  3  4  1  0  0  0
  3 87  1  0  0  0
  3 88  1  0  0  0
  4  5  1  0  0  0
  4 89  1  0  0  0
  4 90  1  0  0  0
  5  6  1  0  0  0
  5 26  1  0  0  0
  5 91  1  0  0  0
  6 25  1  0  0  0
  6 92  1  0  0  0
  6 93  1  0  0  0
  7  8  2  0  0  0
  7 26  1  0  0  0
  7 29  1  0  0  0
  8  9  1  0  0  0
  8 22  1  0  0  0
  9 10  1  0  0  0
  9 27  2  0  0  0
 10 11  2  0  0  0
 10 15  1  0  0  0
 11 12  1  0  0  0
 11 94  1  0  0  0
 12 13  2  0  0  0
 12 95  1  0  0  0
 13 14  1  0  0  0
 13 31  1  0  0  0
 14 15  2  0  0  0
 14 96  1  0  0  0
 15 97  1  0  0  0
 16 17  2  0  0  0
 16 21  1  0  0  0
 16 31  1  0  0  0
 17 18  1  0  0  0
 17 98  1  0  0  0
 18 19  2  0  0  0
 18 99  1  0  0  0
 19 20  1  0  0  0
 19 24  1  0  0  0
 20 21  2  0  0  0
 20100  1  0  0  0
 21 23  1  0  0  0
 22 28  1  0  0  0
 22 32  2  0  0  0
 26 27  1  0  0  0
 28101  1  0  0  0
 28102  1  0  0  0
 29103  1  0  0  0
 29104  1  0  0  0
 33 34  1  0  0  0
 33 66  1  0  0  0
 33 70  2  0  0  0
 34 36  1  0  0  0
 34 59  1  0  0  0
 34105  1  0  0  0
 35 44  2  0  0  0
 35 45  1  0  0  0
 35 68  1  0  0  0
 36 56  1  0  0  0
 36106  1  0  0  0
 37 39  1  0  0  0
 37 47  1  0  0  0
 37 66  1  0  0  0
 37107  1  0  0  0
 38 43  2  0  0  0
 38 46  1  0  0  0
 38 47  1  0  0  0
 39 64  1  0  0  0
 39 67  2  0  0  0
 40 52  1  0  0  0
 40 53  2  0  0  0
 40 58  1  0  0  0
 41108  1  0  0  0
 41109  1  0  0  0
 41110  1  0  0  0
 41 48  1  0  0  0
 42 43  1  0  0  0
 42 66  1  0  0  0
 42111  1  0  0  0
 42112  1  0  0  0
 43 44  1  0  0  0
 44113  1  0  0  0
 45 46  2  0  0  0
 45114  1  0  0  0
 46115  1  0  0  0
 47116  1  0  0  0
 47117  1  0  0  0
 48 56  1  0  0  0
 48 65  1  0  0  0
 48118  1  0  0  0
 49 50  1  0  0  0
 49 53  1  0  0  0
 49 64  1  0  0  0
 49119  1  0  0  0
 50 51  1  0  0  0
 50120  1  0  0  0
 50121  1  0  0  0
 51 52  1  0  0  0
 51122  1  0  0  0
 51123  1  0  0  0
 52124  1  0  0  0
 52125  1  0  0  0
 53 54  1  0  0  0
 54 55  2  0  0  0
 54126  1  0  0  0
 55 57  1  0  0  0
 55127  1  0  0  0
 56 69  2  0  0  0
 57 58  2  0  0  0
 57128  1  0  0  0
 58129  1  0  0  0
 59 60  1  0  0  0
 59 61  1  0  0  0
 59 62  1  0  0  0
 60130  1  0  0  0
 60131  1  0  0  0
 60132  1  0  0  0
 61133  1  0  0  0
 61134  1  0  0  0
 61135  1  0  0  0
 62136  1  0  0  0
 62137  1  0  0  0
 62138  1  0  0  0
 63 65  1  0  0  0
 63139  1  0  0  0
 63140  1  0  0  0
 63141  1  0  0  0
 64142  1  0  0  0
 65143  1  0  0  0
 68 80  1  0  0  0
 71 72  2  0  0  0
 71 74  1  0  0  0
 71144  1  0  0  0
 72 75  1  0  0  0
 72145  1  0  0  0
 73 74  2  0  0  0
 73 76  1  0  0  0
 73146  1  0  0  0
 74 82  1  0  0  0
 75 76  2  0  0  0
 75 81  1  0  0  0
 76 84  1  0  0  0
 77 79  1  0  0  0
 77 81  1  0  0  0
 77 83  2  0  0  0
 78 82  1  0  0  0
 78147  1  0  0  0
 78148  1  0  0  0
 78149  1  0  0  0
 79 80  1  0  0  0
 79150  1  0  0  0
 79151  1  0  0  0
 80152  1  0  0  0
 80153  1  0  0  0
 81154  1  0  0  0
M  ISO  4   1 100  68 101  80 101  82 100
M  END
> <chiral flag>
0

> <version>
0

> <s_m_source_file>
/data/baiqing/PycharmProjects/Reinvent-master-3.2/result/LINK_invent/BTK/process_docking_weight1_custom_product_contain_oxygen_bond_distance_aromatic_linkinvent_7_9_3/rearranged_h_0099.sdf

> <i_m_source_file_index>
36

> <r_mmod_Potential_Energy-OPLS-2005>
250.047164916992

> <r_mmod_Stretch_Energy-OPLS-2005>
80.8331069946289

> <r_mmod_Bend_Energy-OPLS-2005>
155.783782958984

> <r_mmod_Torsional_Energy-OPLS-2005>
315.144775390625

> <r_mmod_Improper_Torsional_Energy-OPLS-2005>
31.5312004089355

> <r_mmod_Van_der_Waal_Energy-OPLS-2005>
157.943939208984

> <r_mmod_Electrostatic_Energy-OPLS-2005>
-367.902130126953

> <r_mmod_Solvation_Energy-OPLS-2005>
-209.11572265625

> <b_mmod_Minimization_Converged-OPLS-2005>
0

> <r_mmod_RMS_Derivative-OPLS-2005>
4.66541481018066

$$$$
36
                    3D
 Structure written by MMmdl.
157165  0  0  1  0            999 V2000
  -30.5911  -14.6476   20.4988 C   0  0  0  0  0  0
  -30.4501  -12.3919   19.4563 C   0  0  0  0  0  0
  -29.5132  -12.4903   18.2298 C   0  0  0  0  0  0
  -28.0375  -12.3192   18.6495 C   0  0  0  0  0  0
  -27.6563  -13.2018   19.8671 C   0  0  2  0  0  0
  -28.7008  -13.0478   20.9963 C   0  0  0  0  0  0
  -25.2600  -13.8139   20.5675 C   0  0  0  0  0  0
  -24.1837  -13.0429   20.9177 C   0  0  0  0  0  0
  -24.6382  -11.6891   20.8763 C   0  0  0  0  0  0
  -23.9050  -10.4275   21.0422 C   0  0  0  0  0  0
  -24.3598   -9.4186   21.9194 C   0  0  0  0  0  0
  -23.6266   -8.2230   22.0758 C   0  0  0  0  0  0
  -22.4256   -8.0277   21.3547 C   0  0  0  0  0  0
  -21.9890   -9.0254   20.4656 C   0  0  0  0  0  0
  -22.7226  -10.2130   20.3067 C   0  0  0  0  0  0
  -21.6845   -6.0733   22.5280 C   0  0  0  0  0  0
  -21.4006   -6.5636   23.8214 C   0  0  0  0  0  0
  -21.3647   -5.6798   24.9180 C   0  0  0  0  0  0
  -21.6035   -4.3056   24.7229 C   0  0  0  0  0  0
  -21.8807   -3.8145   23.4350 C   0  0  0  0  0  0
  -21.9180   -4.6959   22.3410 C   0  0  0  0  0  0
  -22.7868  -13.5256   21.1839 C   0  0  0  0  0  0
  -22.1648   -4.2154   21.0983 F   0  0  0  0  0  0
  -21.5633   -3.4526   25.7729 F   0  0  0  0  0  0
  -30.0147  -13.4069   20.4351 N   0  0  0  0  0  0
  -26.3007  -12.9286   20.3335 N   0  0  0  0  0  0
  -25.9312  -11.6464   20.5792 N   0  0  0  0  0  0
  -22.0483  -12.8278   22.0397 N   0  0  0  0  0  0
  -25.4365  -15.1849   20.4078 N   0  0  0  0  0  0
  -31.7518  -14.8338   20.1222 O   0  0  0  0  0  0
  -21.6632   -6.8872   21.4242 O   0  0  0  0  0  0
  -22.3567  -14.5558   20.6658 O   0  0  0  0  0  0
  -24.6256  -31.8569   23.1995 C   0  0  0  0  0  0
  -25.9096  -32.4762   23.8331 C   0  0  1  0  0  0
  -27.2445  -27.3117   20.1119 C   0  0  0  0  0  0
  -25.5912  -33.8569   24.2246 N   0  0  0  0  0  0
  -23.4216  -30.4759   21.5417 C   0  0  2  0  0  0
  -24.8711  -28.9206   20.1135 C   0  0  0  0  0  0
  -22.7475  -29.4607   22.4942 C   0  0  0  0  0  0
  -18.0296  -28.1397   22.8492 C   0  0  0  0  0  0
  -24.1499  -36.7283   23.2640 C   0  0  0  0  0  0
  -25.9620  -30.7806   21.3762 C   0  0  0  0  0  0
  -26.0360  -29.4057   20.7192 C   0  0  0  0  0  0
  -27.2183  -28.6095   20.7113 C   0  0  0  0  0  0
  -26.0516  -26.8705   19.4937 C   0  0  0  0  0  0
  -24.8811  -27.6583   19.4949 C   0  0  0  0  0  0
  -23.6370  -29.8010   20.1593 C   0  0  0  0  0  0
  -25.4125  -36.3078   24.0323 C   0  0  1  0  0  0
  -20.5891  -28.3703   23.1290 C   0  0  2  0  0  0
  -20.6794  -26.9431   22.5411 C   0  0  0  0  0  0
  -19.5763  -26.6408   21.5220 C   0  0  0  0  0  0
  -18.1944  -26.7944   22.1630 C   0  0  0  0  0  0
  -19.1547  -28.8861   23.2890 C   0  0  0  0  0  0
  -18.9471  -30.1462   23.8908 C   0  0  0  0  0  0
  -17.6469  -30.6595   24.0570 C   0  0  0  0  0  0
  -25.9051  -34.9447   23.5083 C   0  0  0  0  0  0
  -16.5361  -29.9093   23.6347 C   0  0  0  0  0  0
  -16.7281  -28.6514   23.0367 C   0  0  0  0  0  0
  -26.4489  -31.6596   25.0717 C   0  0  0  0  0  0
  -25.3700  -31.3752   26.1430 C   0  0  0  0  0  0
  -27.0327  -30.3013   24.6182 C   0  0  0  0  0  0
  -27.6055  -32.4344   25.7464 C   0  0  0  0  0  0
  -27.5587  -37.1793   24.8456 C   0  0  0  0  0  0
  -21.4189  -29.3031   22.3668 N   0  0  0  0  0  0
  -26.4297  -37.3779   23.9408 N   0  0  0  0  0  0
  -24.6880  -31.0567   22.0954 N   0  0  0  0  0  0
  -23.4188  -28.8175   23.3047 O   0  0  0  0  0  0
  -28.4068  -26.5248   20.1709 O   0  0  0  0  0  0
  -26.5638  -34.8925   22.4662 O   0  0  0  0  0  0
  -23.5413  -32.1379   23.7305 O   0  0  0  0  0  0
  -29.9816  -19.4447   19.9567 C   0  0  0  0  0  0
  -30.2593  -18.0286   19.8765 C   0  0  0  0  0  0
  -29.6686  -17.1154   20.8160 C   0  0  0  0  0  0
  -28.4991  -19.0806   21.8073 C   0  0  0  0  0  0
  -29.0862  -20.0086   20.9096 C   0  0  0  0  0  0
  -28.7817  -17.6877   21.7582 C   0  0  0  0  0  0
  -32.1046  -18.2578   18.1882 C   0  0  0  0  0  0
  -31.1499  -17.5431   18.8082 C   0  0  0  0  0  0
  -28.5111  -23.8953   20.6349 C   0  0  0  0  0  0
  -28.5347  -25.1439   19.6406 C   0  0  0  0  0  0
  -29.0259  -22.4587   20.1330 C   0  0  0  0  0  0
  -27.5827  -19.5444   22.7533 N   0  0  0  0  0  0
  -29.7367  -15.6466   20.8765 N   0  0  0  0  0  0
  -28.7252  -21.3716   21.0654 O   0  0  0  0  0  0
  -28.1524  -16.8649   22.6369 F   0  0  0  0  0  0
  -31.4897  -12.5296   19.1549 H   0  0  0  0  0  0
  -30.3986  -11.3972   19.9025 H   0  0  0  0  0  0
  -29.7800  -11.7319   17.4922 H   0  0  0  0  0  0
  -29.6471  -13.4540   17.7369 H   0  0  0  0  0  0
  -27.8924  -11.2666   18.9018 H   0  0  0  0  0  0
  -27.3708  -12.5238   17.8112 H   0  0  0  0  0  0
  -27.6778  -14.2343   19.5185 H   0  0  0  0  0  0
  -28.7205  -12.0205   21.3617 H   0  0  0  0  0  0
  -28.4410  -13.6590   21.8621 H   0  0  0  0  0  0
  -25.2728   -9.5658   22.4786 H   0  0  0  0  0  0
  -23.9951   -7.4628   22.7489 H   0  0  0  0  0  0
  -21.0809   -8.8780   19.8980 H   0  0  0  0  0  0
  -22.3669  -10.9675   19.6191 H   0  0  0  0  0  0
  -21.1999   -7.6145   23.9709 H   0  0  0  0  0  0
  -21.1488   -6.0538   25.9086 H   0  0  0  0  0  0
  -22.0596   -2.7607   23.2856 H   0  0  0  0  0  0
  -22.4060  -11.9940   22.4827 H   0  0  0  0  0  0
  -21.1116  -13.1378   22.2585 H   0  0  0  0  0  0
  -24.6790  -15.8477   20.5249 H   0  0  0  0  0  0
  -26.2975  -15.6186   20.1010 H   0  0  0  0  0  0
  -26.7161  -32.5424   23.1077 H   0  0  0  0  0  0
  -25.0054  -33.9729   25.0379 H   0  0  0  0  0  0
  -22.7160  -31.2962   21.3943 H   0  0  0  0  0  0
  -23.3766  -35.9606   23.3285 H   0  0  0  0  0  0
  -24.3587  -36.8922   22.2057 H   0  0  0  0  0  0
  -23.7245  -37.6476   23.6674 H   0  0  0  0  0  0
  -26.0986  -31.5439   20.6089 H   0  0  0  0  0  0
  -26.8386  -30.8252   22.0114 H   0  0  0  0  0  0
  -28.1142  -28.9758   21.1936 H   0  0  0  0  0  0
  -25.9926  -25.9038   19.0195 H   0  0  0  0  0  0
  -23.9859  -27.2766   19.0232 H   0  0  0  0  0  0
  -23.7562  -30.5722   19.3973 H   0  0  0  0  0  0
  -22.7561  -29.2282   19.8610 H   0  0  0  0  0  0
  -25.1308  -36.1931   25.0813 H   0  0  0  0  0  0
  -20.9982  -28.3287   24.1413 H   0  0  0  0  0  0
  -20.5739  -26.2299   23.3604 H   0  0  0  0  0  0
  -21.6661  -26.7503   22.1175 H   0  0  0  0  0  0
  -19.6930  -25.6326   21.1245 H   0  0  0  0  0  0
  -19.6701  -27.3219   20.6754 H   0  0  0  0  0  0
  -17.4217  -26.6700   21.4034 H   0  0  0  0  0  0
  -18.0342  -26.0089   22.9024 H   0  0  0  0  0  0
  -19.7941  -30.7290   24.2281 H   0  0  0  0  0  0
  -17.5025  -31.6281   24.5162 H   0  0  0  0  0  0
  -15.5360  -30.2999   23.7681 H   0  0  0  0  0  0
  -15.8685  -28.0840   22.7085 H   0  0  0  0  0  0
  -24.5858  -30.7127   25.7741 H   0  0  0  0  0  0
  -24.8906  -32.2923   26.4861 H   0  0  0  0  0  0
  -25.7993  -30.8914   27.0202 H   0  0  0  0  0  0
  -26.2890  -29.6771   24.1205 H   0  0  0  0  0  0
  -27.4005  -29.7294   25.4708 H   0  0  0  0  0  0
  -27.8779  -30.4294   23.9414 H   0  0  0  0  0  0
  -27.2662  -33.3640   26.2044 H   0  0  0  0  0  0
  -28.3839  -32.6908   25.0260 H   0  0  0  0  0  0
  -28.0740  -31.8465   26.5365 H   0  0  0  0  0  0
  -28.2594  -38.0107   24.7546 H   0  0  0  0  0  0
  -28.1112  -36.2643   24.6241 H   0  0  0  0  0  0
  -27.2309  -37.1378   25.8861 H   0  0  0  0  0  0
  -20.9384  -29.8702   21.6816 H   0  0  0  0  0  0
  -26.0177  -38.2847   24.1435 H   0  0  0  0  0  0
  -30.4364  -20.1144   19.2430 H   0  0  0  0  0  0
  -32.6924  -17.8122   17.4001 H   0  0  0  0  0  0
  -32.3271  -19.2835   18.4459 H   0  0  0  0  0  0
  -30.9948  -16.5276   18.4752 H   0  0  0  0  0  0
  -27.4901  -23.7845   20.9996 H   0  0  0  0  0  0
  -29.1001  -24.1582   21.5139 H   0  0  0  0  0  0
  -27.8619  -24.9630   18.8048 H   0  0  0  0  0  0
  -29.5210  -25.1306   19.1757 H   0  0  0  0  0  0
  -30.1044  -22.4973   19.9718 H   0  0  0  0  0  0
  -28.5729  -22.2200   19.1709 H   0  0  0  0  0  0
  -27.1479  -20.4325   22.5336 H   0  0  0  0  0  0
  -26.9216  -18.8504   23.0901 H   0  0  0  0  0  0
  -28.9158  -15.2573   21.3175 H   0  0  0  0  0  0
  1 25  1  0  0  0
  1 30  2  0  0  0
  1 83  1  0  0  0
  2  3  1  0  0  0
  2 25  1  0  0  0
  2 86  1  0  0  0
  2 87  1  0  0  0
  3  4  1  0  0  0
  3 88  1  0  0  0
  3 89  1  0  0  0
  4  5  1  0  0  0
  4 90  1  0  0  0
  4 91  1  0  0  0
  5  6  1  0  0  0
  5 26  1  0  0  0
  5 92  1  0  0  0
  6 25  1  0  0  0
  6 93  1  0  0  0
  6 94  1  0  0  0
  7  8  2  0  0  0
  7 26  1  0  0  0
  7 29  1  0  0  0
  8  9  1  0  0  0
  8 22  1  0  0  0
  9 10  1  0  0  0
  9 27  2  0  0  0
 10 11  2  0  0  0
 10 15  1  0  0  0
 11 12  1  0  0  0
 11 95  1  0  0  0
 12 13  2  0  0  0
 12 96  1  0  0  0
 13 14  1  0  0  0
 13 31  1  0  0  0
 14 15  2  0  0  0
 14 97  1  0  0  0
 15 98  1  0  0  0
 16 17  2  0  0  0
 16 21  1  0  0  0
 16 31  1  0  0  0
 17 18  1  0  0  0
 17 99  1  0  0  0
 18 19  2  0  0  0
 18100  1  0  0  0
 19 20  1  0  0  0
 19 24  1  0  0  0
 20 21  2  0  0  0
 20101  1  0  0  0
 21 23  1  0  0  0
 22 28  1  0  0  0
 22 32  2  0  0  0
 26 27  1  0  0  0
 28102  1  0  0  0
 28103  1  0  0  0
 29104  1  0  0  0
 29105  1  0  0  0
 33 34  1  0  0  0
 33 66  1  0  0  0
 33 70  2  0  0  0
 34 36  1  0  0  0
 34 59  1  0  0  0
 34106  1  0  0  0
 35 44  2  0  0  0
 35 45  1  0  0  0
 35 68  1  0  0  0
 36 56  1  0  0  0
 36107  1  0  0  0
 37 39  1  0  0  0
 37 47  1  0  0  0
 37 66  1  0  0  0
 37108  1  0  0  0
 38 43  2  0  0  0
 38 46  1  0  0  0
 38 47  1  0  0  0
 39 64  1  0  0  0
 39 67  2  0  0  0
 40 52  1  0  0  0
 40 53  2  0  0  0
 40 58  1  0  0  0
 41109  1  0  0  0
 41110  1  0  0  0
 41111  1  0  0  0
 41 48  1  0  0  0
 42 43  1  0  0  0
 42 66  1  0  0  0
 42112  1  0  0  0
 42113  1  0  0  0
 43 44  1  0  0  0
 44114  1  0  0  0
 45 46  2  0  0  0
 45115  1  0  0  0
 46116  1  0  0  0
 47117  1  0  0  0
 47118  1  0  0  0
 48 56  1  0  0  0
 48 65  1  0  0  0
 48119  1  0  0  0
 49 50  1  0  0  0
 49 53  1  0  0  0
 49 64  1  0  0  0
 49120  1  0  0  0
 50 51  1  0  0  0
 50121  1  0  0  0
 50122  1  0  0  0
 51 52  1  0  0  0
 51123  1  0  0  0
 51124  1  0  0  0
 52125  1  0  0  0
 52126  1  0  0  0
 53 54  1  0  0  0
 54 55  2  0  0  0
 54127  1  0  0  0
 55 57  1  0  0  0
 55128  1  0  0  0
 56 69  2  0  0  0
 57 58  2  0  0  0
 57129  1  0  0  0
 58130  1  0  0  0
 59 60  1  0  0  0
 59 61  1  0  0  0
 59 62  1  0  0  0
 60131  1  0  0  0
 60132  1  0  0  0
 60133  1  0  0  0
 61134  1  0  0  0
 61135  1  0  0  0
 61136  1  0  0  0
 62137  1  0  0  0
 62138  1  0  0  0
 62139  1  0  0  0
 63 65  1  0  0  0
 63140  1  0  0  0
 63141  1  0  0  0
 63142  1  0  0  0
 64143  1  0  0  0
 65144  1  0  0  0
 68 80  1  0  0  0
 71 72  2  0  0  0
 71 75  1  0  0  0
 71145  1  0  0  0
 72 73  1  0  0  0
 72 78  1  0  0  0
 73 76  2  0  0  0
 73 83  1  0  0  0
 74 75  2  0  0  0
 74 76  1  0  0  0
 74 82  1  0  0  0
 75 84  1  0  0  0
 76 85  1  0  0  0
 77 78  2  0  0  0
 77146  1  0  0  0
 77147  1  0  0  0
 78148  1  0  0  0
 79 80  1  0  0  0
 79 81  1  0  0  0
 79149  1  0  0  0
 79150  1  0  0  0
 80151  1  0  0  0
 80152  1  0  0  0
 81 84  1  0  0  0
 81153  1  0  0  0
 81154  1  0  0  0
 82155  1  0  0  0
 82156  1  0  0  0
 83157  1  0  0  0
M  ISO  4   1 100  68 101  80 101  83 100
M  END
> <chiral flag>
0

> <version>
0

> <s_m_source_file>
/data/baiqing/PycharmProjects/Reinvent-master-3.2/result/LINK_invent/BTK/process_docking_weight1_custom_product_contain_oxygen_bond_distance_aromatic_linkinvent_7_9_3/rearranged_h_0099.sdf

> <i_m_source_file_index>
37

> <r_mmod_Potential_Energy-OPLS-2005>
86.3683929443359

> <r_mmod_Stretch_Energy-OPLS-2005>
85.6812744140625

> <r_mmod_Bend_Energy-OPLS-2005>
195.866577148438

> <r_mmod_Torsional_Energy-OPLS-2005>
222.621170043945

> <r_mmod_Improper_Torsional_Energy-OPLS-2005>
8.03697204589844

> <r_mmod_Van_der_Waal_Energy-OPLS-2005>
144.510513305664

> <r_mmod_Electrostatic_Energy-OPLS-2005>
-405.955413818359

> <r_mmod_Solvation_Energy-OPLS-2005>
-214.279388427734

> <b_mmod_Minimization_Converged-OPLS-2005>
0

> <r_mmod_RMS_Derivative-OPLS-2005>
2.81878399848938

$$$$
37
                    3D
 Structure written by MMmdl.
156164  0  0  1  0            999 V2000
  -30.7421  -14.4828   20.4896 C   0  0  0  0  0  0
  -30.4211  -12.3024   19.4295 C   0  0  0  0  0  0
  -29.4886  -12.4424   18.2088 C   0  0  0  0  0  0
  -28.0202  -12.2879   18.6523 C   0  0  0  0  0  0
  -27.6536  -13.2030   19.8522 C   0  0  2  0  0  0
  -28.7009  -13.0760   20.9825 C   0  0  0  0  0  0
  -25.2545  -13.8109   20.5682 C   0  0  0  0  0  0
  -24.1773  -13.0435   20.9196 C   0  0  0  0  0  0
  -24.6312  -11.6893   20.8739 C   0  0  0  0  0  0
  -23.9008  -10.4283   21.0419 C   0  0  0  0  0  0
  -24.3551   -9.4216   21.9220 C   0  0  0  0  0  0
  -23.6250   -8.2233   22.0753 C   0  0  0  0  0  0
  -22.4242   -8.0253   21.3538 C   0  0  0  0  0  0
  -21.9885   -9.0224   20.4647 C   0  0  0  0  0  0
  -22.7178  -10.2122   20.3093 C   0  0  0  0  0  0
  -21.6827   -6.0704   22.5273 C   0  0  0  0  0  0
  -21.4009   -6.5615   23.8212 C   0  0  0  0  0  0
  -21.3668   -5.6766   24.9184 C   0  0  0  0  0  0
  -21.6037   -4.3029   24.7235 C   0  0  0  0  0  0
  -21.8819   -3.8117   23.4364 C   0  0  0  0  0  0
  -21.9189   -4.6928   22.3414 C   0  0  0  0  0  0
  -22.7811  -13.5238   21.1861 C   0  0  0  0  0  0
  -22.1654   -4.2102   21.0994 F   0  0  0  0  0  0
  -21.5638   -3.4555   25.7759 F   0  0  0  0  0  0
  -30.0345  -13.3250   20.4108 N   0  0  0  0  0  0
  -26.2976  -12.9281   20.3298 N   0  0  0  0  0  0
  -25.9257  -11.6444   20.5785 N   0  0  0  0  0  0
  -22.0424  -12.8281   22.0408 N   0  0  0  0  0  0
  -25.4317  -15.1824   20.4073 N   0  0  0  0  0  0
  -31.9278  -14.5531   20.1556 O   0  0  0  0  0  0
  -21.6611   -6.8844   21.4231 O   0  0  0  0  0  0
  -22.3587  -14.5550   20.6667 O   0  0  0  0  0  0
  -24.6122  -31.8711   23.2101 C   0  0  0  0  0  0
  -25.9004  -32.4808   23.8417 C   0  0  1  0  0  0
  -27.2502  -27.4463   20.0862 C   0  0  0  0  0  0
  -25.5943  -33.8615   24.2404 N   0  0  0  0  0  0
  -23.4072  -30.4876   21.5465 C   0  0  2  0  0  0
  -24.8565  -28.9514   20.1183 C   0  0  0  0  0  0
  -22.7426  -29.4651   22.4958 C   0  0  0  0  0  0
  -18.0274  -28.1337   22.8493 C   0  0  0  0  0  0
  -24.1518  -36.7305   23.2615 C   0  0  0  0  0  0
  -25.9344  -30.8241   21.3794 C   0  0  0  0  0  0
  -26.0118  -29.4595   20.7289 C   0  0  0  0  0  0
  -27.2090  -28.7098   20.7169 C   0  0  0  0  0  0
  -26.0852  -26.9642   19.4475 C   0  0  0  0  0  0
  -24.8837  -27.6995   19.4801 C   0  0  0  0  0  0
  -23.6206  -29.8192   20.1656 C   0  0  0  0  0  0
  -25.4148  -36.3112   24.0331 C   0  0  1  0  0  0
  -20.5874  -28.3698   23.1279 C   0  0  2  0  0  0
  -20.6781  -26.9429   22.5373 C   0  0  0  0  0  0
  -19.5729  -26.6403   21.5188 C   0  0  0  0  0  0
  -18.1922  -26.7882   22.1631 C   0  0  0  0  0  0
  -19.1520  -28.8838   23.2885 C   0  0  0  0  0  0
  -18.9448  -30.1439   23.8910 C   0  0  0  0  0  0
  -17.6437  -30.6530   24.0601 C   0  0  0  0  0  0
  -25.9016  -34.9472   23.5148 C   0  0  0  0  0  0
  -16.5325  -29.9057   23.6306 C   0  0  0  0  0  0
  -16.7273  -28.6473   23.0340 C   0  0  0  0  0  0
  -26.4444  -31.6491   25.0701 C   0  0  0  0  0  0
  -25.3725  -31.3536   26.1448 C   0  0  0  0  0  0
  -27.0303  -30.2978   24.6024 C   0  0  0  0  0  0
  -27.6101  -32.4128   25.7415 C   0  0  0  0  0  0
  -27.5616  -37.1834   24.8468 C   0  0  0  0  0  0
  -21.4177  -29.3090   22.3741 N   0  0  0  0  0  0
  -26.4369  -37.3790   23.9380 N   0  0  0  0  0  0
  -24.6668  -31.0799   22.1006 N   0  0  0  0  0  0
  -23.4208  -28.8078   23.2884 O   0  0  0  0  0  0
  -28.4419  -26.7518   20.1128 O   0  0  0  0  0  0
  -26.5520  -34.8912   22.4673 O   0  0  0  0  0  0
  -23.5361  -32.1481   23.7514 O   0  0  0  0  0  0
  -29.2416  -19.9217   21.4284 C   0  0  0  0  0  0
  -30.8712  -20.2893   19.6693 C   0  0  0  0  0  0
  -30.0401  -18.0103   20.1106 C   0  0  0  0  0  0
  -29.2275  -18.5356   21.1550 C   0  0  0  0  0  0
  -30.0268  -20.8126   20.6711 C   0  0  0  0  0  0
  -30.8834  -18.9088   19.3953 C   0  0  0  0  0  0
  -29.9987  -16.5570   19.6828 C   0  0  0  0  0  0
  -29.6512  -23.1397   19.9888 C   0  0  0  0  0  0
  -28.2822  -17.6692   21.9744 C   0  0  0  0  0  0
  -29.6092  -24.6158   20.4104 C   0  0  0  0  0  0
  -28.4349  -25.3673   19.7522 C   0  0  0  0  0  0
  -29.9487  -22.2109   20.9230 N   0  0  0  0  0  0
  -30.0322  -15.6096   20.6437 N   0  0  0  0  0  0
  -29.9614  -16.2752   18.4785 O   0  0  0  0  0  0
  -29.3987  -22.8379   18.8183 O   0  0  0  0  0  0
  -31.7244  -18.4644   18.4300 F   0  0  0  0  0  0
  -31.4583  -12.4014   19.1029 H   0  0  0  0  0  0
  -30.3464  -11.3066   19.8691 H   0  0  0  0  0  0
  -29.7384  -11.6865   17.4606 H   0  0  0  0  0  0
  -29.6306  -13.4100   17.7247 H   0  0  0  0  0  0
  -27.8960  -11.2432   18.9414 H   0  0  0  0  0  0
  -27.3461  -12.4536   17.8099 H   0  0  0  0  0  0
  -27.6740  -14.2300   19.4793 H   0  0  0  0  0  0
  -28.6680  -12.0802   21.4288 H   0  0  0  0  0  0
  -28.4771  -13.7874   21.7790 H   0  0  0  0  0  0
  -25.2698   -9.5677   22.4820 H   0  0  0  0  0  0
  -23.9929   -7.4633   22.7497 H   0  0  0  0  0  0
  -21.0820   -8.8730   19.8982 H   0  0  0  0  0  0
  -22.3625  -10.9642   19.6194 H   0  0  0  0  0  0
  -21.1989   -7.6137   23.9689 H   0  0  0  0  0  0
  -21.1495   -6.0532   25.9077 H   0  0  0  0  0  0
  -22.0590   -2.7590   23.2888 H   0  0  0  0  0  0
  -22.4021  -11.9982   22.4854 H   0  0  0  0  0  0
  -21.1050  -13.1358   22.2526 H   0  0  0  0  0  0
  -24.6634  -15.8381   20.5085 H   0  0  0  0  0  0
  -26.2864  -15.6168   20.0825 H   0  0  0  0  0  0
  -26.7049  -32.5574   23.1170 H   0  0  0  0  0  0
  -25.0404  -33.9772   25.0783 H   0  0  0  0  0  0
  -22.6985  -31.3010   21.3808 H   0  0  0  0  0  0
  -23.3808  -35.9601   23.3295 H   0  0  0  0  0  0
  -24.3543  -36.8940   22.2010 H   0  0  0  0  0  0
  -23.7265  -37.6542   23.6586 H   0  0  0  0  0  0
  -26.0752  -31.6019   20.6215 H   0  0  0  0  0  0
  -26.8068  -30.8614   22.0182 H   0  0  0  0  0  0
  -28.1063  -29.0969   21.1846 H   0  0  0  0  0  0
  -26.0908  -26.0335   18.8950 H   0  0  0  0  0  0
  -23.9969  -27.3174   18.9934 H   0  0  0  0  0  0
  -23.7243  -30.5915   19.3995 H   0  0  0  0  0  0
  -22.7433  -29.2374   19.8795 H   0  0  0  0  0  0
  -25.1327  -36.1981   25.0828 H   0  0  0  0  0  0
  -20.9947  -28.3170   24.1401 H   0  0  0  0  0  0
  -20.5702  -26.2321   23.3558 H   0  0  0  0  0  0
  -21.6654  -26.7431   22.1156 H   0  0  0  0  0  0
  -19.6907  -25.6336   21.1177 H   0  0  0  0  0  0
  -19.6575  -27.3264   20.6729 H   0  0  0  0  0  0
  -17.4187  -26.6623   21.4017 H   0  0  0  0  0  0
  -18.0343  -26.0011   22.9018 H   0  0  0  0  0  0
  -19.7929  -30.7287   24.2235 H   0  0  0  0  0  0
  -17.4973  -31.6192   24.5229 H   0  0  0  0  0  0
  -15.5322  -30.2975   23.7590 H   0  0  0  0  0  0
  -15.8693  -28.0800   22.7031 H   0  0  0  0  0  0
  -24.5845  -30.6951   25.7724 H   0  0  0  0  0  0
  -24.8977  -32.2706   26.4963 H   0  0  0  0  0  0
  -25.8101  -30.8595   27.0158 H   0  0  0  0  0  0
  -26.2964  -29.6743   24.0923 H   0  0  0  0  0  0
  -27.4023  -29.7140   25.4446 H   0  0  0  0  0  0
  -27.8793  -30.4338   23.9335 H   0  0  0  0  0  0
  -27.2758  -33.3422   26.2034 H   0  0  0  0  0  0
  -28.3830  -32.6716   25.0129 H   0  0  0  0  0  0
  -28.0835  -31.8215   26.5293 H   0  0  0  0  0  0
  -28.2664  -38.0113   24.7531 H   0  0  0  0  0  0
  -28.1099  -36.2666   24.6293 H   0  0  0  0  0  0
  -27.2274  -37.1458   25.8855 H   0  0  0  0  0  0
  -20.9355  -29.8910   21.7029 H   0  0  0  0  0  0
  -26.0279  -38.2891   24.1388 H   0  0  0  0  0  0
  -28.5949  -20.3158   22.1960 H   0  0  0  0  0  0
  -31.4937  -20.9450   19.0741 H   0  0  0  0  0  0
  -27.6768  -17.0205   21.3395 H   0  0  0  0  0  0
  -28.8351  -17.0563   22.6868 H   0  0  0  0  0  0
  -27.5914  -18.2914   22.5416 H   0  0  0  0  0  0
  -30.5538  -25.0637   20.1130 H   0  0  0  0  0  0
  -29.5440  -24.7033   21.4964 H   0  0  0  0  0  0
  -27.5128  -24.8731   20.0744 H   0  0  0  0  0  0
  -28.5025  -25.2945   18.6664 H   0  0  0  0  0  0
  -30.0122  -22.5111   21.8875 H   0  0  0  0  0  0
  -29.9293  -15.9373   21.5903 H   0  0  0  0  0  0
  1 25  1  0  0  0
  1 30  2  0  0  0
  1 83  1  0  0  0
  2  3  1  0  0  0
  2 25  1  0  0  0
  2 87  1  0  0  0
  2 88  1  0  0  0
  3  4  1  0  0  0
  3 89  1  0  0  0
  3 90  1  0  0  0
  4  5  1  0  0  0
  4 91  1  0  0  0
  4 92  1  0  0  0
  5  6  1  0  0  0
  5 26  1  0  0  0
  5 93  1  0  0  0
  6 25  1  0  0  0
  6 94  1  0  0  0
  6 95  1  0  0  0
  7  8  2  0  0  0
  7 26  1  0  0  0
  7 29  1  0  0  0
  8  9  1  0  0  0
  8 22  1  0  0  0
  9 10  1  0  0  0
  9 27  2  0  0  0
 10 11  2  0  0  0
 10 15  1  0  0  0
 11 12  1  0  0  0
 11 96  1  0  0  0
 12 13  2  0  0  0
 12 97  1  0  0  0
 13 14  1  0  0  0
 13 31  1  0  0  0
 14 15  2  0  0  0
 14 98  1  0  0  0
 15 99  1  0  0  0
 16 17  2  0  0  0
 16 21  1  0  0  0
 16 31  1  0  0  0
 17 18  1  0  0  0
 17100  1  0  0  0
 18 19  2  0  0  0
 18101  1  0  0  0
 19 20  1  0  0  0
 19 24  1  0  0  0
 20 21  2  0  0  0
 20102  1  0  0  0
 21 23  1  0  0  0
 22 28  1  0  0  0
 22 32  2  0  0  0
 26 27  1  0  0  0
 28103  1  0  0  0
 28104  1  0  0  0
 29105  1  0  0  0
 29106  1  0  0  0
 33 34  1  0  0  0
 33 66  1  0  0  0
 33 70  2  0  0  0
 34 36  1  0  0  0
 34 59  1  0  0  0
 34107  1  0  0  0
 35 44  2  0  0  0
 35 45  1  0  0  0
 35 68  1  0  0  0
 36 56  1  0  0  0
 36108  1  0  0  0
 37 39  1  0  0  0
 37 47  1  0  0  0
 37 66  1  0  0  0
 37109  1  0  0  0
 38 43  2  0  0  0
 38 46  1  0  0  0
 38 47  1  0  0  0
 39 64  1  0  0  0
 39 67  2  0  0  0
 40 52  1  0  0  0
 40 53  2  0  0  0
 40 58  1  0  0  0
 41110  1  0  0  0
 41111  1  0  0  0
 41112  1  0  0  0
 41 48  1  0  0  0
 42 43  1  0  0  0
 42 66  1  0  0  0
 42113  1  0  0  0
 42114  1  0  0  0
 43 44  1  0  0  0
 44115  1  0  0  0
 45 46  2  0  0  0
 45116  1  0  0  0
 46117  1  0  0  0
 47118  1  0  0  0
 47119  1  0  0  0
 48 56  1  0  0  0
 48 65  1  0  0  0
 48120  1  0  0  0
 49 50  1  0  0  0
 49 53  1  0  0  0
 49 64  1  0  0  0
 49121  1  0  0  0
 50 51  1  0  0  0
 50122  1  0  0  0
 50123  1  0  0  0
 51 52  1  0  0  0
 51124  1  0  0  0
 51125  1  0  0  0
 52126  1  0  0  0
 52127  1  0  0  0
 53 54  1  0  0  0
 54 55  2  0  0  0
 54128  1  0  0  0
 55 57  1  0  0  0
 55129  1  0  0  0
 56 69  2  0  0  0
 57 58  2  0  0  0
 57130  1  0  0  0
 58131  1  0  0  0
 59 60  1  0  0  0
 59 61  1  0  0  0
 59 62  1  0  0  0
 60132  1  0  0  0
 60133  1  0  0  0
 60134  1  0  0  0
 61135  1  0  0  0
 61136  1  0  0  0
 61137  1  0  0  0
 62138  1  0  0  0
 62139  1  0  0  0
 62140  1  0  0  0
 63 65  1  0  0  0
 63141  1  0  0  0
 63142  1  0  0  0
 63143  1  0  0  0
 64144  1  0  0  0
 65145  1  0  0  0
 68 81  1  0  0  0
 71 74  2  0  0  0
 71 75  1  0  0  0
 71146  1  0  0  0
 72 75  2  0  0  0
 72 76  1  0  0  0
 72147  1  0  0  0
 73 74  1  0  0  0
 73 76  2  0  0  0
 73 77  1  0  0  0
 74 79  1  0  0  0
 75 82  1  0  0  0
 76 86  1  0  0  0
 77 83  1  0  0  0
 77 84  2  0  0  0
 78 80  1  0  0  0
 78 82  1  0  0  0
 78 85  2  0  0  0
 79148  1  0  0  0
 79149  1  0  0  0
 79150  1  0  0  0
 80 81  1  0  0  0
 80151  1  0  0  0
 80152  1  0  0  0
 81153  1  0  0  0
 81154  1  0  0  0
 82155  1  0  0  0
 83156  1  0  0  0
M  ISO  4   1 100  68 101  81 101  83 100
M  END
> <chiral flag>
0

> <version>
0

> <s_m_source_file>
/data/baiqing/PycharmProjects/Reinvent-master-3.2/result/LINK_invent/BTK/process_docking_weight1_custom_product_contain_oxygen_bond_distance_aromatic_linkinvent_7_9_3/rearranged_h_0099.sdf

> <i_m_source_file_index>
38

> <r_mmod_Potential_Energy-OPLS-2005>
11.2882394790649

> <r_mmod_Stretch_Energy-OPLS-2005>
36.5059089660645

> <r_mmod_Bend_Energy-OPLS-2005>
96.1449966430664

> <r_mmod_Torsional_Energy-OPLS-2005>
330.499603271484

> <r_mmod_Improper_Torsional_Energy-OPLS-2005>
10.0699405670166

> <r_mmod_Van_der_Waal_Energy-OPLS-2005>
165.533813476562

> <r_mmod_Electrostatic_Energy-OPLS-2005>
-407.697967529297

> <r_mmod_Solvation_Energy-OPLS-2005>
-243.403228759766

> <b_mmod_Minimization_Converged-OPLS-2005>
0

> <r_mmod_RMS_Derivative-OPLS-2005>
8.13125324249268

$$$$
38
                    3D
 Structure written by MMmdl.
165174  0  0  1  0            999 V2000
  -30.6967  -14.7088   20.3439 C   0  0  0  0  0  0
  -30.4317  -12.4129   19.4211 C   0  0  0  0  0  0
  -29.4709  -12.3633   18.2111 C   0  0  0  0  0  0
  -28.0043  -12.2683   18.6620 C   0  0  0  0  0  0
  -27.6350  -13.2268   19.8278 C   0  0  2  0  0  0
  -28.7135  -13.2278   20.9321 C   0  0  0  0  0  0
  -25.2485  -13.8156   20.5845 C   0  0  0  0  0  0
  -24.1760  -13.0396   20.9249 C   0  0  0  0  0  0
  -24.6373  -11.6894   20.8809 C   0  0  0  0  0  0
  -23.9057  -10.4277   21.0438 C   0  0  0  0  0  0
  -24.3613   -9.4187   21.9204 C   0  0  0  0  0  0
  -23.6281   -8.2230   22.0753 C   0  0  0  0  0  0
  -22.4269   -8.0273   21.3544 C   0  0  0  0  0  0
  -21.9912   -9.0243   20.4647 C   0  0  0  0  0  0
  -22.7241  -10.2121   20.3068 C   0  0  0  0  0  0
  -21.6843   -6.0732   22.5284 C   0  0  0  0  0  0
  -21.4005   -6.5636   23.8216 C   0  0  0  0  0  0
  -21.3660   -5.6786   24.9181 C   0  0  0  0  0  0
  -21.6039   -4.3046   24.7232 C   0  0  0  0  0  0
  -21.8820   -3.8142   23.4351 C   0  0  0  0  0  0
  -21.9194   -4.6962   22.3411 C   0  0  0  0  0  0
  -22.7781  -13.5186   21.1880 C   0  0  0  0  0  0
  -22.1667   -4.2151   21.0985 F   0  0  0  0  0  0
  -21.5639   -3.4531   25.7740 F   0  0  0  0  0  0
  -29.9963  -13.5264   20.2813 N   0  0  0  0  0  0
  -26.2950  -12.9414   20.3410 N   0  0  0  0  0  0
  -25.9324  -11.6555   20.5905 N   0  0  0  0  0  0
  -22.0403  -12.8179   22.0417 N   0  0  0  0  0  0
  -25.4034  -15.1884   20.4450 N   0  0  0  0  0  0
  -31.9246  -14.6840   20.4325 O   0  0  0  0  0  0
  -21.6623   -6.8878   21.4246 O   0  0  0  0  0  0
  -22.3477  -14.5505   20.6749 O   0  0  0  0  0  0
  -24.6261  -31.8615   23.2044 C   0  0  0  0  0  0
  -25.9120  -32.4783   23.8362 C   0  0  1  0  0  0
  -27.2213  -27.3243   20.1198 C   0  0  0  0  0  0
  -25.5946  -33.8582   24.2303 N   0  0  0  0  0  0
  -23.4193  -30.4861   21.5476 C   0  0  2  0  0  0
  -24.8647  -28.9434   20.1115 C   0  0  0  0  0  0
  -22.7480  -29.4638   22.4954 C   0  0  0  0  0  0
  -18.0287  -28.1386   22.8494 C   0  0  0  0  0  0
  -24.1487  -36.7289   23.2637 C   0  0  0  0  0  0
  -25.9602  -30.7945   21.3743 C   0  0  0  0  0  0
  -26.0338  -29.4230   20.7144 C   0  0  0  0  0  0
  -27.2153  -28.6257   20.7081 C   0  0  0  0  0  0
  -26.0294  -26.8999   19.4867 C   0  0  0  0  0  0
  -24.8641  -27.6871   19.4885 C   0  0  0  0  0  0
  -23.6333  -29.8228   20.1621 C   0  0  0  0  0  0
  -25.4113  -36.3090   24.0337 C   0  0  1  0  0  0
  -20.5888  -28.3696   23.1287 C   0  0  2  0  0  0
  -20.6780  -26.9418   22.5416 C   0  0  0  0  0  0
  -19.5751  -26.6384   21.5220 C   0  0  0  0  0  0
  -18.1926  -26.7932   22.1623 C   0  0  0  0  0  0
  -19.1538  -28.8859   23.2887 C   0  0  0  0  0  0
  -18.9463  -30.1459   23.8904 C   0  0  0  0  0  0
  -17.6462  -30.6591   24.0565 C   0  0  0  0  0  0
  -25.9049  -34.9456   23.5120 C   0  0  0  0  0  0
  -16.5355  -29.9087   23.6326 C   0  0  0  0  0  0
  -16.7272  -28.6503   23.0358 C   0  0  0  0  0  0
  -26.4505  -31.6579   25.0721 C   0  0  0  0  0  0
  -25.3740  -31.3728   26.1451 C   0  0  0  0  0  0
  -27.0354  -30.3005   24.6167 C   0  0  0  0  0  0
  -27.6068  -32.4313   25.7487 C   0  0  0  0  0  0
  -27.5585  -37.1802   24.8468 C   0  0  0  0  0  0
  -21.4193  -29.3048   22.3687 N   0  0  0  0  0  0
  -26.4297  -37.3782   23.9408 N   0  0  0  0  0  0
  -24.6877  -31.0636   22.0992 N   0  0  0  0  0  0
  -23.4203  -28.8185   23.3038 O   0  0  0  0  0  0
  -28.3359  -26.4738   20.1827 O   0  0  0  0  0  0
  -26.5606  -34.8925   22.4674 O   0  0  0  0  0  0
  -23.5432  -32.1419   23.7377 O   0  0  0  0  0  0
  -31.1369  -19.3422   20.7683 C   0  0  0  0  0  0
  -31.2167  -17.9485   20.4863 C   0  0  0  0  0  0
  -28.7359  -19.2372   20.7114 C   0  0  0  0  0  0
  -29.8976  -20.0382   20.8752 C   0  0  0  0  0  0
  -30.0568  -17.1549   20.2862 C   0  0  0  0  0  0
  -28.8129  -17.8356   20.4353 C   0  0  0  0  0  0
  -30.5379  -21.9276   22.2785 C   0  0  0  0  0  0
  -30.2460  -15.8458   18.3262 C   0  0  0  0  0  0
  -30.7297  -23.4323   22.5123 C   0  0  0  0  0  0
  -29.5535  -24.2999   22.0566 C   0  0  0  0  0  0
  -28.9262  -22.4403   20.4665 C   0  0  0  0  0  0
  -29.2173  -24.0102   20.5965 C   0  0  1  0  0  0
  -29.5148  -16.9231   17.5139 C   0  0  0  0  0  0
  -28.0981  -25.0146   20.0811 C   0  0  0  0  0  0
  -29.8515  -21.4815   21.1874 N   0  0  0  0  0  0
  -27.6343  -17.1287   20.2239 N   0  0  0  0  0  0
  -30.1459  -15.8094   19.6960 N   0  0  0  0  0  0
  -31.0498  -21.1693   23.1105 O   0  0  0  0  0  0
  -31.0053  -15.1268   17.6643 O   0  0  0  0  0  0
  -31.4590  -12.5418   19.0751 H   0  0  0  0  0  0
  -30.4081  -11.4747   19.9760 H   0  0  0  0  0  0
  -29.7174  -11.4999   17.5909 H   0  0  0  0  0  0
  -29.5782  -13.2194   17.5552 H   0  0  0  0  0  0
  -27.8458  -11.2354   18.9735 H   0  0  0  0  0  0
  -27.3349  -12.4280   17.8158 H   0  0  0  0  0  0
  -27.6097  -14.2292   19.4007 H   0  0  0  0  0  0
  -28.7552  -12.2649   21.4425 H   0  0  0  0  0  0
  -28.4838  -13.9820   21.6873 H   0  0  0  0  0  0
  -25.2767   -9.5647   22.4777 H   0  0  0  0  0  0
  -23.9992   -7.4605   22.7454 H   0  0  0  0  0  0
  -21.0858   -8.8750   19.8940 H   0  0  0  0  0  0
  -22.3709  -10.9656   19.6170 H   0  0  0  0  0  0
  -21.1979   -7.6143   23.9725 H   0  0  0  0  0  0
  -21.1493   -6.0515   25.9080 H   0  0  0  0  0  0
  -22.0603   -2.7603   23.2848 H   0  0  0  0  0  0
  -22.4018  -11.9865   22.4844 H   0  0  0  0  0  0
  -21.1020  -13.1222   22.2592 H   0  0  0  0  0  0
  -24.6399  -15.8126   20.6771 H   0  0  0  0  0  0
  -26.3028  -15.6653   20.4634 H   0  0  0  0  0  0
  -26.7186  -32.5467   23.1111 H   0  0  0  0  0  0
  -25.0121  -33.9717   25.0473 H   0  0  0  0  0  0
  -22.7126  -31.3070   21.4056 H   0  0  0  0  0  0
  -23.3753  -35.9617   23.3311 H   0  0  0  0  0  0
  -24.3579  -36.8896   22.2049 H   0  0  0  0  0  0
  -23.7228  -37.6494   23.6645 H   0  0  0  0  0  0
  -26.0897  -31.5601   20.6082 H   0  0  0  0  0  0
  -26.8415  -30.8427   22.0030 H   0  0  0  0  0  0
  -28.1120  -28.9865   21.1922 H   0  0  0  0  0  0
  -25.9664  -25.9401   18.9962 H   0  0  0  0  0  0
  -23.9682  -27.3139   19.0131 H   0  0  0  0  0  0
  -23.7534  -30.6014   19.4078 H   0  0  0  0  0  0
  -22.7524  -29.2548   19.8579 H   0  0  0  0  0  0
  -25.1284  -36.1954   25.0831 H   0  0  0  0  0  0
  -20.9973  -28.3275   24.1411 H   0  0  0  0  0  0
  -20.5686  -26.2306   23.3619 H   0  0  0  0  0  0
  -21.6649  -26.7458   22.1204 H   0  0  0  0  0  0
  -19.6917  -25.6296   21.1243 H   0  0  0  0  0  0
  -19.6684  -27.3205   20.6758 H   0  0  0  0  0  0
  -17.4204  -26.6701   21.4014 H   0  0  0  0  0  0
  -18.0314  -26.0063   22.9003 H   0  0  0  0  0  0
  -19.7937  -30.7273   24.2273 H   0  0  0  0  0  0
  -17.5014  -31.6267   24.5172 H   0  0  0  0  0  0
  -15.5354  -30.2990   23.7644 H   0  0  0  0  0  0
  -15.8675  -28.0818   22.7074 H   0  0  0  0  0  0
  -24.5922  -30.7061   25.7792 H   0  0  0  0  0  0
  -24.8915  -32.2899   26.4843 H   0  0  0  0  0  0
  -25.8063  -30.8938   27.0244 H   0  0  0  0  0  0
  -26.2942  -29.6740   24.1189 H   0  0  0  0  0  0
  -27.4071  -29.7266   25.4665 H   0  0  0  0  0  0
  -27.8794  -30.4295   23.9388 H   0  0  0  0  0  0
  -27.2690  -33.3624   26.2047 H   0  0  0  0  0  0
  -28.3883  -32.6853   25.0312 H   0  0  0  0  0  0
  -28.0725  -31.8443   26.5413 H   0  0  0  0  0  0
  -28.2611  -38.0092   24.7514 H   0  0  0  0  0  0
  -28.1077  -36.2626   24.6297 H   0  0  0  0  0  0
  -27.2306  -37.1460   25.8874 H   0  0  0  0  0  0
  -20.9386  -29.8751   21.6874 H   0  0  0  0  0  0
  -26.0187  -38.2863   24.1403 H   0  0  0  0  0  0
  -32.0627  -19.8867   20.8898 H   0  0  0  0  0  0
  -32.1942  -17.5049   20.3602 H   0  0  0  0  0  0
  -27.7673  -19.7086   20.7982 H   0  0  0  0  0  0
  -31.6341  -23.7319   21.9839 H   0  0  0  0  0  0
  -30.9247  -23.6095   23.5700 H   0  0  0  0  0  0
  -29.8145  -25.3521   22.1776 H   0  0  0  0  0  0
  -28.6830  -24.1230   22.6911 H   0  0  0  0  0  0
  -28.9042  -22.1704   19.4107 H   0  0  0  0  0  0
  -27.9215  -22.2451   20.8433 H   0  0  0  0  0  0
  -30.1099  -24.2198   20.0049 H   0  0  0  0  0  0
  -28.4450  -16.9169   17.7095 H   0  0  0  0  0  0
  -29.6419  -16.7406   16.4462 H   0  0  0  0  0  0
  -29.9165  -17.9154   17.7150 H   0  0  0  0  0  0
  -27.1844  -24.7694   20.6251 H   0  0  0  0  0  0
  -27.9004  -24.7812   19.0350 H   0  0  0  0  0  0
  -26.8111  -17.6956   20.0486 H   0  0  0  0  0  0
  -27.7131  -16.3813   19.5492 H   0  0  0  0  0  0
  1 25  1  0  0  0
  1 30  2  0  0  0
  1 87  1  0  0  0
  2  3  1  0  0  0
  2 25  1  0  0  0
  2 90  1  0  0  0
  2 91  1  0  0  0
  3  4  1  0  0  0
  3 92  1  0  0  0
  3 93  1  0  0  0
  4  5  1  0  0  0
  4 94  1  0  0  0
  4 95  1  0  0  0
  5  6  1  0  0  0
  5 26  1  0  0  0
  5 96  1  0  0  0
  6 25  1  0  0  0
  6 97  1  0  0  0
  6 98  1  0  0  0
  7  8  2  0  0  0
  7 26  1  0  0  0
  7 29  1  0  0  0
  8  9  1  0  0  0
  8 22  1  0  0  0
  9 10  1  0  0  0
  9 27  2  0  0  0
 10 11  2  0  0  0
 10 15  1  0  0  0
 11 12  1  0  0  0
 11 99  1  0  0  0
 12 13  2  0  0  0
 12100  1  0  0  0
 13 14  1  0  0  0
 13 31  1  0  0  0
 14 15  2  0  0  0
 14101  1  0  0  0
 15102  1  0  0  0
 16 17  2  0  0  0
 16 21  1  0  0  0
 16 31  1  0  0  0
 17 18  1  0  0  0
 17103  1  0  0  0
 18 19  2  0  0  0
 18104  1  0  0  0
 19 20  1  0  0  0
 19 24  1  0  0  0
 20 21  2  0  0  0
 20105  1  0  0  0
 21 23  1  0  0  0
 22 28  1  0  0  0
 22 32  2  0  0  0
 26 27  1  0  0  0
 28106  1  0  0  0
 28107  1  0  0  0
 29108  1  0  0  0
 29109  1  0  0  0
 33 34  1  0  0  0
 33 66  1  0  0  0
 33 70  2  0  0  0
 34 36  1  0  0  0
 34 59  1  0  0  0
 34110  1  0  0  0
 35 44  2  0  0  0
 35 45  1  0  0  0
 35 68  1  0  0  0
 36 56  1  0  0  0
 36111  1  0  0  0
 37 39  1  0  0  0
 37 47  1  0  0  0
 37 66  1  0  0  0
 37112  1  0  0  0
 38 43  2  0  0  0
 38 46  1  0  0  0
 38 47  1  0  0  0
 39 64  1  0  0  0
 39 67  2  0  0  0
 40 52  1  0  0  0
 40 53  2  0  0  0
 40 58  1  0  0  0
 41113  1  0  0  0
 41114  1  0  0  0
 41115  1  0  0  0
 41 48  1  0  0  0
 42 43  1  0  0  0
 42 66  1  0  0  0
 42116  1  0  0  0
 42117  1  0  0  0
 43 44  1  0  0  0
 44118  1  0  0  0
 45 46  2  0  0  0
 45119  1  0  0  0
 46120  1  0  0  0
 47121  1  0  0  0
 47122  1  0  0  0
 48 56  1  0  0  0
 48 65  1  0  0  0
 48123  1  0  0  0
 49 50  1  0  0  0
 49 53  1  0  0  0
 49 64  1  0  0  0
 49124  1  0  0  0
 50 51  1  0  0  0
 50125  1  0  0  0
 50126  1  0  0  0
 51 52  1  0  0  0
 51127  1  0  0  0
 51128  1  0  0  0
 52129  1  0  0  0
 52130  1  0  0  0
 53 54  1  0  0  0
 54 55  2  0  0  0
 54131  1  0  0  0
 55 57  1  0  0  0
 55132  1  0  0  0
 56 69  2  0  0  0
 57 58  2  0  0  0
 57133  1  0  0  0
 58134  1  0  0  0
 59 60  1  0  0  0
 59 61  1  0  0  0
 59 62  1  0  0  0
 60135  1  0  0  0
 60136  1  0  0  0
 60137  1  0  0  0
 61138  1  0  0  0
 61139  1  0  0  0
 61140  1  0  0  0
 62141  1  0  0  0
 62142  1  0  0  0
 62143  1  0  0  0
 63 65  1  0  0  0
 63144  1  0  0  0
 63145  1  0  0  0
 63146  1  0  0  0
 64147  1  0  0  0
 65148  1  0  0  0
 68 84  1  0  0  0
 71 72  2  0  0  0
 71 74  1  0  0  0
 71149  1  0  0  0
 72 75  1  0  0  0
 72150  1  0  0  0
 73 74  2  0  0  0
 73 76  1  0  0  0
 73151  1  0  0  0
 74 85  1  0  0  0
 75 76  2  0  0  0
 75 87  1  0  0  0
 76 86  1  0  0  0
 77 79  1  0  0  0
 77 85  1  0  0  0
 77 88  2  0  0  0
 78 83  1  0  0  0
 78 87  1  0  0  0
 78 89  2  0  0  0
 79 80  1  0  0  0
 79152  1  0  0  0
 79153  1  0  0  0
 80 82  1  0  0  0
 80154  1  0  0  0
 80155  1  0  0  0
 81 82  1  0  0  0
 81 85  1  0  0  0
 81156  1  0  0  0
 81157  1  0  0  0
 82 84  1  0  0  0
 82158  1  0  0  0
 83159  1  0  0  0
 83160  1  0  0  0
 83161  1  0  0  0
 84162  1  0  0  0
 84163  1  0  0  0
 86164  1  0  0  0
 86165  1  0  0  0
M  ISO  4   1 100  68 101  84 101  87 100
M  END
> <chiral flag>
0

> <version>
0

> <s_m_source_file>
/data/baiqing/PycharmProjects/Reinvent-master-3.2/result/LINK_invent/BTK/process_docking_weight1_custom_product_contain_oxygen_bond_distance_aromatic_linkinvent_7_9_3/rearranged_h_0099.sdf

> <i_m_source_file_index>
39

> <r_mmod_Potential_Energy-OPLS-2005>
304.248474121094

> <r_mmod_Stretch_Energy-OPLS-2005>
94.7634811401367

> <r_mmod_Bend_Energy-OPLS-2005>
141.299530029297

> <r_mmod_Torsional_Energy-OPLS-2005>
412.668273925781

> <r_mmod_Improper_Torsional_Energy-OPLS-2005>
33.6578140258789

> <r_mmod_Van_der_Waal_Energy-OPLS-2005>
173.416488647461

> <r_mmod_Electrostatic_Energy-OPLS-2005>
-425.802001953125

> <r_mmod_Solvation_Energy-OPLS-2005>
-219.700073242188

> <b_mmod_Minimization_Converged-OPLS-2005>
0

> <r_mmod_RMS_Derivative-OPLS-2005>
1.81263732910156

$$$$
39
                    3D
 Structure written by MMmdl.
152160  0  0  1  0            999 V2000
  -30.5205  -14.8882   20.4708 C   0  0  0  0  0  0
  -30.4639  -12.5576   19.4836 C   0  0  0  0  0  0
  -29.5209  -12.5547   18.2526 C   0  0  0  0  0  0
  -28.0464  -12.3493   18.6605 C   0  0  0  0  0  0
  -27.6505  -13.2237   19.8775 C   0  0  2  0  0  0
  -28.7057  -13.1014   20.9964 C   0  0  0  0  0  0
  -25.2574  -13.8158   20.5776 C   0  0  0  0  0  0
  -24.1803  -13.0422   20.9153 C   0  0  0  0  0  0
  -24.6387  -11.6896   20.8739 C   0  0  0  0  0  0
  -23.9054  -10.4285   21.0406 C   0  0  0  0  0  0
  -24.3599   -9.4208   21.9189 C   0  0  0  0  0  0
  -23.6278   -8.2241   22.0756 C   0  0  0  0  0  0
  -22.4266   -8.0281   21.3543 C   0  0  0  0  0  0
  -21.9899   -9.0255   20.4650 C   0  0  0  0  0  0
  -22.7222  -10.2135   20.3064 C   0  0  0  0  0  0
  -21.6851   -6.0732   22.5271 C   0  0  0  0  0  0
  -21.4011   -6.5642   23.8201 C   0  0  0  0  0  0
  -21.3664   -5.6799   24.9165 C   0  0  0  0  0  0
  -21.6048   -4.3058   24.7220 C   0  0  0  0  0  0
  -21.8813   -3.8148   23.4342 C   0  0  0  0  0  0
  -21.9184   -4.6961   22.3393 C   0  0  0  0  0  0
  -22.7840  -13.5239   21.1819 C   0  0  0  0  0  0
  -22.1658   -4.2146   21.0970 F   0  0  0  0  0  0
  -21.5626   -3.4545   25.7736 F   0  0  0  0  0  0
  -29.9793  -13.5956   20.4382 N   0  0  0  0  0  0
  -26.3003  -12.9341   20.3461 N   0  0  0  0  0  0
  -25.9334  -11.6487   20.5814 N   0  0  0  0  0  0
  -22.0481  -12.8248   22.0392 N   0  0  0  0  0  0
  -25.4385  -15.1866   20.4347 N   0  0  0  0  0  0
  -31.6862  -15.0299   20.0760 O   0  0  0  0  0  0
  -21.6632   -6.8876   21.4236 O   0  0  0  0  0  0
  -22.3536  -14.5548   20.6673 O   0  0  0  0  0  0
  -24.6369  -31.8479   23.1893 C   0  0  0  0  0  0
  -25.9152  -32.4712   23.8267 C   0  0  1  0  0  0
  -27.2252  -27.1885   20.1372 C   0  0  0  0  0  0
  -25.5911  -33.8519   24.2177 N   0  0  0  0  0  0
  -23.4377  -30.4672   21.5364 C   0  0  2  0  0  0
  -24.8885  -28.9053   20.1042 C   0  0  0  0  0  0
  -22.7541  -29.4543   22.4884 C   0  0  0  0  0  0
  -18.0295  -28.1379   22.8492 C   0  0  0  0  0  0
  -24.1486  -36.7280   23.2649 C   0  0  0  0  0  0
  -25.9906  -30.7332   21.3841 C   0  0  0  0  0  0
  -26.0615  -29.3519   20.7243 C   0  0  0  0  0  0
  -27.2286  -28.5075   20.7287 C   0  0  0  0  0  0
  -26.0298  -26.8361   19.4668 C   0  0  0  0  0  0
  -24.8836  -27.6590   19.4610 C   0  0  0  0  0  0
  -23.6597  -29.7989   20.1537 C   0  0  0  0  0  0
  -25.4118  -36.3048   24.0323 C   0  0  1  0  0  0
  -20.5906  -28.3682   23.1262 C   0  0  2  0  0  0
  -20.6769  -26.9383   22.5416 C   0  0  0  0  0  0
  -19.5740  -26.6359   21.5222 C   0  0  0  0  0  0
  -18.1921  -26.7912   22.1637 C   0  0  0  0  0  0
  -19.1555  -28.8852   23.2864 C   0  0  0  0  0  0
  -18.9481  -30.1460   23.8863 C   0  0  0  0  0  0
  -17.6478  -30.6576   24.0560 C   0  0  0  0  0  0
  -25.9069  -34.9426   23.5064 C   0  0  0  0  0  0
  -16.5368  -29.9075   23.6337 C   0  0  0  0  0  0
  -16.7285  -28.6500   23.0351 C   0  0  0  0  0  0
  -26.4487  -31.6580   25.0693 C   0  0  0  0  0  0
  -25.3661  -31.3763   26.1379 C   0  0  0  0  0  0
  -27.0367  -30.2988   24.6254 C   0  0  0  0  0  0
  -27.6005  -32.4378   25.7467 C   0  0  0  0  0  0
  -27.5586  -37.1777   24.8459 C   0  0  0  0  0  0
  -21.4235  -29.3027   22.3652 N   0  0  0  0  0  0
  -26.4284  -37.3756   23.9424 N   0  0  0  0  0  0
  -24.7078  -31.0358   22.0923 N   0  0  0  0  0  0
  -23.4227  -28.8067   23.2979 O   0  0  0  0  0  0
  -28.3013  -26.2453   20.2319 O   0  0  0  0  0  0
  -26.5682  -34.8914   22.4663 O   0  0  0  0  0  0
  -23.5501  -32.1359   23.7132 O   0  0  0  0  0  0
  -29.8773  -18.7634   21.6022 C   0  0  0  0  0  0
  -29.4992  -18.3455   19.3154 C   0  0  0  0  0  0
  -29.7846  -17.7497   20.5803 C   0  0  0  0  0  0
  -29.6602  -20.1925   21.4173 C   0  0  0  0  0  0
  -29.2892  -20.7600   20.1489 C   0  0  0  0  0  0
  -29.2596  -19.7579   19.1180 C   0  0  0  0  0  0
  -29.6014  -16.1962   20.9183 C   0  0  0  0  0  0
  -29.7775  -21.0851   22.6413 C   0  0  0  0  0  0
  -28.1114  -24.7522   19.9175 C   0  0  0  0  0  0
  -28.9668  -23.4541   20.5127 C   0  0  0  0  0  0
  -28.5743  -16.0197   21.6359 N   0  0  0  0  0  0
  -28.8981  -22.1186   19.7876 O   0  0  0  0  0  0
  -28.9359  -20.1614   17.8651 F   0  0  0  0  0  0
  -31.4896  -12.7450   19.1617 H   0  0  0  0  0  0
  -30.4883  -11.5746   19.9567 H   0  0  0  0  0  0
  -29.8235  -11.7854   17.5423 H   0  0  0  0  0  0
  -29.6151  -13.5078   17.7305 H   0  0  0  0  0  0
  -27.9097  -11.2949   18.9044 H   0  0  0  0  0  0
  -27.3855  -12.5552   17.8175 H   0  0  0  0  0  0
  -27.6535  -14.2559   19.5288 H   0  0  0  0  0  0
  -28.8003  -12.0589   21.3042 H   0  0  0  0  0  0
  -28.4154  -13.6111   21.9116 H   0  0  0  0  0  0
  -25.2741   -9.5683   22.4773 H   0  0  0  0  0  0
  -23.9985   -7.4636   22.7481 H   0  0  0  0  0  0
  -21.0823   -8.8781   19.8961 H   0  0  0  0  0  0
  -22.3679  -10.9681   19.6181 H   0  0  0  0  0  0
  -21.2013   -7.6152   23.9699 H   0  0  0  0  0  0
  -21.1494   -6.0534   25.9064 H   0  0  0  0  0  0
  -22.0586   -2.7614   23.2839 H   0  0  0  0  0  0
  -22.4079  -11.9892   22.4755 H   0  0  0  0  0  0
  -21.1142  -13.1342   22.2663 H   0  0  0  0  0  0
  -24.7086  -15.8601   20.6379 H   0  0  0  0  0  0
  -26.3644  -15.5999   20.3949 H   0  0  0  0  0  0
  -26.7210  -32.5313   23.0990 H   0  0  0  0  0  0
  -24.9946  -33.9633   25.0250 H   0  0  0  0  0  0
  -22.7373  -31.2925   21.3868 H   0  0  0  0  0  0
  -23.3757  -35.9594   23.3276 H   0  0  0  0  0  0
  -24.3578  -36.8963   22.2069 H   0  0  0  0  0  0
  -23.7235  -37.6466   23.6721 H   0  0  0  0  0  0
  -26.1442  -31.4879   20.6112 H   0  0  0  0  0  0
  -26.8632  -30.7789   22.0242 H   0  0  0  0  0  0
  -28.1210  -28.8426   21.2376 H   0  0  0  0  0  0
  -25.9441  -25.8912   18.9518 H   0  0  0  0  0  0
  -23.9884  -27.3168   18.9590 H   0  0  0  0  0  0
  -23.7824  -30.5767   19.3990 H   0  0  0  0  0  0
  -22.7755  -29.2359   19.8485 H   0  0  0  0  0  0
  -25.1294  -36.1875   25.0811 H   0  0  0  0  0  0
  -21.0000  -28.3247   24.1383 H   0  0  0  0  0  0
  -20.5653  -26.2277   23.3627 H   0  0  0  0  0  0
  -21.6631  -26.7363   22.1212 H   0  0  0  0  0  0
  -19.6881  -25.6264   21.1262 H   0  0  0  0  0  0
  -19.6680  -27.3162   20.6750 H   0  0  0  0  0  0
  -17.4183  -26.6677   21.4036 H   0  0  0  0  0  0
  -18.0306  -26.0048   22.9029 H   0  0  0  0  0  0
  -19.7959  -30.7296   24.2197 H   0  0  0  0  0  0
  -17.5031  -31.6250   24.5171 H   0  0  0  0  0  0
  -15.5368  -30.2970   23.7676 H   0  0  0  0  0  0
  -15.8687  -28.0829   22.7057 H   0  0  0  0  0  0
  -24.5818  -30.7154   25.7681 H   0  0  0  0  0  0
  -24.8859  -32.2940   26.4775 H   0  0  0  0  0  0
  -25.7899  -30.8932   27.0183 H   0  0  0  0  0  0
  -26.2978  -29.6700   24.1273 H   0  0  0  0  0  0
  -27.4034  -29.7291   25.4803 H   0  0  0  0  0  0
  -27.8843  -30.4260   23.9519 H   0  0  0  0  0  0
  -27.2588  -33.3713   26.1950 H   0  0  0  0  0  0
  -28.3822  -32.6916   25.0295 H   0  0  0  0  0  0
  -28.0649  -31.8582   26.5448 H   0  0  0  0  0  0
  -28.2551  -38.0124   24.7579 H   0  0  0  0  0  0
  -28.1146  -36.2669   24.6199 H   0  0  0  0  0  0
  -27.2320  -37.1309   25.8860 H   0  0  0  0  0  0
  -20.9429  -29.8826   21.6920 H   0  0  0  0  0  0
  -26.0161  -38.2819   24.1473 H   0  0  0  0  0  0
  -30.0567  -18.4135   22.6093 H   0  0  0  0  0  0
  -29.3631  -17.6947   18.4650 H   0  0  0  0  0  0
  -30.2148  -20.5500   23.4852 H   0  0  0  0  0  0
  -28.7961  -21.4446   22.9531 H   0  0  0  0  0  0
  -30.4182  -21.9433   22.4400 H   0  0  0  0  0  0
  -27.0739  -24.4960   20.1279 H   0  0  0  0  0  0
  -28.2061  -24.6942   18.8339 H   0  0  0  0  0  0
  -28.6707  -23.3146   21.5509 H   0  0  0  0  0  0
  -30.0200  -23.7333   20.5397 H   0  0  0  0  0  0
  -28.1174  -16.9028   21.8290 H   0  0  0  0  0  0
  1 25  1  0  0  0
  1 30  2  0  0  0
  1 77  1  0  0  0
  2  3  1  0  0  0
  2 25  1  0  0  0
  2 84  1  0  0  0
  2 85  1  0  0  0
  3  4  1  0  0  0
  3 86  1  0  0  0
  3 87  1  0  0  0
  4  5  1  0  0  0
  4 88  1  0  0  0
  4 89  1  0  0  0
  5  6  1  0  0  0
  5 26  1  0  0  0
  5 90  1  0  0  0
  6 25  1  0  0  0
  6 91  1  0  0  0
  6 92  1  0  0  0
  7  8  2  0  0  0
  7 26  1  0  0  0
  7 29  1  0  0  0
  8  9  1  0  0  0
  8 22  1  0  0  0
  9 10  1  0  0  0
  9 27  2  0  0  0
 10 11  2  0  0  0
 10 15  1  0  0  0
 11 12  1  0  0  0
 11 93  1  0  0  0
 12 13  2  0  0  0
 12 94  1  0  0  0
 13 14  1  0  0  0
 13 31  1  0  0  0
 14 15  2  0  0  0
 14 95  1  0  0  0
 15 96  1  0  0  0
 16 17  2  0  0  0
 16 21  1  0  0  0
 16 31  1  0  0  0
 17 18  1  0  0  0
 17 97  1  0  0  0
 18 19  2  0  0  0
 18 98  1  0  0  0
 19 20  1  0  0  0
 19 24  1  0  0  0
 20 21  2  0  0  0
 20 99  1  0  0  0
 21 23  1  0  0  0
 22 28  1  0  0  0
 22 32  2  0  0  0
 26 27  1  0  0  0
 28100  1  0  0  0
 28101  1  0  0  0
 29102  1  0  0  0
 29103  1  0  0  0
 33 34  1  0  0  0
 33 66  1  0  0  0
 33 70  2  0  0  0
 34 36  1  0  0  0
 34 59  1  0  0  0
 34104  1  0  0  0
 35 44  2  0  0  0
 35 45  1  0  0  0
 35 68  1  0  0  0
 36 56  1  0  0  0
 36105  1  0  0  0
 37 39  1  0  0  0
 37 47  1  0  0  0
 37 66  1  0  0  0
 37106  1  0  0  0
 38 43  2  0  0  0
 38 46  1  0  0  0
 38 47  1  0  0  0
 39 64  1  0  0  0
 39 67  2  0  0  0
 40 52  1  0  0  0
 40 53  2  0  0  0
 40 58  1  0  0  0
 41107  1  0  0  0
 41108  1  0  0  0
 41109  1  0  0  0
 41 48  1  0  0  0
 42 43  1  0  0  0
 42 66  1  0  0  0
 42110  1  0  0  0
 42111  1  0  0  0
 43 44  1  0  0  0
 44112  1  0  0  0
 45 46  2  0  0  0
 45113  1  0  0  0
 46114  1  0  0  0
 47115  1  0  0  0
 47116  1  0  0  0
 48 56  1  0  0  0
 48 65  1  0  0  0
 48117  1  0  0  0
 49 50  1  0  0  0
 49 53  1  0  0  0
 49 64  1  0  0  0
 49118  1  0  0  0
 50 51  1  0  0  0
 50119  1  0  0  0
 50120  1  0  0  0
 51 52  1  0  0  0
 51121  1  0  0  0
 51122  1  0  0  0
 52123  1  0  0  0
 52124  1  0  0  0
 53 54  1  0  0  0
 54 55  2  0  0  0
 54125  1  0  0  0
 55 57  1  0  0  0
 55126  1  0  0  0
 56 69  2  0  0  0
 57 58  2  0  0  0
 57127  1  0  0  0
 58128  1  0  0  0
 59 60  1  0  0  0
 59 61  1  0  0  0
 59 62  1  0  0  0
 60129  1  0  0  0
 60130  1  0  0  0
 60131  1  0  0  0
 61132  1  0  0  0
 61133  1  0  0  0
 61134  1  0  0  0
 62135  1  0  0  0
 62136  1  0  0  0
 62137  1  0  0  0
 63 65  1  0  0  0
 63138  1  0  0  0
 63139  1  0  0  0
 63140  1  0  0  0
 64141  1  0  0  0
 65142  1  0  0  0
 68 79  1  0  0  0
 71 73  2  0  0  0
 71 74  1  0  0  0
 71143  1  0  0  0
 72 73  1  0  0  0
 72 76  2  0  0  0
 72144  1  0  0  0
 73 77  1  0  0  0
 74 75  2  0  0  0
 74 78  1  0  0  0
 75 76  1  0  0  0
 75 82  1  0  0  0
 76 83  1  0  0  0
 77 81  2  0  0  0
 78145  1  0  0  0
 78146  1  0  0  0
 78147  1  0  0  0
 79 80  1  0  0  0
 79148  1  0  0  0
 79149  1  0  0  0
 80 82  1  0  0  0
 80150  1  0  0  0
 80151  1  0  0  0
 81152  1  0  0  0
M  ISO  4   1 100  68 101  77 100  79 101
M  END
> <chiral flag>
0

> <version>
0

> <s_m_source_file>
/data/baiqing/PycharmProjects/Reinvent-master-3.2/result/LINK_invent/BTK/process_docking_weight1_custom_product_contain_oxygen_bond_distance_aromatic_linkinvent_7_9_3/rearranged_h_0099.sdf

> <i_m_source_file_index>
40

> <r_mmod_Potential_Energy-OPLS-2005>
571.273071289062

> <r_mmod_Stretch_Energy-OPLS-2005>
212.924697875977

> <r_mmod_Bend_Energy-OPLS-2005>
279.934417724609

> <r_mmod_Torsional_Energy-OPLS-2005>
210.917434692383

> <r_mmod_Improper_Torsional_Energy-OPLS-2005>
7.05681657791138

> <r_mmod_Van_der_Waal_Energy-OPLS-2005>
144.968658447266

> <r_mmod_Electrostatic_Energy-OPLS-2005>
-231.78581237793

> <r_mmod_Solvation_Energy-OPLS-2005>
-197.761489868164

> <b_mmod_Minimization_Converged-OPLS-2005>
0

> <r_mmod_RMS_Derivative-OPLS-2005>
2.10915279388428

$$$$
40
                    3D
 Structure written by MMmdl.
156164  0  0  1  0            999 V2000
  -30.7492  -14.4838   20.6593 C   0  0  0  0  0  0
  -30.4256  -12.3460   19.4418 C   0  0  0  0  0  0
  -29.5017  -12.5358   18.2220 C   0  0  0  0  0  0
  -28.0284  -12.3627   18.6296 C   0  0  0  0  0  0
  -27.6614  -13.2147   19.8748 C   0  0  2  0  0  0
  -28.6983  -13.0226   21.0069 C   0  0  0  0  0  0
  -25.2586  -13.8175   20.5728 C   0  0  0  0  0  0
  -24.1822  -13.0445   20.9149 C   0  0  0  0  0  0
  -24.6373  -11.6914   20.8648 C   0  0  0  0  0  0
  -23.9053  -10.4305   21.0370 C   0  0  0  0  0  0
  -24.3614   -9.4224   21.9160 C   0  0  0  0  0  0
  -23.6277   -8.2268   22.0749 C   0  0  0  0  0  0
  -22.4252   -8.0299   21.3562 C   0  0  0  0  0  0
  -21.9887   -9.0263   20.4659 C   0  0  0  0  0  0
  -22.7212  -10.2143   20.3049 C   0  0  0  0  0  0
  -21.6877   -6.0737   22.5272 C   0  0  0  0  0  0
  -21.4017   -6.5615   23.8205 C   0  0  0  0  0  0
  -21.3660   -5.6769   24.9162 C   0  0  0  0  0  0
  -21.6064   -4.3036   24.7217 C   0  0  0  0  0  0
  -21.8813   -3.8130   23.4325 C   0  0  0  0  0  0
  -21.9186   -4.6959   22.3381 C   0  0  0  0  0  0
  -22.7848  -13.5288   21.1796 C   0  0  0  0  0  0
  -22.1662   -4.2150   21.0963 F   0  0  0  0  0  0
  -21.5640   -3.4510   25.7724 F   0  0  0  0  0  0
  -30.0389  -13.3318   20.4706 N   0  0  0  0  0  0
  -26.3011  -12.9362   20.3319 N   0  0  0  0  0  0
  -25.9305  -11.6501   20.5681 N   0  0  0  0  0  0
  -22.0463  -12.8324   22.0361 N   0  0  0  0  0  0
  -25.4288  -15.1913   20.4289 N   0  0  0  0  0  0
  -31.8334  -14.6758   20.1001 O   0  0  0  0  0  0
  -21.6646   -6.8882   21.4240 O   0  0  0  0  0  0
  -22.3542  -14.5587   20.6609 O   0  0  0  0  0  0
  -24.6190  -31.8679   23.2107 C   0  0  0  0  0  0
  -25.9067  -32.4823   23.8393 C   0  0  1  0  0  0
  -27.2284  -27.3953   20.1193 C   0  0  0  0  0  0
  -25.5929  -33.8615   24.2330 N   0  0  0  0  0  0
  -23.4078  -30.4920   21.5513 C   0  0  2  0  0  0
  -24.8522  -28.9604   20.1124 C   0  0  0  0  0  0
  -22.7450  -29.4643   22.4983 C   0  0  0  0  0  0
  -18.0285  -28.1357   22.8494 C   0  0  0  0  0  0
  -24.1473  -36.7305   23.2631 C   0  0  0  0  0  0
  -25.9371  -30.8252   21.3629 C   0  0  0  0  0  0
  -26.0161  -29.4580   20.7100 C   0  0  0  0  0  0
  -27.2061  -28.6869   20.7050 C   0  0  0  0  0  0
  -26.0424  -26.9326   19.4988 C   0  0  0  0  0  0
  -24.8642  -27.7001   19.4983 C   0  0  0  0  0  0
  -23.6161  -29.8291   20.1641 C   0  0  0  0  0  0
  -25.4102  -36.3121   24.0345 C   0  0  1  0  0  0
  -20.5884  -28.3672   23.1328 C   0  0  2  0  0  0
  -20.6770  -26.9397   22.5415 C   0  0  0  0  0  0
  -19.5747  -26.6384   21.5210 C   0  0  0  0  0  0
  -18.1943  -26.7899   22.1641 C   0  0  0  0  0  0
  -19.1530  -28.8843   23.2905 C   0  0  0  0  0  0
  -18.9447  -30.1441   23.8906 C   0  0  0  0  0  0
  -17.6447  -30.6567   24.0573 C   0  0  0  0  0  0
  -25.9047  -34.9477   23.5135 C   0  0  0  0  0  0
  -16.5349  -29.9086   23.6315 C   0  0  0  0  0  0
  -16.7268  -28.6488   23.0333 C   0  0  0  0  0  0
  -26.4469  -31.6604   25.0712 C   0  0  0  0  0  0
  -25.3735  -31.3722   26.1470 C   0  0  0  0  0  0
  -27.0281  -30.3057   24.6058 C   0  0  0  0  0  0
  -27.6053  -32.4305   25.7468 C   0  0  0  0  0  0
  -27.5595  -37.1808   24.8474 C   0  0  0  0  0  0
  -21.4167  -29.3053   22.3739 N   0  0  0  0  0  0
  -26.4296  -37.3818   23.9413 N   0  0  0  0  0  0
  -24.6732  -31.0759   22.1005 N   0  0  0  0  0  0
  -23.4220  -28.8179   23.3036 O   0  0  0  0  0  0
  -28.3725  -26.6044   20.1896 O   0  0  0  0  0  0
  -26.5572  -34.8939   22.4674 O   0  0  0  0  0  0
  -23.5371  -32.1438   23.7493 O   0  0  0  0  0  0
  -31.9352  -17.0178   22.2230 C   0  0  0  0  0  0
  -32.3741  -18.3349   22.4584 C   0  0  0  0  0  0
  -29.8489  -17.9005   21.3644 C   0  0  0  0  0  0
  -30.2705  -19.2502   21.5717 C   0  0  0  0  0  0
  -30.6651  -16.7770   21.6580 C   0  0  0  0  0  0
  -31.5655  -19.4529   22.1421 C   0  0  0  0  0  0
  -29.2889  -20.3687   21.2000 C   0  0  0  0  0  0
  -29.2546  -24.2100   20.6716 C   0  0  0  0  0  0
  -28.8206  -22.7192   20.4913 C   0  0  0  0  0  0
  -28.1671  -25.1703   20.0855 C   0  0  0  0  0  0
  -32.1098  -20.7089   22.4253 N   0  0  0  0  0  0
  -30.1832  -15.4385   21.4352 N   0  0  0  0  0  0
  -29.7142  -21.6407   20.9922 N   0  0  0  0  0  0
  -28.1006  -20.0769   21.0338 O   0  0  0  0  0  0
  -31.4738  -12.4366   19.1491 H   0  0  0  0  0  0
  -30.3250  -11.3396   19.8490 H   0  0  0  0  0  0
  -29.7620  -11.8262   17.4363 H   0  0  0  0  0  0
  -29.6477  -13.5301   17.7973 H   0  0  0  0  0  0
  -27.8613  -11.3043   18.8377 H   0  0  0  0  0  0
  -27.3768  -12.6111   17.7927 H   0  0  0  0  0  0
  -27.6998  -14.2588   19.5597 H   0  0  0  0  0  0
  -28.6751  -11.9907   21.3613 H   0  0  0  0  0  0
  -28.4403  -13.6362   21.8703 H   0  0  0  0  0  0
  -25.2769   -9.5717   22.4724 H   0  0  0  0  0  0
  -23.9989   -7.4686   22.7473 H   0  0  0  0  0  0
  -21.0811   -8.8781   19.8977 H   0  0  0  0  0  0
  -22.3652  -10.9680   19.6150 H   0  0  0  0  0  0
  -21.2011   -7.6124   23.9708 H   0  0  0  0  0  0
  -21.1495   -6.0490   25.9068 H   0  0  0  0  0  0
  -22.0587   -2.7592   23.2811 H   0  0  0  0  0  0
  -22.4046  -12.0014   22.4833 H   0  0  0  0  0  0
  -21.1091  -13.1401   22.2567 H   0  0  0  0  0  0
  -24.6661  -15.8436   20.5798 H   0  0  0  0  0  0
  -26.2990  -15.6432   20.1774 H   0  0  0  0  0  0
  -26.7142  -32.5533   23.1163 H   0  0  0  0  0  0
  -25.0144  -33.9776   25.0529 H   0  0  0  0  0  0
  -22.6940  -31.3080   21.4158 H   0  0  0  0  0  0
  -23.3752  -35.9631   23.3302 H   0  0  0  0  0  0
  -24.3582  -36.8902   22.2051 H   0  0  0  0  0  0
  -23.7203  -37.6509   23.6623 H   0  0  0  0  0  0
  -26.0420  -31.5900   20.5915 H   0  0  0  0  0  0
  -26.8294  -30.8873   21.9755 H   0  0  0  0  0  0
  -28.0980  -29.0646   21.1851 H   0  0  0  0  0  0
  -25.9949  -25.9638   19.0224 H   0  0  0  0  0  0
  -23.9692  -27.3060   19.0360 H   0  0  0  0  0  0
  -23.7259  -30.6056   19.4054 H   0  0  0  0  0  0
  -22.7393  -29.2520   19.8676 H   0  0  0  0  0  0
  -25.1269  -36.2002   25.0852 H   0  0  0  0  0  0
  -20.9964  -28.3215   24.1447 H   0  0  0  0  0  0
  -20.5679  -26.2257   23.3612 H   0  0  0  0  0  0
  -21.6640  -26.7441   22.1205 H   0  0  0  0  0  0
  -19.6912  -25.6301   21.1235 H   0  0  0  0  0  0
  -19.6667  -27.3194   20.6741 H   0  0  0  0  0  0
  -17.4194  -26.6634   21.4060 H   0  0  0  0  0  0
  -18.0356  -26.0040   22.9032 H   0  0  0  0  0  0
  -19.7938  -30.7254   24.2266 H   0  0  0  0  0  0
  -17.5005  -31.6229   24.5189 H   0  0  0  0  0  0
  -15.5355  -30.2962   23.7629 H   0  0  0  0  0  0
  -15.8675  -28.0830   22.7021 H   0  0  0  0  0  0
  -24.5911  -30.7058   25.7816 H   0  0  0  0  0  0
  -24.8912  -32.2881   26.4916 H   0  0  0  0  0  0
  -25.8111  -30.8908   27.0230 H   0  0  0  0  0  0
  -26.2812  -29.6845   24.1104 H   0  0  0  0  0  0
  -27.4060  -29.7272   25.4496 H   0  0  0  0  0  0
  -27.8646  -30.4386   23.9186 H   0  0  0  0  0  0
  -27.2705  -33.3616   26.2064 H   0  0  0  0  0  0
  -28.3867  -32.6859   25.0287 H   0  0  0  0  0  0
  -28.0712  -31.8401   26.5379 H   0  0  0  0  0  0
  -28.2618  -38.0096   24.7526 H   0  0  0  0  0  0
  -28.1065  -36.2634   24.6274 H   0  0  0  0  0  0
  -27.2305  -37.1443   25.8872 H   0  0  0  0  0  0
  -20.9316  -29.8795   21.6988 H   0  0  0  0  0  0
  -26.0185  -38.2900   24.1426 H   0  0  0  0  0  0
  -32.5782  -16.1905   22.4964 H   0  0  0  0  0  0
  -33.3468  -18.4803   22.9067 H   0  0  0  0  0  0
  -28.8628  -17.7222   20.9583 H   0  0  0  0  0  0
  -30.2120  -24.3949   20.1831 H   0  0  0  0  0  0
  -29.3890  -24.4272   21.7331 H   0  0  0  0  0  0
  -28.6410  -22.5295   19.4315 H   0  0  0  0  0  0
  -27.8489  -22.6105   20.9781 H   0  0  0  0  0  0
  -27.2343  -24.9090   20.5955 H   0  0  0  0  0  0
  -28.0204  -24.9278   19.0308 H   0  0  0  0  0  0
  -33.0586  -20.7106   22.7913 H   0  0  0  0  0  0
  -31.5389  -21.3175   23.0043 H   0  0  0  0  0  0
  -29.2631  -15.2225   21.7877 H   0  0  0  0  0  0
  -30.7066  -21.8193   21.1267 H   0  0  0  0  0  0
  1 25  1  0  0  0
  1 30  2  0  0  0
  1 82  1  0  0  0
  2  3  1  0  0  0
  2 25  1  0  0  0
  2 85  1  0  0  0
  2 86  1  0  0  0
  3  4  1  0  0  0
  3 87  1  0  0  0
  3 88  1  0  0  0
  4  5  1  0  0  0
  4 89  1  0  0  0
  4 90  1  0  0  0
  5  6  1  0  0  0
  5 26  1  0  0  0
  5 91  1  0  0  0
  6 25  1  0  0  0
  6 92  1  0  0  0
  6 93  1  0  0  0
  7  8  2  0  0  0
  7 26  1  0  0  0
  7 29  1  0  0  0
  8  9  1  0  0  0
  8 22  1  0  0  0
  9 10  1  0  0  0
  9 27  2  0  0  0
 10 11  2  0  0  0
 10 15  1  0  0  0
 11 12  1  0  0  0
 11 94  1  0  0  0
 12 13  2  0  0  0
 12 95  1  0  0  0
 13 14  1  0  0  0
 13 31  1  0  0  0
 14 15  2  0  0  0
 14 96  1  0  0  0
 15 97  1  0  0  0
 16 17  2  0  0  0
 16 21  1  0  0  0
 16 31  1  0  0  0
 17 18  1  0  0  0
 17 98  1  0  0  0
 18 19  2  0  0  0
 18 99  1  0  0  0
 19 20  1  0  0  0
 19 24  1  0  0  0
 20 21  2  0  0  0
 20100  1  0  0  0
 21 23  1  0  0  0
 22 28  1  0  0  0
 22 32  2  0  0  0
 26 27  1  0  0  0
 28101  1  0  0  0
 28102  1  0  0  0
 29103  1  0  0  0
 29104  1  0  0  0
 33 34  1  0  0  0
 33 66  1  0  0  0
 33 70  2  0  0  0
 34 36  1  0  0  0
 34 59  1  0  0  0
 34105  1  0  0  0
 35 44  2  0  0  0
 35 45  1  0  0  0
 35 68  1  0  0  0
 36 56  1  0  0  0
 36106  1  0  0  0
 37 39  1  0  0  0
 37 47  1  0  0  0
 37 66  1  0  0  0
 37107  1  0  0  0
 38 43  2  0  0  0
 38 46  1  0  0  0
 38 47  1  0  0  0
 39 64  1  0  0  0
 39 67  2  0  0  0
 40 52  1  0  0  0
 40 53  2  0  0  0
 40 58  1  0  0  0
 41108  1  0  0  0
 41109  1  0  0  0
 41110  1  0  0  0
 41 48  1  0  0  0
 42 43  1  0  0  0
 42 66  1  0  0  0
 42111  1  0  0  0
 42112  1  0  0  0
 43 44  1  0  0  0
 44113  1  0  0  0
 45 46  2  0  0  0
 45114  1  0  0  0
 46115  1  0  0  0
 47116  1  0  0  0
 47117  1  0  0  0
 48 56  1  0  0  0
 48 65  1  0  0  0
 48118  1  0  0  0
 49 50  1  0  0  0
 49 53  1  0  0  0
 49 64  1  0  0  0
 49119  1  0  0  0
 50 51  1  0  0  0
 50120  1  0  0  0
 50121  1  0  0  0
 51 52  1  0  0  0
 51122  1  0  0  0
 51123  1  0  0  0
 52124  1  0  0  0
 52125  1  0  0  0
 53 54  1  0  0  0
 54 55  2  0  0  0
 54126  1  0  0  0
 55 57  1  0  0  0
 55127  1  0  0  0
 56 69  2  0  0  0
 57 58  2  0  0  0
 57128  1  0  0  0
 58129  1  0  0  0
 59 60  1  0  0  0
 59 61  1  0  0  0
 59 62  1  0  0  0
 60130  1  0  0  0
 60131  1  0  0  0
 60132  1  0  0  0
 61133  1  0  0  0
 61134  1  0  0  0
 61135  1  0  0  0
 62136  1  0  0  0
 62137  1  0  0  0
 62138  1  0  0  0
 63 65  1  0  0  0
 63139  1  0  0  0
 63140  1  0  0  0
 63141  1  0  0  0
 64142  1  0  0  0
 65143  1  0  0  0
 68 80  1  0  0  0
 71 72  2  0  0  0
 71 75  1  0  0  0
 71144  1  0  0  0
 72 76  1  0  0  0
 72145  1  0  0  0
 73 74  1  0  0  0
 73 75  2  0  0  0
 73146  1  0  0  0
 74 76  2  0  0  0
 74 77  1  0  0  0
 75 82  1  0  0  0
 76 81  1  0  0  0
 77 83  1  0  0  0
 77 84  2  0  0  0
 78 79  1  0  0  0
 78 80  1  0  0  0
 78147  1  0  0  0
 78148  1  0  0  0
 79 83  1  0  0  0
 79149  1  0  0  0
 79150  1  0  0  0
 80151  1  0  0  0
 80152  1  0  0  0
 81153  1  0  0  0
 81154  1  0  0  0
 82155  1  0  0  0
 83156  1  0  0  0
M  ISO  4   1 100  68 101  80 101  82 100
M  END
> <chiral flag>
0

> <version>
0

> <s_m_source_file>
/data/baiqing/PycharmProjects/Reinvent-master-3.2/result/LINK_invent/BTK/process_docking_weight1_custom_product_contain_oxygen_bond_distance_aromatic_linkinvent_7_9_3/rearranged_h_0099.sdf

> <i_m_source_file_index>
41

> <r_mmod_Potential_Energy-OPLS-2005>
-26.7173900604248

> <r_mmod_Stretch_Energy-OPLS-2005>
52.6978721618652

> <r_mmod_Bend_Energy-OPLS-2005>
117.490051269531

> <r_mmod_Torsional_Energy-OPLS-2005>
237.031616210938

> <r_mmod_Improper_Torsional_Energy-OPLS-2005>
7.52276754379272

> <r_mmod_Van_der_Waal_Energy-OPLS-2005>
165.926071166992

> <r_mmod_Electrostatic_Energy-OPLS-2005>
-392.249114990234

> <r_mmod_Solvation_Energy-OPLS-2005>
-234.447082519531

> <b_mmod_Minimization_Converged-OPLS-2005>
0

> <r_mmod_RMS_Derivative-OPLS-2005>
5.57893991470337

$$$$
41
                    3D
 Structure written by MMmdl.
160169  0  0  1  0            999 V2000
  -30.6654  -14.6304   20.6188 C   0  0  0  0  0  0
  -30.4312  -12.4222   19.4601 C   0  0  0  0  0  0
  -29.5100  -12.5361   18.2282 C   0  0  0  0  0  0
  -28.0340  -12.3505   18.6307 C   0  0  0  0  0  0
  -27.6490  -13.2206   19.8545 C   0  0  2  0  0  0
  -28.6777  -13.0716   20.9889 C   0  0  0  0  0  0
  -25.2537  -13.8172   20.5651 C   0  0  0  0  0  0
  -24.1817  -13.0438   20.9179 C   0  0  0  0  0  0
  -24.6389  -11.6909   20.8724 C   0  0  0  0  0  0
  -23.9061  -10.4297   21.0414 C   0  0  0  0  0  0
  -24.3614   -9.4209   21.9187 C   0  0  0  0  0  0
  -23.6294   -8.2240   22.0760 C   0  0  0  0  0  0
  -22.4272   -8.0290   21.3556 C   0  0  0  0  0  0
  -21.9903   -9.0261   20.4653 C   0  0  0  0  0  0
  -22.7234  -10.2136   20.3063 C   0  0  0  0  0  0
  -21.6844   -6.0738   22.5283 C   0  0  0  0  0  0
  -21.4017   -6.5637   23.8219 C   0  0  0  0  0  0
  -21.3658   -5.6790   24.9182 C   0  0  0  0  0  0
  -21.6064   -4.3058   24.7232 C   0  0  0  0  0  0
  -21.8826   -3.8146   23.4349 C   0  0  0  0  0  0
  -21.9183   -4.6963   22.3408 C   0  0  0  0  0  0
  -22.7839  -13.5237   21.1842 C   0  0  0  0  0  0
  -22.1635   -4.2149   21.0985 F   0  0  0  0  0  0
  -21.5635   -3.4539   25.7739 F   0  0  0  0  0  0
  -30.0041  -13.4314   20.4565 N   0  0  0  0  0  0
  -26.2954  -12.9360   20.3222 N   0  0  0  0  0  0
  -25.9307  -11.6512   20.5688 N   0  0  0  0  0  0
  -22.0491  -12.8231   22.0403 N   0  0  0  0  0  0
  -25.4255  -15.1892   20.4093 N   0  0  0  0  0  0
  -31.7529  -14.8221   20.0635 O   0  0  0  0  0  0
  -21.6642   -6.8883   21.4246 O   0  0  0  0  0  0
  -22.3508  -14.5524   20.6669 O   0  0  0  0  0  0
  -24.6268  -31.8587   23.2032 C   0  0  0  0  0  0
  -25.9115  -32.4773   23.8353 C   0  0  1  0  0  0
  -27.2154  -27.3057   20.1261 C   0  0  0  0  0  0
  -25.5923  -33.8575   24.2277 N   0  0  0  0  0  0
  -23.4198  -30.4836   21.5458 C   0  0  2  0  0  0
  -24.8661  -28.9383   20.1121 C   0  0  0  0  0  0
  -22.7477  -29.4619   22.4937 C   0  0  0  0  0  0
  -18.0285  -28.1385   22.8486 C   0  0  0  0  0  0
  -24.1486  -36.7293   23.2639 C   0  0  0  0  0  0
  -25.9624  -30.7860   21.3766 C   0  0  0  0  0  0
  -26.0359  -29.4124   20.7200 C   0  0  0  0  0  0
  -27.2163  -28.6090   20.7159 C   0  0  0  0  0  0
  -26.0299  -26.8973   19.4761 C   0  0  0  0  0  0
  -24.8666  -27.6879   19.4776 C   0  0  0  0  0  0
  -23.6351  -29.8204   20.1606 C   0  0  0  0  0  0
  -25.4113  -36.3081   24.0327 C   0  0  1  0  0  0
  -20.5887  -28.3690   23.1278 C   0  0  2  0  0  0
  -20.6774  -26.9410   22.5411 C   0  0  0  0  0  0
  -19.5751  -26.6380   21.5211 C   0  0  0  0  0  0
  -18.1932  -26.7926   22.1625 C   0  0  0  0  0  0
  -19.1539  -28.8854   23.2877 C   0  0  0  0  0  0
  -18.9465  -30.1457   23.8892 C   0  0  0  0  0  0
  -17.6465  -30.6586   24.0566 C   0  0  0  0  0  0
  -25.9056  -34.9448   23.5106 C   0  0  0  0  0  0
  -16.5356  -29.9088   23.6328 C   0  0  0  0  0  0
  -16.7273  -28.6506   23.0350 C   0  0  0  0  0  0
  -26.4499  -31.6585   25.0724 C   0  0  0  0  0  0
  -25.3737  -31.3719   26.1456 C   0  0  0  0  0  0
  -27.0348  -30.3008   24.6185 C   0  0  0  0  0  0
  -27.6052  -32.4329   25.7498 C   0  0  0  0  0  0
  -27.5579  -37.1802   24.8466 C   0  0  0  0  0  0
  -21.4194  -29.3037   22.3672 N   0  0  0  0  0  0
  -26.4291  -37.3776   23.9410 N   0  0  0  0  0  0
  -24.6883  -31.0598   22.0983 N   0  0  0  0  0  0
  -23.4201  -28.8147   23.3005 O   0  0  0  0  0  0
  -28.3200  -26.4390   20.1557 O   0  0  0  0  0  0
  -26.5633  -34.8914   22.4678 O   0  0  0  0  0  0
  -23.5434  -32.1391   23.7358 O   0  0  0  0  0  0
  -29.7627  -19.4134   21.9649 C   0  0  0  0  0  0
  -29.8700  -18.0114   22.1894 C   0  0  0  0  0  0
  -29.7240  -19.0079   19.6023 C   0  0  0  0  0  0
  -29.7232  -19.9672   20.6608 C   0  0  0  0  0  0
  -29.9448  -17.0422   21.1388 C   0  0  0  0  0  0
  -29.8224  -17.5934   19.8276 C   0  0  0  0  0  0
  -31.2171  -21.8241   20.3488 C   0  0  0  0  0  0
  -28.8874  -22.3663   20.4121 C   0  0  0  0  0  0
  -31.6046  -23.3084   20.2385 C   0  0  0  0  0  0
  -30.5277  -24.2634   20.7564 C   0  0  0  0  0  0
  -29.1789  -23.9142   20.1313 C   0  0  2  0  0  0
  -30.1373  -15.2271   22.8714 C   0  0  0  0  0  0
  -28.0774  -25.0088   20.5101 C   0  0  0  0  0  0
  -29.9120  -21.4240   20.4469 N   0  0  0  0  0  0
  -30.1113  -15.5939   21.4432 N   0  0  0  0  0  0
  -32.1578  -21.0191   20.3328 O   0  0  0  0  0  0
  -27.7105  -22.0249   20.5781 O   0  0  0  0  0  0
  -29.8015  -16.7677   18.7535 F   0  0  0  0  0  0
  -31.4735  -12.5480   19.1644 H   0  0  0  0  0  0
  -30.3699  -11.4207   19.8890 H   0  0  0  0  0  0
  -29.7951  -11.7982   17.4757 H   0  0  0  0  0  0
  -29.6429  -13.5147   17.7642 H   0  0  0  0  0  0
  -27.8831  -11.2966   18.8673 H   0  0  0  0  0  0
  -27.3797  -12.5696   17.7863 H   0  0  0  0  0  0
  -27.6740  -14.2597   19.5243 H   0  0  0  0  0  0
  -28.6898  -12.0485   21.3670 H   0  0  0  0  0  0
  -28.3610  -13.6911   21.8254 H   0  0  0  0  0  0
  -25.2763   -9.5672   22.4750 H   0  0  0  0  0  0
  -24.0014   -7.4619   22.7455 H   0  0  0  0  0  0
  -21.0846   -8.8780   19.8935 H   0  0  0  0  0  0
  -22.3721  -10.9673   19.6164 H   0  0  0  0  0  0
  -21.2022   -7.6147   23.9730 H   0  0  0  0  0  0
  -21.1459   -6.0511   25.9084 H   0  0  0  0  0  0
  -22.0604   -2.7607   23.2846 H   0  0  0  0  0  0
  -22.4127  -11.9904   22.4800 H   0  0  0  0  0  0
  -21.1109  -13.1257   22.2611 H   0  0  0  0  0  0
  -24.6585  -15.8427   20.5221 H   0  0  0  0  0  0
  -26.2847  -15.6292   20.1047 H   0  0  0  0  0  0
  -26.7173  -32.5437   23.1090 H   0  0  0  0  0  0
  -25.0049  -33.9723   25.0406 H   0  0  0  0  0  0
  -22.7136  -31.3044   21.4039 H   0  0  0  0  0  0
  -23.3748  -35.9627   23.3303 H   0  0  0  0  0  0
  -24.3572  -36.8920   22.2054 H   0  0  0  0  0  0
  -23.7245  -37.6493   23.6667 H   0  0  0  0  0  0
  -26.0978  -31.5472   20.6073 H   0  0  0  0  0  0
  -26.8412  -30.8317   22.0080 H   0  0  0  0  0  0
  -28.1136  -28.9694   21.1999 H   0  0  0  0  0  0
  -25.9816  -25.9550   18.9524 H   0  0  0  0  0  0
  -23.9762  -27.3268   18.9819 H   0  0  0  0  0  0
  -23.7551  -30.5979   19.4050 H   0  0  0  0  0  0
  -22.7543  -29.2520   19.8568 H   0  0  0  0  0  0
  -25.1293  -36.1931   25.0819 H   0  0  0  0  0  0
  -20.9975  -28.3266   24.1401 H   0  0  0  0  0  0
  -20.5672  -26.2300   23.3616 H   0  0  0  0  0  0
  -21.6644  -26.7436   22.1207 H   0  0  0  0  0  0
  -19.6915  -25.6291   21.1244 H   0  0  0  0  0  0
  -19.6689  -27.3190   20.6742 H   0  0  0  0  0  0
  -17.4202  -26.6674   21.4029 H   0  0  0  0  0  0
  -18.0333  -26.0069   22.9023 H   0  0  0  0  0  0
  -19.7944  -30.7273   24.2258 H   0  0  0  0  0  0
  -17.5024  -31.6265   24.5173 H   0  0  0  0  0  0
  -15.5360  -30.2994   23.7649 H   0  0  0  0  0  0
  -15.8676  -28.0826   22.7063 H   0  0  0  0  0  0
  -24.5907  -30.7074   25.7789 H   0  0  0  0  0  0
  -24.8935  -32.2882   26.4897 H   0  0  0  0  0  0
  -25.8067  -30.8887   27.0225 H   0  0  0  0  0  0
  -26.2922  -29.6753   24.1220 H   0  0  0  0  0  0
  -27.4053  -29.7270   25.4690 H   0  0  0  0  0  0
  -27.8785  -30.4290   23.9402 H   0  0  0  0  0  0
  -27.2649  -33.3625   26.2074 H   0  0  0  0  0  0
  -28.3861  -32.6907   25.0330 H   0  0  0  0  0  0
  -28.0723  -31.8464   26.5422 H   0  0  0  0  0  0
  -28.2599  -38.0098   24.7515 H   0  0  0  0  0  0
  -28.1073  -36.2631   24.6289 H   0  0  0  0  0  0
  -27.2297  -37.1445   25.8870 H   0  0  0  0  0  0
  -20.9383  -29.8761   21.6880 H   0  0  0  0  0  0
  -26.0171  -38.2849   24.1417 H   0  0  0  0  0  0
  -29.7752  -20.0737   22.8220 H   0  0  0  0  0  0
  -29.9313  -17.7092   23.2229 H   0  0  0  0  0  0
  -29.6996  -19.3556   18.5800 H   0  0  0  0  0  0
  -31.8169  -23.5199   19.1901 H   0  0  0  0  0  0
  -32.5358  -23.4748   20.7809 H   0  0  0  0  0  0
  -30.8052  -25.2885   20.5100 H   0  0  0  0  0  0
  -30.4648  -24.2137   21.8448 H   0  0  0  0  0  0
  -29.2906  -23.9803   19.0484 H   0  0  0  0  0  0
  -30.2467  -14.1566   23.0594 H   0  0  0  0  0  0
  -29.2147  -15.5376   23.3627 H   0  0  0  0  0  0
  -30.9800  -15.7056   23.3728 H   0  0  0  0  0  0
  -27.9267  -24.9815   21.5900 H   0  0  0  0  0  0
  -27.1384  -24.6509   20.0945 H   0  0  0  0  0  0
  1 25  1  0  0  0
  1 30  2  0  0  0
  1 85  1  0  0  0
  2  3  1  0  0  0
  2 25  1  0  0  0
  2 89  1  0  0  0
  2 90  1  0  0  0
  3  4  1  0  0  0
  3 91  1  0  0  0
  3 92  1  0  0  0
  4  5  1  0  0  0
  4 93  1  0  0  0
  4 94  1  0  0  0
  5  6  1  0  0  0
  5 26  1  0  0  0
  5 95  1  0  0  0
  6 25  1  0  0  0
  6 96  1  0  0  0
  6 97  1  0  0  0
  7  8  2  0  0  0
  7 26  1  0  0  0
  7 29  1  0  0  0
  8  9  1  0  0  0
  8 22  1  0  0  0
  9 10  1  0  0  0
  9 27  2  0  0  0
 10 11  2  0  0  0
 10 15  1  0  0  0
 11 12  1  0  0  0
 11 98  1  0  0  0
 12 13  2  0  0  0
 12 99  1  0  0  0
 13 14  1  0  0  0
 13 31  1  0  0  0
 14 15  2  0  0  0
 14100  1  0  0  0
 15101  1  0  0  0
 16 17  2  0  0  0
 16 21  1  0  0  0
 16 31  1  0  0  0
 17 18  1  0  0  0
 17102  1  0  0  0
 18 19  2  0  0  0
 18103  1  0  0  0
 19 20  1  0  0  0
 19 24  1  0  0  0
 20 21  2  0  0  0
 20104  1  0  0  0
 21 23  1  0  0  0
 22 28  1  0  0  0
 22 32  2  0  0  0
 26 27  1  0  0  0
 28105  1  0  0  0
 28106  1  0  0  0
 29107  1  0  0  0
 29108  1  0  0  0
 33 34  1  0  0  0
 33 66  1  0  0  0
 33 70  2  0  0  0
 34 36  1  0  0  0
 34 59  1  0  0  0
 34109  1  0  0  0
 35 44  2  0  0  0
 35 45  1  0  0  0
 35 68  1  0  0  0
 36 56  1  0  0  0
 36110  1  0  0  0
 37 39  1  0  0  0
 37 47  1  0  0  0
 37 66  1  0  0  0
 37111  1  0  0  0
 38 43  2  0  0  0
 38 46  1  0  0  0
 38 47  1  0  0  0
 39 64  1  0  0  0
 39 67  2  0  0  0
 40 52  1  0  0  0
 40 53  2  0  0  0
 40 58  1  0  0  0
 41112  1  0  0  0
 41113  1  0  0  0
 41114  1  0  0  0
 41 48  1  0  0  0
 42 43  1  0  0  0
 42 66  1  0  0  0
 42115  1  0  0  0
 42116  1  0  0  0
 43 44  1  0  0  0
 44117  1  0  0  0
 45 46  2  0  0  0
 45118  1  0  0  0
 46119  1  0  0  0
 47120  1  0  0  0
 47121  1  0  0  0
 48 56  1  0  0  0
 48 65  1  0  0  0
 48122  1  0  0  0
 49 50  1  0  0  0
 49 53  1  0  0  0
 49 64  1  0  0  0
 49123  1  0  0  0
 50 51  1  0  0  0
 50124  1  0  0  0
 50125  1  0  0  0
 51 52  1  0  0  0
 51126  1  0  0  0
 51127  1  0  0  0
 52128  1  0  0  0
 52129  1  0  0  0
 53 54  1  0  0  0
 54 55  2  0  0  0
 54130  1  0  0  0
 55 57  1  0  0  0
 55131  1  0  0  0
 56 69  2  0  0  0
 57 58  2  0  0  0
 57132  1  0  0  0
 58133  1  0  0  0
 59 60  1  0  0  0
 59 61  1  0  0  0
 59 62  1  0  0  0
 60134  1  0  0  0
 60135  1  0  0  0
 60136  1  0  0  0
 61137  1  0  0  0
 61138  1  0  0  0
 61139  1  0  0  0
 62140  1  0  0  0
 62141  1  0  0  0
 62142  1  0  0  0
 63 65  1  0  0  0
 63143  1  0  0  0
 63144  1  0  0  0
 63145  1  0  0  0
 64146  1  0  0  0
 65147  1  0  0  0
 68 83  1  0  0  0
 71 72  2  0  0  0
 71 74  1  0  0  0
 71148  1  0  0  0
 72 75  1  0  0  0
 72149  1  0  0  0
 73 74  2  0  0  0
 73 76  1  0  0  0
 73150  1  0  0  0
 74 84  1  0  0  0
 75 76  2  0  0  0
 75 85  1  0  0  0
 76 88  1  0  0  0
 77 79  1  0  0  0
 77 84  1  0  0  0
 77 86  2  0  0  0
 78 81  1  0  0  0
 78 84  1  0  0  0
 78 87  2  0  0  0
 79 80  1  0  0  0
 79151  1  0  0  0
 79152  1  0  0  0
 80 81  1  0  0  0
 80153  1  0  0  0
 80154  1  0  0  0
 81 83  1  0  0  0
 81155  1  0  0  0
 82 85  1  0  0  0
 82156  1  0  0  0
 82157  1  0  0  0
 82158  1  0  0  0
 83159  1  0  0  0
 83160  1  0  0  0
M  ISO  4   1 100  68 101  83 101  85 100
M  END
> <chiral flag>
0

> <version>
0

> <s_m_source_file>
/data/baiqing/PycharmProjects/Reinvent-master-3.2/result/LINK_invent/BTK/process_docking_weight1_custom_product_contain_oxygen_bond_distance_aromatic_linkinvent_7_9_3/rearranged_h_0099.sdf

> <i_m_source_file_index>
42

> <r_mmod_Potential_Energy-OPLS-2005>
301.292327880859

> <r_mmod_Stretch_Energy-OPLS-2005>
107.427543640137

> <r_mmod_Bend_Energy-OPLS-2005>
148.309448242188

> <r_mmod_Torsional_Energy-OPLS-2005>
338.691680908203

> <r_mmod_Improper_Torsional_Energy-OPLS-2005>
4.34201717376709

> <r_mmod_Van_der_Waal_Energy-OPLS-2005>
171.801040649414

> <r_mmod_Electrostatic_Energy-OPLS-2005>
-297.755737304688

> <r_mmod_Solvation_Energy-OPLS-2005>
-221.224685668945

> <b_mmod_Minimization_Converged-OPLS-2005>
0

> <r_mmod_RMS_Derivative-OPLS-2005>
1.53622829914093

$$$$
42
                    3D
 Structure written by MMmdl.
160169  0  0  1  0            999 V2000
  -30.6662  -14.6281   20.5063 C   0  0  0  0  0  0
  -30.4348  -12.3836   19.4571 C   0  0  0  0  0  0
  -29.5079  -12.5043   18.2290 C   0  0  0  0  0  0
  -28.0304  -12.3494   18.6388 C   0  0  0  0  0  0
  -27.6570  -13.2223   19.8651 C   0  0  2  0  0  0
  -28.7035  -13.0916   20.9961 C   0  0  0  0  0  0
  -25.2569  -13.8175   20.5679 C   0  0  0  0  0  0
  -24.1829  -13.0445   20.9181 C   0  0  0  0  0  0
  -24.6393  -11.6907   20.8754 C   0  0  0  0  0  0
  -23.9042  -10.4294   21.0399 C   0  0  0  0  0  0
  -24.3585   -9.4203   21.9181 C   0  0  0  0  0  0
  -23.6270   -8.2236   22.0742 C   0  0  0  0  0  0
  -22.4261   -8.0271   21.3522 C   0  0  0  0  0  0
  -21.9886   -9.0251   20.4649 C   0  0  0  0  0  0
  -22.7197  -10.2144   20.3064 C   0  0  0  0  0  0
  -21.6854   -6.0719   22.5266 C   0  0  0  0  0  0
  -21.4018   -6.5616   23.8201 C   0  0  0  0  0  0
  -21.3669   -5.6763   24.9158 C   0  0  0  0  0  0
  -21.6039   -4.3025   24.7205 C   0  0  0  0  0  0
  -21.8822   -3.8124   23.4322 C   0  0  0  0  0  0
  -21.9193   -4.6948   22.3382 C   0  0  0  0  0  0
  -22.7854  -13.5262   21.1836 C   0  0  0  0  0  0
  -22.1661   -4.2133   21.0961 F   0  0  0  0  0  0
  -21.5628   -3.4510   25.7713 F   0  0  0  0  0  0
  -30.0245  -13.4167   20.4315 N   0  0  0  0  0  0
  -26.3013  -12.9384   20.3336 N   0  0  0  0  0  0
  -25.9335  -11.6527   20.5774 N   0  0  0  0  0  0
  -22.0467  -12.8292   22.0407 N   0  0  0  0  0  0
  -25.4272  -15.1889   20.4016 N   0  0  0  0  0  0
  -31.8198  -14.7521   20.0897 O   0  0  0  0  0  0
  -21.6627   -6.8866   21.4230 O   0  0  0  0  0  0
  -22.3549  -14.5567   20.6682 O   0  0  0  0  0  0
  -24.6256  -31.8602   23.2036 C   0  0  0  0  0  0
  -25.9103  -32.4787   23.8359 C   0  0  1  0  0  0
  -27.2218  -27.3321   20.1174 C   0  0  0  0  0  0
  -25.5931  -33.8582   24.2300 N   0  0  0  0  0  0
  -23.4193  -30.4843   21.5448 C   0  0  2  0  0  0
  -24.8648  -28.9380   20.1113 C   0  0  0  0  0  0
  -22.7467  -29.4632   22.4922 C   0  0  0  0  0  0
  -18.0275  -28.1376   22.8484 C   0  0  0  0  0  0
  -24.1477  -36.7275   23.2641 C   0  0  0  0  0  0
  -25.9583  -30.7944   21.3736 C   0  0  0  0  0  0
  -26.0328  -29.4235   20.7138 C   0  0  0  0  0  0
  -27.2162  -28.6317   20.7042 C   0  0  0  0  0  0
  -26.0354  -26.8933   19.4921 C   0  0  0  0  0  0
  -24.8665  -27.6795   19.4889 C   0  0  0  0  0  0
  -23.6335  -29.8178   20.1599 C   0  0  0  0  0  0
  -25.4090  -36.3086   24.0355 C   0  0  1  0  0  0
  -20.5879  -28.3681   23.1270 C   0  0  2  0  0  0
  -20.6763  -26.9407   22.5394 C   0  0  0  0  0  0
  -19.5752  -26.6374   21.5186 C   0  0  0  0  0  0
  -18.1925  -26.7935   22.1593 C   0  0  0  0  0  0
  -19.1525  -28.8843   23.2885 C   0  0  0  0  0  0
  -18.9455  -30.1441   23.8913 C   0  0  0  0  0  0
  -17.6459  -30.6598   24.0539 C   0  0  0  0  0  0
  -25.9031  -34.9465   23.5123 C   0  0  0  0  0  0
  -16.5345  -29.9086   23.6328 C   0  0  0  0  0  0
  -16.7268  -28.6486   23.0387 C   0  0  0  0  0  0
  -26.4497  -31.6624   25.0744 C   0  0  0  0  0  0
  -25.3753  -31.3831   26.1509 C   0  0  0  0  0  0
  -27.0312  -30.3036   24.6217 C   0  0  0  0  0  0
  -27.6063  -32.4375   25.7482 C   0  0  0  0  0  0
  -27.5586  -37.1773   24.8454 C   0  0  0  0  0  0
  -21.4176  -29.3039   22.3671 N   0  0  0  0  0  0
  -26.4275  -37.3776   23.9425 N   0  0  0  0  0  0
  -24.6865  -31.0626   22.0975 N   0  0  0  0  0  0
  -23.4194  -28.8172   23.3003 O   0  0  0  0  0  0
  -28.3469  -26.5033   20.1244 O   0  0  0  0  0  0
  -26.5569  -34.8943   22.4666 O   0  0  0  0  0  0
  -23.5424  -32.1373   23.7388 O   0  0  0  0  0  0
  -31.1740  -19.3502   20.6438 C   0  0  0  0  0  0
  -28.8112  -17.9190   20.7769 C   0  0  0  0  0  0
  -29.9716  -20.1278   20.6260 C   0  0  0  0  0  0
  -31.2091  -17.9253   20.7256 C   0  0  0  0  0  0
  -30.0119  -17.1554   20.7827 C   0  0  0  0  0  0
  -28.7807  -19.3436   20.7011 C   0  0  0  0  0  0
  -31.2517  -23.7355   21.0622 C   0  0  0  0  0  0
  -30.5324  -24.3490   19.8748 C   0  0  0  0  0  0
  -31.2349  -22.2033   21.1023 C   0  0  0  0  0  0
  -28.7943  -22.4689   20.4204 C   0  0  0  0  0  0
  -29.0384  -23.9726   19.8958 C   0  0  1  0  0  0
  -28.1784  -25.1122   20.5957 C   0  0  0  0  0  0
  -30.0053  -21.5826   20.5565 N   0  0  0  0  0  0
  -32.4549  -17.3047   20.7809 N   0  0  0  0  0  0
  -29.9023  -15.6920   20.9145 N   0  0  0  0  0  0
  -31.8119  -24.4212   21.9199 O   0  0  0  0  0  0
  -27.5666  -19.9463   20.7283 F   0  0  0  0  0  0
  -31.4771  -12.4890   19.1500 H   0  0  0  0  0  0
  -30.3559  -11.3901   19.9023 H   0  0  0  0  0  0
  -29.7731  -11.7545   17.4822 H   0  0  0  0  0  0
  -29.6571  -13.4745   17.7544 H   0  0  0  0  0  0
  -27.8592  -11.2984   18.8722 H   0  0  0  0  0  0
  -27.3805  -12.5858   17.7953 H   0  0  0  0  0  0
  -27.6780  -14.2562   19.5206 H   0  0  0  0  0  0
  -28.7112  -12.0778   21.3975 H   0  0  0  0  0  0
  -28.4499  -13.7426   21.8342 H   0  0  0  0  0  0
  -25.2731   -9.5695   22.4750 H   0  0  0  0  0  0
  -23.9973   -7.4639   22.7460 H   0  0  0  0  0  0
  -21.0813   -8.8777   19.8982 H   0  0  0  0  0  0
  -22.3626  -10.9685   19.6181 H   0  0  0  0  0  0
  -21.2016   -7.6122   23.9698 H   0  0  0  0  0  0
  -21.1502   -6.0486   25.9062 H   0  0  0  0  0  0
  -22.0606   -2.7591   23.2811 H   0  0  0  0  0  0
  -22.4011  -11.9922   22.4797 H   0  0  0  0  0  0
  -21.1127  -13.1422   22.2641 H   0  0  0  0  0  0
  -24.6495  -15.8375   20.4718 H   0  0  0  0  0  0
  -26.2516  -15.6063   19.9927 H   0  0  0  0  0  0
  -26.7167  -32.5466   23.1102 H   0  0  0  0  0  0
  -25.0207  -33.9719   25.0541 H   0  0  0  0  0  0
  -22.7135  -31.3045   21.4019 H   0  0  0  0  0  0
  -23.3776  -35.9570   23.3274 H   0  0  0  0  0  0
  -24.3595  -36.8895   22.2065 H   0  0  0  0  0  0
  -23.7202  -37.6465   23.6649 H   0  0  0  0  0  0
  -26.0894  -31.5588   20.6072 H   0  0  0  0  0  0
  -26.8391  -30.8410   22.0021 H   0  0  0  0  0  0
  -28.1167  -28.9986   21.1764 H   0  0  0  0  0  0
  -26.0032  -25.9303   19.0025 H   0  0  0  0  0  0
  -23.9714  -27.3056   19.0102 H   0  0  0  0  0  0
  -23.7507  -30.5904   19.3982 H   0  0  0  0  0  0
  -22.7551  -29.2423   19.8637 H   0  0  0  0  0  0
  -25.1274  -36.1935   25.0852 H   0  0  0  0  0  0
  -20.9963  -28.3250   24.1391 H   0  0  0  0  0  0
  -20.5623  -26.2297   23.3592 H   0  0  0  0  0  0
  -21.6640  -26.7426   22.1207 H   0  0  0  0  0  0
  -19.6901  -25.6267   21.1263 H   0  0  0  0  0  0
  -19.6714  -27.3136   20.6680 H   0  0  0  0  0  0
  -17.4193  -26.6681   21.3991 H   0  0  0  0  0  0
  -18.0325  -26.0081   22.8995 H   0  0  0  0  0  0
  -19.7935  -30.7225   24.2321 H   0  0  0  0  0  0
  -17.5032  -31.6304   24.5095 H   0  0  0  0  0  0
  -15.5353  -30.2990   23.7663 H   0  0  0  0  0  0
  -15.8660  -28.0792   22.7144 H   0  0  0  0  0  0
  -24.5870  -30.7223   25.7893 H   0  0  0  0  0  0
  -24.9023  -32.3044   26.4920 H   0  0  0  0  0  0
  -25.8095  -30.9039   27.0293 H   0  0  0  0  0  0
  -26.2885  -29.6824   24.1200 H   0  0  0  0  0  0
  -27.3943  -29.7274   25.4736 H   0  0  0  0  0  0
  -27.8791  -30.4301   23.9483 H   0  0  0  0  0  0
  -27.2648  -33.3642   26.2102 H   0  0  0  0  0  0
  -28.3816  -32.6996   25.0274 H   0  0  0  0  0  0
  -28.0806  -31.8517   26.5362 H   0  0  0  0  0  0
  -28.2581  -38.0094   24.7525 H   0  0  0  0  0  0
  -28.1110  -36.2628   24.6215 H   0  0  0  0  0  0
  -27.2344  -37.1368   25.8872 H   0  0  0  0  0  0
  -20.9351  -29.8773   21.6895 H   0  0  0  0  0  0
  -26.0179  -38.2856   24.1433 H   0  0  0  0  0  0
  -32.1304  -19.8466   20.5990 H   0  0  0  0  0  0
  -27.8634  -17.4058   20.8391 H   0  0  0  0  0  0
  -30.9946  -23.9393   18.9757 H   0  0  0  0  0  0
  -30.6770  -25.4288   19.8417 H   0  0  0  0  0  0
  -31.3989  -21.8755   22.1299 H   0  0  0  0  0  0
  -32.1053  -21.8962   20.5226 H   0  0  0  0  0  0
  -28.0895  -22.0033   19.7297 H   0  0  0  0  0  0
  -28.2792  -22.5009   21.3828 H   0  0  0  0  0  0
  -28.7250  -23.9787   18.8506 H   0  0  0  0  0  0
  -28.4354  -25.1239   21.6557 H   0  0  0  0  0  0
  -27.1316  -24.8050   20.5771 H   0  0  0  0  0  0
  -33.2358  -17.7869   20.3494 H   0  0  0  0  0  0
  -32.4399  -16.3105   20.5249 H   0  0  0  0  0  0
  -28.9932  -15.3801   21.2137 H   0  0  0  0  0  0
  1 25  1  0  0  0
  1 30  2  0  0  0
  1 85  1  0  0  0
  2  3  1  0  0  0
  2 25  1  0  0  0
  2 88  1  0  0  0
  2 89  1  0  0  0
  3  4  1  0  0  0
  3 90  1  0  0  0
  3 91  1  0  0  0
  4  5  1  0  0  0
  4 92  1  0  0  0
  4 93  1  0  0  0
  5  6  1  0  0  0
  5 26  1  0  0  0
  5 94  1  0  0  0
  6 25  1  0  0  0
  6 95  1  0  0  0
  6 96  1  0  0  0
  7  8  2  0  0  0
  7 26  1  0  0  0
  7 29  1  0  0  0
  8  9  1  0  0  0
  8 22  1  0  0  0
  9 10  1  0  0  0
  9 27  2  0  0  0
 10 11  2  0  0  0
 10 15  1  0  0  0
 11 12  1  0  0  0
 11 97  1  0  0  0
 12 13  2  0  0  0
 12 98  1  0  0  0
 13 14  1  0  0  0
 13 31  1  0  0  0
 14 15  2  0  0  0
 14 99  1  0  0  0
 15100  1  0  0  0
 16 17  2  0  0  0
 16 21  1  0  0  0
 16 31  1  0  0  0
 17 18  1  0  0  0
 17101  1  0  0  0
 18 19  2  0  0  0
 18102  1  0  0  0
 19 20  1  0  0  0
 19 24  1  0  0  0
 20 21  2  0  0  0
 20103  1  0  0  0
 21 23  1  0  0  0
 22 28  1  0  0  0
 22 32  2  0  0  0
 26 27  1  0  0  0
 28104  1  0  0  0
 28105  1  0  0  0
 29106  1  0  0  0
 29107  1  0  0  0
 33 34  1  0  0  0
 33 66  1  0  0  0
 33 70  2  0  0  0
 34 36  1  0  0  0
 34 59  1  0  0  0
 34108  1  0  0  0
 35 44  2  0  0  0
 35 45  1  0  0  0
 35 68  1  0  0  0
 36 56  1  0  0  0
 36109  1  0  0  0
 37 39  1  0  0  0
 37 47  1  0  0  0
 37 66  1  0  0  0
 37110  1  0  0  0
 38 43  2  0  0  0
 38 46  1  0  0  0
 38 47  1  0  0  0
 39 64  1  0  0  0
 39 67  2  0  0  0
 40 52  1  0  0  0
 40 53  2  0  0  0
 40 58  1  0  0  0
 41111  1  0  0  0
 41112  1  0  0  0
 41113  1  0  0  0
 41 48  1  0  0  0
 42 43  1  0  0  0
 42 66  1  0  0  0
 42114  1  0  0  0
 42115  1  0  0  0
 43 44  1  0  0  0
 44116  1  0  0  0
 45 46  2  0  0  0
 45117  1  0  0  0
 46118  1  0  0  0
 47119  1  0  0  0
 47120  1  0  0  0
 48 56  1  0  0  0
 48 65  1  0  0  0
 48121  1  0  0  0
 49 50  1  0  0  0
 49 53  1  0  0  0
 49 64  1  0  0  0
 49122  1  0  0  0
 50 51  1  0  0  0
 50123  1  0  0  0
 50124  1  0  0  0
 51 52  1  0  0  0
 51125  1  0  0  0
 51126  1  0  0  0
 52127  1  0  0  0
 52128  1  0  0  0
 53 54  1  0  0  0
 54 55  2  0  0  0
 54129  1  0  0  0
 55 57  1  0  0  0
 55130  1  0  0  0
 56 69  2  0  0  0
 57 58  2  0  0  0
 57131  1  0  0  0
 58132  1  0  0  0
 59 60  1  0  0  0
 59 61  1  0  0  0
 59 62  1  0  0  0
 60133  1  0  0  0
 60134  1  0  0  0
 60135  1  0  0  0
 61136  1  0  0  0
 61137  1  0  0  0
 61138  1  0  0  0
 62139  1  0  0  0
 62140  1  0  0  0
 62141  1  0  0  0
 63 65  1  0  0  0
 63142  1  0  0  0
 63143  1  0  0  0
 63144  1  0  0  0
 64145  1  0  0  0
 65146  1  0  0  0
 68 82  1  0  0  0
 71 73  2  0  0  0
 71 74  1  0  0  0
 71147  1  0  0  0
 72 75  1  0  0  0
 72 76  2  0  0  0
 72148  1  0  0  0
 73 76  1  0  0  0
 73 83  1  0  0  0
 74 75  2  0  0  0
 74 84  1  0  0  0
 75 85  1  0  0  0
 76 87  1  0  0  0
 77 78  1  0  0  0
 77 79  1  0  0  0
 77 86  2  0  0  0
 78 81  1  0  0  0
 78149  1  0  0  0
 78150  1  0  0  0
 79 83  1  0  0  0
 79151  1  0  0  0
 79152  1  0  0  0
 80 81  1  0  0  0
 80 83  1  0  0  0
 80153  1  0  0  0
 80154  1  0  0  0
 81 82  1  0  0  0
 81155  1  0  0  0
 82156  1  0  0  0
 82157  1  0  0  0
 84158  1  0  0  0
 84159  1  0  0  0
 85160  1  0  0  0
M  ISO  4   1 100  68 101  82 101  85 100
M  END
> <chiral flag>
0

> <version>
0

> <s_m_source_file>
/data/baiqing/PycharmProjects/Reinvent-master-3.2/result/LINK_invent/BTK/process_docking_weight1_custom_product_contain_oxygen_bond_distance_aromatic_linkinvent_7_9_3/rearranged_h_0099.sdf

> <i_m_source_file_index>
43

> <r_mmod_Potential_Energy-OPLS-2005>
70.0209808349609

> <r_mmod_Stretch_Energy-OPLS-2005>
89.3481597900391

> <r_mmod_Bend_Energy-OPLS-2005>
157.06706237793

> <r_mmod_Torsional_Energy-OPLS-2005>
255.657989501953

> <r_mmod_Improper_Torsional_Energy-OPLS-2005>
10.0337934494019

> <r_mmod_Van_der_Waal_Energy-OPLS-2005>
169.617767333984

> <r_mmod_Electrostatic_Energy-OPLS-2005>
-418.039001464844

> <r_mmod_Solvation_Energy-OPLS-2005>
-236.007034301758

> <b_mmod_Minimization_Converged-OPLS-2005>
0

> <r_mmod_RMS_Derivative-OPLS-2005>
3.43028378486633

$$$$
43
                    3D
 Structure written by MMmdl.
160169  0  0  1  0            999 V2000
  -30.7367  -14.4210   20.6065 C   0  0  0  0  0  0
  -30.4177  -12.2914   19.4108 C   0  0  0  0  0  0
  -29.4920  -12.5389   18.2026 C   0  0  0  0  0  0
  -28.0115  -12.4044   18.6091 C   0  0  0  0  0  0
  -27.6705  -13.2112   19.8909 C   0  0  2  0  0  0
  -28.7127  -12.9568   21.0060 C   0  0  0  0  0  0
  -25.2632  -13.8192   20.5719 C   0  0  0  0  0  0
  -24.1870  -13.0465   20.9180 C   0  0  0  0  0  0
  -24.6415  -11.6933   20.8742 C   0  0  0  0  0  0
  -23.9060  -10.4321   21.0397 C   0  0  0  0  0  0
  -24.3612   -9.4241   21.9180 C   0  0  0  0  0  0
  -23.6302   -8.2268   22.0741 C   0  0  0  0  0  0
  -22.4279   -8.0298   21.3545 C   0  0  0  0  0  0
  -21.9911   -9.0266   20.4639 C   0  0  0  0  0  0
  -22.7228  -10.2156   20.3049 C   0  0  0  0  0  0
  -21.6860   -6.0754   22.5286 C   0  0  0  0  0  0
  -21.4008   -6.5644   23.8212 C   0  0  0  0  0  0
  -21.3664   -5.6790   24.9169 C   0  0  0  0  0  0
  -21.6048   -4.3058   24.7219 C   0  0  0  0  0  0
  -21.8826   -3.8155   23.4336 C   0  0  0  0  0  0
  -21.9188   -4.6975   22.3401 C   0  0  0  0  0  0
  -22.7892  -13.5266   21.1829 C   0  0  0  0  0  0
  -22.1655   -4.2161   21.0973 F   0  0  0  0  0  0
  -21.5643   -3.4545   25.7728 F   0  0  0  0  0  0
  -30.0527  -13.2521   20.4650 N   0  0  0  0  0  0
  -26.3081  -12.9360   20.3447 N   0  0  0  0  0  0
  -25.9347  -11.6519   20.5781 N   0  0  0  0  0  0
  -22.0507  -12.8267   22.0373 N   0  0  0  0  0  0
  -25.4371  -15.1908   20.4160 N   0  0  0  0  0  0
  -31.8158  -14.6203   20.0468 O   0  0  0  0  0  0
  -21.6645   -6.8897   21.4244 O   0  0  0  0  0  0
  -22.3599  -14.5575   20.6662 O   0  0  0  0  0  0
  -24.6148  -31.8674   23.2108 C   0  0  0  0  0  0
  -25.9050  -32.4810   23.8400 C   0  0  1  0  0  0
  -27.2364  -27.4302   20.0746 C   0  0  0  0  0  0
  -25.5906  -33.8610   24.2329 N   0  0  0  0  0  0
  -23.4018  -30.4919   21.5521 C   0  0  2  0  0  0
  -24.8459  -28.9596   20.1169 C   0  0  0  0  0  0
  -22.7405  -29.4660   22.4999 C   0  0  0  0  0  0
  -18.0270  -28.1366   22.8503 C   0  0  0  0  0  0
  -24.1473  -36.7282   23.2643 C   0  0  0  0  0  0
  -25.9338  -30.8282   21.3689 C   0  0  0  0  0  0
  -26.0075  -29.4658   20.7090 C   0  0  0  0  0  0
  -27.2004  -28.7077   20.6860 C   0  0  0  0  0  0
  -26.0400  -26.9340   19.4989 C   0  0  0  0  0  0
  -24.8563  -27.6928   19.5151 C   0  0  0  0  0  0
  -23.6097  -29.8262   20.1671 C   0  0  0  0  0  0
  -25.4097  -36.3096   24.0346 C   0  0  1  0  0  0
  -20.5858  -28.3653   23.1322 C   0  0  2  0  0  0
  -20.6749  -26.9390   22.5414 C   0  0  0  0  0  0
  -19.5732  -26.6384   21.5206 C   0  0  0  0  0  0
  -18.1915  -26.7917   22.1628 C   0  0  0  0  0  0
  -19.1521  -28.8826   23.2911 C   0  0  0  0  0  0
  -18.9448  -30.1431   23.8919 C   0  0  0  0  0  0
  -17.6451  -30.6577   24.0565 C   0  0  0  0  0  0
  -25.9037  -34.9468   23.5133 C   0  0  0  0  0  0
  -16.5340  -29.9079   23.6329 C   0  0  0  0  0  0
  -16.7260  -28.6491   23.0359 C   0  0  0  0  0  0
  -26.4484  -31.6594   25.0731 C   0  0  0  0  0  0
  -25.3755  -31.3705   26.1487 C   0  0  0  0  0  0
  -27.0320  -30.3028   24.6134 C   0  0  0  0  0  0
  -27.6068  -32.4317   25.7477 C   0  0  0  0  0  0
  -27.5573  -37.1790   24.8472 C   0  0  0  0  0  0
  -21.4133  -29.3024   22.3736 N   0  0  0  0  0  0
  -26.4279  -37.3786   23.9424 N   0  0  0  0  0  0
  -24.6679  -31.0774   22.1012 N   0  0  0  0  0  0
  -23.4181  -28.8205   23.3043 O   0  0  0  0  0  0
  -28.4391  -26.7436   20.0880 O   0  0  0  0  0  0
  -26.5591  -34.8920   22.4691 O   0  0  0  0  0  0
  -23.5342  -32.1443   23.7493 O   0  0  0  0  0  0
  -28.4221  -18.6145   20.8933 C   0  0  0  0  0  0
  -28.7108  -17.2928   21.2883 C   0  0  0  0  0  0
  -30.7112  -18.8820   20.1283 C   0  0  0  0  0  0
  -29.4083  -19.4078   20.2687 C   0  0  0  0  0  0
  -29.9853  -16.7293   21.0616 C   0  0  0  0  0  0
  -31.0097  -17.5625   20.5316 C   0  0  0  0  0  0
  -30.5249  -23.8751   20.0097 C   0  0  0  0  0  0
  -30.5689  -22.4722   20.6305 C   0  0  0  0  0  0
  -28.2904  -23.0619   20.1981 C   0  0  0  0  0  0
  -29.1046  -24.3654   20.3024 C   0  0  2  0  0  0
  -29.0312  -20.7566   19.6544 C   0  0  0  0  0  0
  -28.6197  -25.5114   19.3718 C   0  0  0  0  0  0
  -30.1387  -15.3450   21.3768 N   0  0  0  0  0  0
  -29.1910  -21.9308   20.5538 N   0  3  1  0  0  0
  -32.2834  -17.1273   20.3929 F   0  0  0  0  0  0
  -31.4623  -12.3751   19.1060 H   0  0  0  0  0  0
  -30.3001  -11.2698   19.7764 H   0  0  0  0  0  0
  -29.7270  -11.8412   17.3982 H   0  0  0  0  0  0
  -29.6733  -13.5391   17.8009 H   0  0  0  0  0  0
  -27.8037  -11.3456   18.7658 H   0  0  0  0  0  0
  -27.3653  -12.7221   17.7897 H   0  0  0  0  0  0
  -27.7264  -14.2685   19.6277 H   0  0  0  0  0  0
  -28.6757  -11.9132   21.3251 H   0  0  0  0  0  0
  -28.4734  -13.5361   21.8985 H   0  0  0  0  0  0
  -25.2750   -9.5732   22.4769 H   0  0  0  0  0  0
  -24.0026   -7.4660   22.7446 H   0  0  0  0  0  0
  -21.0849   -8.8775   19.8944 H   0  0  0  0  0  0
  -22.3670  -10.9701   19.6168 H   0  0  0  0  0  0
  -21.1993   -7.6146   23.9728 H   0  0  0  0  0  0
  -21.1478   -6.0512   25.9079 H   0  0  0  0  0  0
  -22.0599   -2.7621   23.2822 H   0  0  0  0  0  0
  -22.4074  -11.9897   22.4742 H   0  0  0  0  0  0
  -21.1121  -13.1304   22.2557 H   0  0  0  0  0  0
  -24.6682  -15.8449   20.5125 H   0  0  0  0  0  0
  -26.2952  -15.6314   20.1095 H   0  0  0  0  0  0
  -26.7106  -32.5513   23.1150 H   0  0  0  0  0  0
  -25.0065  -33.9768   25.0480 H   0  0  0  0  0  0
  -22.6917  -31.3093   21.4123 H   0  0  0  0  0  0
  -23.3746  -35.9605   23.3324 H   0  0  0  0  0  0
  -24.3567  -36.8871   22.2051 H   0  0  0  0  0  0
  -23.7211  -37.6489   23.6640 H   0  0  0  0  0  0
  -26.0583  -31.6016   20.6094 H   0  0  0  0  0  0
  -26.8165  -30.8680   21.9958 H   0  0  0  0  0  0
  -28.1008  -29.1035   21.1349 H   0  0  0  0  0  0
  -25.9637  -25.9659   19.0345 H   0  0  0  0  0  0
  -23.9576  -27.2921   19.0665 H   0  0  0  0  0  0
  -23.7171  -30.5992   19.4054 H   0  0  0  0  0  0
  -22.7353  -29.2428   19.8737 H   0  0  0  0  0  0
  -25.1271  -36.1953   25.0837 H   0  0  0  0  0  0
  -20.9949  -28.3193   24.1444 H   0  0  0  0  0  0
  -20.5626  -26.2258   23.3593 H   0  0  0  0  0  0
  -21.6623  -26.7417   22.1217 H   0  0  0  0  0  0
  -19.6886  -25.6301   21.1217 H   0  0  0  0  0  0
  -19.6668  -27.3209   20.6742 H   0  0  0  0  0  0
  -17.4181  -26.6670   21.4029 H   0  0  0  0  0  0
  -18.0324  -26.0043   22.9009 H   0  0  0  0  0  0
  -19.7927  -30.7236   24.2299 H   0  0  0  0  0  0
  -17.5010  -31.6264   24.5160 H   0  0  0  0  0  0
  -15.5340  -30.2986   23.7638 H   0  0  0  0  0  0
  -15.8662  -28.0805   22.7075 H   0  0  0  0  0  0
  -24.5909  -30.7074   25.7824 H   0  0  0  0  0  0
  -24.8973  -32.2860   26.4970 H   0  0  0  0  0  0
  -25.8109  -30.8842   27.0224 H   0  0  0  0  0  0
  -26.2864  -29.6770   24.1209 H   0  0  0  0  0  0
  -27.4099  -29.7288   25.4606 H   0  0  0  0  0  0
  -27.8702  -30.4337   23.9286 H   0  0  0  0  0  0
  -27.2698  -33.3610   26.2082 H   0  0  0  0  0  0
  -28.3852  -32.6885   25.0281 H   0  0  0  0  0  0
  -28.0768  -31.8428   26.5364 H   0  0  0  0  0  0
  -28.2599  -38.0079   24.7526 H   0  0  0  0  0  0
  -28.1057  -36.2616   24.6286 H   0  0  0  0  0  0
  -27.2301  -37.1425   25.8878 H   0  0  0  0  0  0
  -20.9286  -29.8761   21.6977 H   0  0  0  0  0  0
  -26.0166  -38.2859   24.1454 H   0  0  0  0  0  0
  -27.4174  -18.9920   21.0311 H   0  0  0  0  0  0
  -27.9236  -16.6990   21.7305 H   0  0  0  0  0  0
  -31.4898  -19.4730   19.6654 H   0  0  0  0  0  0
  -30.6896  -23.7979   18.9338 H   0  0  0  0  0  0
  -31.2908  -24.5387   20.4115 H   0  0  0  0  0  0
  -30.8474  -22.5468   21.6816 H   0  0  0  0  0  0
  -31.3150  -21.8384   20.1503 H   0  0  0  0  0  0
  -27.9304  -22.9400   19.1755 H   0  0  0  0  0  0
  -27.4146  -23.0779   20.8470 H   0  0  0  0  0  0
  -29.0651  -24.7001   21.3404 H   0  0  0  0  0  0
  -27.9838  -20.6757   19.3578 H   0  0  0  0  0  0
  -29.5842  -20.9127   18.7274 H   0  0  0  0  0  0
  -27.7721  -25.1781   18.7839 H   0  0  0  0  0  0
  -29.3809  -25.7117   18.6166 H   0  0  0  0  0  0
  -29.3687  -14.9541   21.8966 H   0  0  0  0  0  0
  -28.9381  -21.6252   21.4819 H   0  0  0  0  0  0
  1 25  1  0  0  0
  1 30  2  0  0  0
  1 83  1  0  0  0
  2  3  1  0  0  0
  2 25  1  0  0  0
  2 86  1  0  0  0
  2 87  1  0  0  0
  3  4  1  0  0  0
  3 88  1  0  0  0
  3 89  1  0  0  0
  4  5  1  0  0  0
  4 90  1  0  0  0
  4 91  1  0  0  0
  5  6  1  0  0  0
  5 26  1  0  0  0
  5 92  1  0  0  0
  6 25  1  0  0  0
  6 93  1  0  0  0
  6 94  1  0  0  0
  7  8  2  0  0  0
  7 26  1  0  0  0
  7 29  1  0  0  0
  8  9  1  0  0  0
  8 22  1  0  0  0
  9 10  1  0  0  0
  9 27  2  0  0  0
 10 11  2  0  0  0
 10 15  1  0  0  0
 11 12  1  0  0  0
 11 95  1  0  0  0
 12 13  2  0  0  0
 12 96  1  0  0  0
 13 14  1  0  0  0
 13 31  1  0  0  0
 14 15  2  0  0  0
 14 97  1  0  0  0
 15 98  1  0  0  0
 16 17  2  0  0  0
 16 21  1  0  0  0
 16 31  1  0  0  0
 17 18  1  0  0  0
 17 99  1  0  0  0
 18 19  2  0  0  0
 18100  1  0  0  0
 19 20  1  0  0  0
 19 24  1  0  0  0
 20 21  2  0  0  0
 20101  1  0  0  0
 21 23  1  0  0  0
 22 28  1  0  0  0
 22 32  2  0  0  0
 26 27  1  0  0  0
 28102  1  0  0  0
 28103  1  0  0  0
 29104  1  0  0  0
 29105  1  0  0  0
 33 34  1  0  0  0
 33 66  1  0  0  0
 33 70  2  0  0  0
 34 36  1  0  0  0
 34 59  1  0  0  0
 34106  1  0  0  0
 35 44  2  0  0  0
 35 45  1  0  0  0
 35 68  1  0  0  0
 36 56  1  0  0  0
 36107  1  0  0  0
 37 39  1  0  0  0
 37 47  1  0  0  0
 37 66  1  0  0  0
 37108  1  0  0  0
 38 43  2  0  0  0
 38 46  1  0  0  0
 38 47  1  0  0  0
 39 64  1  0  0  0
 39 67  2  0  0  0
 40 52  1  0  0  0
 40 53  2  0  0  0
 40 58  1  0  0  0
 41109  1  0  0  0
 41110  1  0  0  0
 41111  1  0  0  0
 41 48  1  0  0  0
 42 43  1  0  0  0
 42 66  1  0  0  0
 42112  1  0  0  0
 42113  1  0  0  0
 43 44  1  0  0  0
 44114  1  0  0  0
 45 46  2  0  0  0
 45115  1  0  0  0
 46116  1  0  0  0
 47117  1  0  0  0
 47118  1  0  0  0
 48 56  1  0  0  0
 48 65  1  0  0  0
 48119  1  0  0  0
 49 50  1  0  0  0
 49 53  1  0  0  0
 49 64  1  0  0  0
 49120  1  0  0  0
 50 51  1  0  0  0
 50121  1  0  0  0
 50122  1  0  0  0
 51 52  1  0  0  0
 51123  1  0  0  0
 51124  1  0  0  0
 52125  1  0  0  0
 52126  1  0  0  0
 53 54  1  0  0  0
 54 55  2  0  0  0
 54127  1  0  0  0
 55 57  1  0  0  0
 55128  1  0  0  0
 56 69  2  0  0  0
 57 58  2  0  0  0
 57129  1  0  0  0
 58130  1  0  0  0
 59 60  1  0  0  0
 59 61  1  0  0  0
 59 62  1  0  0  0
 60131  1  0  0  0
 60132  1  0  0  0
 60133  1  0  0  0
 61134  1  0  0  0
 61135  1  0  0  0
 61136  1  0  0  0
 62137  1  0  0  0
 62138  1  0  0  0
 62139  1  0  0  0
 63 65  1  0  0  0
 63140  1  0  0  0
 63141  1  0  0  0
 63142  1  0  0  0
 64143  1  0  0  0
 65144  1  0  0  0
 68 82  1  0  0  0
 71 72  2  0  0  0
 71 74  1  0  0  0
 71145  1  0  0  0
 72 75  1  0  0  0
 72146  1  0  0  0
 73 74  2  0  0  0
 73 76  1  0  0  0
 73147  1  0  0  0
 74 81  1  0  0  0
 75 76  2  0  0  0
 75 83  1  0  0  0
 76 85  1  0  0  0
 77 78  1  0  0  0
 77 80  1  0  0  0
 77148  1  0  0  0
 77149  1  0  0  0
 78 84  1  0  0  0
 78150  1  0  0  0
 78151  1  0  0  0
 79 80  1  0  0  0
 79 84  1  0  0  0
 79152  1  0  0  0
 79153  1  0  0  0
 80 82  1  0  0  0
 80154  1  0  0  0
 81155  1  0  0  0
 81156  1  0  0  0
 81 84  1  0  0  0
 82157  1  0  0  0
 82158  1  0  0  0
 83159  1  0  0  0
 84160  1  0  0  0
M  CHG  1  84   1
M  ISO  4   1 100  68 101  82 101  83 100
M  END
> <chiral flag>
0

> <version>
0

> <s_m_source_file>
/data/baiqing/PycharmProjects/Reinvent-master-3.2/result/LINK_invent/BTK/process_docking_weight1_custom_product_contain_oxygen_bond_distance_aromatic_linkinvent_7_9_3/rearranged_h_0099.sdf

> <i_m_source_file_index>
44

> <r_mmod_Potential_Energy-OPLS-2005>
-120.522636413574

> <r_mmod_Stretch_Energy-OPLS-2005>
37.4996147155762

> <r_mmod_Bend_Energy-OPLS-2005>
132.699584960938

> <r_mmod_Torsional_Energy-OPLS-2005>
289.178039550781

> <r_mmod_Improper_Torsional_Energy-OPLS-2005>
5.00827074050903

> <r_mmod_Van_der_Waal_Energy-OPLS-2005>
156.757858276367

> <r_mmod_Electrostatic_Energy-OPLS-2005>
-280.325714111328

> <r_mmod_Solvation_Energy-OPLS-2005>
-471.454071044922

> <b_mmod_Minimization_Converged-OPLS-2005>
0

> <r_mmod_RMS_Derivative-OPLS-2005>
2.22791647911072

$$$$
44
                    3D
 Structure written by MMmdl.
166175  0  0  1  0            999 V2000
  -30.6478  -14.6249   20.4573 C   0  0  0  0  0  0
  -30.4221  -12.3722   19.4576 C   0  0  0  0  0  0
  -29.5039  -12.5008   18.2243 C   0  0  0  0  0  0
  -28.0293  -12.3327   18.6383 C   0  0  0  0  0  0
  -27.6468  -13.2195   19.8531 C   0  0  2  0  0  0
  -28.6899  -13.1087   20.9875 C   0  0  0  0  0  0
  -25.2489  -13.8143   20.5589 C   0  0  0  0  0  0
  -24.1791  -13.0417   20.9189 C   0  0  0  0  0  0
  -24.6381  -11.6894   20.8754 C   0  0  0  0  0  0
  -23.9060  -10.4281   21.0406 C   0  0  0  0  0  0
  -24.3597   -9.4193   21.9174 C   0  0  0  0  0  0
  -23.6264   -8.2236   22.0759 C   0  0  0  0  0  0
  -22.4246   -8.0284   21.3553 C   0  0  0  0  0  0
  -21.9882   -9.0258   20.4656 C   0  0  0  0  0  0
  -22.7234  -10.2122   20.3049 C   0  0  0  0  0  0
  -21.6853   -6.0711   22.5267 C   0  0  0  0  0  0
  -21.4012   -6.5611   23.8196 C   0  0  0  0  0  0
  -21.3657   -5.6775   24.9161 C   0  0  0  0  0  0
  -21.6038   -4.3039   24.7222 C   0  0  0  0  0  0
  -21.8825   -3.8123   23.4351 C   0  0  0  0  0  0
  -21.9196   -4.6936   22.3399 C   0  0  0  0  0  0
  -22.7823  -13.5215   21.1864 C   0  0  0  0  0  0
  -22.1660   -4.2116   21.0983 F   0  0  0  0  0  0
  -21.5635   -3.4529   25.7738 F   0  0  0  0  0  0
  -30.0089  -13.4156   20.4151 N   0  0  0  0  0  0
  -26.2939  -12.9350   20.3250 N   0  0  0  0  0  0
  -25.9306  -11.6508   20.5747 N   0  0  0  0  0  0
  -22.0465  -12.8228   22.0429 N   0  0  0  0  0  0
  -25.4131  -15.1824   20.3816 N   0  0  0  0  0  0
  -31.8418  -14.7074   20.1589 O   0  0  0  0  0  0
  -21.6637   -6.8860   21.4236 O   0  0  0  0  0  0
  -22.3511  -14.5517   20.6696 O   0  0  0  0  0  0
  -24.6250  -31.8614   23.2060 C   0  0  0  0  0  0
  -25.9118  -32.4777   23.8361 C   0  0  1  0  0  0
  -27.2288  -27.3462   20.0986 C   0  0  0  0  0  0
  -25.5962  -33.8576   24.2301 N   0  0  0  0  0  0
  -23.4152  -30.4900   21.5472 C   0  0  2  0  0  0
  -24.8619  -28.9508   20.1103 C   0  0  0  0  0  0
  -22.7442  -29.4641   22.4912 C   0  0  0  0  0  0
  -18.0287  -28.1377   22.8465 C   0  0  0  0  0  0
  -24.1488  -36.7274   23.2626 C   0  0  0  0  0  0
  -25.9570  -30.7985   21.3766 C   0  0  0  0  0  0
  -26.0302  -29.4299   20.7150 C   0  0  0  0  0  0
  -27.2155  -28.6382   20.7036 C   0  0  0  0  0  0
  -26.0338  -26.9163   19.4734 C   0  0  0  0  0  0
  -24.8632  -27.6962   19.4841 C   0  0  0  0  0  0
  -23.6299  -29.8311   20.1601 C   0  0  0  0  0  0
  -25.4105  -36.3063   24.0323 C   0  0  1  0  0  0
  -20.5886  -28.3687   23.1257 C   0  0  2  0  0  0
  -20.6794  -26.9409   22.5399 C   0  0  0  0  0  0
  -19.5773  -26.6380   21.5194 C   0  0  0  0  0  0
  -18.1943  -26.7921   22.1596 C   0  0  0  0  0  0
  -19.1542  -28.8845   23.2868 C   0  0  0  0  0  0
  -18.9474  -30.1445   23.8889 C   0  0  0  0  0  0
  -17.6476  -30.6574   24.0568 C   0  0  0  0  0  0
  -25.9055  -34.9442   23.5103 C   0  0  0  0  0  0
  -16.5366  -29.9076   23.6334 C   0  0  0  0  0  0
  -16.7276  -28.6504   23.0334 C   0  0  0  0  0  0
  -26.4519  -31.6564   25.0716 C   0  0  0  0  0  0
  -25.3770  -31.3717   26.1455 C   0  0  0  0  0  0
  -27.0355  -30.2977   24.6172 C   0  0  0  0  0  0
  -27.6083  -32.4285   25.7492 C   0  0  0  0  0  0
  -27.5578  -37.1768   24.8442 C   0  0  0  0  0  0
  -21.4163  -29.3033   22.3627 N   0  0  0  0  0  0
  -26.4266  -37.3778   23.9426 N   0  0  0  0  0  0
  -24.6838  -31.0649   22.0995 N   0  0  0  0  0  0
  -23.4174  -28.8162   23.2974 O   0  0  0  0  0  0
  -28.3598  -26.5183   20.1386 O   0  0  0  0  0  0
  -26.5607  -34.8913   22.4657 O   0  0  0  0  0  0
  -23.5425  -32.1399   23.7414 O   0  0  0  0  0  0
  -28.9645  -19.4533   20.6994 C   0  0  0  0  0  0
  -30.9473  -19.2055   19.3939 C   0  0  0  0  0  0
  -28.9858  -18.0462   20.9729 C   0  0  0  0  0  0
  -29.9443  -20.0904   19.8913 C   0  0  0  0  0  0
  -30.9501  -17.7992   19.6000 C   0  0  0  0  0  0
  -29.9689  -17.1664   20.4191 C   0  0  0  0  0  0
  -31.8786  -23.8017   19.7104 C   0  0  0  0  0  0
  -32.1054  -22.5265   18.9004 C   0  0  0  0  0  0
  -30.5999  -24.5936   19.4377 C   0  0  0  0  0  0
  -30.7851  -21.9006   18.4270 C   0  0  0  0  0  0
  -28.9121  -22.5215   19.9301 C   0  0  0  0  0  0
  -29.3404  -24.0625   20.1716 C   0  0  2  0  0  0
  -27.9048  -17.4785   21.8779 C   0  0  0  0  0  0
  -28.1674  -25.0825   19.8689 C   0  0  0  0  0  0
  -29.9533  -21.5055   19.5695 N   0  0  0  0  0  0
  -31.9306  -17.0708   18.9342 N   0  0  0  0  0  0
  -29.8511  -15.7190   20.6738 N   0  0  0  0  0  0
  -32.7092  -24.1930   20.5352 O   0  0  0  0  0  0
  -31.4686  -12.4635   19.1620 H   0  0  0  0  0  0
  -30.3242  -11.3843   19.9095 H   0  0  0  0  0  0
  -29.7692  -11.7592   17.4696 H   0  0  0  0  0  0
  -29.6480  -13.4766   17.7563 H   0  0  0  0  0  0
  -27.8746  -11.2832   18.8894 H   0  0  0  0  0  0
  -27.3735  -12.5433   17.7936 H   0  0  0  0  0  0
  -27.6572  -14.2463   19.4862 H   0  0  0  0  0  0
  -28.6932  -12.1053   21.4144 H   0  0  0  0  0  0
  -28.4414  -13.7847   21.8095 H   0  0  0  0  0  0
  -25.2729   -9.5657   22.4767 H   0  0  0  0  0  0
  -23.9962   -7.4622   22.7468 H   0  0  0  0  0  0
  -21.0815   -8.8776   19.8959 H   0  0  0  0  0  0
  -22.3685  -10.9654   19.6158 H   0  0  0  0  0  0
  -21.1997   -7.6113   23.9686 H   0  0  0  0  0  0
  -21.1467   -6.0501   25.9060 H   0  0  0  0  0  0
  -22.0602   -2.7578   23.2869 H   0  0  0  0  0  0
  -22.4071  -11.9880   22.4812 H   0  0  0  0  0  0
  -21.1091  -13.1280   22.2639 H   0  0  0  0  0  0
  -24.6359  -15.8297   20.4613 H   0  0  0  0  0  0
  -26.2328  -15.6020   19.9641 H   0  0  0  0  0  0
  -26.7175  -32.5454   23.1101 H   0  0  0  0  0  0
  -25.0192  -33.9725   25.0504 H   0  0  0  0  0  0
  -22.7087  -31.3114   21.4100 H   0  0  0  0  0  0
  -23.3763  -35.9590   23.3255 H   0  0  0  0  0  0
  -24.3604  -36.8929   22.2049 H   0  0  0  0  0  0
  -23.7230  -37.6458   23.6680 H   0  0  0  0  0  0
  -26.0962  -31.5658   20.6134 H   0  0  0  0  0  0
  -26.8335  -30.8381   22.0104 H   0  0  0  0  0  0
  -28.1113  -29.0025   21.1873 H   0  0  0  0  0  0
  -25.9699  -25.9645   18.9695 H   0  0  0  0  0  0
  -23.9683  -27.3228   19.0060 H   0  0  0  0  0  0
  -23.7560  -30.6134   19.4111 H   0  0  0  0  0  0
  -22.7470  -29.2681   19.8516 H   0  0  0  0  0  0
  -25.1282  -36.1893   25.0812 H   0  0  0  0  0  0
  -21.0013  -28.3305   24.1362 H   0  0  0  0  0  0
  -20.5707  -26.2293   23.3598 H   0  0  0  0  0  0
  -21.6664  -26.7450   22.1190 H   0  0  0  0  0  0
  -19.6950  -25.6294   21.1209 H   0  0  0  0  0  0
  -19.6712  -27.3196   20.6728 H   0  0  0  0  0  0
  -17.4215  -26.6656   21.3995 H   0  0  0  0  0  0
  -18.0351  -26.0063   22.8993 H   0  0  0  0  0  0
  -19.7957  -30.7261   24.2243 H   0  0  0  0  0  0
  -17.5038  -31.6247   24.5183 H   0  0  0  0  0  0
  -15.5367  -30.2979   23.7670 H   0  0  0  0  0  0
  -15.8671  -28.0827   22.7041 H   0  0  0  0  0  0
  -24.5949  -30.7046   25.7816 H   0  0  0  0  0  0
  -24.8961  -32.2889   26.4857 H   0  0  0  0  0  0
  -25.8113  -30.8929   27.0240 H   0  0  0  0  0  0
  -26.2916  -29.6706   24.1243 H   0  0  0  0  0  0
  -27.4092  -29.7254   25.4676 H   0  0  0  0  0  0
  -27.8775  -30.4235   23.9364 H   0  0  0  0  0  0
  -27.2696  -33.3579   26.2082 H   0  0  0  0  0  0
  -28.3901  -32.6843   25.0329 H   0  0  0  0  0  0
  -28.0744  -31.8399   26.5406 H   0  0  0  0  0  0
  -28.2533  -38.0128   24.7596 H   0  0  0  0  0  0
  -28.1135  -36.2669   24.6124 H   0  0  0  0  0  0
  -27.2321  -37.1246   25.8846 H   0  0  0  0  0  0
  -20.9320  -29.8711   21.6809 H   0  0  0  0  0  0
  -26.0128  -38.2825   24.1515 H   0  0  0  0  0  0
  -28.1668  -20.0453   21.1221 H   0  0  0  0  0  0
  -31.7611  -19.5912   18.8005 H   0  0  0  0  0  0
  -32.6458  -21.8107   19.5197 H   0  0  0  0  0  0
  -32.7462  -22.7569   18.0485 H   0  0  0  0  0  0
  -30.4312  -24.6453   18.3622 H   0  0  0  0  0  0
  -30.7877  -25.6205   19.7514 H   0  0  0  0  0  0
  -30.9631  -21.0954   17.7174 H   0  0  0  0  0  0
  -30.2355  -22.6147   17.8137 H   0  0  0  0  0  0
  -28.1718  -22.4949   19.1295 H   0  0  0  0  0  0
  -28.3774  -22.1861   20.8184 H   0  0  0  0  0  0
  -29.5578  -24.1465   21.2372 H   0  0  0  0  0  0
  -27.3411  -18.2630   22.3820 H   0  0  0  0  0  0
  -28.3351  -16.8389   22.6503 H   0  0  0  0  0  0
  -27.2028  -16.8882   21.2938 H   0  0  0  0  0  0
  -27.2908  -24.7367   20.4183 H   0  0  0  0  0  0
  -27.9297  -24.9830   18.8087 H   0  0  0  0  0  0
  -32.7995  -17.5376   18.6982 H   0  0  0  0  0  0
  -32.0839  -16.1237   19.3049 H   0  0  0  0  0  0
  -28.9382  -15.4498   21.0005 H   0  0  0  0  0  0
  1 25  1  0  0  0
  1 30  2  0  0  0
  1 87  1  0  0  0
  2  3  1  0  0  0
  2 25  1  0  0  0
  2 89  1  0  0  0
  2 90  1  0  0  0
  3  4  1  0  0  0
  3 91  1  0  0  0
  3 92  1  0  0  0
  4  5  1  0  0  0
  4 93  1  0  0  0
  4 94  1  0  0  0
  5  6  1  0  0  0
  5 26  1  0  0  0
  5 95  1  0  0  0
  6 25  1  0  0  0
  6 96  1  0  0  0
  6 97  1  0  0  0
  7  8  2  0  0  0
  7 26  1  0  0  0
  7 29  1  0  0  0
  8  9  1  0  0  0
  8 22  1  0  0  0
  9 10  1  0  0  0
  9 27  2  0  0  0
 10 11  2  0  0  0
 10 15  1  0  0  0
 11 12  1  0  0  0
 11 98  1  0  0  0
 12 13  2  0  0  0
 12 99  1  0  0  0
 13 14  1  0  0  0
 13 31  1  0  0  0
 14 15  2  0  0  0
 14100  1  0  0  0
 15101  1  0  0  0
 16 17  2  0  0  0
 16 21  1  0  0  0
 16 31  1  0  0  0
 17 18  1  0  0  0
 17102  1  0  0  0
 18 19  2  0  0  0
 18103  1  0  0  0
 19 20  1  0  0  0
 19 24  1  0  0  0
 20 21  2  0  0  0
 20104  1  0  0  0
 21 23  1  0  0  0
 22 28  1  0  0  0
 22 32  2  0  0  0
 26 27  1  0  0  0
 28105  1  0  0  0
 28106  1  0  0  0
 29107  1  0  0  0
 29108  1  0  0  0
 33 34  1  0  0  0
 33 66  1  0  0  0
 33 70  2  0  0  0
 34 36  1  0  0  0
 34 59  1  0  0  0
 34109  1  0  0  0
 35 44  2  0  0  0
 35 45  1  0  0  0
 35 68  1  0  0  0
 36 56  1  0  0  0
 36110  1  0  0  0
 37 39  1  0  0  0
 37 47  1  0  0  0
 37 66  1  0  0  0
 37111  1  0  0  0
 38 43  2  0  0  0
 38 46  1  0  0  0
 38 47  1  0  0  0
 39 64  1  0  0  0
 39 67  2  0  0  0
 40 52  1  0  0  0
 40 53  2  0  0  0
 40 58  1  0  0  0
 41112  1  0  0  0
 41113  1  0  0  0
 41114  1  0  0  0
 41 48  1  0  0  0
 42 43  1  0  0  0
 42 66  1  0  0  0
 42115  1  0  0  0
 42116  1  0  0  0
 43 44  1  0  0  0
 44117  1  0  0  0
 45 46  2  0  0  0
 45118  1  0  0  0
 46119  1  0  0  0
 47120  1  0  0  0
 47121  1  0  0  0
 48 56  1  0  0  0
 48 65  1  0  0  0
 48122  1  0  0  0
 49 50  1  0  0  0
 49 53  1  0  0  0
 49 64  1  0  0  0
 49123  1  0  0  0
 50 51  1  0  0  0
 50124  1  0  0  0
 50125  1  0  0  0
 51 52  1  0  0  0
 51126  1  0  0  0
 51127  1  0  0  0
 52128  1  0  0  0
 52129  1  0  0  0
 53 54  1  0  0  0
 54 55  2  0  0  0
 54130  1  0  0  0
 55 57  1  0  0  0
 55131  1  0  0  0
 56 69  2  0  0  0
 57 58  2  0  0  0
 57132  1  0  0  0
 58133  1  0  0  0
 59 60  1  0  0  0
 59 61  1  0  0  0
 59 62  1  0  0  0
 60134  1  0  0  0
 60135  1  0  0  0
 60136  1  0  0  0
 61137  1  0  0  0
 61138  1  0  0  0
 61139  1  0  0  0
 62140  1  0  0  0
 62141  1  0  0  0
 62142  1  0  0  0
 63 65  1  0  0  0
 63143  1  0  0  0
 63144  1  0  0  0
 63145  1  0  0  0
 64146  1  0  0  0
 65147  1  0  0  0
 68 84  1  0  0  0
 71 73  2  0  0  0
 71 74  1  0  0  0
 71148  1  0  0  0
 72 74  2  0  0  0
 72 75  1  0  0  0
 72149  1  0  0  0
 73 76  1  0  0  0
 73 83  1  0  0  0
 74 85  1  0  0  0
 75 76  2  0  0  0
 75 86  1  0  0  0
 76 87  1  0  0  0
 77 78  1  0  0  0
 77 79  1  0  0  0
 77 88  2  0  0  0
 78 80  1  0  0  0
 78150  1  0  0  0
 78151  1  0  0  0
 79 82  1  0  0  0
 79152  1  0  0  0
 79153  1  0  0  0
 80 85  1  0  0  0
 80154  1  0  0  0
 80155  1  0  0  0
 81 82  1  0  0  0
 81 85  1  0  0  0
 81156  1  0  0  0
 81157  1  0  0  0
 82 84  1  0  0  0
 82158  1  0  0  0
 83159  1  0  0  0
 83160  1  0  0  0
 83161  1  0  0  0
 84162  1  0  0  0
 84163  1  0  0  0
 86164  1  0  0  0
 86165  1  0  0  0
 87166  1  0  0  0
M  ISO  4   1 100  68 101  84 101  87 100
M  END
> <chiral flag>
0

> <version>
0

> <s_m_source_file>
/data/baiqing/PycharmProjects/Reinvent-master-3.2/result/LINK_invent/BTK/process_docking_weight1_custom_product_contain_oxygen_bond_distance_aromatic_linkinvent_7_9_3/rearranged_h_0099.sdf

> <i_m_source_file_index>
45

> <r_mmod_Potential_Energy-OPLS-2005>
-4.54936695098877

> <r_mmod_Stretch_Energy-OPLS-2005>
84.9192810058594

> <r_mmod_Bend_Energy-OPLS-2005>
172.128067016602

> <r_mmod_Torsional_Energy-OPLS-2005>
225.694793701172

> <r_mmod_Improper_Torsional_Energy-OPLS-2005>
9.86734580993652

> <r_mmod_Van_der_Waal_Energy-OPLS-2005>
184.771087646484

> <r_mmod_Electrostatic_Energy-OPLS-2005>
-489.13427734375

> <r_mmod_Solvation_Energy-OPLS-2005>
-236.882919311523

> <b_mmod_Minimization_Converged-OPLS-2005>
0

> <r_mmod_RMS_Derivative-OPLS-2005>
2.59413814544678

$$$$
45
                    3D
 Structure written by MMmdl.
155163  0  0  1  0            999 V2000
  -30.7225  -14.4530   20.6181 C   0  0  0  0  0  0
  -30.4227  -12.3154   19.4091 C   0  0  0  0  0  0
  -29.4897  -12.5108   18.1980 C   0  0  0  0  0  0
  -28.0133  -12.3677   18.6162 C   0  0  0  0  0  0
  -27.6623  -13.2060   19.8742 C   0  0  2  0  0  0
  -28.7045  -12.9791   20.9912 C   0  0  0  0  0  0
  -25.2600  -13.8153   20.5676 C   0  0  0  0  0  0
  -24.1847  -13.0435   20.9166 C   0  0  0  0  0  0
  -24.6397  -11.6900   20.8732 C   0  0  0  0  0  0
  -23.9063  -10.4289   21.0407 C   0  0  0  0  0  0
  -24.3615   -9.4202   21.9185 C   0  0  0  0  0  0
  -23.6288   -8.2241   22.0755 C   0  0  0  0  0  0
  -22.4274   -8.0279   21.3541 C   0  0  0  0  0  0
  -21.9909   -9.0255   20.4646 C   0  0  0  0  0  0
  -22.7238  -10.2132   20.3054 C   0  0  0  0  0  0
  -21.6850   -6.0732   22.5274 C   0  0  0  0  0  0
  -21.4013   -6.5635   23.8208 C   0  0  0  0  0  0
  -21.3656   -5.6789   24.9169 C   0  0  0  0  0  0
  -21.6046   -4.3055   24.7221 C   0  0  0  0  0  0
  -21.8823   -3.8144   23.4343 C   0  0  0  0  0  0
  -21.9194   -4.6961   22.3396 C   0  0  0  0  0  0
  -22.7874  -13.5236   21.1833 C   0  0  0  0  0  0
  -22.1665   -4.2144   21.0976 F   0  0  0  0  0  0
  -21.5625   -3.4539   25.7734 F   0  0  0  0  0  0
  -30.0338  -13.2923   20.4388 N   0  0  0  0  0  0
  -26.3032  -12.9319   20.3365 N   0  0  0  0  0  0
  -25.9323  -11.6478   20.5764 N   0  0  0  0  0  0
  -22.0515  -12.8226   22.0389 N   0  0  0  0  0  0
  -25.4350  -15.1868   20.4095 N   0  0  0  0  0  0
  -31.8205  -14.6645   20.0962 O   0  0  0  0  0  0
  -21.6637   -6.8877   21.4240 O   0  0  0  0  0  0
  -22.3562  -14.5550   20.6699 O   0  0  0  0  0  0
  -24.6170  -31.8670   23.2094 C   0  0  0  0  0  0
  -25.9056  -32.4813   23.8397 C   0  0  1  0  0  0
  -27.2334  -27.4268   20.0931 C   0  0  0  0  0  0
  -25.5909  -33.8607   24.2333 N   0  0  0  0  0  0
  -23.4054  -30.4913   21.5491 C   0  0  2  0  0  0
  -24.8521  -28.9559   20.1139 C   0  0  0  0  0  0
  -22.7415  -29.4673   22.4983 C   0  0  0  0  0  0
  -18.0276  -28.1403   22.8495 C   0  0  0  0  0  0
  -24.1476  -36.7297   23.2635 C   0  0  0  0  0  0
  -25.9361  -30.8290   21.3645 C   0  0  0  0  0  0
  -26.0134  -29.4626   20.7127 C   0  0  0  0  0  0
  -27.2092  -28.7058   20.6986 C   0  0  0  0  0  0
  -26.0559  -26.9396   19.4843 C   0  0  0  0  0  0
  -24.8688  -27.6938   19.4967 C   0  0  0  0  0  0
  -23.6147  -29.8231   20.1644 C   0  0  0  0  0  0
  -25.4096  -36.3102   24.0340 C   0  0  1  0  0  0
  -20.5865  -28.3690   23.1309 C   0  0  2  0  0  0
  -20.6762  -26.9422   22.5415 C   0  0  0  0  0  0
  -19.5737  -26.6406   21.5213 C   0  0  0  0  0  0
  -18.1920  -26.7947   22.1630 C   0  0  0  0  0  0
  -19.1526  -28.8863   23.2903 C   0  0  0  0  0  0
  -18.9457  -30.1465   23.8917 C   0  0  0  0  0  0
  -17.6458  -30.6602   24.0582 C   0  0  0  0  0  0
  -25.9031  -34.9464   23.5137 C   0  0  0  0  0  0
  -16.5349  -29.9107   23.6333 C   0  0  0  0  0  0
  -16.7264  -28.6527   23.0352 C   0  0  0  0  0  0
  -26.4476  -31.6593   25.0730 C   0  0  0  0  0  0
  -25.3750  -31.3705   26.1493 C   0  0  0  0  0  0
  -27.0302  -30.3034   24.6108 C   0  0  0  0  0  0
  -27.6064  -32.4301   25.7484 C   0  0  0  0  0  0
  -27.5577  -37.1803   24.8462 C   0  0  0  0  0  0
  -21.4145  -29.3052   22.3716 N   0  0  0  0  0  0
  -26.4277  -37.3797   23.9426 N   0  0  0  0  0  0
  -24.6708  -31.0766   22.0994 N   0  0  0  0  0  0
  -23.4180  -28.8201   23.3017 O   0  0  0  0  0  0
  -28.3792  -26.6579   20.0847 O   0  0  0  0  0  0
  -26.5585  -34.8917   22.4694 O   0  0  0  0  0  0
  -23.5362  -32.1425   23.7487 O   0  0  0  0  0  0
  -30.8162  -18.4538   20.1491 C   0  0  0  0  0  0
  -30.5216  -19.7537   19.6785 C   0  0  0  0  0  0
  -28.9977  -20.0751   21.5349 C   0  0  0  0  0  0
  -30.2282  -17.9533   21.3314 C   0  0  0  0  0  0
  -29.6309  -20.5957   20.3788 C   0  0  0  0  0  0
  -29.2819  -18.7691   22.0090 C   0  0  0  0  0  0
  -29.1818  -24.3935   20.3262 C   0  0  0  0  0  0
  -28.2611  -25.3579   20.5380 C   0  0  0  0  0  0
  -30.7302  -16.6131   21.8996 C   0  0  0  0  0  0
  -29.0802  -22.9669   20.8704 C   0  0  0  0  0  0
  -28.6331  -18.3223   23.1635 N   0  0  0  0  0  0
  -29.4151  -21.9120   19.9078 N   0  0  0  0  0  0
  -30.1144  -15.3850   21.3724 N   0  0  0  0  0  0
  -31.4653  -12.4199   19.1036 H   0  0  0  0  0  0
  -30.3302  -11.3024   19.8035 H   0  0  0  0  0  0
  -29.7274  -11.7844   17.4196 H   0  0  0  0  0  0
  -29.6555  -13.4955   17.7580 H   0  0  0  0  0  0
  -27.8288  -11.3115   18.8153 H   0  0  0  0  0  0
  -27.3582  -12.6383   17.7873 H   0  0  0  0  0  0
  -27.7099  -14.2555   19.5821 H   0  0  0  0  0  0
  -28.6856  -11.9390   21.3203 H   0  0  0  0  0  0
  -28.4576  -13.5653   21.8769 H   0  0  0  0  0  0
  -25.2764   -9.5670   22.4754 H   0  0  0  0  0  0
  -23.9995   -7.4631   22.7471 H   0  0  0  0  0  0
  -21.0841   -8.8777   19.8948 H   0  0  0  0  0  0
  -22.3707  -10.9672   19.6158 H   0  0  0  0  0  0
  -21.2011   -7.6143   23.9705 H   0  0  0  0  0  0
  -21.1474   -6.0522   25.9070 H   0  0  0  0  0  0
  -22.0609   -2.7608   23.2845 H   0  0  0  0  0  0
  -22.4120  -11.9868   22.4751 H   0  0  0  0  0  0
  -21.1143  -13.1266   22.2614 H   0  0  0  0  0  0
  -24.6782  -15.8511   20.5299 H   0  0  0  0  0  0
  -26.3006  -15.6226   20.1159 H   0  0  0  0  0  0
  -26.7127  -32.5524   23.1164 H   0  0  0  0  0  0
  -25.0088  -33.9758   25.0497 H   0  0  0  0  0  0
  -22.6959  -31.3098   21.4098 H   0  0  0  0  0  0
  -23.3734  -35.9635   23.3304 H   0  0  0  0  0  0
  -24.3576  -36.8903   22.2051 H   0  0  0  0  0  0
  -23.7226  -37.6501   23.6643 H   0  0  0  0  0  0
  -26.0501  -31.5915   20.5928 H   0  0  0  0  0  0
  -26.8233  -30.8836   21.9842 H   0  0  0  0  0  0
  -28.1082  -29.0907   21.1597 H   0  0  0  0  0  0
  -26.0563  -25.9720   19.0028 H   0  0  0  0  0  0
  -23.9785  -27.2998   19.0265 H   0  0  0  0  0  0
  -23.7226  -30.5955   19.4020 H   0  0  0  0  0  0
  -22.7386  -29.2430   19.8709 H   0  0  0  0  0  0
  -25.1268  -36.1964   25.0829 H   0  0  0  0  0  0
  -20.9978  -28.3267   24.1422 H   0  0  0  0  0  0
  -20.5664  -26.2297   23.3603 H   0  0  0  0  0  0
  -21.6633  -26.7467   22.1212 H   0  0  0  0  0  0
  -19.6879  -25.6316   21.1244 H   0  0  0  0  0  0
  -19.6669  -27.3212   20.6738 H   0  0  0  0  0  0
  -17.4186  -26.6708   21.4038 H   0  0  0  0  0  0
  -18.0313  -26.0088   22.9023 H   0  0  0  0  0  0
  -19.7932  -30.7285   24.2291 H   0  0  0  0  0  0
  -17.5014  -31.6277   24.5190 H   0  0  0  0  0  0
  -15.5354  -30.3025   23.7639 H   0  0  0  0  0  0
  -15.8663  -28.0856   22.7065 H   0  0  0  0  0  0
  -24.5891  -30.7089   25.7840 H   0  0  0  0  0  0
  -24.8980  -32.2863   26.4993 H   0  0  0  0  0  0
  -25.8109  -30.8834   27.0226 H   0  0  0  0  0  0
  -26.2846  -29.6798   24.1166 H   0  0  0  0  0  0
  -27.4071  -29.7276   25.4570 H   0  0  0  0  0  0
  -27.8680  -30.4347   23.9258 H   0  0  0  0  0  0
  -27.2701  -33.3596   26.2091 H   0  0  0  0  0  0
  -28.3856  -32.6868   25.0294 H   0  0  0  0  0  0
  -28.0744  -31.8396   26.5374 H   0  0  0  0  0  0
  -28.2599  -38.0101   24.7543 H   0  0  0  0  0  0
  -28.1074  -36.2641   24.6248 H   0  0  0  0  0  0
  -27.2307  -37.1418   25.8867 H   0  0  0  0  0  0
  -20.9306  -29.8783   21.6947 H   0  0  0  0  0  0
  -26.0156  -38.2867   24.1455 H   0  0  0  0  0  0
  -31.5399  -17.8508   19.6179 H   0  0  0  0  0  0
  -31.0210  -20.1086   18.7875 H   0  0  0  0  0  0
  -28.2929  -20.6868   22.0789 H   0  0  0  0  0  0
  -30.0710  -24.6366   19.7613 H   0  0  0  0  0  0
  -27.3533  -25.1840   21.1012 H   0  0  0  0  0  0
  -30.6005  -16.6078   22.9815 H   0  0  0  0  0  0
  -31.8128  -16.5814   21.7643 H   0  0  0  0  0  0
  -28.0703  -22.8071   21.2527 H   0  0  0  0  0  0
  -29.7580  -22.8915   21.7226 H   0  0  0  0  0  0
  -27.7940  -18.8086   23.4647 H   0  0  0  0  0  0
  -28.5882  -17.3260   23.3483 H   0  0  0  0  0  0
  -29.9903  -22.1982   19.1189 H   0  0  0  0  0  0
  -29.2005  -15.1457   21.7254 H   0  0  0  0  0  0
  1 25  1  0  0  0
  1 30  2  0  0  0
  1 83  1  0  0  0
  2  3  1  0  0  0
  2 25  1  0  0  0
  2 84  1  0  0  0
  2 85  1  0  0  0
  3  4  1  0  0  0
  3 86  1  0  0  0
  3 87  1  0  0  0
  4  5  1  0  0  0
  4 88  1  0  0  0
  4 89  1  0  0  0
  5  6  1  0  0  0
  5 26  1  0  0  0
  5 90  1  0  0  0
  6 25  1  0  0  0
  6 91  1  0  0  0
  6 92  1  0  0  0
  7  8  2  0  0  0
  7 26  1  0  0  0
  7 29  1  0  0  0
  8  9  1  0  0  0
  8 22  1  0  0  0
  9 10  1  0  0  0
  9 27  2  0  0  0
 10 11  2  0  0  0
 10 15  1  0  0  0
 11 12  1  0  0  0
 11 93  1  0  0  0
 12 13  2  0  0  0
 12 94  1  0  0  0
 13 14  1  0  0  0
 13 31  1  0  0  0
 14 15  2  0  0  0
 14 95  1  0  0  0
 15 96  1  0  0  0
 16 17  2  0  0  0
 16 21  1  0  0  0
 16 31  1  0  0  0
 17 18  1  0  0  0
 17 97  1  0  0  0
 18 19  2  0  0  0
 18 98  1  0  0  0
 19 20  1  0  0  0
 19 24  1  0  0  0
 20 21  2  0  0  0
 20 99  1  0  0  0
 21 23  1  0  0  0
 22 28  1  0  0  0
 22 32  2  0  0  0
 26 27  1  0  0  0
 28100  1  0  0  0
 28101  1  0  0  0
 29102  1  0  0  0
 29103  1  0  0  0
 33 34  1  0  0  0
 33 66  1  0  0  0
 33 70  2  0  0  0
 34 36  1  0  0  0
 34 59  1  0  0  0
 34104  1  0  0  0
 35 44  2  0  0  0
 35 45  1  0  0  0
 35 68  1  0  0  0
 36 56  1  0  0  0
 36105  1  0  0  0
 37 39  1  0  0  0
 37 47  1  0  0  0
 37 66  1  0  0  0
 37106  1  0  0  0
 38 43  2  0  0  0
 38 46  1  0  0  0
 38 47  1  0  0  0
 39 64  1  0  0  0
 39 67  2  0  0  0
 40 52  1  0  0  0
 40 53  2  0  0  0
 40 58  1  0  0  0
 41107  1  0  0  0
 41108  1  0  0  0
 41109  1  0  0  0
 41 48  1  0  0  0
 42 43  1  0  0  0
 42 66  1  0  0  0
 42110  1  0  0  0
 42111  1  0  0  0
 43 44  1  0  0  0
 44112  1  0  0  0
 45 46  2  0  0  0
 45113  1  0  0  0
 46114  1  0  0  0
 47115  1  0  0  0
 47116  1  0  0  0
 48 56  1  0  0  0
 48 65  1  0  0  0
 48117  1  0  0  0
 49 50  1  0  0  0
 49 53  1  0  0  0
 49 64  1  0  0  0
 49118  1  0  0  0
 50 51  1  0  0  0
 50119  1  0  0  0
 50120  1  0  0  0
 51 52  1  0  0  0
 51121  1  0  0  0
 51122  1  0  0  0
 52123  1  0  0  0
 52124  1  0  0  0
 53 54  1  0  0  0
 54 55  2  0  0  0
 54125  1  0  0  0
 55 57  1  0  0  0
 55126  1  0  0  0
 56 69  2  0  0  0
 57 58  2  0  0  0
 57127  1  0  0  0
 58128  1  0  0  0
 59 60  1  0  0  0
 59 61  1  0  0  0
 59 62  1  0  0  0
 60129  1  0  0  0
 60130  1  0  0  0
 60131  1  0  0  0
 61132  1  0  0  0
 61133  1  0  0  0
 61134  1  0  0  0
 62135  1  0  0  0
 62136  1  0  0  0
 62137  1  0  0  0
 63 65  1  0  0  0
 63138  1  0  0  0
 63139  1  0  0  0
 63140  1  0  0  0
 64141  1  0  0  0
 65142  1  0  0  0
 68 78  1  0  0  0
 71 72  2  0  0  0
 71 74  1  0  0  0
 71143  1  0  0  0
 72 75  1  0  0  0
 72144  1  0  0  0
 73 75  2  0  0  0
 73 76  1  0  0  0
 73145  1  0  0  0
 74 76  2  0  0  0
 74 79  1  0  0  0
 75 82  1  0  0  0
 76 81  1  0  0  0
 77 78  2  0  0  0
 77 80  1  0  0  0
 77146  1  0  0  0
 78147  1  0  0  0
 79 83  1  0  0  0
 79148  1  0  0  0
 79149  1  0  0  0
 80 82  1  0  0  0
 80150  1  0  0  0
 80151  1  0  0  0
 81152  1  0  0  0
 81153  1  0  0  0
 82154  1  0  0  0
 83155  1  0  0  0
M  ISO  4   1 100  68 101  78 101  83 100
M  END
> <chiral flag>
0

> <version>
0

> <s_m_source_file>
/data/baiqing/PycharmProjects/Reinvent-master-3.2/result/LINK_invent/BTK/process_docking_weight1_custom_product_contain_oxygen_bond_distance_aromatic_linkinvent_7_9_3/rearranged_h_0099.sdf

> <i_m_source_file_index>
46

> <r_mmod_Potential_Energy-OPLS-2005>
-87.4171752929688

> <r_mmod_Stretch_Energy-OPLS-2005>
38.321662902832

> <r_mmod_Bend_Energy-OPLS-2005>
98.933967590332

> <r_mmod_Torsional_Energy-OPLS-2005>
196.519714355469

> <r_mmod_Improper_Torsional_Energy-OPLS-2005>
8.34127807617188

> <r_mmod_Van_der_Waal_Energy-OPLS-2005>
153.344223022461

> <r_mmod_Electrostatic_Energy-OPLS-2005>
-369.356140136719

> <r_mmod_Solvation_Energy-OPLS-2005>
-225.258483886719

> <b_mmod_Minimization_Converged-OPLS-2005>
0

> <r_mmod_RMS_Derivative-OPLS-2005>
1.39510679244995

$$$$
46
                    3D
 Structure written by MMmdl.
153161  0  0  1  0            999 V2000
  -30.7642  -14.4383   20.6010 C   0  0  0  0  0  0
  -30.4154  -12.3145   19.3951 C   0  0  0  0  0  0
  -29.4778  -12.5008   18.1870 C   0  0  0  0  0  0
  -28.0028  -12.3662   18.6123 C   0  0  0  0  0  0
  -27.6596  -13.2104   19.8698 C   0  0  2  0  0  0
  -28.7123  -13.0102   20.9830 C   0  0  0  0  0  0
  -25.2625  -13.8187   20.5751 C   0  0  0  0  0  0
  -24.1864  -13.0462   20.9169 C   0  0  0  0  0  0
  -24.6419  -11.6918   20.8747 C   0  0  0  0  0  0
  -23.9080  -10.4302   21.0419 C   0  0  0  0  0  0
  -24.3626   -9.4223   21.9206 C   0  0  0  0  0  0
  -23.6310   -8.2256   22.0770 C   0  0  0  0  0  0
  -22.4295   -8.0284   21.3558 C   0  0  0  0  0  0
  -21.9935   -9.0248   20.4648 C   0  0  0  0  0  0
  -22.7257  -10.2137   20.3059 C   0  0  0  0  0  0
  -21.6858   -6.0754   22.5286 C   0  0  0  0  0  0
  -21.4012   -6.5657   23.8223 C   0  0  0  0  0  0
  -21.3651   -5.6802   24.9183 C   0  0  0  0  0  0
  -21.6034   -4.3061   24.7229 C   0  0  0  0  0  0
  -21.8820   -3.8164   23.4347 C   0  0  0  0  0  0
  -21.9194   -4.6983   22.3408 C   0  0  0  0  0  0
  -22.7875  -13.5271   21.1792 C   0  0  0  0  0  0
  -22.1661   -4.2171   21.0986 F   0  0  0  0  0  0
  -21.5617   -3.4540   25.7737 F   0  0  0  0  0  0
  -30.0314  -13.3094   20.4061 N   0  0  0  0  0  0
  -26.3052  -12.9351   20.3414 N   0  0  0  0  0  0
  -25.9352  -11.6497   20.5787 N   0  0  0  0  0  0
  -22.0477  -12.8270   22.0320 N   0  0  0  0  0  0
  -25.4424  -15.1908   20.4260 N   0  0  0  0  0  0
  -31.9040  -14.5551   20.1407 O   0  0  0  0  0  0
  -21.6644   -6.8890   21.4253 O   0  0  0  0  0  0
  -22.3566  -14.5586   20.6640 O   0  0  0  0  0  0
  -24.6162  -31.8676   23.2112 C   0  0  0  0  0  0
  -25.9060  -32.4814   23.8405 C   0  0  1  0  0  0
  -27.2330  -27.4395   20.0987 C   0  0  0  0  0  0
  -25.5911  -33.8616   24.2348 N   0  0  0  0  0  0
  -23.4019  -30.4929   21.5512 C   0  0  2  0  0  0
  -24.8485  -28.9583   20.1194 C   0  0  0  0  0  0
  -22.7399  -29.4694   22.5011 C   0  0  0  0  0  0
  -18.0262  -28.1417   22.8491 C   0  0  0  0  0  0
  -24.1483  -36.7303   23.2630 C   0  0  0  0  0  0
  -25.9280  -30.8386   21.3571 C   0  0  0  0  0  0
  -26.0072  -29.4655   20.7217 C   0  0  0  0  0  0
  -27.2014  -28.7114   20.7147 C   0  0  0  0  0  0
  -26.0633  -26.9488   19.4825 C   0  0  0  0  0  0
  -24.8712  -27.6972   19.4973 C   0  0  0  0  0  0
  -23.6094  -29.8237   20.1656 C   0  0  0  0  0  0
  -25.4085  -36.3104   24.0359 C   0  0  1  0  0  0
  -20.5845  -28.3689   23.1322 C   0  0  2  0  0  0
  -20.6769  -26.9422   22.5435 C   0  0  0  0  0  0
  -19.5744  -26.6410   21.5238 C   0  0  0  0  0  0
  -18.1913  -26.7966   22.1623 C   0  0  0  0  0  0
  -19.1513  -28.8861   23.2912 C   0  0  0  0  0  0
  -18.9454  -30.1468   23.8924 C   0  0  0  0  0  0
  -17.6458  -30.6613   24.0574 C   0  0  0  0  0  0
  -25.9020  -34.9476   23.5146 C   0  0  0  0  0  0
  -16.5337  -29.9126   23.6325 C   0  0  0  0  0  0
  -16.7254  -28.6541   23.0338 C   0  0  0  0  0  0
  -26.4481  -31.6563   25.0713 C   0  0  0  0  0  0
  -25.3743  -31.3645   26.1444 C   0  0  0  0  0  0
  -27.0269  -30.3020   24.6008 C   0  0  0  0  0  0
  -27.6095  -32.4202   25.7477 C   0  0  0  0  0  0
  -27.5605  -37.1746   24.8438 C   0  0  0  0  0  0
  -21.4126  -29.3052   22.3725 N   0  0  0  0  0  0
  -26.4250  -37.3816   23.9474 N   0  0  0  0  0  0
  -24.6677  -31.0801   22.0990 N   0  0  0  0  0  0
  -23.4149  -28.8200   23.3049 O   0  0  0  0  0  0
  -28.4005  -26.7148   20.0238 O   0  0  0  0  0  0
  -26.5585  -34.8934   22.4714 O   0  0  0  0  0  0
  -23.5359  -32.1415   23.7546 O   0  0  0  0  0  0
  -30.6982  -19.0915   21.9805 C   0  0  0  0  0  0
  -30.1594  -20.3820   21.7970 C   0  0  0  0  0  0
  -30.0232  -17.9267   21.5300 C   0  0  0  0  0  0
  -28.9143  -20.5437   21.1519 C   0  0  0  0  0  0
  -28.7584  -18.0927   20.9074 C   0  0  0  0  0  0
  -28.2185  -19.3882   20.7237 C   0  0  0  0  0  0
  -30.7156  -16.5824   21.6607 C   0  0  0  0  0  0
  -28.2922  -24.2791   20.5238 C   0  0  0  0  0  0
  -28.9830  -23.0875   21.2254 C   0  0  0  0  0  0
  -28.5916  -25.7089   21.0348 C   0  0  0  0  0  0
  -28.3358  -21.8070   20.9134 N   0  0  0  0  0  0
  -30.1189  -15.4820   21.1585 N   0  0  0  0  0  0
  -31.8243  -16.5427   22.2118 O   0  0  0  0  0  0
  -27.5137  -24.0714   19.5837 O   0  0  0  0  0  0
  -28.0459  -17.0235   20.4669 F   0  0  0  0  0  0
  -27.0153  -19.5224   20.1134 F   0  0  0  0  0  0
  -31.4538  -12.4090   19.0722 H   0  0  0  0  0  0
  -30.3232  -11.3068   19.8005 H   0  0  0  0  0  0
  -29.7138  -11.7667   17.4140 H   0  0  0  0  0  0
  -29.6423  -13.4799   17.7336 H   0  0  0  0  0  0
  -27.8116  -11.3112   18.8068 H   0  0  0  0  0  0
  -27.3472  -12.6416   17.7857 H   0  0  0  0  0  0
  -27.6986  -14.2557   19.5629 H   0  0  0  0  0  0
  -28.6956  -11.9802   21.3444 H   0  0  0  0  0  0
  -28.4866  -13.6306   21.8511 H   0  0  0  0  0  0
  -25.2772   -9.5702   22.4781 H   0  0  0  0  0  0
  -24.0011   -7.4661   22.7507 H   0  0  0  0  0  0
  -21.0872   -8.8761   19.8954 H   0  0  0  0  0  0
  -22.3730  -10.9662   19.6149 H   0  0  0  0  0  0
  -21.2001   -7.6166   23.9740 H   0  0  0  0  0  0
  -21.1458   -6.0529   25.9094 H   0  0  0  0  0  0
  -22.0604   -2.7623   23.2843 H   0  0  0  0  0  0
  -22.4047  -11.9918   22.4723 H   0  0  0  0  0  0
  -21.1085  -13.1296   22.2451 H   0  0  0  0  0  0
  -24.6934  -15.8570   20.5757 H   0  0  0  0  0  0
  -26.3208  -15.6343   20.1913 H   0  0  0  0  0  0
  -26.7127  -32.5556   23.1180 H   0  0  0  0  0  0
  -25.0112  -33.9774   25.0522 H   0  0  0  0  0  0
  -22.6940  -31.3122   21.4124 H   0  0  0  0  0  0
  -23.3788  -35.9589   23.3198 H   0  0  0  0  0  0
  -24.3616  -36.9000   22.2062 H   0  0  0  0  0  0
  -23.7156  -37.6462   23.6660 H   0  0  0  0  0  0
  -26.0187  -31.5919   20.5725 H   0  0  0  0  0  0
  -26.8261  -30.9150   21.9598 H   0  0  0  0  0  0
  -28.0984  -29.1092   21.1690 H   0  0  0  0  0  0
  -26.0685  -25.9958   18.9759 H   0  0  0  0  0  0
  -23.9828  -27.3072   19.0204 H   0  0  0  0  0  0
  -23.7120  -30.5933   19.3992 H   0  0  0  0  0  0
  -22.7334  -29.2430   19.8713 H   0  0  0  0  0  0
  -25.1239  -36.1960   25.0839 H   0  0  0  0  0  0
  -20.9922  -28.3237   24.1452 H   0  0  0  0  0  0
  -20.5718  -26.2283   23.3619 H   0  0  0  0  0  0
  -21.6631  -26.7508   22.1167 H   0  0  0  0  0  0
  -19.6892  -25.6329   21.1252 H   0  0  0  0  0  0
  -19.6683  -27.3242   20.6786 H   0  0  0  0  0  0
  -17.4191  -26.6727   21.4024 H   0  0  0  0  0  0
  -18.0288  -26.0143   22.9037 H   0  0  0  0  0  0
  -19.7942  -30.7280   24.2294 H   0  0  0  0  0  0
  -17.5035  -31.6304   24.5179 H   0  0  0  0  0  0
  -15.5346  -30.3049   23.7700 H   0  0  0  0  0  0
  -15.8642  -28.0896   22.7037 H   0  0  0  0  0  0
  -24.5995  -30.6884   25.7801 H   0  0  0  0  0  0
  -24.8830  -32.2783   26.4793 H   0  0  0  0  0  0
  -25.8123  -30.8914   27.0243 H   0  0  0  0  0  0
  -26.2758  -29.6800   24.1120 H   0  0  0  0  0  0
  -27.4160  -29.7218   25.4385 H   0  0  0  0  0  0
  -27.8541  -30.4400   23.9044 H   0  0  0  0  0  0
  -27.2791  -33.3556   26.2009 H   0  0  0  0  0  0
  -28.3948  -32.6624   25.0298 H   0  0  0  0  0  0
  -28.0683  -31.8290   26.5419 H   0  0  0  0  0  0
  -28.2459  -38.0196   24.7699 H   0  0  0  0  0  0
  -28.1237  -36.2740   24.5953 H   0  0  0  0  0  0
  -27.2352  -37.1018   25.8829 H   0  0  0  0  0  0
  -20.9291  -29.8753   21.6930 H   0  0  0  0  0  0
  -26.0136  -38.2863   24.1628 H   0  0  0  0  0  0
  -31.6658  -19.0055   22.4595 H   0  0  0  0  0  0
  -30.7278  -21.2314   22.1499 H   0  0  0  0  0  0
  -28.9743  -23.2562   22.3044 H   0  0  0  0  0  0
  -30.0260  -23.0616   20.9078 H   0  0  0  0  0  0
  -29.6307  -25.7406   21.3630 H   0  0  0  0  0  0
  -27.9777  -25.9257   21.9082 H   0  0  0  0  0  0
  -27.5197  -21.8629   20.3060 H   0  0  0  0  0  0
  -29.1176  -15.5048   21.0608 H   0  0  0  0  0  0
  1 25  1  0  0  0
  1 30  2  0  0  0
  1 82  1  0  0  0
  2  3  1  0  0  0
  2 25  1  0  0  0
  2 87  1  0  0  0
  2 88  1  0  0  0
  3  4  1  0  0  0
  3 89  1  0  0  0
  3 90  1  0  0  0
  4  5  1  0  0  0
  4 91  1  0  0  0
  4 92  1  0  0  0
  5  6  1  0  0  0
  5 26  1  0  0  0
  5 93  1  0  0  0
  6 25  1  0  0  0
  6 94  1  0  0  0
  6 95  1  0  0  0
  7  8  2  0  0  0
  7 26  1  0  0  0
  7 29  1  0  0  0
  8  9  1  0  0  0
  8 22  1  0  0  0
  9 10  1  0  0  0
  9 27  2  0  0  0
 10 11  2  0  0  0
 10 15  1  0  0  0
 11 12  1  0  0  0
 11 96  1  0  0  0
 12 13  2  0  0  0
 12 97  1  0  0  0
 13 14  1  0  0  0
 13 31  1  0  0  0
 14 15  2  0  0  0
 14 98  1  0  0  0
 15 99  1  0  0  0
 16 17  2  0  0  0
 16 21  1  0  0  0
 16 31  1  0  0  0
 17 18  1  0  0  0
 17100  1  0  0  0
 18 19  2  0  0  0
 18101  1  0  0  0
 19 20  1  0  0  0
 19 24  1  0  0  0
 20 21  2  0  0  0
 20102  1  0  0  0
 21 23  1  0  0  0
 22 28  1  0  0  0
 22 32  2  0  0  0
 26 27  1  0  0  0
 28103  1  0  0  0
 28104  1  0  0  0
 29105  1  0  0  0
 29106  1  0  0  0
 33 34  1  0  0  0
 33 66  1  0  0  0
 33 70  2  0  0  0
 34 36  1  0  0  0
 34 59  1  0  0  0
 34107  1  0  0  0
 35 44  2  0  0  0
 35 45  1  0  0  0
 35 68  1  0  0  0
 36 56  1  0  0  0
 36108  1  0  0  0
 37 39  1  0  0  0
 37 47  1  0  0  0
 37 66  1  0  0  0
 37109  1  0  0  0
 38 43  2  0  0  0
 38 46  1  0  0  0
 38 47  1  0  0  0
 39 64  1  0  0  0
 39 67  2  0  0  0
 40 52  1  0  0  0
 40 53  2  0  0  0
 40 58  1  0  0  0
 41110  1  0  0  0
 41111  1  0  0  0
 41112  1  0  0  0
 41 48  1  0  0  0
 42 43  1  0  0  0
 42 66  1  0  0  0
 42113  1  0  0  0
 42114  1  0  0  0
 43 44  1  0  0  0
 44115  1  0  0  0
 45 46  2  0  0  0
 45116  1  0  0  0
 46117  1  0  0  0
 47118  1  0  0  0
 47119  1  0  0  0
 48 56  1  0  0  0
 48 65  1  0  0  0
 48120  1  0  0  0
 49 50  1  0  0  0
 49 53  1  0  0  0
 49 64  1  0  0  0
 49121  1  0  0  0
 50 51  1  0  0  0
 50122  1  0  0  0
 50123  1  0  0  0
 51 52  1  0  0  0
 51124  1  0  0  0
 51125  1  0  0  0
 52126  1  0  0  0
 52127  1  0  0  0
 53 54  1  0  0  0
 54 55  2  0  0  0
 54128  1  0  0  0
 55 57  1  0  0  0
 55129  1  0  0  0
 56 69  2  0  0  0
 57 58  2  0  0  0
 57130  1  0  0  0
 58131  1  0  0  0
 59 60  1  0  0  0
 59 61  1  0  0  0
 59 62  1  0  0  0
 60132  1  0  0  0
 60133  1  0  0  0
 60134  1  0  0  0
 61135  1  0  0  0
 61136  1  0  0  0
 61137  1  0  0  0
 62138  1  0  0  0
 62139  1  0  0  0
 62140  1  0  0  0
 63 65  1  0  0  0
 63141  1  0  0  0
 63142  1  0  0  0
 63143  1  0  0  0
 64144  1  0  0  0
 65145  1  0  0  0
 68 80  1  0  0  0
 71 72  2  0  0  0
 71 73  1  0  0  0
 71146  1  0  0  0
 72 74  1  0  0  0
 72147  1  0  0  0
 73 75  2  0  0  0
 73 77  1  0  0  0
 74 76  2  0  0  0
 74 81  1  0  0  0
 75 76  1  0  0  0
 75 85  1  0  0  0
 76 86  1  0  0  0
 77 82  1  0  0  0
 77 83  2  0  0  0
 78 79  1  0  0  0
 78 80  1  0  0  0
 78 84  2  0  0  0
 79 81  1  0  0  0
 79148  1  0  0  0
 79149  1  0  0  0
 80150  1  0  0  0
 80151  1  0  0  0
 81152  1  0  0  0
 82153  1  0  0  0
M  ISO  4   1 100  68 101  80 101  82 100
M  END
> <chiral flag>
0

> <version>
0

> <s_m_source_file>
/data/baiqing/PycharmProjects/Reinvent-master-3.2/result/LINK_invent/BTK/process_docking_weight1_custom_product_contain_oxygen_bond_distance_aromatic_linkinvent_7_9_3/rearranged_h_0099.sdf

> <i_m_source_file_index>
47

> <r_mmod_Potential_Energy-OPLS-2005>
-19.7973976135254

> <r_mmod_Stretch_Energy-OPLS-2005>
38.4535827636719

> <r_mmod_Bend_Energy-OPLS-2005>
107.360084533691

> <r_mmod_Torsional_Energy-OPLS-2005>
254.073440551758

> <r_mmod_Improper_Torsional_Energy-OPLS-2005>
4.50119590759277

> <r_mmod_Van_der_Waal_Energy-OPLS-2005>
164.125213623047

> <r_mmod_Electrostatic_Energy-OPLS-2005>
-373.364868164062

> <r_mmod_Solvation_Energy-OPLS-2005>
-228.610580444336

> <b_mmod_Minimization_Converged-OPLS-2005>
0

> <r_mmod_RMS_Derivative-OPLS-2005>
4.14510917663574

$$$$
47
                    3D
 Structure written by MMmdl.
153161  0  0  1  0            999 V2000
  -30.5289  -14.9196   20.4178 C   0  0  0  0  0  0
  -30.4488  -12.5641   19.4940 C   0  0  0  0  0  0
  -29.5248  -12.5292   18.2538 C   0  0  0  0  0  0
  -28.0558  -12.3214   18.6696 C   0  0  0  0  0  0
  -27.6374  -13.2427   19.8445 C   0  0  2  0  0  0
  -28.6820  -13.2371   20.9821 C   0  0  0  0  0  0
  -25.2492  -13.8210   20.5697 C   0  0  0  0  0  0
  -24.1802  -13.0440   20.9226 C   0  0  0  0  0  0
  -24.6411  -11.6921   20.8755 C   0  0  0  0  0  0
  -23.9087  -10.4296   21.0406 C   0  0  0  0  0  0
  -24.3632   -9.4208   21.9183 C   0  0  0  0  0  0
  -23.6304   -8.2246   22.0750 C   0  0  0  0  0  0
  -22.4285   -8.0287   21.3542 C   0  0  0  0  0  0
  -21.9924   -9.0262   20.4641 C   0  0  0  0  0  0
  -22.7257  -10.2139   20.3056 C   0  0  0  0  0  0
  -21.6856   -6.0740   22.5280 C   0  0  0  0  0  0
  -21.4015   -6.5641   23.8211 C   0  0  0  0  0  0
  -21.3660   -5.6792   24.9173 C   0  0  0  0  0  0
  -21.6049   -4.3057   24.7221 C   0  0  0  0  0  0
  -21.8817   -3.8149   23.4342 C   0  0  0  0  0  0
  -21.9192   -4.6969   22.3399 C   0  0  0  0  0  0
  -22.7821  -13.5212   21.1887 C   0  0  0  0  0  0
  -22.1660   -4.2154   21.0977 F   0  0  0  0  0  0
  -21.5631   -3.4538   25.7732 F   0  0  0  0  0  0
  -29.9659  -13.6465   20.3953 N   0  0  0  0  0  0
  -26.2925  -12.9432   20.3257 N   0  0  0  0  0  0
  -25.9344  -11.6566   20.5745 N   0  0  0  0  0  0
  -22.0461  -12.8203   22.0440 N   0  0  0  0  0  0
  -25.4146  -15.1938   20.4087 N   0  0  0  0  0  0
  -31.7181  -15.0302   20.0997 O   0  0  0  0  0  0
  -21.6644   -6.8889   21.4242 O   0  0  0  0  0  0
  -22.3497  -14.5507   20.6713 O   0  0  0  0  0  0
  -24.6420  -31.8446   23.1886 C   0  0  0  0  0  0
  -25.9196  -32.4700   23.8269 C   0  0  1  0  0  0
  -27.2237  -27.1500   20.1414 C   0  0  0  0  0  0
  -25.5951  -33.8507   24.2188 N   0  0  0  0  0  0
  -23.4450  -30.4635   21.5332 C   0  0  2  0  0  0
  -24.8965  -28.8934   20.1073 C   0  0  0  0  0  0
  -22.7559  -29.4547   22.4854 C   0  0  0  0  0  0
  -18.0305  -28.1392   22.8477 C   0  0  0  0  0  0
  -24.1490  -36.7253   23.2640 C   0  0  0  0  0  0
  -26.0008  -30.7216   21.3871 C   0  0  0  0  0  0
  -26.0721  -29.3341   20.7281 C   0  0  0  0  0  0
  -27.2347  -28.4770   20.7312 C   0  0  0  0  0  0
  -26.0254  -26.8150   19.4710 C   0  0  0  0  0  0
  -24.8856  -27.6471   19.4641 C   0  0  0  0  0  0
  -23.6709  -29.7923   20.1525 C   0  0  0  0  0  0
  -25.4125  -36.3031   24.0312 C   0  0  1  0  0  0
  -20.5914  -28.3719   23.1242 C   0  0  2  0  0  0
  -20.6789  -26.9422   22.5407 C   0  0  0  0  0  0
  -19.5764  -26.6379   21.5212 C   0  0  0  0  0  0
  -18.1943  -26.7933   22.1621 C   0  0  0  0  0  0
  -19.1562  -28.8873   23.2852 C   0  0  0  0  0  0
  -18.9477  -30.1470   23.8873 C   0  0  0  0  0  0
  -17.6473  -30.6590   24.0559 C   0  0  0  0  0  0
  -25.9077  -34.9409   23.5057 C   0  0  0  0  0  0
  -16.5363  -29.9083   23.6338 C   0  0  0  0  0  0
  -16.7289  -28.6502   23.0357 C   0  0  0  0  0  0
  -26.4521  -31.6567   25.0707 C   0  0  0  0  0  0
  -25.3711  -31.3754   26.1404 C   0  0  0  0  0  0
  -27.0390  -30.2965   24.6288 C   0  0  0  0  0  0
  -27.6046  -32.4337   25.7498 C   0  0  0  0  0  0
  -27.5570  -37.1787   24.8469 C   0  0  0  0  0  0
  -21.4251  -29.3046   22.3611 N   0  0  0  0  0  0
  -26.4286  -37.3747   23.9407 N   0  0  0  0  0  0
  -24.7154  -31.0312   22.0913 N   0  0  0  0  0  0
  -23.4212  -28.8103   23.3005 O   0  0  0  0  0  0
  -28.2805  -26.1719   20.2273 O   0  0  0  0  0  0
  -26.5656  -34.8907   22.4631 O   0  0  0  0  0  0
  -23.5545  -32.1307   23.7122 O   0  0  0  0  0  0
  -29.7058  -19.9996   21.2122 C   0  0  0  0  0  0
  -29.1509  -18.1375   19.2230 C   0  0  0  0  0  0
  -29.9753  -18.5691   21.3956 C   0  0  0  0  0  0
  -29.7062  -17.5508   20.4042 C   0  0  0  0  0  0
  -28.8766  -19.5517   19.0487 C   0  0  0  0  0  0
  -29.1142  -20.5714   20.0338 C   0  0  0  0  0  0
  -30.5317  -18.1126   22.7303 C   0  0  0  0  0  0
  -28.0473  -24.6635   19.9253 C   0  0  0  0  0  0
  -28.9113  -23.2999   20.4182 C   0  0  0  0  0  0
  -28.3116  -19.9695   17.8439 N   0  0  0  0  0  0
  -29.6940  -16.0380   20.6583 N   0  0  0  0  0  0
  -28.6992  -21.9465   19.7289 O   0  0  0  0  0  0
  -31.4824  -12.7243   19.1830 H   0  0  0  0  0  0
  -30.4405  -11.6027   20.0096 H   0  0  0  0  0  0
  -29.8361  -11.7357   17.5725 H   0  0  0  0  0  0
  -29.6201  -13.4645   17.7005 H   0  0  0  0  0  0
  -27.9447  -11.2777   18.9650 H   0  0  0  0  0  0
  -27.3936  -12.4685   17.8155 H   0  0  0  0  0  0
  -27.6111  -14.2515   19.4312 H   0  0  0  0  0  0
  -28.7599  -12.2489   21.4379 H   0  0  0  0  0  0
  -28.3868  -13.9205   21.7798 H   0  0  0  0  0  0
  -25.2774   -9.5684   22.4760 H   0  0  0  0  0  0
  -24.0008   -7.4637   22.7466 H   0  0  0  0  0  0
  -21.0856   -8.8786   19.8947 H   0  0  0  0  0  0
  -22.3715  -10.9680   19.6166 H   0  0  0  0  0  0
  -21.2007   -7.6147   23.9721 H   0  0  0  0  0  0
  -21.1486   -6.0518   25.9078 H   0  0  0  0  0  0
  -22.0594   -2.7611   23.2839 H   0  0  0  0  0  0
  -22.4080  -11.9873   22.4841 H   0  0  0  0  0  0
  -21.1068  -13.1211   22.2625 H   0  0  0  0  0  0
  -24.6401  -15.8402   20.5148 H   0  0  0  0  0  0
  -26.2479  -15.6344   20.0407 H   0  0  0  0  0  0
  -26.7261  -32.5303   23.0996 H   0  0  0  0  0  0
  -25.0090  -33.9628   25.0331 H   0  0  0  0  0  0
  -22.7466  -31.2884   21.3789 H   0  0  0  0  0  0
  -23.3754  -35.9581   23.3301 H   0  0  0  0  0  0
  -24.3573  -36.8886   22.2055 H   0  0  0  0  0  0
  -23.7246  -37.6448   23.6684 H   0  0  0  0  0  0
  -26.1576  -31.4787   20.6171 H   0  0  0  0  0  0
  -26.8715  -30.7706   22.0295 H   0  0  0  0  0  0
  -28.1286  -28.8083   21.2401 H   0  0  0  0  0  0
  -25.9351  -25.8698   18.9571 H   0  0  0  0  0  0
  -23.9901  -27.3082   18.9614 H   0  0  0  0  0  0
  -23.8048  -30.5661   19.3959 H   0  0  0  0  0  0
  -22.7872  -29.2313   19.8435 H   0  0  0  0  0  0
  -25.1323  -36.1850   25.0806 H   0  0  0  0  0  0
  -21.0011  -28.3300   24.1360 H   0  0  0  0  0  0
  -20.5679  -26.2329   23.3624 H   0  0  0  0  0  0
  -21.6656  -26.7424   22.1204 H   0  0  0  0  0  0
  -19.6927  -25.6284   21.1252 H   0  0  0  0  0  0
  -19.6698  -27.3179   20.6732 H   0  0  0  0  0  0
  -17.4212  -26.6672   21.4021 H   0  0  0  0  0  0
  -18.0343  -26.0080   22.9024 H   0  0  0  0  0  0
  -19.7953  -30.7296   24.2220 H   0  0  0  0  0  0
  -17.5029  -31.6268   24.5166 H   0  0  0  0  0  0
  -15.5365  -30.2980   23.7678 H   0  0  0  0  0  0
  -15.8688  -28.0817   22.7085 H   0  0  0  0  0  0
  -24.5902  -30.7089   25.7724 H   0  0  0  0  0  0
  -24.8887  -32.2940   26.4760 H   0  0  0  0  0  0
  -25.7999  -30.8971   27.0221 H   0  0  0  0  0  0
  -26.3007  -29.6686   24.1288 H   0  0  0  0  0  0
  -27.3998  -29.7265   25.4859 H   0  0  0  0  0  0
  -27.8919  -30.4203   23.9610 H   0  0  0  0  0  0
  -27.2629  -33.3655   26.2017 H   0  0  0  0  0  0
  -28.3890  -32.6868   25.0354 H   0  0  0  0  0  0
  -28.0681  -31.8501   26.5461 H   0  0  0  0  0  0
  -28.2596  -38.0075   24.7499 H   0  0  0  0  0  0
  -28.1053  -36.2603   24.6319 H   0  0  0  0  0  0
  -27.2281  -37.1468   25.8869 H   0  0  0  0  0  0
  -20.9455  -29.8746   21.6782 H   0  0  0  0  0  0
  -26.0144  -38.2812   24.1404 H   0  0  0  0  0  0
  -29.9264  -20.6730   22.0284 H   0  0  0  0  0  0
  -28.8715  -17.4647   18.4250 H   0  0  0  0  0  0
  -29.7690  -17.5712   23.2912 H   0  0  0  0  0  0
  -30.8714  -18.9519   23.3378 H   0  0  0  0  0  0
  -31.3818  -17.4465   22.5767 H   0  0  0  0  0  0
  -27.0248  -24.4441   20.2290 H   0  0  0  0  0  0
  -28.0338  -24.6160   18.8358 H   0  0  0  0  0  0
  -29.9717  -23.5271   20.3108 H   0  0  0  0  0  0
  -28.7528  -23.1592   21.4871 H   0  0  0  0  0  0
  -28.3371  -20.9711   17.6742 H   0  0  0  0  0  0
  -28.5042  -19.4251   17.0095 H   0  0  0  0  0  0
  -28.7841  -15.7158   20.9513 H   0  0  0  0  0  0
  1 25  1  0  0  0
  1 30  2  0  0  0
  1 81  1  0  0  0
  2  3  1  0  0  0
  2 25  1  0  0  0
  2 83  1  0  0  0
  2 84  1  0  0  0
  3  4  1  0  0  0
  3 85  1  0  0  0
  3 86  1  0  0  0
  4  5  1  0  0  0
  4 87  1  0  0  0
  4 88  1  0  0  0
  5  6  1  0  0  0
  5 26  1  0  0  0
  5 89  1  0  0  0
  6 25  1  0  0  0
  6 90  1  0  0  0
  6 91  1  0  0  0
  7  8  2  0  0  0
  7 26  1  0  0  0
  7 29  1  0  0  0
  8  9  1  0  0  0
  8 22  1  0  0  0
  9 10  1  0  0  0
  9 27  2  0  0  0
 10 11  2  0  0  0
 10 15  1  0  0  0
 11 12  1  0  0  0
 11 92  1  0  0  0
 12 13  2  0  0  0
 12 93  1  0  0  0
 13 14  1  0  0  0
 13 31  1  0  0  0
 14 15  2  0  0  0
 14 94  1  0  0  0
 15 95  1  0  0  0
 16 17  2  0  0  0
 16 21  1  0  0  0
 16 31  1  0  0  0
 17 18  1  0  0  0
 17 96  1  0  0  0
 18 19  2  0  0  0
 18 97  1  0  0  0
 19 20  1  0  0  0
 19 24  1  0  0  0
 20 21  2  0  0  0
 20 98  1  0  0  0
 21 23  1  0  0  0
 22 28  1  0  0  0
 22 32  2  0  0  0
 26 27  1  0  0  0
 28 99  1  0  0  0
 28100  1  0  0  0
 29101  1  0  0  0
 29102  1  0  0  0
 33 34  1  0  0  0
 33 66  1  0  0  0
 33 70  2  0  0  0
 34 36  1  0  0  0
 34 59  1  0  0  0
 34103  1  0  0  0
 35 44  2  0  0  0
 35 45  1  0  0  0
 35 68  1  0  0  0
 36 56  1  0  0  0
 36104  1  0  0  0
 37 39  1  0  0  0
 37 47  1  0  0  0
 37 66  1  0  0  0
 37105  1  0  0  0
 38 43  2  0  0  0
 38 46  1  0  0  0
 38 47  1  0  0  0
 39 64  1  0  0  0
 39 67  2  0  0  0
 40 52  1  0  0  0
 40 53  2  0  0  0
 40 58  1  0  0  0
 41106  1  0  0  0
 41107  1  0  0  0
 41108  1  0  0  0
 41 48  1  0  0  0
 42 43  1  0  0  0
 42 66  1  0  0  0
 42109  1  0  0  0
 42110  1  0  0  0
 43 44  1  0  0  0
 44111  1  0  0  0
 45 46  2  0  0  0
 45112  1  0  0  0
 46113  1  0  0  0
 47114  1  0  0  0
 47115  1  0  0  0
 48 56  1  0  0  0
 48 65  1  0  0  0
 48116  1  0  0  0
 49 50  1  0  0  0
 49 53  1  0  0  0
 49 64  1  0  0  0
 49117  1  0  0  0
 50 51  1  0  0  0
 50118  1  0  0  0
 50119  1  0  0  0
 51 52  1  0  0  0
 51120  1  0  0  0
 51121  1  0  0  0
 52122  1  0  0  0
 52123  1  0  0  0
 53 54  1  0  0  0
 54 55  2  0  0  0
 54124  1  0  0  0
 55 57  1  0  0  0
 55125  1  0  0  0
 56 69  2  0  0  0
 57 58  2  0  0  0
 57126  1  0  0  0
 58127  1  0  0  0
 59 60  1  0  0  0
 59 61  1  0  0  0
 59 62  1  0  0  0
 60128  1  0  0  0
 60129  1  0  0  0
 60130  1  0  0  0
 61131  1  0  0  0
 61132  1  0  0  0
 61133  1  0  0  0
 62134  1  0  0  0
 62135  1  0  0  0
 62136  1  0  0  0
 63 65  1  0  0  0
 63137  1  0  0  0
 63138  1  0  0  0
 63139  1  0  0  0
 64140  1  0  0  0
 65141  1  0  0  0
 68 78  1  0  0  0
 71 73  2  0  0  0
 71 76  1  0  0  0
 71142  1  0  0  0
 72 74  2  0  0  0
 72 75  1  0  0  0
 72143  1  0  0  0
 73 74  1  0  0  0
 73 77  1  0  0  0
 74 81  1  0  0  0
 75 76  2  0  0  0
 75 80  1  0  0  0
 76 82  1  0  0  0
 77144  1  0  0  0
 77145  1  0  0  0
 77146  1  0  0  0
 78 79  1  0  0  0
 78147  1  0  0  0
 78148  1  0  0  0
 79 82  1  0  0  0
 79149  1  0  0  0
 79150  1  0  0  0
 80151  1  0  0  0
 80152  1  0  0  0
 81153  1  0  0  0
M  ISO  4   1 100  68 101  78 101  81 100
M  END
> <chiral flag>
0

> <version>
0

> <s_m_source_file>
/data/baiqing/PycharmProjects/Reinvent-master-3.2/result/LINK_invent/BTK/process_docking_weight1_custom_product_contain_oxygen_bond_distance_aromatic_linkinvent_7_9_3/rearranged_h_0099.sdf

> <i_m_source_file_index>
48

> <r_mmod_Potential_Energy-OPLS-2005>
448.164184570312

> <r_mmod_Stretch_Energy-OPLS-2005>
222.680679321289

> <r_mmod_Bend_Energy-OPLS-2005>
276.119842529297

> <r_mmod_Torsional_Energy-OPLS-2005>
248.989334106445

> <r_mmod_Improper_Torsional_Energy-OPLS-2005>
9.78262329101562

> <r_mmod_Van_der_Waal_Energy-OPLS-2005>
131.457901000977

> <r_mmod_Electrostatic_Energy-OPLS-2005>
-393.814483642578

> <r_mmod_Solvation_Energy-OPLS-2005>
-224.038208007812

> <b_mmod_Minimization_Converged-OPLS-2005>
0

> <r_mmod_RMS_Derivative-OPLS-2005>
1.13129270076752

$$$$
48
                    3D
 Structure written by MMmdl.
156164  0  0  1  0            999 V2000
  -30.6996  -14.4914   20.5547 C   0  0  0  0  0  0
  -30.4194  -12.3129   19.4292 C   0  0  0  0  0  0
  -29.4945  -12.5026   18.2094 C   0  0  0  0  0  0
  -28.0156  -12.3638   18.6211 C   0  0  0  0  0  0
  -27.6588  -13.2109   19.8728 C   0  0  2  0  0  0
  -28.7013  -13.0106   20.9963 C   0  0  0  0  0  0
  -25.2577  -13.8174   20.5687 C   0  0  0  0  0  0
  -24.1831  -13.0441   20.9166 C   0  0  0  0  0  0
  -24.6392  -11.6910   20.8726 C   0  0  0  0  0  0
  -23.9062  -10.4292   21.0396 C   0  0  0  0  0  0
  -24.3617   -9.4212   21.9179 C   0  0  0  0  0  0
  -23.6294   -8.2247   22.0752 C   0  0  0  0  0  0
  -22.4276   -8.0282   21.3543 C   0  0  0  0  0  0
  -21.9909   -9.0253   20.4645 C   0  0  0  0  0  0
  -22.7233  -10.2133   20.3050 C   0  0  0  0  0  0
  -21.6852   -6.0739   22.5281 C   0  0  0  0  0  0
  -21.4013   -6.5642   23.8215 C   0  0  0  0  0  0
  -21.3660   -5.6794   24.9175 C   0  0  0  0  0  0
  -21.6044   -4.3057   24.7225 C   0  0  0  0  0  0
  -21.8818   -3.8150   23.4345 C   0  0  0  0  0  0
  -21.9192   -4.6968   22.3402 C   0  0  0  0  0  0
  -22.7855  -13.5238   21.1838 C   0  0  0  0  0  0
  -22.1661   -4.2154   21.0979 F   0  0  0  0  0  0
  -21.5631   -3.4538   25.7736 F   0  0  0  0  0  0
  -30.0295  -13.3114   20.4383 N   0  0  0  0  0  0
  -26.3014  -12.9351   20.3367 N   0  0  0  0  0  0
  -25.9322  -11.6505   20.5765 N   0  0  0  0  0  0
  -22.0500  -12.8231   22.0399 N   0  0  0  0  0  0
  -25.4288  -15.1898   20.4141 N   0  0  0  0  0  0
  -31.8394  -14.6425   20.1073 O   0  0  0  0  0  0
  -21.6640   -6.8880   21.4242 O   0  0  0  0  0  0
  -22.3536  -14.5542   20.6687 O   0  0  0  0  0  0
  -24.6158  -31.8667   23.2088 C   0  0  0  0  0  0
  -25.9046  -32.4817   23.8393 C   0  0  1  0  0  0
  -27.2308  -27.4233   20.1074 C   0  0  0  0  0  0
  -25.5898  -33.8616   24.2327 N   0  0  0  0  0  0
  -23.4048  -30.4897   21.5490 C   0  0  2  0  0  0
  -24.8527  -28.9546   20.1130 C   0  0  0  0  0  0
  -22.7419  -29.4653   22.4981 C   0  0  0  0  0  0
  -18.0273  -28.1379   22.8495 C   0  0  0  0  0  0
  -24.1486  -36.7314   23.2639 C   0  0  0  0  0  0
  -25.9340  -30.8319   21.3612 C   0  0  0  0  0  0
  -26.0136  -29.4656   20.7081 C   0  0  0  0  0  0
  -27.2100  -28.7093   20.6971 C   0  0  0  0  0  0
  -26.0570  -26.9298   19.5012 C   0  0  0  0  0  0
  -24.8701  -27.6874   19.5035 C   0  0  0  0  0  0
  -23.6141  -29.8212   20.1638 C   0  0  0  0  0  0
  -25.4107  -36.3110   24.0338 C   0  0  1  0  0  0
  -20.5865  -28.3664   23.1316 C   0  0  2  0  0  0
  -20.6765  -26.9400   22.5419 C   0  0  0  0  0  0
  -19.5743  -26.6387   21.5216 C   0  0  0  0  0  0
  -18.1921  -26.7928   22.1626 C   0  0  0  0  0  0
  -19.1523  -28.8839   23.2903 C   0  0  0  0  0  0
  -18.9452  -30.1446   23.8912 C   0  0  0  0  0  0
  -17.6455  -30.6588   24.0565 C   0  0  0  0  0  0
  -25.9033  -34.9474   23.5130 C   0  0  0  0  0  0
  -16.5345  -29.9090   23.6326 C   0  0  0  0  0  0
  -16.7263  -28.6505   23.0349 C   0  0  0  0  0  0
  -26.4477  -31.6593   25.0718 C   0  0  0  0  0  0
  -25.3744  -31.3687   26.1464 C   0  0  0  0  0  0
  -27.0308  -30.3038   24.6085 C   0  0  0  0  0  0
  -27.6059  -32.4307   25.7478 C   0  0  0  0  0  0
  -27.5581  -37.1810   24.8465 C   0  0  0  0  0  0
  -21.4145  -29.3030   22.3720 N   0  0  0  0  0  0
  -26.4294  -37.3794   23.9409 N   0  0  0  0  0  0
  -24.6700  -31.0767   22.0986 N   0  0  0  0  0  0
  -23.4187  -28.8196   23.3027 O   0  0  0  0  0  0
  -28.3706  -26.6465   20.1251 O   0  0  0  0  0  0
  -26.5598  -34.8926   22.4694 O   0  0  0  0  0  0
  -23.5347  -32.1416   23.7479 O   0  0  0  0  0  0
  -30.8578  -19.7182   20.9804 C   0  0  0  0  0  0
  -31.6317  -17.4070   21.1809 C   0  0  0  0  0  0
  -29.5271  -19.2727   20.8293 C   0  0  0  0  0  0
  -31.9027  -18.7910   21.1576 C   0  0  0  0  0  0
  -30.3092  -16.9275   21.0157 C   0  0  0  0  0  0
  -29.2637  -17.8742   20.8600 C   0  0  0  0  0  0
  -28.4076  -22.8007   20.8377 C   0  0  0  0  0  0
  -28.3761  -20.2789   20.6703 C   0  0  0  0  0  0
  -28.6425  -24.1314   20.0765 C   0  0  0  0  0  0
  -28.2482  -25.4125   20.8698 C   0  0  0  0  0  0
  -33.2087  -19.2488   21.3183 N   0  0  0  0  0  0
  -29.9794  -15.5281   21.0375 N   0  0  0  0  0  0
  -28.7293  -21.6447   20.2200 N   0  0  0  0  0  0
  -27.9106  -22.8124   21.9656 O   0  0  0  0  0  0
  -27.9913  -17.4238   20.7297 F   0  0  0  0  0  0
  -31.4648  -12.4028   19.1292 H   0  0  0  0  0  0
  -30.3148  -11.3063   19.8371 H   0  0  0  0  0  0
  -29.7368  -11.7737   17.4348 H   0  0  0  0  0  0
  -29.6632  -13.4857   17.7669 H   0  0  0  0  0  0
  -27.8272  -11.3086   18.8220 H   0  0  0  0  0  0
  -27.3661  -12.6333   17.7875 H   0  0  0  0  0  0
  -27.6960  -14.2561   19.5654 H   0  0  0  0  0  0
  -28.6806  -11.9806   21.3550 H   0  0  0  0  0  0
  -28.4656  -13.6272   21.8649 H   0  0  0  0  0  0
  -25.2761   -9.5693   22.4754 H   0  0  0  0  0  0
  -24.0008   -7.4640   22.7468 H   0  0  0  0  0  0
  -21.0843   -8.8765   19.8950 H   0  0  0  0  0  0
  -22.3686  -10.9672   19.6160 H   0  0  0  0  0  0
  -21.2003   -7.6148   23.9721 H   0  0  0  0  0  0
  -21.1485   -6.0522   25.9079 H   0  0  0  0  0  0
  -22.0597   -2.7613   23.2840 H   0  0  0  0  0  0
  -22.4117  -11.9893   22.4789 H   0  0  0  0  0  0
  -21.1118  -13.1255   22.2603 H   0  0  0  0  0  0
  -24.6648  -15.8429   20.5458 H   0  0  0  0  0  0
  -26.2941  -15.6467   20.1527 H   0  0  0  0  0  0
  -26.7117  -32.5530   23.1158 H   0  0  0  0  0  0
  -25.0050  -33.9775   25.0474 H   0  0  0  0  0  0
  -22.6940  -31.3067   21.4088 H   0  0  0  0  0  0
  -23.3745  -35.9649   23.3310 H   0  0  0  0  0  0
  -24.3578  -36.8921   22.2051 H   0  0  0  0  0  0
  -23.7241  -37.6523   23.6648 H   0  0  0  0  0  0
  -26.0450  -31.5986   20.5931 H   0  0  0  0  0  0
  -26.8224  -30.8873   21.9789 H   0  0  0  0  0  0
  -28.1064  -29.0972   21.1602 H   0  0  0  0  0  0
  -26.0595  -25.9543   19.0351 H   0  0  0  0  0  0
  -23.9777  -27.2894   19.0403 H   0  0  0  0  0  0
  -23.7216  -30.5958   19.4036 H   0  0  0  0  0  0
  -22.7387  -29.2402   19.8682 H   0  0  0  0  0  0
  -25.1285  -36.1976   25.0831 H   0  0  0  0  0  0
  -20.9957  -28.3230   24.1436 H   0  0  0  0  0  0
  -20.5669  -26.2271   23.3605 H   0  0  0  0  0  0
  -21.6635  -26.7445   22.1205 H   0  0  0  0  0  0
  -19.6903  -25.6303   21.1232 H   0  0  0  0  0  0
  -19.6683  -27.3209   20.6754 H   0  0  0  0  0  0
  -17.4192  -26.6677   21.4026 H   0  0  0  0  0  0
  -18.0319  -26.0068   22.9018 H   0  0  0  0  0  0
  -19.7930  -30.7258   24.2286 H   0  0  0  0  0  0
  -17.5012  -31.6269   24.5166 H   0  0  0  0  0  0
  -15.5347  -30.2999   23.7646 H   0  0  0  0  0  0
  -15.8660  -28.0833   22.7057 H   0  0  0  0  0  0
  -24.5922  -30.7031   25.7796 H   0  0  0  0  0  0
  -24.8926  -32.2833   26.4929 H   0  0  0  0  0  0
  -25.8098  -30.8842   27.0212 H   0  0  0  0  0  0
  -26.2846  -29.6795   24.1153 H   0  0  0  0  0  0
  -27.4103  -29.7277   25.4536 H   0  0  0  0  0  0
  -27.8671  -30.4368   23.9217 H   0  0  0  0  0  0
  -27.2691  -33.3600   26.2086 H   0  0  0  0  0  0
  -28.3853  -32.6875   25.0291 H   0  0  0  0  0  0
  -28.0744  -31.8406   26.5365 H   0  0  0  0  0  0
  -28.2605  -38.0102   24.7514 H   0  0  0  0  0  0
  -28.1070  -36.2634   24.6292 H   0  0  0  0  0  0
  -27.2296  -37.1462   25.8868 H   0  0  0  0  0  0
  -20.9308  -29.8746   21.6935 H   0  0  0  0  0  0
  -26.0184  -38.2873   24.1411 H   0  0  0  0  0  0
  -31.0736  -20.7771   20.9758 H   0  0  0  0  0  0
  -32.4464  -16.7149   21.3350 H   0  0  0  0  0  0
  -27.8341  -20.3074   21.6169 H   0  0  0  0  0  0
  -27.6720  -19.8735   19.9426 H   0  0  0  0  0  0
  -28.0656  -24.0939   19.1526 H   0  0  0  0  0  0
  -29.6919  -24.1910   19.7881 H   0  0  0  0  0  0
  -28.9004  -25.5014   21.7397 H   0  0  0  0  0  0
  -27.2425  -25.2922   21.2784 H   0  0  0  0  0  0
  -33.4357  -20.2024   21.0516 H   0  0  0  0  0  0
  -33.9820  -18.6039   21.1826 H   0  0  0  0  0  0
  -29.0191  -15.3151   21.2608 H   0  0  0  0  0  0
  -29.1410  -21.7158   19.2989 H   0  0  0  0  0  0
  1 25  1  0  0  0
  1 30  2  0  0  0
  1 82  1  0  0  0
  2  3  1  0  0  0
  2 25  1  0  0  0
  2 86  1  0  0  0
  2 87  1  0  0  0
  3  4  1  0  0  0
  3 88  1  0  0  0
  3 89  1  0  0  0
  4  5  1  0  0  0
  4 90  1  0  0  0
  4 91  1  0  0  0
  5  6  1  0  0  0
  5 26  1  0  0  0
  5 92  1  0  0  0
  6 25  1  0  0  0
  6 93  1  0  0  0
  6 94  1  0  0  0
  7  8  2  0  0  0
  7 26  1  0  0  0
  7 29  1  0  0  0
  8  9  1  0  0  0
  8 22  1  0  0  0
  9 10  1  0  0  0
  9 27  2  0  0  0
 10 11  2  0  0  0
 10 15  1  0  0  0
 11 12  1  0  0  0
 11 95  1  0  0  0
 12 13  2  0  0  0
 12 96  1  0  0  0
 13 14  1  0  0  0
 13 31  1  0  0  0
 14 15  2  0  0  0
 14 97  1  0  0  0
 15 98  1  0  0  0
 16 17  2  0  0  0
 16 21  1  0  0  0
 16 31  1  0  0  0
 17 18  1  0  0  0
 17 99  1  0  0  0
 18 19  2  0  0  0
 18100  1  0  0  0
 19 20  1  0  0  0
 19 24  1  0  0  0
 20 21  2  0  0  0
 20101  1  0  0  0
 21 23  1  0  0  0
 22 28  1  0  0  0
 22 32  2  0  0  0
 26 27  1  0  0  0
 28102  1  0  0  0
 28103  1  0  0  0
 29104  1  0  0  0
 29105  1  0  0  0
 33 34  1  0  0  0
 33 66  1  0  0  0
 33 70  2  0  0  0
 34 36  1  0  0  0
 34 59  1  0  0  0
 34106  1  0  0  0
 35 44  2  0  0  0
 35 45  1  0  0  0
 35 68  1  0  0  0
 36 56  1  0  0  0
 36107  1  0  0  0
 37 39  1  0  0  0
 37 47  1  0  0  0
 37 66  1  0  0  0
 37108  1  0  0  0
 38 43  2  0  0  0
 38 46  1  0  0  0
 38 47  1  0  0  0
 39 64  1  0  0  0
 39 67  2  0  0  0
 40 52  1  0  0  0
 40 53  2  0  0  0
 40 58  1  0  0  0
 41109  1  0  0  0
 41110  1  0  0  0
 41111  1  0  0  0
 41 48  1  0  0  0
 42 43  1  0  0  0
 42 66  1  0  0  0
 42112  1  0  0  0
 42113  1  0  0  0
 43 44  1  0  0  0
 44114  1  0  0  0
 45 46  2  0  0  0
 45115  1  0  0  0
 46116  1  0  0  0
 47117  1  0  0  0
 47118  1  0  0  0
 48 56  1  0  0  0
 48 65  1  0  0  0
 48119  1  0  0  0
 49 50  1  0  0  0
 49 53  1  0  0  0
 49 64  1  0  0  0
 49120  1  0  0  0
 50 51  1  0  0  0
 50121  1  0  0  0
 50122  1  0  0  0
 51 52  1  0  0  0
 51123  1  0  0  0
 51124  1  0  0  0
 52125  1  0  0  0
 52126  1  0  0  0
 53 54  1  0  0  0
 54 55  2  0  0  0
 54127  1  0  0  0
 55 57  1  0  0  0
 55128  1  0  0  0
 56 69  2  0  0  0
 57 58  2  0  0  0
 57129  1  0  0  0
 58130  1  0  0  0
 59 60  1  0  0  0
 59 61  1  0  0  0
 59 62  1  0  0  0
 60131  1  0  0  0
 60132  1  0  0  0
 60133  1  0  0  0
 61134  1  0  0  0
 61135  1  0  0  0
 61136  1  0  0  0
 62137  1  0  0  0
 62138  1  0  0  0
 62139  1  0  0  0
 63 65  1  0  0  0
 63140  1  0  0  0
 63141  1  0  0  0
 63142  1  0  0  0
 64143  1  0  0  0
 65144  1  0  0  0
 68 80  1  0  0  0
 71 73  2  0  0  0
 71 74  1  0  0  0
 71145  1  0  0  0
 72 74  2  0  0  0
 72 75  1  0  0  0
 72146  1  0  0  0
 73 76  1  0  0  0
 73 78  1  0  0  0
 74 81  1  0  0  0
 75 76  2  0  0  0
 75 82  1  0  0  0
 76 85  1  0  0  0
 77 79  1  0  0  0
 77 83  1  0  0  0
 77 84  2  0  0  0
 78 83  1  0  0  0
 78147  1  0  0  0
 78148  1  0  0  0
 79 80  1  0  0  0
 79149  1  0  0  0
 79150  1  0  0  0
 80151  1  0  0  0
 80152  1  0  0  0
 81153  1  0  0  0
 81154  1  0  0  0
 82155  1  0  0  0
 83156  1  0  0  0
M  ISO  4   1 100  68 101  80 101  82 100
M  END
> <chiral flag>
0

> <version>
0

> <s_m_source_file>
/data/baiqing/PycharmProjects/Reinvent-master-3.2/result/LINK_invent/BTK/process_docking_weight1_custom_product_contain_oxygen_bond_distance_aromatic_linkinvent_7_9_3/rearranged_h_0099.sdf

> <i_m_source_file_index>
49

> <r_mmod_Potential_Energy-OPLS-2005>
-177.303802490234

> <r_mmod_Stretch_Energy-OPLS-2005>
41.994140625

> <r_mmod_Bend_Energy-OPLS-2005>
98.4549102783203

> <r_mmod_Torsional_Energy-OPLS-2005>
231.464157104492

> <r_mmod_Improper_Torsional_Energy-OPLS-2005>
6.90213918685913

> <r_mmod_Van_der_Waal_Energy-OPLS-2005>
153.69514465332

> <r_mmod_Electrostatic_Energy-OPLS-2005>
-488.941497802734

> <r_mmod_Solvation_Energy-OPLS-2005>
-236.668045043945

> <b_mmod_Minimization_Converged-OPLS-2005>
0

> <r_mmod_RMS_Derivative-OPLS-2005>
0.461186051368713

$$$$
49
                    3D
 Structure written by MMmdl.
165173  0  0  1  0            999 V2000
  -30.6920  -14.4745   20.5782 C   0  0  0  0  0  0
  -30.4315  -12.3070   19.4249 C   0  0  0  0  0  0
  -29.5011  -12.5118   18.2091 C   0  0  0  0  0  0
  -28.0224  -12.3645   18.6203 C   0  0  0  0  0  0
  -27.6685  -13.2002   19.8780 C   0  0  2  0  0  0
  -28.7084  -12.9681   20.9984 C   0  0  0  0  0  0
  -25.2629  -13.8134   20.5631 C   0  0  0  0  0  0
  -24.1874  -13.0435   20.9168 C   0  0  0  0  0  0
  -24.6413  -11.6896   20.8738 C   0  0  0  0  0  0
  -23.9066  -10.4284   21.0409 C   0  0  0  0  0  0
  -24.3614   -9.4200   21.9198 C   0  0  0  0  0  0
  -23.6290   -8.2234   22.0760 C   0  0  0  0  0  0
  -22.4271   -8.0275   21.3543 C   0  0  0  0  0  0
  -21.9907   -9.0255   20.4653 C   0  0  0  0  0  0
  -22.7241  -10.2132   20.3059 C   0  0  0  0  0  0
  -21.6835   -6.0737   22.5278 C   0  0  0  0  0  0
  -21.4006   -6.5641   23.8213 C   0  0  0  0  0  0
  -21.3663   -5.6795   24.9177 C   0  0  0  0  0  0
  -21.6049   -4.3060   24.7229 C   0  0  0  0  0  0
  -21.8816   -3.8147   23.4348 C   0  0  0  0  0  0
  -21.9192   -4.6961   22.3405 C   0  0  0  0  0  0
  -22.7902  -13.5249   21.1830 C   0  0  0  0  0  0
  -22.1662   -4.2149   21.0978 F   0  0  0  0  0  0
  -21.5640   -3.4539   25.7738 F   0  0  0  0  0  0
  -30.0437  -13.2810   20.4564 N   0  0  0  0  0  0
  -26.3070  -12.9295   20.3358 N   0  0  0  0  0  0
  -25.9341  -11.6460   20.5779 N   0  0  0  0  0  0
  -22.0507  -12.8262   22.0372 N   0  0  0  0  0  0
  -25.4373  -15.1839   20.3946 N   0  0  0  0  0  0
  -31.7985  -14.6851   20.0756 O   0  0  0  0  0  0
  -21.6629   -6.8877   21.4235 O   0  0  0  0  0  0
  -22.3607  -14.5557   20.6669 O   0  0  0  0  0  0
  -24.6157  -31.8658   23.2061 C   0  0  0  0  0  0
  -25.9046  -32.4809   23.8358 C   0  0  1  0  0  0
  -27.2549  -27.4329   20.0934 C   0  0  0  0  0  0
  -25.5895  -33.8606   24.2294 N   0  0  0  0  0  0
  -23.4038  -30.4866   21.5468 C   0  0  2  0  0  0
  -24.8530  -28.9442   20.1130 C   0  0  0  0  0  0
  -22.7413  -29.4662   22.4993 C   0  0  0  0  0  0
  -18.0257  -28.1377   22.8485 C   0  0  0  0  0  0
  -24.1480  -36.7317   23.2634 C   0  0  0  0  0  0
  -25.9307  -30.8297   21.3573 C   0  0  0  0  0  0
  -26.0092  -29.4621   20.7062 C   0  0  0  0  0  0
  -27.2065  -28.7125   20.6958 C   0  0  0  0  0  0
  -26.0803  -26.9306   19.4862 C   0  0  0  0  0  0
  -24.8827  -27.6768   19.5017 C   0  0  0  0  0  0
  -23.6114  -29.8086   20.1636 C   0  0  0  0  0  0
  -25.4097  -36.3122   24.0352 C   0  0  1  0  0  0
  -20.5857  -28.3671   23.1320 C   0  0  2  0  0  0
  -20.6760  -26.9401   22.5438 C   0  0  0  0  0  0
  -19.5745  -26.6379   21.5229 C   0  0  0  0  0  0
  -18.1907  -26.7930   22.1602 C   0  0  0  0  0  0
  -19.1510  -28.8834   23.2891 C   0  0  0  0  0  0
  -18.9448  -30.1446   23.8884 C   0  0  0  0  0  0
  -17.6450  -30.6583   24.0566 C   0  0  0  0  0  0
  -25.9042  -34.9487   23.5134 C   0  0  0  0  0  0
  -16.5334  -29.9088   23.6338 C   0  0  0  0  0  0
  -16.7248  -28.6515   23.0332 C   0  0  0  0  0  0
  -26.4466  -31.6591   25.0697 C   0  0  0  0  0  0
  -25.3744  -31.3722   26.1462 C   0  0  0  0  0  0
  -27.0286  -30.3021   24.6104 C   0  0  0  0  0  0
  -27.6043  -32.4299   25.7458 C   0  0  0  0  0  0
  -27.5603  -37.1774   24.8433 C   0  0  0  0  0  0
  -21.4143  -29.3024   22.3720 N   0  0  0  0  0  0
  -26.4268  -37.3829   23.9461 N   0  0  0  0  0  0
  -24.6680  -31.0761   22.0952 N   0  0  0  0  0  0
  -23.4173  -28.8229   23.3066 O   0  0  0  0  0  0
  -28.4514  -26.7353   20.1456 O   0  0  0  0  0  0
  -26.5605  -34.8963   22.4696 O   0  0  0  0  0  0
  -23.5357  -32.1383   23.7479 O   0  0  0  0  0  0
  -28.5292  -18.8374   20.6968 C   0  0  0  0  0  0
  -28.6784  -17.4703   21.0156 C   0  0  0  0  0  0
  -31.0527  -17.6165   20.5349 C   0  0  0  0  0  0
  -29.6367  -19.6200   20.2992 C   0  0  0  0  0  0
  -29.9341  -16.8328   20.9132 C   0  0  0  0  0  0
  -30.9075  -18.9915   20.2293 C   0  0  0  0  0  0
  -29.4196  -21.0522   19.8636 C   0  0  0  0  0  0
  -29.2580  -24.3295   20.5372 C   0  0  0  0  0  0
  -33.2705  -23.4640   18.4054 C   0  0  0  0  0  0
  -34.1971  -23.4496   20.7495 C   0  0  0  0  0  0
  -28.5869  -25.3981   19.6167 C   0  0  0  0  0  0
  -31.7202  -23.9202   20.3974 C   0  0  0  0  0  0
  -30.3388  -23.3874   19.9180 C   0  0  1  0  0  0
  -32.9639  -23.1556   19.8793 C   0  0  0  0  0  0
  -29.9915  -15.4334   21.2165 N   0  0  0  0  0  0
  -30.2159  -21.9928   20.3915 N   0  0  0  0  0  0
  -28.5307  -21.3280   19.0534 O   0  0  0  0  0  0
  -28.9832  -24.2709   21.7453 O   0  0  0  0  0  0
  -32.0004  -19.6903   19.8335 F   0  0  0  0  0  0
  -31.4760  -12.4099   19.1269 H   0  0  0  0  0  0
  -30.3339  -11.2928   19.8157 H   0  0  0  0  0  0
  -29.7452  -11.7969   17.4215 H   0  0  0  0  0  0
  -29.6641  -13.5030   17.7820 H   0  0  0  0  0  0
  -27.8352  -11.3082   18.8164 H   0  0  0  0  0  0
  -27.3709  -12.6393   17.7904 H   0  0  0  0  0  0
  -27.7190  -14.2501   19.5878 H   0  0  0  0  0  0
  -28.6836  -11.9262   21.3218 H   0  0  0  0  0  0
  -28.4587  -13.5467   21.8883 H   0  0  0  0  0  0
  -25.2745   -9.5691   22.4797 H   0  0  0  0  0  0
  -23.9991   -7.4626   22.7480 H   0  0  0  0  0  0
  -21.0833   -8.8794   19.8966 H   0  0  0  0  0  0
  -22.3701  -10.9682   19.6179 H   0  0  0  0  0  0
  -21.1979   -7.6152   23.9716 H   0  0  0  0  0  0
  -21.1500   -6.0526   25.9085 H   0  0  0  0  0  0
  -22.0592   -2.7612   23.2838 H   0  0  0  0  0  0
  -22.4065  -11.9903   22.4769 H   0  0  0  0  0  0
  -21.1148  -13.1359   22.2574 H   0  0  0  0  0  0
  -24.6600  -15.8318   20.4560 H   0  0  0  0  0  0
  -26.2759  -15.6024   20.0133 H   0  0  0  0  0  0
  -26.7110  -32.5527   23.1113 H   0  0  0  0  0  0
  -25.0098  -33.9739   25.0478 H   0  0  0  0  0  0
  -22.6949  -31.3050   21.4044 H   0  0  0  0  0  0
  -23.3799  -35.9583   23.3209 H   0  0  0  0  0  0
  -24.3610  -36.9010   22.2068 H   0  0  0  0  0  0
  -23.7140  -37.6468   23.6688 H   0  0  0  0  0  0
  -26.0432  -31.5947   20.5865 H   0  0  0  0  0  0
  -26.8182  -30.8828   21.9770 H   0  0  0  0  0  0
  -28.0997  -29.1145   21.1537 H   0  0  0  0  0  0
  -26.0765  -25.9643   19.0039 H   0  0  0  0  0  0
  -23.9949  -27.2694   19.0389 H   0  0  0  0  0  0
  -23.7098  -30.5777   19.3961 H   0  0  0  0  0  0
  -22.7371  -29.2204   19.8786 H   0  0  0  0  0  0
  -25.1257  -36.1978   25.0838 H   0  0  0  0  0  0
  -20.9933  -28.3240   24.1447 H   0  0  0  0  0  0
  -20.5684  -26.2274   23.3629 H   0  0  0  0  0  0
  -21.6630  -26.7452   22.1220 H   0  0  0  0  0  0
  -19.6918  -25.6297   21.1248 H   0  0  0  0  0  0
  -19.6720  -27.3211   20.6788 H   0  0  0  0  0  0
  -17.4216  -26.6704   21.3959 H   0  0  0  0  0  0
  -18.0261  -26.0048   22.8962 H   0  0  0  0  0  0
  -19.7938  -30.7264   24.2227 H   0  0  0  0  0  0
  -17.5024  -31.6271   24.5164 H   0  0  0  0  0  0
  -15.5342  -30.2983   23.7706 H   0  0  0  0  0  0
  -15.8637  -28.0872   22.7007 H   0  0  0  0  0  0
  -24.5914  -30.7051   25.7841 H   0  0  0  0  0  0
  -24.8947  -32.2890   26.4902 H   0  0  0  0  0  0
  -25.8118  -30.8923   27.0224 H   0  0  0  0  0  0
  -26.2824  -29.6774   24.1185 H   0  0  0  0  0  0
  -27.4050  -29.7275   25.4578 H   0  0  0  0  0  0
  -27.8665  -30.4315   23.9248 H   0  0  0  0  0  0
  -27.2663  -33.3590   26.2055 H   0  0  0  0  0  0
  -28.3843  -32.6851   25.0275 H   0  0  0  0  0  0
  -28.0712  -31.8403   26.5353 H   0  0  0  0  0  0
  -28.2523  -38.0174   24.7674 H   0  0  0  0  0  0
  -28.1185  -36.2726   24.5987 H   0  0  0  0  0  0
  -27.2368  -37.1102   25.8834 H   0  0  0  0  0  0
  -20.9308  -29.8718   21.6915 H   0  0  0  0  0  0
  -26.0165  -38.2888   24.1571 H   0  0  0  0  0  0
  -27.5480  -19.2884   20.7463 H   0  0  0  0  0  0
  -27.8053  -16.9078   21.3144 H   0  0  0  0  0  0
  -32.0370  -17.1765   20.4604 H   0  0  0  0  0  0
  -34.0844  -22.8354   18.0405 H   0  0  0  0  0  0
  -33.5732  -24.5033   18.2660 H   0  0  0  0  0  0
  -32.4090  -23.2796   17.7634 H   0  0  0  0  0  0
  -35.0594  -22.8663   20.4227 H   0  0  0  0  0  0
  -34.0168  -23.1932   21.7946 H   0  0  0  0  0  0
  -34.4765  -24.5037   20.7130 H   0  0  0  0  0  0
  -27.7360  -25.1352   20.2427 H   0  0  0  0  0  0
  -29.6246  -25.7243   19.6885 H   0  0  0  0  0  0
  -31.7343  -23.8981   21.4900 H   0  0  0  0  0  0
  -31.8255  -24.9748   20.1354 H   0  0  0  0  0  0
  -30.2742  -23.4182   18.8296 H   0  0  0  0  0  0
  -32.7821  -22.0847   19.9628 H   0  0  0  0  0  0
  -29.1702  -15.0671   21.6746 H   0  0  0  0  0  0
  -30.8608  -21.6975   21.1099 H   0  0  0  0  0  0
  1 25  1  0  0  0
  1 30  2  0  0  0
  1 85  1  0  0  0
  2  3  1  0  0  0
  2 25  1  0  0  0
  2 90  1  0  0  0
  2 91  1  0  0  0
  3  4  1  0  0  0
  3 92  1  0  0  0
  3 93  1  0  0  0
  4  5  1  0  0  0
  4 94  1  0  0  0
  4 95  1  0  0  0
  5  6  1  0  0  0
  5 26  1  0  0  0
  5 96  1  0  0  0
  6 25  1  0  0  0
  6 97  1  0  0  0
  6 98  1  0  0  0
  7  8  2  0  0  0
  7 26  1  0  0  0
  7 29  1  0  0  0
  8  9  1  0  0  0
  8 22  1  0  0  0
  9 10  1  0  0  0
  9 27  2  0  0  0
 10 11  2  0  0  0
 10 15  1  0  0  0
 11 12  1  0  0  0
 11 99  1  0  0  0
 12 13  2  0  0  0
 12100  1  0  0  0
 13 14  1  0  0  0
 13 31  1  0  0  0
 14 15  2  0  0  0
 14101  1  0  0  0
 15102  1  0  0  0
 16 17  2  0  0  0
 16 21  1  0  0  0
 16 31  1  0  0  0
 17 18  1  0  0  0
 17103  1  0  0  0
 18 19  2  0  0  0
 18104  1  0  0  0
 19 20  1  0  0  0
 19 24  1  0  0  0
 20 21  2  0  0  0
 20105  1  0  0  0
 21 23  1  0  0  0
 22 28  1  0  0  0
 22 32  2  0  0  0
 26 27  1  0  0  0
 28106  1  0  0  0
 28107  1  0  0  0
 29108  1  0  0  0
 29109  1  0  0  0
 33 34  1  0  0  0
 33 66  1  0  0  0
 33 70  2  0  0  0
 34 36  1  0  0  0
 34 59  1  0  0  0
 34110  1  0  0  0
 35 44  2  0  0  0
 35 45  1  0  0  0
 35 68  1  0  0  0
 36 56  1  0  0  0
 36111  1  0  0  0
 37 39  1  0  0  0
 37 47  1  0  0  0
 37 66  1  0  0  0
 37112  1  0  0  0
 38 43  2  0  0  0
 38 46  1  0  0  0
 38 47  1  0  0  0
 39 64  1  0  0  0
 39 67  2  0  0  0
 40 52  1  0  0  0
 40 53  2  0  0  0
 40 58  1  0  0  0
 41113  1  0  0  0
 41114  1  0  0  0
 41115  1  0  0  0
 41 48  1  0  0  0
 42 43  1  0  0  0
 42 66  1  0  0  0
 42116  1  0  0  0
 42117  1  0  0  0
 43 44  1  0  0  0
 44118  1  0  0  0
 45 46  2  0  0  0
 45119  1  0  0  0
 46120  1  0  0  0
 47121  1  0  0  0
 47122  1  0  0  0
 48 56  1  0  0  0
 48 65  1  0  0  0
 48123  1  0  0  0
 49 50  1  0  0  0
 49 53  1  0  0  0
 49 64  1  0  0  0
 49124  1  0  0  0
 50 51  1  0  0  0
 50125  1  0  0  0
 50126  1  0  0  0
 51 52  1  0  0  0
 51127  1  0  0  0
 51128  1  0  0  0
 52129  1  0  0  0
 52130  1  0  0  0
 53 54  1  0  0  0
 54 55  2  0  0  0
 54131  1  0  0  0
 55 57  1  0  0  0
 55132  1  0  0  0
 56 69  2  0  0  0
 57 58  2  0  0  0
 57133  1  0  0  0
 58134  1  0  0  0
 59 60  1  0  0  0
 59 61  1  0  0  0
 59 62  1  0  0  0
 60135  1  0  0  0
 60136  1  0  0  0
 60137  1  0  0  0
 61138  1  0  0  0
 61139  1  0  0  0
 61140  1  0  0  0
 62141  1  0  0  0
 62142  1  0  0  0
 62143  1  0  0  0
 63 65  1  0  0  0
 63144  1  0  0  0
 63145  1  0  0  0
 63146  1  0  0  0
 64147  1  0  0  0
 65148  1  0  0  0
 68 81  1  0  0  0
 71 72  2  0  0  0
 71 74  1  0  0  0
 71149  1  0  0  0
 72 75  1  0  0  0
 72150  1  0  0  0
 73 75  2  0  0  0
 73 76  1  0  0  0
 73151  1  0  0  0
 74 76  2  0  0  0
 74 77  1  0  0  0
 75 85  1  0  0  0
 76 89  1  0  0  0
 77 86  1  0  0  0
 77 87  2  0  0  0
 78 81  1  0  0  0
 78 83  1  0  0  0
 78 88  2  0  0  0
 79152  1  0  0  0
 79153  1  0  0  0
 79154  1  0  0  0
 79 84  1  0  0  0
 80 84  1  0  0  0
 80155  1  0  0  0
 80156  1  0  0  0
 80157  1  0  0  0
 81158  1  0  0  0
 81159  1  0  0  0
 82 84  1  0  0  0
 82160  1  0  0  0
 82161  1  0  0  0
 82 83  1  0  0  0
 83 86  1  0  0  0
 83162  1  0  0  0
 84163  1  0  0  0
 85164  1  0  0  0
 86165  1  0  0  0
M  ISO  4   1 100  68 101  81 101  85 100
M  END
> <chiral flag>
0

> <version>
0

> <s_m_source_file>
/data/baiqing/PycharmProjects/Reinvent-master-3.2/result/LINK_invent/BTK/process_docking_weight1_custom_product_contain_oxygen_bond_distance_aromatic_linkinvent_7_9_3/rearranged_h_0099.sdf

> <i_m_source_file_index>
50

> <r_mmod_Potential_Energy-OPLS-2005>
178.232498168945

> <r_mmod_Stretch_Energy-OPLS-2005>
44.7993850708008

> <r_mmod_Bend_Energy-OPLS-2005>
322.746887207031

> <r_mmod_Torsional_Energy-OPLS-2005>
248.574142456055

> <r_mmod_Improper_Torsional_Energy-OPLS-2005>
5.23979806900024

> <r_mmod_Van_der_Waal_Energy-OPLS-2005>
155.02082824707

> <r_mmod_Electrostatic_Energy-OPLS-2005>
-383.233642578125

> <r_mmod_Solvation_Energy-OPLS-2005>
-228.29753112793

> <b_mmod_Minimization_Converged-OPLS-2005>
0

> <r_mmod_RMS_Derivative-OPLS-2005>
2.4941725730896

$$$$
50
                    3D
 Structure written by MMmdl.
165174  0  0  1  0            999 V2000
  -30.6317  -14.6223   20.4964 C   0  0  0  0  0  0
  -30.4384  -12.3789   19.4525 C   0  0  0  0  0  0
  -29.5070  -12.5046   18.2259 C   0  0  0  0  0  0
  -28.0291  -12.3479   18.6386 C   0  0  0  0  0  0
  -27.6565  -13.2165   19.8690 C   0  0  2  0  0  0
  -28.7015  -13.0628   20.9968 C   0  0  0  0  0  0
  -25.2574  -13.8175   20.5710 C   0  0  0  0  0  0
  -24.1834  -13.0442   20.9199 C   0  0  0  0  0  0
  -24.6399  -11.6910   20.8749 C   0  0  0  0  0  0
  -23.9059  -10.4292   21.0401 C   0  0  0  0  0  0
  -24.3608   -9.4212   21.9180 C   0  0  0  0  0  0
  -23.6293   -8.2247   22.0752 C   0  0  0  0  0  0
  -22.4278   -8.0275   21.3542 C   0  0  0  0  0  0
  -21.9904   -9.0246   20.4644 C   0  0  0  0  0  0
  -22.7229  -10.2129   20.3049 C   0  0  0  0  0  0
  -21.6849   -6.0733   22.5277 C   0  0  0  0  0  0
  -21.4007   -6.5636   23.8211 C   0  0  0  0  0  0
  -21.3663   -5.6787   24.9173 C   0  0  0  0  0  0
  -21.6046   -4.3049   24.7219 C   0  0  0  0  0  0
  -21.8824   -3.8144   23.4339 C   0  0  0  0  0  0
  -21.9197   -4.6960   22.3398 C   0  0  0  0  0  0
  -22.7862  -13.5235   21.1856 C   0  0  0  0  0  0
  -22.1664   -4.2144   21.0973 F   0  0  0  0  0  0
  -21.5634   -3.4526   25.7733 F   0  0  0  0  0  0
  -30.0194  -13.3985   20.4344 N   0  0  0  0  0  0
  -26.3010  -12.9358   20.3367 N   0  0  0  0  0  0
  -25.9331  -11.6510   20.5790 N   0  0  0  0  0  0
  -22.0488  -12.8228   22.0393 N   0  0  0  0  0  0
  -25.4268  -15.1897   20.4141 N   0  0  0  0  0  0
  -31.7981  -14.7701   20.1242 O   0  0  0  0  0  0
  -21.6637   -6.8873   21.4239 O   0  0  0  0  0  0
  -22.3556  -14.5551   20.6713 O   0  0  0  0  0  0
  -24.6254  -31.8606   23.2034 C   0  0  0  0  0  0
  -25.9116  -32.4777   23.8348 C   0  0  1  0  0  0
  -27.2183  -27.3278   20.1165 C   0  0  0  0  0  0
  -25.5955  -33.8578   24.2284 N   0  0  0  0  0  0
  -23.4176  -30.4852   21.5456 C   0  0  2  0  0  0
  -24.8626  -28.9421   20.1105 C   0  0  0  0  0  0
  -22.7465  -29.4628   22.4934 C   0  0  0  0  0  0
  -18.0281  -28.1388   22.8487 C   0  0  0  0  0  0
  -24.1485  -36.7269   23.2620 C   0  0  0  0  0  0
  -25.9574  -30.7950   21.3720 C   0  0  0  0  0  0
  -26.0315  -29.4222   20.7159 C   0  0  0  0  0  0
  -27.2148  -28.6268   20.7084 C   0  0  0  0  0  0
  -26.0318  -26.9036   19.4781 C   0  0  0  0  0  0
  -24.8641  -27.6886   19.4815 C   0  0  0  0  0  0
  -23.6310  -29.8219   20.1595 C   0  0  0  0  0  0
  -25.4098  -36.3069   24.0332 C   0  0  1  0  0  0
  -20.5881  -28.3675   23.1285 C   0  0  2  0  0  0
  -20.6777  -26.9404   22.5413 C   0  0  0  0  0  0
  -19.5757  -26.6389   21.5209 C   0  0  0  0  0  0
  -18.1932  -26.7937   22.1620 C   0  0  0  0  0  0
  -19.1533  -28.8852   23.2882 C   0  0  0  0  0  0
  -18.9459  -30.1456   23.8890 C   0  0  0  0  0  0
  -17.6462  -30.6588   24.0562 C   0  0  0  0  0  0
  -25.9062  -34.9452   23.5102 C   0  0  0  0  0  0
  -16.5348  -29.9089   23.6339 C   0  0  0  0  0  0
  -16.7267  -28.6510   23.0346 C   0  0  0  0  0  0
  -26.4515  -31.6573   25.0708 C   0  0  0  0  0  0
  -25.3752  -31.3727   26.1443 C   0  0  0  0  0  0
  -27.0315  -30.2982   24.6134 C   0  0  0  0  0  0
  -27.6089  -32.4291   25.7478 C   0  0  0  0  0  0
  -27.5608  -37.1729   24.8417 C   0  0  0  0  0  0
  -21.4181  -29.3027   22.3676 N   0  0  0  0  0  0
  -26.4240  -37.3800   23.9488 N   0  0  0  0  0  0
  -24.6853  -31.0630   22.0976 N   0  0  0  0  0  0
  -23.4198  -28.8165   23.3003 O   0  0  0  0  0  0
  -28.3377  -26.4864   20.1315 O   0  0  0  0  0  0
  -26.5613  -34.8935   22.4656 O   0  0  0  0  0  0
  -23.5429  -32.1392   23.7379 O   0  0  0  0  0  0
  -29.1533  -19.3864   21.3687 C   0  0  0  0  0  0
  -30.6891  -19.1681   19.5317 C   0  0  0  0  0  0
  -29.9674  -20.0361   20.4018 C   0  0  0  0  0  0
  -29.9256  -17.1128   20.6771 C   0  0  0  0  0  0
  -29.1322  -17.9541   21.5096 C   0  0  0  0  0  0
  -30.6754  -17.7520   19.6555 C   0  0  0  0  0  0
  -31.4079  -22.0015   20.3076 C   0  0  0  0  0  0
  -31.6584  -23.4800   19.9842 C   0  0  0  0  0  0
  -30.6003  -24.4262   20.5490 C   0  0  0  0  0  0
  -28.9863  -22.4747   20.5052 C   0  0  0  0  0  0
  -29.2157  -24.0001   20.0710 C   0  0  1  0  0  0
  -26.8607  -17.0623   24.2773 C   0  0  0  0  0  0
  -28.1305  -25.0705   20.5169 C   0  0  0  0  0  0
  -27.5673  -18.0480   23.3444 C   0  0  0  0  0  0
  -30.1354  -21.5039   20.3256 N   0  0  0  0  0  0
  -29.8369  -15.6659   20.8777 N   0  0  0  0  0  0
  -32.4088  -21.3077   20.5219 O   0  0  0  0  0  0
  -28.3647  -17.2913   22.4469 O   0  0  0  0  0  0
  -31.3724  -17.0246   18.7513 F   0  0  0  0  0  0
  -31.4791  -12.5017   19.1485 H   0  0  0  0  0  0
  -30.3715  -11.3808   19.8896 H   0  0  0  0  0  0
  -29.7667  -11.7551   17.4763 H   0  0  0  0  0  0
  -29.6540  -13.4763   17.7512 H   0  0  0  0  0  0
  -27.8628  -11.2951   18.8685 H   0  0  0  0  0  0
  -27.3730  -12.5825   17.8000 H   0  0  0  0  0  0
  -27.6786  -14.2542   19.5348 H   0  0  0  0  0  0
  -28.7093  -12.0392   21.3755 H   0  0  0  0  0  0
  -28.4509  -13.6922   21.8523 H   0  0  0  0  0  0
  -25.2752   -9.5692   22.4762 H   0  0  0  0  0  0
  -23.9999   -7.4628   22.7469 H   0  0  0  0  0  0
  -21.0833   -8.8754   19.8956 H   0  0  0  0  0  0
  -22.3676  -10.9659   19.6156 H   0  0  0  0  0  0
  -21.1987   -7.6145   23.9710 H   0  0  0  0  0  0
  -21.1479   -6.0517   25.9075 H   0  0  0  0  0  0
  -22.0601   -2.7607   23.2830 H   0  0  0  0  0  0
  -22.4082  -11.9870   22.4762 H   0  0  0  0  0  0
  -21.1119  -13.1284   22.2603 H   0  0  0  0  0  0
  -24.6554  -15.8391   20.5204 H   0  0  0  0  0  0
  -26.2817  -15.6359   20.1082 H   0  0  0  0  0  0
  -26.7179  -32.5450   23.1092 H   0  0  0  0  0  0
  -25.0145  -33.9713   25.0464 H   0  0  0  0  0  0
  -22.7110  -31.3059   21.4051 H   0  0  0  0  0  0
  -23.3809  -35.9528   23.3150 H   0  0  0  0  0  0
  -24.3626  -36.9014   22.2062 H   0  0  0  0  0  0
  -23.7139  -37.6396   23.6711 H   0  0  0  0  0  0
  -26.0865  -31.5597   20.6047 H   0  0  0  0  0  0
  -26.8401  -30.8437   21.9987 H   0  0  0  0  0  0
  -28.1138  -28.9902   21.1855 H   0  0  0  0  0  0
  -25.9916  -25.9564   18.9604 H   0  0  0  0  0  0
  -23.9730  -27.3209   18.9916 H   0  0  0  0  0  0
  -23.7482  -30.5995   19.4037 H   0  0  0  0  0  0
  -22.7517  -29.2507   19.8564 H   0  0  0  0  0  0
  -25.1253  -36.1867   25.0813 H   0  0  0  0  0  0
  -20.9975  -28.3246   24.1406 H   0  0  0  0  0  0
  -20.5693  -26.2281   23.3608 H   0  0  0  0  0  0
  -21.6641  -26.7448   22.1187 H   0  0  0  0  0  0
  -19.6915  -25.6304   21.1230 H   0  0  0  0  0  0
  -19.6706  -27.3209   20.6748 H   0  0  0  0  0  0
  -17.4211  -26.6692   21.4013 H   0  0  0  0  0  0
  -18.0327  -26.0077   22.9011 H   0  0  0  0  0  0
  -19.7934  -30.7273   24.2260 H   0  0  0  0  0  0
  -17.5019  -31.6267   24.5164 H   0  0  0  0  0  0
  -15.5352  -30.2985   23.7685 H   0  0  0  0  0  0
  -15.8666  -28.0831   22.7051 H   0  0  0  0  0  0
  -24.5921  -30.7070   25.7798 H   0  0  0  0  0  0
  -24.8945  -32.2893   26.4862 H   0  0  0  0  0  0
  -25.8085  -30.8923   27.0219 H   0  0  0  0  0  0
  -26.2840  -29.6759   24.1190 H   0  0  0  0  0  0
  -27.4034  -29.7219   25.4618 H   0  0  0  0  0  0
  -27.8730  -30.4257   23.9319 H   0  0  0  0  0  0
  -27.2715  -33.3623   26.2003 H   0  0  0  0  0  0
  -28.3939  -32.6775   25.0321 H   0  0  0  0  0  0
  -28.0704  -31.8419   26.5429 H   0  0  0  0  0  0
  -28.2420  -38.0226   24.7776 H   0  0  0  0  0  0
  -28.1302  -36.2787   24.5826 H   0  0  0  0  0  0
  -27.2399  -37.0851   25.8812 H   0  0  0  0  0  0
  -20.9355  -29.8751   21.6891 H   0  0  0  0  0  0
  -26.0100  -38.2813   24.1702 H   0  0  0  0  0  0
  -28.5735  -20.0104   22.0322 H   0  0  0  0  0  0
  -31.3014  -19.5912   18.7483 H   0  0  0  0  0  0
  -31.7021  -23.5777   18.8988 H   0  0  0  0  0  0
  -32.6411  -23.7690   20.3582 H   0  0  0  0  0  0
  -30.8171  -25.4444   20.2232 H   0  0  0  0  0  0
  -30.6414  -24.4324   21.6391 H   0  0  0  0  0  0
  -28.1179  -22.0777   19.9776 H   0  0  0  0  0  0
  -28.7239  -22.4543   21.5632 H   0  0  0  0  0  0
  -29.2273  -24.0184   18.9795 H   0  0  0  0  0  0
  -26.2334  -17.5872   24.9976 H   0  0  0  0  0  0
  -27.5836  -16.4649   24.8348 H   0  0  0  0  0  0
  -26.2236  -16.3791   23.7143 H   0  0  0  0  0  0
  -28.0655  -25.0531   21.6049 H   0  0  0  0  0  0
  -27.1678  -24.6938   20.1798 H   0  0  0  0  0  0
  -28.1886  -18.7282   23.9293 H   0  0  0  0  0  0
  -26.8278  -18.6359   22.7986 H   0  0  0  0  0  0
  -28.9847  -15.3794   21.3335 H   0  0  0  0  0  0
  1 25  1  0  0  0
  1 30  2  0  0  0
  1 86  1  0  0  0
  2  3  1  0  0  0
  2 25  1  0  0  0
  2 90  1  0  0  0
  2 91  1  0  0  0
  3  4  1  0  0  0
  3 92  1  0  0  0
  3 93  1  0  0  0
  4  5  1  0  0  0
  4 94  1  0  0  0
  4 95  1  0  0  0
  5  6  1  0  0  0
  5 26  1  0  0  0
  5 96  1  0  0  0
  6 25  1  0  0  0
  6 97  1  0  0  0
  6 98  1  0  0  0
  7  8  2  0  0  0
  7 26  1  0  0  0
  7 29  1  0  0  0
  8  9  1  0  0  0
  8 22  1  0  0  0
  9 10  1  0  0  0
  9 27  2  0  0  0
 10 11  2  0  0  0
 10 15  1  0  0  0
 11 12  1  0  0  0
 11 99  1  0  0  0
 12 13  2  0  0  0
 12100  1  0  0  0
 13 14  1  0  0  0
 13 31  1  0  0  0
 14 15  2  0  0  0
 14101  1  0  0  0
 15102  1  0  0  0
 16 17  2  0  0  0
 16 21  1  0  0  0
 16 31  1  0  0  0
 17 18  1  0  0  0
 17103  1  0  0  0
 18 19  2  0  0  0
 18104  1  0  0  0
 19 20  1  0  0  0
 19 24  1  0  0  0
 20 21  2  0  0  0
 20105  1  0  0  0
 21 23  1  0  0  0
 22 28  1  0  0  0
 22 32  2  0  0  0
 26 27  1  0  0  0
 28106  1  0  0  0
 28107  1  0  0  0
 29108  1  0  0  0
 29109  1  0  0  0
 33 34  1  0  0  0
 33 66  1  0  0  0
 33 70  2  0  0  0
 34 36  1  0  0  0
 34 59  1  0  0  0
 34110  1  0  0  0
 35 44  2  0  0  0
 35 45  1  0  0  0
 35 68  1  0  0  0
 36 56  1  0  0  0
 36111  1  0  0  0
 37 39  1  0  0  0
 37 47  1  0  0  0
 37 66  1  0  0  0
 37112  1  0  0  0
 38 43  2  0  0  0
 38 46  1  0  0  0
 38 47  1  0  0  0
 39 64  1  0  0  0
 39 67  2  0  0  0
 40 52  1  0  0  0
 40 53  2  0  0  0
 40 58  1  0  0  0
 41113  1  0  0  0
 41114  1  0  0  0
 41115  1  0  0  0
 41 48  1  0  0  0
 42 43  1  0  0  0
 42 66  1  0  0  0
 42116  1  0  0  0
 42117  1  0  0  0
 43 44  1  0  0  0
 44118  1  0  0  0
 45 46  2  0  0  0
 45119  1  0  0  0
 46120  1  0  0  0
 47121  1  0  0  0
 47122  1  0  0  0
 48 56  1  0  0  0
 48 65  1  0  0  0
 48123  1  0  0  0
 49 50  1  0  0  0
 49 53  1  0  0  0
 49 64  1  0  0  0
 49124  1  0  0  0
 50 51  1  0  0  0
 50125  1  0  0  0
 50126  1  0  0  0
 51 52  1  0  0  0
 51127  1  0  0  0
 51128  1  0  0  0
 52129  1  0  0  0
 52130  1  0  0  0
 53 54  1  0  0  0
 54 55  2  0  0  0
 54131  1  0  0  0
 55 57  1  0  0  0
 55132  1  0  0  0
 56 69  2  0  0  0
 57 58  2  0  0  0
 57133  1  0  0  0
 58134  1  0  0  0
 59 60  1  0  0  0
 59 61  1  0  0  0
 59 62  1  0  0  0
 60135  1  0  0  0
 60136  1  0  0  0
 60137  1  0  0  0
 61138  1  0  0  0
 61139  1  0  0  0
 61140  1  0  0  0
 62141  1  0  0  0
 62142  1  0  0  0
 62143  1  0  0  0
 63 65  1  0  0  0
 63144  1  0  0  0
 63145  1  0  0  0
 63146  1  0  0  0
 64147  1  0  0  0
 65148  1  0  0  0
 68 83  1  0  0  0
 71 73  2  0  0  0
 71 75  1  0  0  0
 71149  1  0  0  0
 72 73  1  0  0  0
 72 76  2  0  0  0
 72150  1  0  0  0
 73 85  1  0  0  0
 74 75  2  0  0  0
 74 76  1  0  0  0
 74 86  1  0  0  0
 75 88  1  0  0  0
 76 89  1  0  0  0
 77 78  1  0  0  0
 77 85  1  0  0  0
 77 87  2  0  0  0
 78 79  1  0  0  0
 78151  1  0  0  0
 78152  1  0  0  0
 79 81  1  0  0  0
 79153  1  0  0  0
 79154  1  0  0  0
 80 81  1  0  0  0
 80 85  1  0  0  0
 80155  1  0  0  0
 80156  1  0  0  0
 81 83  1  0  0  0
 81157  1  0  0  0
 82 84  1  0  0  0
 82158  1  0  0  0
 82159  1  0  0  0
 82160  1  0  0  0
 83161  1  0  0  0
 83162  1  0  0  0
 84 88  1  0  0  0
 84163  1  0  0  0
 84164  1  0  0  0
 86165  1  0  0  0
M  ISO  4   1 100  68 101  83 101  86 100
M  END
> <chiral flag>
0

> <version>
0

> <s_m_source_file>
/data/baiqing/PycharmProjects/Reinvent-master-3.2/result/LINK_invent/BTK/process_docking_weight1_custom_product_contain_oxygen_bond_distance_aromatic_linkinvent_7_9_3/rearranged_h_0099.sdf

> <i_m_source_file_index>
51

> <r_mmod_Potential_Energy-OPLS-2005>
94.0561981201172

> <r_mmod_Stretch_Energy-OPLS-2005>
86.1442031860352

> <r_mmod_Bend_Energy-OPLS-2005>
143.893692016602

> <r_mmod_Torsional_Energy-OPLS-2005>
292.861480712891

> <r_mmod_Improper_Torsional_Energy-OPLS-2005>
3.5963089466095

> <r_mmod_Van_der_Waal_Energy-OPLS-2005>
161.014495849609

> <r_mmod_Electrostatic_Energy-OPLS-2005>
-410.038757324219

> <r_mmod_Solvation_Energy-OPLS-2005>
-226.634384155273

> <b_mmod_Minimization_Converged-OPLS-2005>
0

> <r_mmod_RMS_Derivative-OPLS-2005>
1.80090415477753

$$$$
51
                    3D
 Structure written by MMmdl.
153161  0  0  1  0            999 V2000
  -30.5947  -14.7382   20.4289 C   0  0  0  0  0  0
  -30.4372  -12.4486   19.4701 C   0  0  0  0  0  0
  -29.5147  -12.5213   18.2338 C   0  0  0  0  0  0
  -28.0399  -12.3484   18.6399 C   0  0  0  0  0  0
  -27.6482  -13.2313   19.8541 C   0  0  2  0  0  0
  -28.6918  -13.1408   20.9901 C   0  0  0  0  0  0
  -25.2536  -13.8207   20.5669 C   0  0  0  0  0  0
  -24.1817  -13.0472   20.9179 C   0  0  0  0  0  0
  -24.6378  -11.6940   20.8703 C   0  0  0  0  0  0
  -23.9039  -10.4313   21.0366 C   0  0  0  0  0  0
  -24.3596   -9.4239   21.9154 C   0  0  0  0  0  0
  -23.6274   -8.2266   22.0724 C   0  0  0  0  0  0
  -22.4254   -8.0292   21.3541 C   0  0  0  0  0  0
  -21.9886   -9.0257   20.4644 C   0  0  0  0  0  0
  -22.7203  -10.2138   20.3035 C   0  0  0  0  0  0
  -21.6865   -6.0729   22.5269 C   0  0  0  0  0  0
  -21.4021   -6.5615   23.8204 C   0  0  0  0  0  0
  -21.3671   -5.6771   24.9167 C   0  0  0  0  0  0
  -21.6041   -4.3030   24.7219 C   0  0  0  0  0  0
  -21.8828   -3.8129   23.4330 C   0  0  0  0  0  0
  -21.9198   -4.6952   22.3401 C   0  0  0  0  0  0
  -22.7842  -13.5276   21.1867 C   0  0  0  0  0  0
  -22.1671   -4.2143   21.0977 F   0  0  0  0  0  0
  -21.5632   -3.4512   25.7726 F   0  0  0  0  0  0
  -29.9969  -13.4970   20.4190 N   0  0  0  0  0  0
  -26.2953  -12.9407   20.3244 N   0  0  0  0  0  0
  -25.9301  -11.6551   20.5659 N   0  0  0  0  0  0
  -22.0458  -12.8256   22.0407 N   0  0  0  0  0  0
  -25.4255  -15.1923   20.4129 N   0  0  0  0  0  0
  -31.7627  -14.8601   20.0514 O   0  0  0  0  0  0
  -21.6644   -6.8860   21.4234 O   0  0  0  0  0  0
  -22.3522  -14.5607   20.6764 O   0  0  0  0  0  0
  -24.6321  -31.8548   23.2001 C   0  0  0  0  0  0
  -25.9144  -32.4758   23.8347 C   0  0  1  0  0  0
  -27.2151  -27.2544   20.1175 C   0  0  0  0  0  0
  -25.5932  -33.8552   24.2270 N   0  0  0  0  0  0
  -23.4301  -30.4808   21.5423 C   0  0  2  0  0  0
  -24.8774  -28.9339   20.1062 C   0  0  0  0  0  0
  -22.7524  -29.4598   22.4893 C   0  0  0  0  0  0
  -18.0310  -28.1426   22.8483 C   0  0  0  0  0  0
  -24.1489  -36.7294   23.2638 C   0  0  0  0  0  0
  -25.9777  -30.7651   21.3843 C   0  0  0  0  0  0
  -26.0496  -29.3874   20.7248 C   0  0  0  0  0  0
  -27.2195  -28.5579   20.7261 C   0  0  0  0  0  0
  -26.0218  -26.8841   19.4531 C   0  0  0  0  0  0
  -24.8691  -27.6907   19.4610 C   0  0  0  0  0  0
  -23.6485  -29.8214   20.1564 C   0  0  0  0  0  0
  -25.4110  -36.3064   24.0327 C   0  0  1  0  0  0
  -20.5910  -28.3720   23.1265 C   0  0  2  0  0  0
  -20.6794  -26.9434   22.5405 C   0  0  0  0  0  0
  -19.5760  -26.6401   21.5220 C   0  0  0  0  0  0
  -18.1945  -26.7960   22.1638 C   0  0  0  0  0  0
  -19.1560  -28.8896   23.2870 C   0  0  0  0  0  0
  -18.9474  -30.1497   23.8889 C   0  0  0  0  0  0
  -17.6465  -30.6611   24.0568 C   0  0  0  0  0  0
  -25.9044  -34.9436   23.5101 C   0  0  0  0  0  0
  -16.5358  -29.9102   23.6334 C   0  0  0  0  0  0
  -16.7293  -28.6532   23.0334 C   0  0  0  0  0  0
  -26.4499  -31.6575   25.0743 C   0  0  0  0  0  0
  -25.3707  -31.3761   26.1458 C   0  0  0  0  0  0
  -27.0327  -30.2979   24.6242 C   0  0  0  0  0  0
  -27.6085  -32.4299   25.7487 C   0  0  0  0  0  0
  -27.5578  -37.1800   24.8461 C   0  0  0  0  0  0
  -21.4229  -29.3062   22.3652 N   0  0  0  0  0  0
  -26.4289  -37.3764   23.9404 N   0  0  0  0  0  0
  -24.6993  -31.0507   22.0983 N   0  0  0  0  0  0
  -23.4224  -28.8114   23.2971 O   0  0  0  0  0  0
  -28.2922  -26.3324   20.1860 O   0  0  0  0  0  0
  -26.5620  -34.8906   22.4668 O   0  0  0  0  0  0
  -23.5471  -32.1375   23.7286 O   0  0  0  0  0  0
  -29.4123  -19.6564   18.6090 C   0  0  0  0  0  0
  -29.6416  -18.4635   20.7211 C   0  0  0  0  0  0
  -29.6838  -17.2053   18.6442 C   0  0  0  0  0  0
  -29.4808  -19.7305   20.0163 C   0  0  0  0  0  0
  -29.5016  -18.4166   17.9335 C   0  0  0  0  0  0
  -29.7655  -17.1753   20.0566 C   0  0  0  0  0  0
  -28.9974  -23.7362   20.4296 C   0  0  0  0  0  0
  -29.4658  -21.1613   20.7235 C   0  0  0  0  0  0
  -28.0069  -24.8761   19.8938 C   0  0  0  0  0  0
  -29.3949  -18.3895   16.5414 N   0  0  0  0  0  0
  -29.8271  -15.8524   20.7347 N   0  0  0  0  0  0
  -28.8039  -22.3962   20.1105 N   0  0  0  0  0  0
  -29.9232  -24.0654   21.1744 O   0  0  0  0  0  0
  -31.4768  -12.5725   19.1672 H   0  0  0  0  0  0
  -30.3818  -11.4657   19.9386 H   0  0  0  0  0  0
  -29.7944  -11.7600   17.5048 H   0  0  0  0  0  0
  -29.6456  -13.4828   17.7350 H   0  0  0  0  0  0
  -27.8764  -11.2966   18.8772 H   0  0  0  0  0  0
  -27.3951  -12.5718   17.7909 H   0  0  0  0  0  0
  -27.6506  -14.2584   19.4879 H   0  0  0  0  0  0
  -28.7219  -12.1301   21.4005 H   0  0  0  0  0  0
  -28.4254  -13.7974   21.8181 H   0  0  0  0  0  0
  -25.2727   -9.5741   22.4735 H   0  0  0  0  0  0
  -24.0016   -7.4641   22.7408 H   0  0  0  0  0  0
  -21.0821   -8.8758   19.8921 H   0  0  0  0  0  0
  -22.3634  -10.9677   19.6143 H   0  0  0  0  0  0
  -21.2012   -7.6118   23.9711 H   0  0  0  0  0  0
  -21.1484   -6.0489   25.9072 H   0  0  0  0  0  0
  -22.0597   -2.7590   23.2840 H   0  0  0  0  0  0
  -22.4065  -11.9945   22.4863 H   0  0  0  0  0  0
  -21.1077  -13.1290   22.2584 H   0  0  0  0  0  0
  -24.6674  -15.8538   20.5345 H   0  0  0  0  0  0
  -26.2787  -15.6250   20.0834 H   0  0  0  0  0  0
  -26.7207  -32.5409   23.1090 H   0  0  0  0  0  0
  -25.0053  -33.9688   25.0402 H   0  0  0  0  0  0
  -22.7264  -31.3036   21.4001 H   0  0  0  0  0  0
  -23.3739  -35.9634   23.3292 H   0  0  0  0  0  0
  -24.3584  -36.8926   22.2055 H   0  0  0  0  0  0
  -23.7257  -37.6497   23.6672 H   0  0  0  0  0  0
  -26.1167  -31.5263   20.6154 H   0  0  0  0  0  0
  -26.8552  -30.8142   22.0172 H   0  0  0  0  0  0
  -28.1104  -28.8902   21.2407 H   0  0  0  0  0  0
  -25.9383  -25.9451   18.9266 H   0  0  0  0  0  0
  -23.9749  -27.3460   18.9607 H   0  0  0  0  0  0
  -23.7734  -30.6005   19.4031 H   0  0  0  0  0  0
  -22.7663  -29.2561   19.8502 H   0  0  0  0  0  0
  -25.1289  -36.1909   25.0817 H   0  0  0  0  0  0
  -21.0013  -28.3303   24.1379 H   0  0  0  0  0  0
  -20.5716  -26.2321   23.3607 H   0  0  0  0  0  0
  -21.6657  -26.7468   22.1179 H   0  0  0  0  0  0
  -19.6902  -25.6300   21.1276 H   0  0  0  0  0  0
  -19.6694  -27.3193   20.6731 H   0  0  0  0  0  0
  -17.4197  -26.6698   21.4057 H   0  0  0  0  0  0
  -18.0354  -26.0134   22.9069 H   0  0  0  0  0  0
  -19.7933  -30.7341   24.2239 H   0  0  0  0  0  0
  -17.5001  -31.6277   24.5181 H   0  0  0  0  0  0
  -15.5355  -30.2990   23.7666 H   0  0  0  0  0  0
  -15.8697  -28.0857   22.7022 H   0  0  0  0  0  0
  -24.5828  -30.7185   25.7765 H   0  0  0  0  0  0
  -24.8969  -32.2952   26.4914 H   0  0  0  0  0  0
  -25.7992  -30.8872   27.0219 H   0  0  0  0  0  0
  -26.2903  -29.6734   24.1259 H   0  0  0  0  0  0
  -27.3965  -29.7248   25.4782 H   0  0  0  0  0  0
  -27.8809  -30.4225   23.9513 H   0  0  0  0  0  0
  -27.2740  -33.3628   26.2029 H   0  0  0  0  0  0
  -28.3902  -32.6791   25.0304 H   0  0  0  0  0  0
  -28.0730  -31.8426   26.5420 H   0  0  0  0  0  0
  -28.2591  -38.0099   24.7489 H   0  0  0  0  0  0
  -28.1078  -36.2630   24.6299 H   0  0  0  0  0  0
  -27.2303  -37.1467   25.8866 H   0  0  0  0  0  0
  -20.9418  -29.8786   21.6858 H   0  0  0  0  0  0
  -26.0167  -38.2836   24.1388 H   0  0  0  0  0  0
  -29.3041  -20.5657   18.0345 H   0  0  0  0  0  0
  -29.6895  -18.4872   21.8003 H   0  0  0  0  0  0
  -29.7274  -16.2755   18.0930 H   0  0  0  0  0  0
  -30.5128  -21.4165   20.8937 H   0  0  0  0  0  0
  -29.0391  -21.0263   21.7184 H   0  0  0  0  0  0
  -27.0458  -24.6159   20.3406 H   0  0  0  0  0  0
  -27.9061  -24.7455   18.8161 H   0  0  0  0  0  0
  -28.9774  -19.1788   16.0570 H   0  0  0  0  0  0
  -29.2086  -17.5067   16.0764 H   0  0  0  0  0  0
  -29.0116  -15.6404   21.2925 H   0  0  0  0  0  0
  -28.0413  -22.2046   19.4747 H   0  0  0  0  0  0
  1 25  1  0  0  0
  1 30  2  0  0  0
  1 81  1  0  0  0
  2  3  1  0  0  0
  2 25  1  0  0  0
  2 84  1  0  0  0
  2 85  1  0  0  0
  3  4  1  0  0  0
  3 86  1  0  0  0
  3 87  1  0  0  0
  4  5  1  0  0  0
  4 88  1  0  0  0
  4 89  1  0  0  0
  5  6  1  0  0  0
  5 26  1  0  0  0
  5 90  1  0  0  0
  6 25  1  0  0  0
  6 91  1  0  0  0
  6 92  1  0  0  0
  7  8  2  0  0  0
  7 26  1  0  0  0
  7 29  1  0  0  0
  8  9  1  0  0  0
  8 22  1  0  0  0
  9 10  1  0  0  0
  9 27  2  0  0  0
 10 11  2  0  0  0
 10 15  1  0  0  0
 11 12  1  0  0  0
 11 93  1  0  0  0
 12 13  2  0  0  0
 12 94  1  0  0  0
 13 14  1  0  0  0
 13 31  1  0  0  0
 14 15  2  0  0  0
 14 95  1  0  0  0
 15 96  1  0  0  0
 16 17  2  0  0  0
 16 21  1  0  0  0
 16 31  1  0  0  0
 17 18  1  0  0  0
 17 97  1  0  0  0
 18 19  2  0  0  0
 18 98  1  0  0  0
 19 20  1  0  0  0
 19 24  1  0  0  0
 20 21  2  0  0  0
 20 99  1  0  0  0
 21 23  1  0  0  0
 22 28  1  0  0  0
 22 32  2  0  0  0
 26 27  1  0  0  0
 28100  1  0  0  0
 28101  1  0  0  0
 29102  1  0  0  0
 29103  1  0  0  0
 33 34  1  0  0  0
 33 66  1  0  0  0
 33 70  2  0  0  0
 34 36  1  0  0  0
 34 59  1  0  0  0
 34104  1  0  0  0
 35 44  2  0  0  0
 35 45  1  0  0  0
 35 68  1  0  0  0
 36 56  1  0  0  0
 36105  1  0  0  0
 37 39  1  0  0  0
 37 47  1  0  0  0
 37 66  1  0  0  0
 37106  1  0  0  0
 38 43  2  0  0  0
 38 46  1  0  0  0
 38 47  1  0  0  0
 39 64  1  0  0  0
 39 67  2  0  0  0
 40 52  1  0  0  0
 40 53  2  0  0  0
 40 58  1  0  0  0
 41107  1  0  0  0
 41108  1  0  0  0
 41109  1  0  0  0
 41 48  1  0  0  0
 42 43  1  0  0  0
 42 66  1  0  0  0
 42110  1  0  0  0
 42111  1  0  0  0
 43 44  1  0  0  0
 44112  1  0  0  0
 45 46  2  0  0  0
 45113  1  0  0  0
 46114  1  0  0  0
 47115  1  0  0  0
 47116  1  0  0  0
 48 56  1  0  0  0
 48 65  1  0  0  0
 48117  1  0  0  0
 49 50  1  0  0  0
 49 53  1  0  0  0
 49 64  1  0  0  0
 49118  1  0  0  0
 50 51  1  0  0  0
 50119  1  0  0  0
 50120  1  0  0  0
 51 52  1  0  0  0
 51121  1  0  0  0
 51122  1  0  0  0
 52123  1  0  0  0
 52124  1  0  0  0
 53 54  1  0  0  0
 54 55  2  0  0  0
 54125  1  0  0  0
 55 57  1  0  0  0
 55126  1  0  0  0
 56 69  2  0  0  0
 57 58  2  0  0  0
 57127  1  0  0  0
 58128  1  0  0  0
 59 60  1  0  0  0
 59 61  1  0  0  0
 59 62  1  0  0  0
 60129  1  0  0  0
 60130  1  0  0  0
 60131  1  0  0  0
 61132  1  0  0  0
 61133  1  0  0  0
 61134  1  0  0  0
 62135  1  0  0  0
 62136  1  0  0  0
 62137  1  0  0  0
 63 65  1  0  0  0
 63138  1  0  0  0
 63139  1  0  0  0
 63140  1  0  0  0
 64141  1  0  0  0
 65142  1  0  0  0
 68 79  1  0  0  0
 71 74  2  0  0  0
 71 75  1  0  0  0
 71143  1  0  0  0
 72 74  1  0  0  0
 72 76  2  0  0  0
 72144  1  0  0  0
 73 75  2  0  0  0
 73 76  1  0  0  0
 73145  1  0  0  0
 74 78  1  0  0  0
 75 80  1  0  0  0
 76 81  1  0  0  0
 77 79  1  0  0  0
 77 82  1  0  0  0
 77 83  2  0  0  0
 78 82  1  0  0  0
 78146  1  0  0  0
 78147  1  0  0  0
 79148  1  0  0  0
 79149  1  0  0  0
 80150  1  0  0  0
 80151  1  0  0  0
 81152  1  0  0  0
 82153  1  0  0  0
M  ISO  4   1 100  68 101  79 101  81 100
M  END
> <chiral flag>
0

> <version>
0

> <s_m_source_file>
/data/baiqing/PycharmProjects/Reinvent-master-3.2/result/LINK_invent/BTK/process_docking_weight1_custom_product_contain_oxygen_bond_distance_aromatic_linkinvent_7_9_3/rearranged_h_0099.sdf

> <i_m_source_file_index>
52

> <r_mmod_Potential_Energy-OPLS-2005>
88.8575668334961

> <r_mmod_Stretch_Energy-OPLS-2005>
122.891723632812

> <r_mmod_Bend_Energy-OPLS-2005>
154.636154174805

> <r_mmod_Torsional_Energy-OPLS-2005>
242.683502197266

> <r_mmod_Improper_Torsional_Energy-OPLS-2005>
8.1208438873291

> <r_mmod_Van_der_Waal_Energy-OPLS-2005>
137.019515991211

> <r_mmod_Electrostatic_Energy-OPLS-2005>
-395.953887939453

> <r_mmod_Solvation_Energy-OPLS-2005>
-268.891052246094

> <b_mmod_Minimization_Converged-OPLS-2005>
0

> <r_mmod_RMS_Derivative-OPLS-2005>
3.51410746574402

$$$$
52
                    3D
 Structure written by MMmdl.
150158  0  0  1  0            999 V2000
  -30.5204  -14.9218   20.4309 C   0  0  0  0  0  0
  -30.4495  -12.5662   19.4933 C   0  0  0  0  0  0
  -29.5246  -12.5394   18.2528 C   0  0  0  0  0  0
  -28.0541  -12.3322   18.6660 C   0  0  0  0  0  0
  -27.6371  -13.2437   19.8492 C   0  0  2  0  0  0
  -28.6825  -13.2272   20.9855 C   0  0  0  0  0  0
  -25.2482  -13.8199   20.5694 C   0  0  0  0  0  0
  -24.1780  -13.0437   20.9195 C   0  0  0  0  0  0
  -24.6392  -11.6917   20.8737 C   0  0  0  0  0  0
  -23.9071  -10.4293   21.0397 C   0  0  0  0  0  0
  -24.3613   -9.4212   21.9182 C   0  0  0  0  0  0
  -23.6283   -8.2253   22.0763 C   0  0  0  0  0  0
  -22.4266   -8.0292   21.3557 C   0  0  0  0  0  0
  -21.9900   -9.0265   20.4656 C   0  0  0  0  0  0
  -22.7237  -10.2138   20.3055 C   0  0  0  0  0  0
  -21.6859   -6.0732   22.5275 C   0  0  0  0  0  0
  -21.4016   -6.5629   23.8208 C   0  0  0  0  0  0
  -21.3664   -5.6789   24.9174 C   0  0  0  0  0  0
  -21.6042   -4.3052   24.7222 C   0  0  0  0  0  0
  -21.8818   -3.8143   23.4344 C   0  0  0  0  0  0
  -21.9193   -4.6960   22.3402 C   0  0  0  0  0  0
  -22.7798  -13.5229   21.1849 C   0  0  0  0  0  0
  -22.1662   -4.2146   21.0977 F   0  0  0  0  0  0
  -21.5629   -3.4531   25.7736 F   0  0  0  0  0  0
  -29.9671  -13.6431   20.4014 N   0  0  0  0  0  0
  -26.2925  -12.9428   20.3282 N   0  0  0  0  0  0
  -25.9332  -11.6561   20.5735 N   0  0  0  0  0  0
  -22.0437  -12.8237   22.0415 N   0  0  0  0  0  0
  -25.4118  -15.1923   20.4160 N   0  0  0  0  0  0
  -31.7051  -15.0518   20.1041 O   0  0  0  0  0  0
  -21.6646   -6.8878   21.4240 O   0  0  0  0  0  0
  -22.3479  -14.5540   20.6710 O   0  0  0  0  0  0
  -24.6448  -31.8433   23.1891 C   0  0  0  0  0  0
  -25.9217  -32.4694   23.8276 C   0  0  1  0  0  0
  -27.2195  -27.1379   20.1451 C   0  0  0  0  0  0
  -25.5967  -33.8499   24.2200 N   0  0  0  0  0  0
  -23.4479  -30.4641   21.5348 C   0  0  2  0  0  0
  -24.8975  -28.8944   20.1097 C   0  0  0  0  0  0
  -22.7572  -29.4541   22.4859 C   0  0  0  0  0  0
  -18.0301  -28.1390   22.8474 C   0  0  0  0  0  0
  -24.1489  -36.7254   23.2641 C   0  0  0  0  0  0
  -26.0045  -30.7168   21.3891 C   0  0  0  0  0  0
  -26.0753  -29.3288   20.7302 C   0  0  0  0  0  0
  -27.2366  -28.4669   20.7330 C   0  0  0  0  0  0
  -26.0138  -26.8105   19.4818 C   0  0  0  0  0  0
  -24.8798  -27.6482   19.4694 C   0  0  0  0  0  0
  -23.6736  -29.7951   20.1539 C   0  0  0  0  0  0
  -25.4120  -36.3036   24.0320 C   0  0  1  0  0  0
  -20.5917  -28.3717   23.1229 C   0  0  2  0  0  0
  -20.6784  -26.9418   22.5399 C   0  0  0  0  0  0
  -19.5762  -26.6372   21.5201 C   0  0  0  0  0  0
  -18.1943  -26.7925   22.1613 C   0  0  0  0  0  0
  -19.1559  -28.8871   23.2842 C   0  0  0  0  0  0
  -18.9479  -30.1468   23.8871 C   0  0  0  0  0  0
  -17.6475  -30.6590   24.0547 C   0  0  0  0  0  0
  -25.9070  -34.9408   23.5067 C   0  0  0  0  0  0
  -16.5364  -29.9081   23.6336 C   0  0  0  0  0  0
  -16.7283  -28.6495   23.0363 C   0  0  0  0  0  0
  -26.4530  -31.6562   25.0721 C   0  0  0  0  0  0
  -25.3716  -31.3745   26.1420 C   0  0  0  0  0  0
  -27.0394  -30.2959   24.6305 C   0  0  0  0  0  0
  -27.6066  -32.4319   25.7508 C   0  0  0  0  0  0
  -27.5580  -37.1780   24.8460 C   0  0  0  0  0  0
  -21.4262  -29.3046   22.3607 N   0  0  0  0  0  0
  -26.4283  -37.3752   23.9416 N   0  0  0  0  0  0
  -24.7190  -31.0292   22.0926 N   0  0  0  0  0  0
  -23.4211  -28.8072   23.2999 O   0  0  0  0  0  0
  -28.2638  -26.1409   20.2152 O   0  0  0  0  0  0
  -26.5652  -34.8904   22.4642 O   0  0  0  0  0  0
  -23.5569  -32.1302   23.7116 O   0  0  0  0  0  0
  -30.2581  -19.9775   20.0683 C   0  0  0  0  0  0
  -30.5397  -18.5364   20.1375 C   0  0  0  0  0  0
  -28.9957  -20.5835   20.4227 C   0  0  0  0  0  0
  -29.5854  -17.5434   20.5699 C   0  0  0  0  0  0
  -28.0694  -19.5866   20.8688 C   0  0  0  0  0  0
  -28.3493  -18.1643   20.9375 C   0  0  0  0  0  0
  -28.9467  -23.3631   20.2810 C   0  0  0  0  0  0
  -27.9141  -24.6350   20.0236 C   0  0  0  0  0  0
  -26.8032  -20.0211   21.2726 N   0  0  0  0  0  0
  -28.4856  -22.0246   20.2765 N   0  0  0  0  0  0
  -29.6593  -16.0139   20.6811 N   0  0  0  0  0  0
  -30.1421  -23.6061   20.4673 O   0  0  0  0  0  0
  -27.3601  -17.3468   21.3802 F   0  0  0  0  0  0
  -31.4827  -12.7281   19.1834 H   0  0  0  0  0  0
  -30.4387  -11.6005   20.0022 H   0  0  0  0  0  0
  -29.8351  -11.7544   17.5621 H   0  0  0  0  0  0
  -29.6207  -13.4789   17.7065 H   0  0  0  0  0  0
  -27.9363  -11.2853   18.9489 H   0  0  0  0  0  0
  -27.3947  -12.4931   17.8117 H   0  0  0  0  0  0
  -27.6106  -14.2556   19.4445 H   0  0  0  0  0  0
  -28.7565  -12.2341   21.4309 H   0  0  0  0  0  0
  -28.3842  -13.8998   21.7915 H   0  0  0  0  0  0
  -25.2752   -9.5696   22.4760 H   0  0  0  0  0  0
  -23.9995   -7.4647   22.7484 H   0  0  0  0  0  0
  -21.0832   -8.8783   19.8956 H   0  0  0  0  0  0
  -22.3694  -10.9676   19.6165 H   0  0  0  0  0  0
  -21.2006   -7.6136   23.9709 H   0  0  0  0  0  0
  -21.1486   -6.0518   25.9078 H   0  0  0  0  0  0
  -22.0589   -2.7602   23.2848 H   0  0  0  0  0  0
  -22.4040  -11.9913   22.4828 H   0  0  0  0  0  0
  -21.1057  -13.1287   22.2611 H   0  0  0  0  0  0
  -24.6487  -15.8428   20.5658 H   0  0  0  0  0  0
  -26.2811  -15.6582   20.1933 H   0  0  0  0  0  0
  -26.7285  -32.5293   23.1004 H   0  0  0  0  0  0
  -25.0107  -33.9604   25.0345 H   0  0  0  0  0  0
  -22.7519  -31.2911   21.3813 H   0  0  0  0  0  0
  -23.3761  -35.9575   23.3288 H   0  0  0  0  0  0
  -24.3579  -36.8898   22.2058 H   0  0  0  0  0  0
  -23.7227  -37.6442   23.6680 H   0  0  0  0  0  0
  -26.1619  -31.4703   20.6163 H   0  0  0  0  0  0
  -26.8749  -30.7654   22.0318 H   0  0  0  0  0  0
  -28.1301  -28.7947   21.2452 H   0  0  0  0  0  0
  -25.9034  -25.8638   18.9772 H   0  0  0  0  0  0
  -23.9832  -27.3129   18.9669 H   0  0  0  0  0  0
  -23.8085  -30.5683   19.3970 H   0  0  0  0  0  0
  -22.7887  -29.2356   19.8450 H   0  0  0  0  0  0
  -25.1299  -36.1869   25.0810 H   0  0  0  0  0  0
  -20.9998  -28.3303   24.1352 H   0  0  0  0  0  0
  -20.5661  -26.2326   23.3615 H   0  0  0  0  0  0
  -21.6653  -26.7412   22.1207 H   0  0  0  0  0  0
  -19.6921  -25.6270   21.1260 H   0  0  0  0  0  0
  -19.6708  -27.3154   20.6707 H   0  0  0  0  0  0
  -17.4209  -26.6667   21.4021 H   0  0  0  0  0  0
  -18.0352  -26.0069   22.9013 H   0  0  0  0  0  0
  -19.7957  -30.7286   24.2233 H   0  0  0  0  0  0
  -17.5031  -31.6277   24.5140 H   0  0  0  0  0  0
  -15.5365  -30.2975   23.7673 H   0  0  0  0  0  0
  -15.8682  -28.0793   22.7113 H   0  0  0  0  0  0
  -24.5898  -30.7092   25.7738 H   0  0  0  0  0  0
  -24.8904  -32.2922   26.4808 H   0  0  0  0  0  0
  -25.8004  -30.8939   27.0225 H   0  0  0  0  0  0
  -26.3008  -29.6686   24.1304 H   0  0  0  0  0  0
  -27.3994  -29.7259   25.4880 H   0  0  0  0  0  0
  -27.8923  -30.4197   23.9630 H   0  0  0  0  0  0
  -27.2666  -33.3635   26.2045 H   0  0  0  0  0  0
  -28.3900  -32.6854   25.0351 H   0  0  0  0  0  0
  -28.0709  -31.8469   26.5459 H   0  0  0  0  0  0
  -28.2575  -38.0100   24.7545 H   0  0  0  0  0  0
  -28.1101  -36.2636   24.6239 H   0  0  0  0  0  0
  -27.2309  -37.1370   25.8864 H   0  0  0  0  0  0
  -20.9473  -29.8776   21.6800 H   0  0  0  0  0  0
  -26.0154  -38.2820   24.1430 H   0  0  0  0  0  0
  -31.0374  -20.6256   19.6946 H   0  0  0  0  0  0
  -31.5186  -18.1993   19.8290 H   0  0  0  0  0  0
  -27.0273  -24.4251   20.6229 H   0  0  0  0  0  0
  -27.6061  -24.5172   18.9847 H   0  0  0  0  0  0
  -26.8148  -20.8426   21.8650 H   0  0  0  0  0  0
  -26.2661  -19.2826   21.7152 H   0  0  0  0  0  0
  -27.4770  -22.0096   20.1963 H   0  0  0  0  0  0
  -28.7648  -15.6521   20.9757 H   0  0  0  0  0  0
  1 25  1  0  0  0
  1 30  2  0  0  0
  1 81  1  0  0  0
  2  3  1  0  0  0
  2 25  1  0  0  0
  2 84  1  0  0  0
  2 85  1  0  0  0
  3  4  1  0  0  0
  3 86  1  0  0  0
  3 87  1  0  0  0
  4  5  1  0  0  0
  4 88  1  0  0  0
  4 89  1  0  0  0
  5  6  1  0  0  0
  5 26  1  0  0  0
  5 90  1  0  0  0
  6 25  1  0  0  0
  6 91  1  0  0  0
  6 92  1  0  0  0
  7  8  2  0  0  0
  7 26  1  0  0  0
  7 29  1  0  0  0
  8  9  1  0  0  0
  8 22  1  0  0  0
  9 10  1  0  0  0
  9 27  2  0  0  0
 10 11  2  0  0  0
 10 15  1  0  0  0
 11 12  1  0  0  0
 11 93  1  0  0  0
 12 13  2  0  0  0
 12 94  1  0  0  0
 13 14  1  0  0  0
 13 31  1  0  0  0
 14 15  2  0  0  0
 14 95  1  0  0  0
 15 96  1  0  0  0
 16 17  2  0  0  0
 16 21  1  0  0  0
 16 31  1  0  0  0
 17 18  1  0  0  0
 17 97  1  0  0  0
 18 19  2  0  0  0
 18 98  1  0  0  0
 19 20  1  0  0  0
 19 24  1  0  0  0
 20 21  2  0  0  0
 20 99  1  0  0  0
 21 23  1  0  0  0
 22 28  1  0  0  0
 22 32  2  0  0  0
 26 27  1  0  0  0
 28100  1  0  0  0
 28101  1  0  0  0
 29102  1  0  0  0
 29103  1  0  0  0
 33 34  1  0  0  0
 33 66  1  0  0  0
 33 70  2  0  0  0
 34 36  1  0  0  0
 34 59  1  0  0  0
 34104  1  0  0  0
 35 44  2  0  0  0
 35 45  1  0  0  0
 35 68  1  0  0  0
 36 56  1  0  0  0
 36105  1  0  0  0
 37 39  1  0  0  0
 37 47  1  0  0  0
 37 66  1  0  0  0
 37106  1  0  0  0
 38 43  2  0  0  0
 38 46  1  0  0  0
 38 47  1  0  0  0
 39 64  1  0  0  0
 39 67  2  0  0  0
 40 52  1  0  0  0
 40 53  2  0  0  0
 40 58  1  0  0  0
 41107  1  0  0  0
 41108  1  0  0  0
 41109  1  0  0  0
 41 48  1  0  0  0
 42 43  1  0  0  0
 42 66  1  0  0  0
 42110  1  0  0  0
 42111  1  0  0  0
 43 44  1  0  0  0
 44112  1  0  0  0
 45 46  2  0  0  0
 45113  1  0  0  0
 46114  1  0  0  0
 47115  1  0  0  0
 47116  1  0  0  0
 48 56  1  0  0  0
 48 65  1  0  0  0
 48117  1  0  0  0
 49 50  1  0  0  0
 49 53  1  0  0  0
 49 64  1  0  0  0
 49118  1  0  0  0
 50 51  1  0  0  0
 50119  1  0  0  0
 50120  1  0  0  0
 51 52  1  0  0  0
 51121  1  0  0  0
 51122  1  0  0  0
 52123  1  0  0  0
 52124  1  0  0  0
 53 54  1  0  0  0
 54 55  2  0  0  0
 54125  1  0  0  0
 55 57  1  0  0  0
 55126  1  0  0  0
 56 69  2  0  0  0
 57 58  2  0  0  0
 57127  1  0  0  0
 58128  1  0  0  0
 59 60  1  0  0  0
 59 61  1  0  0  0
 59 62  1  0  0  0
 60129  1  0  0  0
 60130  1  0  0  0
 60131  1  0  0  0
 61132  1  0  0  0
 61133  1  0  0  0
 61134  1  0  0  0
 62135  1  0  0  0
 62136  1  0  0  0
 62137  1  0  0  0
 63 65  1  0  0  0
 63138  1  0  0  0
 63139  1  0  0  0
 63140  1  0  0  0
 64141  1  0  0  0
 65142  1  0  0  0
 68 78  1  0  0  0
 71 72  2  0  0  0
 71 73  1  0  0  0
 71143  1  0  0  0
 72 74  1  0  0  0
 72144  1  0  0  0
 73 75  2  0  0  0
 73 80  1  0  0  0
 74 76  2  0  0  0
 74 81  1  0  0  0
 75 76  1  0  0  0
 75 79  1  0  0  0
 76 83  1  0  0  0
 77 78  1  0  0  0
 77 80  1  0  0  0
 77 82  2  0  0  0
 78145  1  0  0  0
 78146  1  0  0  0
 79147  1  0  0  0
 79148  1  0  0  0
 80149  1  0  0  0
 81150  1  0  0  0
M  ISO  4   1 100  68 101  78 101  81 100
M  END
> <chiral flag>
0

> <version>
0

> <s_m_source_file>
/data/baiqing/PycharmProjects/Reinvent-master-3.2/result/LINK_invent/BTK/process_docking_weight1_custom_product_contain_oxygen_bond_distance_aromatic_linkinvent_7_9_3/rearranged_h_0099.sdf

> <i_m_source_file_index>
53

> <r_mmod_Potential_Energy-OPLS-2005>
373.697570800781

> <r_mmod_Stretch_Energy-OPLS-2005>
220.473770141602

> <r_mmod_Bend_Energy-OPLS-2005>
282.140808105469

> <r_mmod_Torsional_Energy-OPLS-2005>
231.690444946289

> <r_mmod_Improper_Torsional_Energy-OPLS-2005>
9.40994644165039

> <r_mmod_Van_der_Waal_Energy-OPLS-2005>
134.33625793457

> <r_mmod_Electrostatic_Energy-OPLS-2005>
-444.894500732422

> <r_mmod_Solvation_Energy-OPLS-2005>
-243.131927490234

> <b_mmod_Minimization_Converged-OPLS-2005>
0

> <r_mmod_RMS_Derivative-OPLS-2005>
1.62636208534241

$$$$
53
                    3D
 Structure written by MMmdl.
163172  0  0  1  0            999 V2000
  -30.6449  -14.6723   20.5687 C   0  0  0  0  0  0
  -30.4246  -12.4314   19.4823 C   0  0  0  0  0  0
  -29.5145  -12.5450   18.2418 C   0  0  0  0  0  0
  -28.0391  -12.3512   18.6400 C   0  0  0  0  0  0
  -27.6432  -13.2247   19.8576 C   0  0  2  0  0  0
  -28.6703  -13.1215   21.0018 C   0  0  0  0  0  0
  -25.2508  -13.8172   20.5676 C   0  0  0  0  0  0
  -24.1782  -13.0437   20.9147 C   0  0  0  0  0  0
  -24.6353  -11.6910   20.8684 C   0  0  0  0  0  0
  -23.9018  -10.4305   21.0381 C   0  0  0  0  0  0
  -24.3580   -9.4235   21.9161 C   0  0  0  0  0  0
  -23.6285   -8.2259   22.0727 C   0  0  0  0  0  0
  -22.4256   -8.0270   21.3539 C   0  0  0  0  0  0
  -21.9901   -9.0229   20.4641 C   0  0  0  0  0  0
  -22.7194  -10.2118   20.3037 C   0  0  0  0  0  0
  -21.6866   -6.0729   22.5288 C   0  0  0  0  0  0
  -21.4028   -6.5627   23.8225 C   0  0  0  0  0  0
  -21.3664   -5.6766   24.9174 C   0  0  0  0  0  0
  -21.6048   -4.3023   24.7230 C   0  0  0  0  0  0
  -21.8818   -3.8133   23.4345 C   0  0  0  0  0  0
  -21.9215   -4.6960   22.3410 C   0  0  0  0  0  0
  -22.7827  -13.5260   21.1840 C   0  0  0  0  0  0
  -22.1692   -4.2162   21.0995 F   0  0  0  0  0  0
  -21.5620   -3.4505   25.7736 F   0  0  0  0  0  0
  -29.9949  -13.4618   20.4571 N   0  0  0  0  0  0
  -26.2913  -12.9364   20.3226 N   0  0  0  0  0  0
  -25.9280  -11.6504   20.5643 N   0  0  0  0  0  0
  -22.0477  -12.8240   22.0393 N   0  0  0  0  0  0
  -25.4228  -15.1890   20.4176 N   0  0  0  0  0  0
  -31.7370  -14.8385   20.0149 O   0  0  0  0  0  0
  -21.6631   -6.8862   21.4240 O   0  0  0  0  0  0
  -22.3522  -14.5582   20.6696 O   0  0  0  0  0  0
  -24.6277  -31.8569   23.1996 C   0  0  0  0  0  0
  -25.9143  -32.4740   23.8315 C   0  0  1  0  0  0
  -27.2030  -27.2844   20.1085 C   0  0  0  0  0  0
  -25.5965  -33.8542   24.2252 N   0  0  0  0  0  0
  -23.4229  -30.4808   21.5396 C   0  0  2  0  0  0
  -24.8655  -28.9359   20.0939 C   0  0  0  0  0  0
  -22.7496  -29.4606   22.4881 C   0  0  0  0  0  0
  -18.0322  -28.1365   22.8505 C   0  0  0  0  0  0
  -24.1492  -36.7269   23.2629 C   0  0  0  0  0  0
  -25.9650  -30.7717   21.3816 C   0  0  0  0  0  0
  -26.0297  -29.3981   20.7179 C   0  0  0  0  0  0
  -27.1975  -28.5771   20.7242 C   0  0  0  0  0  0
  -26.0238  -26.8888   19.4438 C   0  0  0  0  0  0
  -24.8653  -27.6895   19.4484 C   0  0  0  0  0  0
  -23.6373  -29.8190   20.1507 C   0  0  0  0  0  0
  -25.4118  -36.3047   24.0314 C   0  0  1  0  0  0
  -20.5918  -28.3683   23.1266 C   0  0  2  0  0  0
  -20.6783  -26.9393   22.5413 C   0  0  0  0  0  0
  -19.5754  -26.6374   21.5216 C   0  0  0  0  0  0
  -18.1945  -26.7927   22.1632 C   0  0  0  0  0  0
  -19.1565  -28.8848   23.2887 C   0  0  0  0  0  0
  -18.9465  -30.1456   23.8883 C   0  0  0  0  0  0
  -17.6467  -30.6568   24.0553 C   0  0  0  0  0  0
  -25.9057  -34.9423   23.5063 C   0  0  0  0  0  0
  -16.5361  -29.9063   23.6321 C   0  0  0  0  0  0
  -16.7304  -28.6471   23.0346 C   0  0  0  0  0  0
  -26.4510  -31.6575   25.0714 C   0  0  0  0  0  0
  -25.3729  -31.3777   26.1441 C   0  0  0  0  0  0
  -27.0346  -30.2974   24.6231 C   0  0  0  0  0  0
  -27.6062  -32.4330   25.7479 C   0  0  0  0  0  0
  -27.5592  -37.1763   24.8437 C   0  0  0  0  0  0
  -21.4213  -29.3038   22.3646 N   0  0  0  0  0  0
  -26.4274  -37.3764   23.9421 N   0  0  0  0  0  0
  -24.6904  -31.0565   22.0953 N   0  0  0  0  0  0
  -23.4232  -28.8135   23.2959 O   0  0  0  0  0  0
  -28.3039  -26.4184   20.2072 O   0  0  0  0  0  0
  -26.5612  -34.8915   22.4627 O   0  0  0  0  0  0
  -23.5447  -32.1379   23.7325 O   0  0  0  0  0  0
  -29.6066  -19.5257   21.5215 C   0  0  0  0  0  0
  -30.0380  -18.1921   21.8008 C   0  0  0  0  0  0
  -28.5096  -18.7179   19.5558 C   0  0  0  0  0  0
  -28.7959  -19.8371   20.4045 C   0  0  0  0  0  0
  -29.7484  -17.0613   20.9677 C   0  0  0  0  0  0
  -28.9891  -17.3863   19.8070 C   0  0  0  0  0  0
  -25.9919  -22.2772   20.9627 C   0  0  0  0  0  0
  -28.7426  -22.4085   20.1030 C   0  0  0  0  0  0
  -26.5811  -23.6857   20.7826 C   0  0  0  0  0  0
  -26.6615  -21.1178   20.1951 C   0  0  0  0  0  0
  -27.8111  -23.6871   19.8423 C   0  0  1  0  0  0
  -31.7981  -15.7241   23.2567 C   0  0  0  0  0  0
  -28.4143  -25.1417   19.4474 C   0  0  0  0  0  0
  -30.3461  -15.4378   22.8126 C   0  0  0  0  0  0
  -28.1390  -21.1592   20.2405 N   0  0  0  0  0  0
  -30.1118  -15.6689   21.3713 N   0  0  0  0  0  0
  -24.9924  -22.0891   21.6605 O   0  0  0  0  0  0
  -29.9664  -22.5548   20.1704 O   0  0  0  0  0  0
  -28.6519  -16.4003   18.9417 F   0  0  0  0  0  0
  -31.4732  -12.5377   19.1988 H   0  0  0  0  0  0
  -30.3391  -11.4401   19.9294 H   0  0  0  0  0  0
  -29.8031  -11.8136   17.4880 H   0  0  0  0  0  0
  -29.6462  -13.5261   17.7817 H   0  0  0  0  0  0
  -27.8933  -11.2969   18.8779 H   0  0  0  0  0  0
  -27.3871  -12.5667   17.7934 H   0  0  0  0  0  0
  -27.6509  -14.2571   19.5098 H   0  0  0  0  0  0
  -28.6807  -12.1198   21.4351 H   0  0  0  0  0  0
  -28.3662  -13.7879   21.8076 H   0  0  0  0  0  0
  -25.2743   -9.5739   22.4694 H   0  0  0  0  0  0
  -24.0045   -7.4651   22.7417 H   0  0  0  0  0  0
  -21.0849   -8.8692   19.8951 H   0  0  0  0  0  0
  -22.3632  -10.9609   19.6111 H   0  0  0  0  0  0
  -21.2006   -7.6122   23.9726 H   0  0  0  0  0  0
  -21.1492   -6.0483   25.9072 H   0  0  0  0  0  0
  -22.0595   -2.7593   23.2817 H   0  0  0  0  0  0
  -22.4105  -11.9939   22.4820 H   0  0  0  0  0  0
  -21.1081  -13.1239   22.2574 H   0  0  0  0  0  0
  -24.6502  -15.8379   20.5301 H   0  0  0  0  0  0
  -26.2738  -15.6313   20.0947 H   0  0  0  0  0  0
  -26.7213  -32.5387   23.1062 H   0  0  0  0  0  0
  -25.0147  -33.9650   25.0422 H   0  0  0  0  0  0
  -22.7187  -31.3029   21.3961 H   0  0  0  0  0  0
  -23.3763  -35.9575   23.3223 H   0  0  0  0  0  0
  -24.3611  -36.8973   22.2058 H   0  0  0  0  0  0
  -23.7239  -37.6453   23.6697 H   0  0  0  0  0  0
  -26.1137  -31.5399   20.6219 H   0  0  0  0  0  0
  -26.8396  -30.8065   22.0195 H   0  0  0  0  0  0
  -28.0850  -28.9129   21.2410 H   0  0  0  0  0  0
  -25.9640  -25.9382   18.9364 H   0  0  0  0  0  0
  -23.9740  -27.3386   18.9459 H   0  0  0  0  0  0
  -23.7575  -30.5935   19.3927 H   0  0  0  0  0  0
  -22.7577  -29.2464   19.8515 H   0  0  0  0  0  0
  -25.1300  -36.1852   25.0802 H   0  0  0  0  0  0
  -21.0039  -28.3263   24.1373 H   0  0  0  0  0  0
  -20.5674  -26.2286   23.3626 H   0  0  0  0  0  0
  -21.6646  -26.7406   22.1192 H   0  0  0  0  0  0
  -19.6877  -25.6278   21.1252 H   0  0  0  0  0  0
  -19.6678  -27.3177   20.6736 H   0  0  0  0  0  0
  -17.4217  -26.6724   21.4031 H   0  0  0  0  0  0
  -18.0303  -26.0076   22.9025 H   0  0  0  0  0  0
  -19.7936  -30.7297   24.2232 H   0  0  0  0  0  0
  -17.5002  -31.6245   24.5163 H   0  0  0  0  0  0
  -15.5347  -30.2922   23.7652 H   0  0  0  0  0  0
  -15.8730  -28.0782   22.7032 H   0  0  0  0  0  0
  -24.5842  -30.7205   25.7764 H   0  0  0  0  0  0
  -24.8992  -32.2977   26.4862 H   0  0  0  0  0  0
  -25.8013  -30.8928   27.0213 H   0  0  0  0  0  0
  -26.2915  -29.6737   24.1244 H   0  0  0  0  0  0
  -27.3989  -29.7246   25.4765 H   0  0  0  0  0  0
  -27.8818  -30.4215   23.9489 H   0  0  0  0  0  0
  -27.2645  -33.3616   26.2049 H   0  0  0  0  0  0
  -28.3857  -32.6919   25.0307 H   0  0  0  0  0  0
  -28.0745  -31.8486   26.5405 H   0  0  0  0  0  0
  -28.2518  -38.0146   24.7582 H   0  0  0  0  0  0
  -28.1178  -36.2674   24.6108 H   0  0  0  0  0  0
  -27.2326  -37.1255   25.8842 H   0  0  0  0  0  0
  -20.9369  -29.8790   21.6891 H   0  0  0  0  0  0
  -26.0133  -38.2807   24.1500 H   0  0  0  0  0  0
  -29.8462  -20.3059   22.2330 H   0  0  0  0  0  0
  -30.5863  -18.0600   22.7193 H   0  0  0  0  0  0
  -27.8744  -18.8641   18.6951 H   0  0  0  0  0  0
  -26.8446  -24.0847   21.7612 H   0  0  0  0  0  0
  -25.7897  -24.3193   20.3880 H   0  0  0  0  0  0
  -26.3194  -21.1269   19.1604 H   0  0  0  0  0  0
  -26.2952  -20.1846   20.6244 H   0  0  0  0  0  0
  -27.3863  -23.3904   18.8818 H   0  0  0  0  0  0
  -31.8440  -15.9012   24.3306 H   0  0  0  0  0  0
  -32.2182  -16.6028   22.7663 H   0  0  0  0  0  0
  -32.4608  -14.8854   23.0399 H   0  0  0  0  0  0
  -28.0942  -25.3702   18.4295 H   0  0  0  0  0  0
  -29.4868  -25.0038   19.3269 H   0  0  0  0  0  0
  -29.6463  -16.0464   23.3894 H   0  0  0  0  0  0
  -30.1083  -14.4077   23.0904 H   0  0  0  0  0  0
  1 25  1  0  0  0
  1 30  2  0  0  0
  1 86  1  0  0  0
  2  3  1  0  0  0
  2 25  1  0  0  0
  2 90  1  0  0  0
  2 91  1  0  0  0
  3  4  1  0  0  0
  3 92  1  0  0  0
  3 93  1  0  0  0
  4  5  1  0  0  0
  4 94  1  0  0  0
  4 95  1  0  0  0
  5  6  1  0  0  0
  5 26  1  0  0  0
  5 96  1  0  0  0
  6 25  1  0  0  0
  6 97  1  0  0  0
  6 98  1  0  0  0
  7  8  2  0  0  0
  7 26  1  0  0  0
  7 29  1  0  0  0
  8  9  1  0  0  0
  8 22  1  0  0  0
  9 10  1  0  0  0
  9 27  2  0  0  0
 10 11  2  0  0  0
 10 15  1  0  0  0
 11 12  1  0  0  0
 11 99  1  0  0  0
 12 13  2  0  0  0
 12100  1  0  0  0
 13 14  1  0  0  0
 13 31  1  0  0  0
 14 15  2  0  0  0
 14101  1  0  0  0
 15102  1  0  0  0
 16 17  2  0  0  0
 16 21  1  0  0  0
 16 31  1  0  0  0
 17 18  1  0  0  0
 17103  1  0  0  0
 18 19  2  0  0  0
 18104  1  0  0  0
 19 20  1  0  0  0
 19 24  1  0  0  0
 20 21  2  0  0  0
 20105  1  0  0  0
 21 23  1  0  0  0
 22 28  1  0  0  0
 22 32  2  0  0  0
 26 27  1  0  0  0
 28106  1  0  0  0
 28107  1  0  0  0
 29108  1  0  0  0
 29109  1  0  0  0
 33 34  1  0  0  0
 33 66  1  0  0  0
 33 70  2  0  0  0
 34 36  1  0  0  0
 34 59  1  0  0  0
 34110  1  0  0  0
 35 44  2  0  0  0
 35 45  1  0  0  0
 35 68  1  0  0  0
 36 56  1  0  0  0
 36111  1  0  0  0
 37 39  1  0  0  0
 37 47  1  0  0  0
 37 66  1  0  0  0
 37112  1  0  0  0
 38 43  2  0  0  0
 38 46  1  0  0  0
 38 47  1  0  0  0
 39 64  1  0  0  0
 39 67  2  0  0  0
 40 52  1  0  0  0
 40 53  2  0  0  0
 40 58  1  0  0  0
 41113  1  0  0  0
 41114  1  0  0  0
 41115  1  0  0  0
 41 48  1  0  0  0
 42 43  1  0  0  0
 42 66  1  0  0  0
 42116  1  0  0  0
 42117  1  0  0  0
 43 44  1  0  0  0
 44118  1  0  0  0
 45 46  2  0  0  0
 45119  1  0  0  0
 46120  1  0  0  0
 47121  1  0  0  0
 47122  1  0  0  0
 48 56  1  0  0  0
 48 65  1  0  0  0
 48123  1  0  0  0
 49 50  1  0  0  0
 49 53  1  0  0  0
 49 64  1  0  0  0
 49124  1  0  0  0
 50 51  1  0  0  0
 50125  1  0  0  0
 50126  1  0  0  0
 51 52  1  0  0  0
 51127  1  0  0  0
 51128  1  0  0  0
 52129  1  0  0  0
 52130  1  0  0  0
 53 54  1  0  0  0
 54 55  2  0  0  0
 54131  1  0  0  0
 55 57  1  0  0  0
 55132  1  0  0  0
 56 69  2  0  0  0
 57 58  2  0  0  0
 57133  1  0  0  0
 58134  1  0  0  0
 59 60  1  0  0  0
 59 61  1  0  0  0
 59 62  1  0  0  0
 60135  1  0  0  0
 60136  1  0  0  0
 60137  1  0  0  0
 61138  1  0  0  0
 61139  1  0  0  0
 61140  1  0  0  0
 62141  1  0  0  0
 62142  1  0  0  0
 62143  1  0  0  0
 63 65  1  0  0  0
 63144  1  0  0  0
 63145  1  0  0  0
 63146  1  0  0  0
 64147  1  0  0  0
 65148  1  0  0  0
 68 83  1  0  0  0
 71 72  2  0  0  0
 71 74  1  0  0  0
 71149  1  0  0  0
 72 75  1  0  0  0
 72150  1  0  0  0
 73 74  2  0  0  0
 73 76  1  0  0  0
 73151  1  0  0  0
 74 85  1  0  0  0
 75 76  2  0  0  0
 75 86  1  0  0  0
 76 89  1  0  0  0
 77 79  1  0  0  0
 77 80  1  0  0  0
 77 87  2  0  0  0
 78 81  1  0  0  0
 78 85  1  0  0  0
 78 88  2  0  0  0
 79 81  1  0  0  0
 79152  1  0  0  0
 79153  1  0  0  0
 80 85  1  0  0  0
 80154  1  0  0  0
 80155  1  0  0  0
 81 83  1  0  0  0
 81156  1  0  0  0
 82 84  1  0  0  0
 82157  1  0  0  0
 82158  1  0  0  0
 82159  1  0  0  0
 83160  1  0  0  0
 83161  1  0  0  0
 84 86  1  0  0  0
 84162  1  0  0  0
 84163  1  0  0  0
M  ISO  4   1 100  68 101  83 101  86 100
M  END
> <chiral flag>
0

> <version>
0

> <s_m_source_file>
/data/baiqing/PycharmProjects/Reinvent-master-3.2/result/LINK_invent/BTK/process_docking_weight1_custom_product_contain_oxygen_bond_distance_aromatic_linkinvent_7_9_3/rearranged_h_0099.sdf

> <i_m_source_file_index>
54

> <r_mmod_Potential_Energy-OPLS-2005>
325.869873046875

> <r_mmod_Stretch_Energy-OPLS-2005>
116.220207214355

> <r_mmod_Bend_Energy-OPLS-2005>
191.230834960938

> <r_mmod_Torsional_Energy-OPLS-2005>
361.895080566406

> <r_mmod_Improper_Torsional_Energy-OPLS-2005>
4.87067317962646

> <r_mmod_Van_der_Waal_Energy-OPLS-2005>
159.189788818359

> <r_mmod_Electrostatic_Energy-OPLS-2005>
-349.667205810547

> <r_mmod_Solvation_Energy-OPLS-2005>
-223.361434936523

> <b_mmod_Minimization_Converged-OPLS-2005>
0

> <r_mmod_RMS_Derivative-OPLS-2005>
4.18751192092896

$$$$
54
                    3D
 Structure written by MMmdl.
155163  0  0  1  0            999 V2000
  -30.6590  -14.6669   20.4992 C   0  0  0  0  0  0
  -30.4191  -12.4194   19.4572 C   0  0  0  0  0  0
  -29.4974  -12.5034   18.2228 C   0  0  0  0  0  0
  -28.0233  -12.3420   18.6406 C   0  0  0  0  0  0
  -27.6413  -13.2315   19.8549 C   0  0  2  0  0  0
  -28.6863  -13.1478   20.9868 C   0  0  0  0  0  0
  -25.2524  -13.8198   20.5751 C   0  0  0  0  0  0
  -24.1794  -13.0426   20.9224 C   0  0  0  0  0  0
  -24.6398  -11.6914   20.8727 C   0  0  0  0  0  0
  -23.9062  -10.4292   21.0402 C   0  0  0  0  0  0
  -24.3606   -9.4226   21.9198 C   0  0  0  0  0  0
  -23.6303   -8.2248   22.0760 C   0  0  0  0  0  0
  -22.4271   -8.0291   21.3564 C   0  0  0  0  0  0
  -21.9922   -9.0243   20.4650 C   0  0  0  0  0  0
  -22.7226  -10.2136   20.3072 C   0  0  0  0  0  0
  -21.6866   -6.0769   22.5282 C   0  0  0  0  0  0
  -21.4028   -6.5667   23.8216 C   0  0  0  0  0  0
  -21.3637   -5.6810   24.9183 C   0  0  0  0  0  0
  -21.6020   -4.3077   24.7222 C   0  0  0  0  0  0
  -21.8802   -3.8194   23.4338 C   0  0  0  0  0  0
  -21.9200   -4.7014   22.3406 C   0  0  0  0  0  0
  -22.7831  -13.5245   21.1895 C   0  0  0  0  0  0
  -22.1674   -4.2189   21.0980 F   0  0  0  0  0  0
  -21.5607   -3.4549   25.7737 F   0  0  0  0  0  0
  -29.9911  -13.4731   20.4014 N   0  0  0  0  0  0
  -26.2938  -12.9399   20.3332 N   0  0  0  0  0  0
  -25.9328  -11.6522   20.5743 N   0  0  0  0  0  0
  -22.0480  -12.8204   22.0438 N   0  0  0  0  0  0
  -25.4202  -15.1927   20.4206 N   0  0  0  0  0  0
  -31.8423  -14.7456   20.1650 O   0  0  0  0  0  0
  -21.6630   -6.8889   21.4250 O   0  0  0  0  0  0
  -22.3507  -14.5538   20.6768 O   0  0  0  0  0  0
  -24.6237  -31.8619   23.1999 C   0  0  0  0  0  0
  -25.9091  -32.4785   23.8329 C   0  0  1  0  0  0
  -27.2370  -27.3053   20.1142 C   0  0  0  0  0  0
  -25.5929  -33.8599   24.2224 N   0  0  0  0  0  0
  -23.4181  -30.4807   21.5429 C   0  0  2  0  0  0
  -24.8712  -28.9240   20.1106 C   0  0  0  0  0  0
  -22.7464  -29.4590   22.4928 C   0  0  0  0  0  0
  -18.0315  -28.1313   22.8515 C   0  0  0  0  0  0
  -24.1475  -36.7285   23.2637 C   0  0  0  0  0  0
  -25.9629  -30.7766   21.3795 C   0  0  0  0  0  0
  -26.0338  -29.4040   20.7226 C   0  0  0  0  0  0
  -27.2127  -28.6009   20.7184 C   0  0  0  0  0  0
  -26.0397  -26.8654   19.5057 C   0  0  0  0  0  0
  -24.8757  -27.6568   19.5010 C   0  0  0  0  0  0
  -23.6403  -29.8089   20.1591 C   0  0  0  0  0  0
  -25.4086  -36.3085   24.0324 C   0  0  1  0  0  0
  -20.5892  -28.3649   23.1297 C   0  0  2  0  0  0
  -20.6765  -26.9363   22.5425 C   0  0  0  0  0  0
  -19.5754  -26.6320   21.5219 C   0  0  0  0  0  0
  -18.1930  -26.7870   22.1604 C   0  0  0  0  0  0
  -19.1564  -28.8815   23.2898 C   0  0  0  0  0  0
  -18.9504  -30.1421   23.8915 C   0  0  0  0  0  0
  -17.6495  -30.6549   24.0566 C   0  0  0  0  0  0
  -25.9075  -34.9479   23.5073 C   0  0  0  0  0  0
  -16.5397  -29.9021   23.6340 C   0  0  0  0  0  0
  -16.7304  -28.6431   23.0383 C   0  0  0  0  0  0
  -26.4465  -31.6629   25.0765 C   0  0  0  0  0  0
  -25.3683  -31.3798   26.1517 C   0  0  0  0  0  0
  -27.0342  -30.3047   24.6227 C   0  0  0  0  0  0
  -27.5986  -32.4454   25.7490 C   0  0  0  0  0  0
  -27.5624  -37.1708   24.8427 C   0  0  0  0  0  0
  -21.4182  -29.3030   22.3723 N   0  0  0  0  0  0
  -26.4244  -37.3790   23.9492 N   0  0  0  0  0  0
  -24.6863  -31.0563   22.0980 N   0  0  0  0  0  0
  -23.4204  -28.8152   23.3037 O   0  0  0  0  0  0
  -28.3756  -26.4859   20.1951 O   0  0  0  0  0  0
  -26.5642  -34.8975   22.4630 O   0  0  0  0  0  0
  -23.5412  -32.1468   23.7301 O   0  0  0  0  0  0
  -29.3085  -18.9076   19.4849 C   0  0  0  0  0  0
  -28.9741  -20.2528   19.1591 C   0  0  0  0  0  0
  -29.8820  -18.5880   20.7419 C   0  0  0  0  0  0
  -29.2172  -21.3277   20.0614 C   0  0  0  0  0  0
  -30.0107  -19.7148   21.6197 C   0  0  0  0  0  0
  -28.5604  -23.8303   20.1433 C   0  0  0  0  0  0
  -29.8514  -22.9253   18.2600 C   0  0  0  0  0  0
  -30.5673  -17.1831   21.0403 C   0  0  0  0  0  0
  -28.5558  -25.2466   19.3986 C   0  0  0  0  0  0
  -29.6995  -21.0014   21.2971 N   0  0  0  0  0  0
  -30.5596  -19.5968   22.8947 N   0  0  0  0  0  0
  -29.9536  -15.8145   20.7963 N   0  0  0  0  0  0
  -29.1381  -22.7123   19.5377 N   0  0  0  0  0  0
  -27.9945  -23.7612   21.2379 O   0  0  0  0  0  0
  -31.4630  -12.5179   19.1546 H   0  0  0  0  0  0
  -30.3337  -11.4352   19.9215 H   0  0  0  0  0  0
  -29.7607  -11.7348   17.4934 H   0  0  0  0  0  0
  -29.6313  -13.4638   17.7205 H   0  0  0  0  0  0
  -27.8679  -11.2908   18.8944 H   0  0  0  0  0  0
  -27.3615  -12.5570   17.7989 H   0  0  0  0  0  0
  -27.6427  -14.2572   19.4877 H   0  0  0  0  0  0
  -28.7054  -12.1519   21.4328 H   0  0  0  0  0  0
  -28.4376  -13.8340   21.7964 H   0  0  0  0  0  0
  -25.2733   -9.5706   22.4784 H   0  0  0  0  0  0
  -24.0024   -7.4640   22.7488 H   0  0  0  0  0  0
  -21.0849   -8.8733   19.8953 H   0  0  0  0  0  0
  -22.3663  -10.9677   19.6194 H   0  0  0  0  0  0
  -21.2021   -7.6168   23.9744 H   0  0  0  0  0  0
  -21.1471   -6.0543   25.9078 H   0  0  0  0  0  0
  -22.0601   -2.7650   23.2830 H   0  0  0  0  0  0
  -22.4105  -11.9839   22.4734 H   0  0  0  0  0  0
  -21.1119  -13.1244   22.2679 H   0  0  0  0  0  0
  -24.6495  -15.8427   20.5281 H   0  0  0  0  0  0
  -26.2664  -15.6386   20.0888 H   0  0  0  0  0  0
  -26.7180  -32.5440   23.1086 H   0  0  0  0  0  0
  -25.0223  -33.9752   25.0465 H   0  0  0  0  0  0
  -22.7132  -31.2989   21.3823 H   0  0  0  0  0  0
  -23.3807  -35.9541   23.3185 H   0  0  0  0  0  0
  -24.3612  -36.9052   22.2087 H   0  0  0  0  0  0
  -23.7170  -37.6416   23.6742 H   0  0  0  0  0  0
  -26.1011  -31.5347   20.6102 H   0  0  0  0  0  0
  -26.8417  -30.8163   22.0138 H   0  0  0  0  0  0
  -28.1057  -28.9584   21.2137 H   0  0  0  0  0  0
  -25.9665  -25.8833   19.0680 H   0  0  0  0  0  0
  -23.9757  -27.2643   19.0477 H   0  0  0  0  0  0
  -23.7699  -30.5836   19.4050 H   0  0  0  0  0  0
  -22.7623  -29.2441   19.8403 H   0  0  0  0  0  0
  -25.1212  -36.1882   25.0779 H   0  0  0  0  0  0
  -21.0004  -28.3194   24.1406 H   0  0  0  0  0  0
  -20.5643  -26.2239   23.3608 H   0  0  0  0  0  0
  -21.6625  -26.7331   22.1226 H   0  0  0  0  0  0
  -19.6901  -25.6206   21.1275 H   0  0  0  0  0  0
  -19.6713  -27.3141   20.6730 H   0  0  0  0  0  0
  -17.4210  -26.6781   21.3981 H   0  0  0  0  0  0
  -18.0268  -25.9905   22.8879 H   0  0  0  0  0  0
  -19.7995  -30.7244   24.2250 H   0  0  0  0  0  0
  -17.5063  -31.6247   24.5139 H   0  0  0  0  0  0
  -15.5418  -30.2951   23.7604 H   0  0  0  0  0  0
  -15.8682  -28.0755   22.7057 H   0  0  0  0  0  0
  -24.5849  -30.7123   25.7905 H   0  0  0  0  0  0
  -24.8914  -32.3025   26.4895 H   0  0  0  0  0  0
  -25.8054  -30.9087   27.0335 H   0  0  0  0  0  0
  -26.2958  -29.6807   24.1229 H   0  0  0  0  0  0
  -27.4054  -29.7283   25.4697 H   0  0  0  0  0  0
  -27.8763  -30.4373   23.9431 H   0  0  0  0  0  0
  -27.2540  -33.3799   26.1918 H   0  0  0  0  0  0
  -28.3824  -32.6975   25.0334 H   0  0  0  0  0  0
  -28.0593  -31.8738   26.5564 H   0  0  0  0  0  0
  -28.2374  -38.0242   24.7803 H   0  0  0  0  0  0
  -28.1389  -36.2815   24.5803 H   0  0  0  0  0  0
  -27.2485  -37.0845   25.8846 H   0  0  0  0  0  0
  -20.9360  -29.8883   21.7042 H   0  0  0  0  0  0
  -26.0140  -38.2826   24.1670 H   0  0  0  0  0  0
  -29.2035  -18.1451   18.7256 H   0  0  0  0  0  0
  -28.6065  -20.4535   18.1610 H   0  0  0  0  0  0
  -30.2417  -22.0160   17.7979 H   0  0  0  0  0  0
  -30.7336  -23.5402   18.4231 H   0  0  0  0  0  0
  -29.2212  -23.4085   17.5126 H   0  0  0  0  0  0
  -30.9192  -17.1734   22.0703 H   0  0  0  0  0  0
  -31.4856  -17.2247   20.4551 H   0  0  0  0  0  0
  -27.8861  -25.1958   18.5423 H   0  0  0  0  0  0
  -29.5456  -25.3866   18.9667 H   0  0  0  0  0  0
  -30.5481  -18.7024   23.3705 H   0  0  0  0  0  0
  -30.4862  -20.3890   23.5251 H   0  0  0  0  0  0
  -28.9738  -15.6966   21.0015 H   0  0  0  0  0  0
  1 25  1  0  0  0
  1 30  2  0  0  0
  1 82  1  0  0  0
  2  3  1  0  0  0
  2 25  1  0  0  0
  2 85  1  0  0  0
  2 86  1  0  0  0
  3  4  1  0  0  0
  3 87  1  0  0  0
  3 88  1  0  0  0
  4  5  1  0  0  0
  4 89  1  0  0  0
  4 90  1  0  0  0
  5  6  1  0  0  0
  5 26  1  0  0  0
  5 91  1  0  0  0
  6 25  1  0  0  0
  6 92  1  0  0  0
  6 93  1  0  0  0
  7  8  2  0  0  0
  7 26  1  0  0  0
  7 29  1  0  0  0
  8  9  1  0  0  0
  8 22  1  0  0  0
  9 10  1  0  0  0
  9 27  2  0  0  0
 10 11  2  0  0  0
 10 15  1  0  0  0
 11 12  1  0  0  0
 11 94  1  0  0  0
 12 13  2  0  0  0
 12 95  1  0  0  0
 13 14  1  0  0  0
 13 31  1  0  0  0
 14 15  2  0  0  0
 14 96  1  0  0  0
 15 97  1  0  0  0
 16 17  2  0  0  0
 16 21  1  0  0  0
 16 31  1  0  0  0
 17 18  1  0  0  0
 17 98  1  0  0  0
 18 19  2  0  0  0
 18 99  1  0  0  0
 19 20  1  0  0  0
 19 24  1  0  0  0
 20 21  2  0  0  0
 20100  1  0  0  0
 21 23  1  0  0  0
 22 28  1  0  0  0
 22 32  2  0  0  0
 26 27  1  0  0  0
 28101  1  0  0  0
 28102  1  0  0  0
 29103  1  0  0  0
 29104  1  0  0  0
 33 34  1  0  0  0
 33 66  1  0  0  0
 33 70  2  0  0  0
 34 36  1  0  0  0
 34 59  1  0  0  0
 34105  1  0  0  0
 35 44  2  0  0  0
 35 45  1  0  0  0
 35 68  1  0  0  0
 36 56  1  0  0  0
 36106  1  0  0  0
 37 39  1  0  0  0
 37 47  1  0  0  0
 37 66  1  0  0  0
 37107  1  0  0  0
 38 43  2  0  0  0
 38 46  1  0  0  0
 38 47  1  0  0  0
 39 64  1  0  0  0
 39 67  2  0  0  0
 40 52  1  0  0  0
 40 53  2  0  0  0
 40 58  1  0  0  0
 41108  1  0  0  0
 41109  1  0  0  0
 41110  1  0  0  0
 41 48  1  0  0  0
 42 43  1  0  0  0
 42 66  1  0  0  0
 42111  1  0  0  0
 42112  1  0  0  0
 43 44  1  0  0  0
 44113  1  0  0  0
 45 46  2  0  0  0
 45114  1  0  0  0
 46115  1  0  0  0
 47116  1  0  0  0
 47117  1  0  0  0
 48 56  1  0  0  0
 48 65  1  0  0  0
 48118  1  0  0  0
 49 50  1  0  0  0
 49 53  1  0  0  0
 49 64  1  0  0  0
 49119  1  0  0  0
 50 51  1  0  0  0
 50120  1  0  0  0
 50121  1  0  0  0
 51 52  1  0  0  0
 51122  1  0  0  0
 51123  1  0  0  0
 52124  1  0  0  0
 52125  1  0  0  0
 53 54  1  0  0  0
 54 55  2  0  0  0
 54126  1  0  0  0
 55 57  1  0  0  0
 55127  1  0  0  0
 56 69  2  0  0  0
 57 58  2  0  0  0
 57128  1  0  0  0
 58129  1  0  0  0
 59 60  1  0  0  0
 59 61  1  0  0  0
 59 62  1  0  0  0
 60130  1  0  0  0
 60131  1  0  0  0
 60132  1  0  0  0
 61133  1  0  0  0
 61134  1  0  0  0
 61135  1  0  0  0
 62136  1  0  0  0
 62137  1  0  0  0
 62138  1  0  0  0
 63 65  1  0  0  0
 63139  1  0  0  0
 63140  1  0  0  0
 63141  1  0  0  0
 64142  1  0  0  0
 65143  1  0  0  0
 68 79  1  0  0  0
 71 72  2  0  0  0
 71 73  1  0  0  0
 71144  1  0  0  0
 72 74  1  0  0  0
 72145  1  0  0  0
 73 75  2  0  0  0
 73 78  1  0  0  0
 74 80  2  0  0  0
 74 83  1  0  0  0
 75 80  1  0  0  0
 75 81  1  0  0  0
 76 79  1  0  0  0
 76 83  1  0  0  0
 76 84  2  0  0  0
 77 83  1  0  0  0
 77146  1  0  0  0
 77147  1  0  0  0
 77148  1  0  0  0
 78 82  1  0  0  0
 78149  1  0  0  0
 78150  1  0  0  0
 79151  1  0  0  0
 79152  1  0  0  0
 81153  1  0  0  0
 81154  1  0  0  0
 82155  1  0  0  0
M  ISO  4   1 100  68 101  79 101  82 100
M  END
> <chiral flag>
0

> <version>
0

> <s_m_source_file>
/data/baiqing/PycharmProjects/Reinvent-master-3.2/result/LINK_invent/BTK/process_docking_weight1_custom_product_contain_oxygen_bond_distance_aromatic_linkinvent_7_9_3/rearranged_h_0099.sdf

> <i_m_source_file_index>
55

> <r_mmod_Potential_Energy-OPLS-2005>
-62.1974105834961

> <r_mmod_Stretch_Energy-OPLS-2005>
99.9905090332031

> <r_mmod_Bend_Energy-OPLS-2005>
173.217666625977

> <r_mmod_Torsional_Energy-OPLS-2005>
250.558120727539

> <r_mmod_Improper_Torsional_Energy-OPLS-2005>
9.65310764312744

> <r_mmod_Van_der_Waal_Energy-OPLS-2005>
155.12483215332

> <r_mmod_Electrostatic_Energy-OPLS-2005>
-549.517272949219

> <r_mmod_Solvation_Energy-OPLS-2005>
-259.719146728516

> <b_mmod_Minimization_Converged-OPLS-2005>
0

> <r_mmod_RMS_Derivative-OPLS-2005>
6.55869197845459

$$$$
55
                    3D
 Structure written by MMmdl.
161170  0  0  1  0            999 V2000
  -30.6055  -14.7483   20.3506 C   0  0  0  0  0  0
  -30.4407  -12.4249   19.4690 C   0  0  0  0  0  0
  -29.5101  -12.3832   18.2355 C   0  0  0  0  0  0
  -28.0267  -12.2918   18.6510 C   0  0  0  0  0  0
  -27.6366  -13.2237   19.8322 C   0  0  2  0  0  0
  -28.6914  -13.2014   20.9566 C   0  0  0  0  0  0
  -25.2506  -13.8170   20.5741 C   0  0  0  0  0  0
  -24.1793  -13.0414   20.9224 C   0  0  0  0  0  0
  -24.6389  -11.6899   20.8759 C   0  0  0  0  0  0
  -23.9068  -10.4283   21.0410 C   0  0  0  0  0  0
  -24.3627   -9.4200   21.9182 C   0  0  0  0  0  0
  -23.6299   -8.2238   22.0754 C   0  0  0  0  0  0
  -22.4278   -8.0278   21.3544 C   0  0  0  0  0  0
  -21.9919   -9.0247   20.4643 C   0  0  0  0  0  0
  -22.7246  -10.2124   20.3052 C   0  0  0  0  0  0
  -21.6854   -6.0730   22.5276 C   0  0  0  0  0  0
  -21.4011   -6.5637   23.8207 C   0  0  0  0  0  0
  -21.3660   -5.6797   24.9174 C   0  0  0  0  0  0
  -21.6050   -4.3060   24.7228 C   0  0  0  0  0  0
  -21.8820   -3.8142   23.4352 C   0  0  0  0  0  0
  -21.9193   -4.6957   22.3406 C   0  0  0  0  0  0
  -22.7814  -13.5196   21.1868 C   0  0  0  0  0  0
  -22.1662   -4.2148   21.0985 F   0  0  0  0  0  0
  -21.5633   -3.4548   25.7743 F   0  0  0  0  0  0
  -29.9818  -13.5241   20.3405 N   0  0  0  0  0  0
  -26.2936  -12.9381   20.3272 N   0  0  0  0  0  0
  -25.9320  -11.6531   20.5791 N   0  0  0  0  0  0
  -22.0478  -12.8172   22.0433 N   0  0  0  0  0  0
  -25.4062  -15.1906   20.4268 N   0  0  0  0  0  0
  -31.8378  -14.8055   20.2866 O   0  0  0  0  0  0
  -21.6639   -6.8872   21.4237 O   0  0  0  0  0  0
  -22.3483  -14.5497   20.6720 O   0  0  0  0  0  0
  -24.6295  -31.8580   23.1999 C   0  0  0  0  0  0
  -25.9142  -32.4770   23.8336 C   0  0  1  0  0  0
  -27.2282  -27.3001   20.1177 C   0  0  0  0  0  0
  -25.5963  -33.8568   24.2275 N   0  0  0  0  0  0
  -23.4225  -30.4810   21.5424 C   0  0  2  0  0  0
  -24.8671  -28.9297   20.1088 C   0  0  0  0  0  0
  -22.7483  -29.4620   22.4935 C   0  0  0  0  0  0
  -18.0294  -28.1374   22.8501 C   0  0  0  0  0  0
  -24.1490  -36.7274   23.2633 C   0  0  0  0  0  0
  -25.9640  -30.7837   21.3701 C   0  0  0  0  0  0
  -26.0360  -29.4092   20.7123 C   0  0  0  0  0  0
  -27.2139  -28.6049   20.7071 C   0  0  0  0  0  0
  -26.0279  -26.8674   19.5073 C   0  0  0  0  0  0
  -24.8665  -27.6654   19.4978 C   0  0  0  0  0  0
  -23.6364  -29.8131   20.1576 C   0  0  0  0  0  0
  -25.4112  -36.3074   24.0338 C   0  0  1  0  0  0
  -20.5896  -28.3680   23.1285 C   0  0  2  0  0  0
  -20.6776  -26.9410   22.5403 C   0  0  0  0  0  0
  -19.5754  -26.6387   21.5203 C   0  0  0  0  0  0
  -18.1936  -26.7927   22.1617 C   0  0  0  0  0  0
  -19.1545  -28.8850   23.2887 C   0  0  0  0  0  0
  -18.9462  -30.1449   23.8904 C   0  0  0  0  0  0
  -17.6460  -30.6577   24.0568 C   0  0  0  0  0  0
  -25.9058  -34.9452   23.5105 C   0  0  0  0  0  0
  -16.5351  -29.9079   23.6331 C   0  0  0  0  0  0
  -16.7278  -28.6489   23.0369 C   0  0  0  0  0  0
  -26.4519  -31.6588   25.0713 C   0  0  0  0  0  0
  -25.3764  -31.3717   26.1445 C   0  0  0  0  0  0
  -27.0359  -30.3014   24.6156 C   0  0  0  0  0  0
  -27.6086  -32.4313   25.7485 C   0  0  0  0  0  0
  -27.5586  -37.1784   24.8460 C   0  0  0  0  0  0
  -21.4195  -29.3040   22.3676 N   0  0  0  0  0  0
  -26.4284  -37.3781   23.9429 N   0  0  0  0  0  0
  -24.6916  -31.0573   22.0948 N   0  0  0  0  0  0
  -23.4192  -28.8178   23.3039 O   0  0  0  0  0  0
  -28.3671  -26.4767   20.1991 O   0  0  0  0  0  0
  -26.5608  -34.8931   22.4653 O   0  0  0  0  0  0
  -23.5454  -32.1398   23.7312 O   0  0  0  0  0  0
  -30.3622  -19.4283   21.0188 C   0  0  0  0  0  0
  -30.5727  -18.0150   20.8593 C   0  0  0  0  0  0
  -28.1971  -19.2317   20.0064 C   0  0  0  0  0  0
  -28.5427  -22.1552   21.8694 C   0  0  0  0  0  0
  -28.6113  -23.7939   20.2664 C   0  0  0  0  0  0
  -29.1796  -20.0837   20.5659 C   0  0  0  0  0  0
  -29.6099  -17.1689   20.2354 C   0  0  0  0  0  0
  -28.4006  -17.8281   19.8405 C   0  0  0  0  0  0
  -28.3291  -23.4949   21.6378 C   0  0  0  0  0  0
  -28.9931  -22.5569   19.7319 C   0  0  0  0  0  0
  -29.4222  -22.2297   18.3364 C   0  0  0  0  0  0
  -29.9497  -15.7533   18.2901 C   0  0  0  0  0  0
  -28.4995  -25.1759   19.4949 C   0  0  0  0  0  0
  -28.9385  -21.5262   20.7010 N   0  0  0  0  0  0
  -27.3868  -17.1006   19.2150 N   0  0  0  0  0  0
  -29.8842  -15.7874   19.7667 N   0  0  0  0  0  0
  -27.9037  -24.3893   22.5735 O   0  0  0  0  0  0
  -31.4759  -12.5650   19.1515 H   0  0  0  0  0  0
  -30.4136  -11.4782   20.0106 H   0  0  0  0  0  0
  -29.7671  -11.5212   17.6191 H   0  0  0  0  0  0
  -29.6727  -13.2379   17.5873 H   0  0  0  0  0  0
  -27.8481  -11.2536   18.9340 H   0  0  0  0  0  0
  -27.3827  -12.4823   17.7926 H   0  0  0  0  0  0
  -27.6112  -14.2329   19.4263 H   0  0  0  0  0  0
  -28.7296  -12.2276   21.4467 H   0  0  0  0  0  0
  -28.4411  -13.9360   21.7241 H   0  0  0  0  0  0
  -25.2772   -9.5685   22.4761 H   0  0  0  0  0  0
  -24.0014   -7.4635   22.7479 H   0  0  0  0  0  0
  -21.0848   -8.8763   19.8955 H   0  0  0  0  0  0
  -22.3699  -10.9666   19.6173 H   0  0  0  0  0  0
  -21.1999   -7.6145   23.9704 H   0  0  0  0  0  0
  -21.1483   -6.0528   25.9075 H   0  0  0  0  0  0
  -22.0597   -2.7604   23.2849 H   0  0  0  0  0  0
  -22.4123  -11.9845   22.4822 H   0  0  0  0  0  0
  -21.1099  -13.1181   22.2668 H   0  0  0  0  0  0
  -24.6241  -15.8215   20.5538 H   0  0  0  0  0  0
  -26.2444  -15.6871   20.1198 H   0  0  0  0  0  0
  -26.7221  -32.5425   23.1085 H   0  0  0  0  0  0
  -25.0212  -33.9719   25.0492 H   0  0  0  0  0  0
  -22.7186  -31.3029   21.3985 H   0  0  0  0  0  0
  -23.3765  -35.9592   23.3285 H   0  0  0  0  0  0
  -24.3596  -36.8884   22.2048 H   0  0  0  0  0  0
  -23.7219  -37.6471   23.6646 H   0  0  0  0  0  0
  -26.0974  -31.5465   20.6012 H   0  0  0  0  0  0
  -26.8437  -30.8321   22.0006 H   0  0  0  0  0  0
  -28.1106  -28.9701   21.1880 H   0  0  0  0  0  0
  -25.9380  -25.8886   19.0627 H   0  0  0  0  0  0
  -23.9665  -27.2862   19.0333 H   0  0  0  0  0  0
  -23.7564  -30.5882   19.4002 H   0  0  0  0  0  0
  -22.7549  -29.2443   19.8568 H   0  0  0  0  0  0
  -25.1279  -36.1921   25.0832 H   0  0  0  0  0  0
  -21.0004  -28.3245   24.1399 H   0  0  0  0  0  0
  -20.5667  -26.2298   23.3598 H   0  0  0  0  0  0
  -21.6650  -26.7431   22.1207 H   0  0  0  0  0  0
  -19.6911  -25.6298   21.1235 H   0  0  0  0  0  0
  -19.6687  -27.3196   20.6732 H   0  0  0  0  0  0
  -17.4212  -26.6708   21.4012 H   0  0  0  0  0  0
  -18.0322  -26.0045   22.8991 H   0  0  0  0  0  0
  -19.7934  -30.7272   24.2278 H   0  0  0  0  0  0
  -17.5008  -31.6262   24.5155 H   0  0  0  0  0  0
  -15.5357  -30.2977   23.7631 H   0  0  0  0  0  0
  -15.8687  -28.0792   22.7094 H   0  0  0  0  0  0
  -24.5971  -30.7016   25.7790 H   0  0  0  0  0  0
  -24.8922  -32.2875   26.4844 H   0  0  0  0  0  0
  -25.8121  -30.8944   27.0231 H   0  0  0  0  0  0
  -26.2939  -29.6783   24.1151 H   0  0  0  0  0  0
  -27.4023  -29.7244   25.4653 H   0  0  0  0  0  0
  -27.8822  -30.4308   23.9412 H   0  0  0  0  0  0
  -27.2708  -33.3611   26.2074 H   0  0  0  0  0  0
  -28.3900  -32.6864   25.0318 H   0  0  0  0  0  0
  -28.0758  -31.8433   26.5395 H   0  0  0  0  0  0
  -28.2567  -38.0119   24.7568 H   0  0  0  0  0  0
  -28.1120  -36.2654   24.6199 H   0  0  0  0  0  0
  -27.2335  -37.1325   25.8871 H   0  0  0  0  0  0
  -20.9373  -29.8738   21.6869 H   0  0  0  0  0  0
  -26.0157  -38.2849   24.1453 H   0  0  0  0  0  0
  -31.1413  -20.0225   21.4739 H   0  0  0  0  0  0
  -31.5218  -17.5989   21.1632 H   0  0  0  0  0  0
  -27.2711  -19.6796   19.6750 H   0  0  0  0  0  0
  -28.4274  -21.5694   22.7727 H   0  0  0  0  0  0
  -29.4221  -23.1144   17.6995 H   0  0  0  0  0  0
  -28.7593  -21.4938   17.8801 H   0  0  0  0  0  0
  -30.4332  -21.8202   18.3285 H   0  0  0  0  0  0
  -29.0491  -15.3022   17.8743 H   0  0  0  0  0  0
  -30.8127  -15.2087   17.9001 H   0  0  0  0  0  0
  -30.0249  -16.7537   17.8597 H   0  0  0  0  0  0
  -27.7863  -25.0607   18.6822 H   0  0  0  0  0  0
  -29.4512  -25.2665   18.9730 H   0  0  0  0  0  0
  -26.7185  -17.6409   18.6757 H   0  0  0  0  0  0
  -27.7142  -16.2952   18.6953 H   0  0  0  0  0  0
  -27.7455  -23.9959   23.4263 H   0  0  0  0  0  0
  1 25  1  0  0  0
  1 30  2  0  0  0
  1 86  1  0  0  0
  2  3  1  0  0  0
  2 25  1  0  0  0
  2 88  1  0  0  0
  2 89  1  0  0  0
  3  4  1  0  0  0
  3 90  1  0  0  0
  3 91  1  0  0  0
  4  5  1  0  0  0
  4 92  1  0  0  0
  4 93  1  0  0  0
  5  6  1  0  0  0
  5 26  1  0  0  0
  5 94  1  0  0  0
  6 25  1  0  0  0
  6 95  1  0  0  0
  6 96  1  0  0  0
  7  8  2  0  0  0
  7 26  1  0  0  0
  7 29  1  0  0  0
  8  9  1  0  0  0
  8 22  1  0  0  0
  9 10  1  0  0  0
  9 27  2  0  0  0
 10 11  2  0  0  0
 10 15  1  0  0  0
 11 12  1  0  0  0
 11 97  1  0  0  0
 12 13  2  0  0  0
 12 98  1  0  0  0
 13 14  1  0  0  0
 13 31  1  0  0  0
 14 15  2  0  0  0
 14 99  1  0  0  0
 15100  1  0  0  0
 16 17  2  0  0  0
 16 21  1  0  0  0
 16 31  1  0  0  0
 17 18  1  0  0  0
 17101  1  0  0  0
 18 19  2  0  0  0
 18102  1  0  0  0
 19 20  1  0  0  0
 19 24  1  0  0  0
 20 21  2  0  0  0
 20103  1  0  0  0
 21 23  1  0  0  0
 22 28  1  0  0  0
 22 32  2  0  0  0
 26 27  1  0  0  0
 28104  1  0  0  0
 28105  1  0  0  0
 29106  1  0  0  0
 29107  1  0  0  0
 33 34  1  0  0  0
 33 66  1  0  0  0
 33 70  2  0  0  0
 34 36  1  0  0  0
 34 59  1  0  0  0
 34108  1  0  0  0
 35 44  2  0  0  0
 35 45  1  0  0  0
 35 68  1  0  0  0
 36 56  1  0  0  0
 36109  1  0  0  0
 37 39  1  0  0  0
 37 47  1  0  0  0
 37 66  1  0  0  0
 37110  1  0  0  0
 38 43  2  0  0  0
 38 46  1  0  0  0
 38 47  1  0  0  0
 39 64  1  0  0  0
 39 67  2  0  0  0
 40 52  1  0  0  0
 40 53  2  0  0  0
 40 58  1  0  0  0
 41111  1  0  0  0
 41112  1  0  0  0
 41113  1  0  0  0
 41 48  1  0  0  0
 42 43  1  0  0  0
 42 66  1  0  0  0
 42114  1  0  0  0
 42115  1  0  0  0
 43 44  1  0  0  0
 44116  1  0  0  0
 45 46  2  0  0  0
 45117  1  0  0  0
 46118  1  0  0  0
 47119  1  0  0  0
 47120  1  0  0  0
 48 56  1  0  0  0
 48 65  1  0  0  0
 48121  1  0  0  0
 49 50  1  0  0  0
 49 53  1  0  0  0
 49 64  1  0  0  0
 49122  1  0  0  0
 50 51  1  0  0  0
 50123  1  0  0  0
 50124  1  0  0  0
 51 52  1  0  0  0
 51125  1  0  0  0
 51126  1  0  0  0
 52127  1  0  0  0
 52128  1  0  0  0
 53 54  1  0  0  0
 54 55  2  0  0  0
 54129  1  0  0  0
 55 57  1  0  0  0
 55130  1  0  0  0
 56 69  2  0  0  0
 57 58  2  0  0  0
 57131  1  0  0  0
 58132  1  0  0  0
 59 60  1  0  0  0
 59 61  1  0  0  0
 59 62  1  0  0  0
 60133  1  0  0  0
 60134  1  0  0  0
 60135  1  0  0  0
 61136  1  0  0  0
 61137  1  0  0  0
 61138  1  0  0  0
 62139  1  0  0  0
 62140  1  0  0  0
 62141  1  0  0  0
 63 65  1  0  0  0
 63142  1  0  0  0
 63143  1  0  0  0
 63144  1  0  0  0
 64145  1  0  0  0
 65146  1  0  0  0
 68 83  1  0  0  0
 71 72  2  0  0  0
 71 76  1  0  0  0
 71147  1  0  0  0
 72 77  1  0  0  0
 72148  1  0  0  0
 73 76  2  0  0  0
 73 78  1  0  0  0
 73149  1  0  0  0
 74 79  2  0  0  0
 74 84  1  0  0  0
 74150  1  0  0  0
 75 79  1  0  0  0
 75 80  2  0  0  0
 75 83  1  0  0  0
 76 84  1  0  0  0
 77 78  2  0  0  0
 77 86  1  0  0  0
 78 85  1  0  0  0
 79 87  1  0  0  0
 80 81  1  0  0  0
 80 84  1  0  0  0
 81151  1  0  0  0
 81152  1  0  0  0
 81153  1  0  0  0
 82 86  1  0  0  0
 82154  1  0  0  0
 82155  1  0  0  0
 82156  1  0  0  0
 83157  1  0  0  0
 83158  1  0  0  0
 85159  1  0  0  0
 85160  1  0  0  0
 87161  1  0  0  0
M  ISO  4   1 100  68 101  83 101  86 100
M  END
> <chiral flag>
0

> <version>
0

> <s_m_source_file>
/data/baiqing/PycharmProjects/Reinvent-master-3.2/result/LINK_invent/BTK/process_docking_weight1_custom_product_contain_oxygen_bond_distance_aromatic_linkinvent_7_9_3/rearranged_h_0099.sdf

> <i_m_source_file_index>
56

> <r_mmod_Potential_Energy-OPLS-2005>
289.512969970703

> <r_mmod_Stretch_Energy-OPLS-2005>
95.2695999145508

> <r_mmod_Bend_Energy-OPLS-2005>
166.303726196289

> <r_mmod_Torsional_Energy-OPLS-2005>
349.952301025391

> <r_mmod_Improper_Torsional_Energy-OPLS-2005>
33.4226417541504

> <r_mmod_Van_der_Waal_Energy-OPLS-2005>
137.770645141602

> <r_mmod_Electrostatic_Energy-OPLS-2005>
-359.723510742188

> <r_mmod_Solvation_Energy-OPLS-2005>
-222.457183837891

> <b_mmod_Minimization_Converged-OPLS-2005>
0

> <r_mmod_RMS_Derivative-OPLS-2005>
1.8102593421936

$$$$
56
                    3D
 Structure written by MMmdl.
158167  0  0  1  0            999 V2000
  -30.6923  -14.4673   20.5865 C   0  0  0  0  0  0
  -30.4282  -12.3087   19.4184 C   0  0  0  0  0  0
  -29.4942  -12.5110   18.2063 C   0  0  0  0  0  0
  -28.0149  -12.3702   18.6173 C   0  0  0  0  0  0
  -27.6632  -13.2031   19.8787 C   0  0  2  0  0  0
  -28.7042  -12.9667   20.9967 C   0  0  0  0  0  0
  -25.2598  -13.8151   20.5687 C   0  0  0  0  0  0
  -24.1838  -13.0441   20.9166 C   0  0  0  0  0  0
  -24.6374  -11.6904   20.8716 C   0  0  0  0  0  0
  -23.9039  -10.4299   21.0393 C   0  0  0  0  0  0
  -24.3598   -9.4221   21.9168 C   0  0  0  0  0  0
  -23.6283   -8.2249   22.0744 C   0  0  0  0  0  0
  -22.4264   -8.0281   21.3540 C   0  0  0  0  0  0
  -21.9891   -9.0245   20.4641 C   0  0  0  0  0  0
  -22.7210  -10.2129   20.3051 C   0  0  0  0  0  0
  -21.6857   -6.0736   22.5273 C   0  0  0  0  0  0
  -21.4012   -6.5631   23.8213 C   0  0  0  0  0  0
  -21.3663   -5.6786   24.9169 C   0  0  0  0  0  0
  -21.6050   -4.3052   24.7224 C   0  0  0  0  0  0
  -21.8821   -3.8147   23.4344 C   0  0  0  0  0  0
  -21.9190   -4.6961   22.3400 C   0  0  0  0  0  0
  -22.7856  -13.5240   21.1840 C   0  0  0  0  0  0
  -22.1661   -4.2154   21.0973 F   0  0  0  0  0  0
  -21.5636   -3.4535   25.7730 F   0  0  0  0  0  0
  -30.0385  -13.2800   20.4528 N   0  0  0  0  0  0
  -26.3027  -12.9302   20.3376 N   0  0  0  0  0  0
  -25.9292  -11.6469   20.5738 N   0  0  0  0  0  0
  -22.0506  -12.8225   22.0396 N   0  0  0  0  0  0
  -25.4362  -15.1859   20.4112 N   0  0  0  0  0  0
  -31.8090  -14.6808   20.1048 O   0  0  0  0  0  0
  -21.6645   -6.8872   21.4232 O   0  0  0  0  0  0
  -22.3536  -14.5536   20.6682 O   0  0  0  0  0  0
  -24.6168  -31.8671   23.2117 C   0  0  0  0  0  0
  -25.9059  -32.4818   23.8404 C   0  0  1  0  0  0
  -27.2264  -27.4232   20.0975 C   0  0  0  0  0  0
  -25.5913  -33.8617   24.2328 N   0  0  0  0  0  0
  -23.4046  -30.4952   21.5512 C   0  0  2  0  0  0
  -24.8492  -28.9692   20.1080 C   0  0  0  0  0  0
  -22.7427  -29.4664   22.4964 C   0  0  0  0  0  0
  -18.0273  -28.1384   22.8490 C   0  0  0  0  0  0
  -24.1482  -36.7315   23.2637 C   0  0  0  0  0  0
  -25.9371  -30.8293   21.3702 C   0  0  0  0  0  0
  -26.0117  -29.4679   20.7093 C   0  0  0  0  0  0
  -27.2032  -28.7037   20.6988 C   0  0  0  0  0  0
  -26.0466  -26.9573   19.4660 C   0  0  0  0  0  0
  -24.8634  -27.7157   19.4785 C   0  0  0  0  0  0
  -23.6126  -29.8363   20.1627 C   0  0  0  0  0  0
  -25.4100  -36.3102   24.0334 C   0  0  1  0  0  0
  -20.5870  -28.3679   23.1300 C   0  0  2  0  0  0
  -20.6764  -26.9409   22.5410 C   0  0  0  0  0  0
  -19.5738  -26.6390   21.5213 C   0  0  0  0  0  0
  -18.1920  -26.7926   22.1632 C   0  0  0  0  0  0
  -19.1527  -28.8846   23.2895 C   0  0  0  0  0  0
  -18.9455  -30.1452   23.8908 C   0  0  0  0  0  0
  -17.6459  -30.6590   24.0568 C   0  0  0  0  0  0
  -25.9033  -34.9474   23.5127 C   0  0  0  0  0  0
  -16.5348  -29.9097   23.6324 C   0  0  0  0  0  0
  -16.7265  -28.6514   23.0340 C   0  0  0  0  0  0
  -26.4484  -31.6601   25.0743 C   0  0  0  0  0  0
  -25.3760  -31.3732   26.1509 C   0  0  0  0  0  0
  -27.0310  -30.3026   24.6159 C   0  0  0  0  0  0
  -27.6056  -32.4334   25.7500 C   0  0  0  0  0  0
  -27.5579  -37.1801   24.8456 C   0  0  0  0  0  0
  -21.4149  -29.3050   22.3712 N   0  0  0  0  0  0
  -26.4281  -37.3795   23.9417 N   0  0  0  0  0  0
  -24.6706  -31.0777   22.1020 N   0  0  0  0  0  0
  -23.4186  -28.8192   23.3003 O   0  0  0  0  0  0
  -28.3759  -26.6508   20.1583 O   0  0  0  0  0  0
  -26.5594  -34.8924   22.4689 O   0  0  0  0  0  0
  -23.5362  -32.1432   23.7510 O   0  0  0  0  0  0
  -29.0386  -18.6982   19.6307 C   0  0  0  0  0  0
  -29.0494  -17.3305   19.9725 C   0  0  0  0  0  0
  -30.9686  -17.7119   21.4144 C   0  0  0  0  0  0
  -29.9749  -19.6008   20.1861 C   0  0  0  0  0  0
  -30.0257  -16.8190   20.8522 C   0  0  0  0  0  0
  -30.9426  -19.0929   21.0903 C   0  0  0  0  0  0
  -29.9658  -21.0376   19.7161 C   0  0  0  0  0  0
  -30.6072  -24.3117   20.1014 C   0  0  0  0  0  0
  -31.1812  -22.9613   20.5453 C   0  0  0  0  0  0
  -28.8522  -22.8615   20.8616 C   0  0  0  0  0  0
  -29.2492  -24.3570   20.7838 C   0  0  2  0  0  0
  -28.1765  -25.2252   20.0809 C   0  0  0  0  0  0
  -30.0508  -22.0301   20.6326 N   0  0  0  0  0  0
  -29.9868  -15.4365   21.1996 N   0  0  0  0  0  0
  -29.7977  -21.2809   18.5148 O   0  0  0  0  0  0
  -31.8766  -19.9122   21.6330 F   0  0  0  0  0  0
  -31.4694  -12.4203   19.1112 H   0  0  0  0  0  0
  -30.3405  -11.2935   19.8077 H   0  0  0  0  0  0
  -29.7330  -11.7904   17.4229 H   0  0  0  0  0  0
  -29.6611  -13.4995   17.7753 H   0  0  0  0  0  0
  -27.8200  -11.3136   18.8030 H   0  0  0  0  0  0
  -27.3681  -12.6568   17.7875 H   0  0  0  0  0  0
  -27.7114  -14.2528   19.5886 H   0  0  0  0  0  0
  -28.6794  -11.9253   21.3194 H   0  0  0  0  0  0
  -28.4595  -13.5463   21.8876 H   0  0  0  0  0  0
  -25.2743   -9.5698   22.4725 H   0  0  0  0  0  0
  -24.0011   -7.4641   22.7438 H   0  0  0  0  0  0
  -21.0834   -8.8736   19.8923 H   0  0  0  0  0  0
  -22.3664  -10.9656   19.6150 H   0  0  0  0  0  0
  -21.1996   -7.6142   23.9709 H   0  0  0  0  0  0
  -21.1484   -6.0521   25.9069 H   0  0  0  0  0  0
  -22.0596   -2.7609   23.2840 H   0  0  0  0  0  0
  -22.4140  -11.9885   22.4769 H   0  0  0  0  0  0
  -21.1110  -13.1223   22.2600 H   0  0  0  0  0  0
  -24.6751  -15.8471   20.5165 H   0  0  0  0  0  0
  -26.2946  -15.6182   20.0958 H   0  0  0  0  0  0
  -26.7133  -32.5514   23.1166 H   0  0  0  0  0  0
  -25.0066  -33.9771   25.0474 H   0  0  0  0  0  0
  -22.6947  -31.3135   21.4157 H   0  0  0  0  0  0
  -23.3741  -35.9651   23.3292 H   0  0  0  0  0  0
  -24.3580  -36.8941   22.2051 H   0  0  0  0  0  0
  -23.7233  -37.6519   23.6658 H   0  0  0  0  0  0
  -26.0613  -31.5997   20.6081 H   0  0  0  0  0  0
  -26.8208  -30.8706   21.9953 H   0  0  0  0  0  0
  -28.0968  -29.0810   21.1762 H   0  0  0  0  0  0
  -26.0146  -26.0037   18.9596 H   0  0  0  0  0  0
  -23.9746  -27.3313   18.9966 H   0  0  0  0  0  0
  -23.7224  -30.6159   19.4077 H   0  0  0  0  0  0
  -22.7353  -29.2596   19.8635 H   0  0  0  0  0  0
  -25.1272  -36.1963   25.0825 H   0  0  0  0  0  0
  -20.9961  -28.3247   24.1420 H   0  0  0  0  0  0
  -20.5667  -26.2287   23.3604 H   0  0  0  0  0  0
  -21.6632  -26.7450   22.1198 H   0  0  0  0  0  0
  -19.6897  -25.6305   21.1231 H   0  0  0  0  0  0
  -19.6668  -27.3211   20.6749 H   0  0  0  0  0  0
  -17.4183  -26.6668   21.4042 H   0  0  0  0  0  0
  -18.0329  -26.0068   22.9032 H   0  0  0  0  0  0
  -19.7933  -30.7265   24.2274 H   0  0  0  0  0  0
  -17.5016  -31.6265   24.5183 H   0  0  0  0  0  0
  -15.5350  -30.3009   23.7640 H   0  0  0  0  0  0
  -15.8662  -28.0848   22.7037 H   0  0  0  0  0  0
  -24.5897  -30.7115   25.7863 H   0  0  0  0  0  0
  -24.9008  -32.2906   26.4992 H   0  0  0  0  0  0
  -25.8122  -30.8873   27.0246 H   0  0  0  0  0  0
  -26.2859  -29.6787   24.1210 H   0  0  0  0  0  0
  -27.4042  -29.7271   25.4640 H   0  0  0  0  0  0
  -27.8717  -30.4312   23.9338 H   0  0  0  0  0  0
  -27.2665  -33.3634   26.2080 H   0  0  0  0  0  0
  -28.3863  -32.6902   25.0325 H   0  0  0  0  0  0
  -28.0730  -31.8465   26.5419 H   0  0  0  0  0  0
  -28.2582  -38.0113   24.7531 H   0  0  0  0  0  0
  -28.1087  -36.2649   24.6239 H   0  0  0  0  0  0
  -27.2305  -37.1402   25.8860 H   0  0  0  0  0  0
  -20.9307  -29.8790   21.6954 H   0  0  0  0  0  0
  -26.0166  -38.2867   24.1447 H   0  0  0  0  0  0
  -28.2992  -19.0608   18.9297 H   0  0  0  0  0  0
  -28.3103  -16.6751   19.5321 H   0  0  0  0  0  0
  -31.7228  -17.3408   22.0936 H   0  0  0  0  0  0
  -30.4853  -24.3203   19.0174 H   0  0  0  0  0  0
  -31.2432  -25.1547   20.3703 H   0  0  0  0  0  0
  -31.6235  -23.0452   21.5401 H   0  0  0  0  0  0
  -31.9722  -22.6219   19.8727 H   0  0  0  0  0  0
  -28.0733  -22.6416   20.1272 H   0  0  0  0  0  0
  -28.4207  -22.6286   21.8362 H   0  0  0  0  0  0
  -29.3863  -24.7211   21.8043 H   0  0  0  0  0  0
  -27.2311  -24.9601   20.5592 H   0  0  0  0  0  0
  -28.0934  -24.9353   19.0325 H   0  0  0  0  0  0
  -29.1038  -15.1053   21.5583 H   0  0  0  0  0  0
  1 25  1  0  0  0
  1 30  2  0  0  0
  1 84  1  0  0  0
  2  3  1  0  0  0
  2 25  1  0  0  0
  2 87  1  0  0  0
  2 88  1  0  0  0
  3  4  1  0  0  0
  3 89  1  0  0  0
  3 90  1  0  0  0
  4  5  1  0  0  0
  4 91  1  0  0  0
  4 92  1  0  0  0
  5  6  1  0  0  0
  5 26  1  0  0  0
  5 93  1  0  0  0
  6 25  1  0  0  0
  6 94  1  0  0  0
  6 95  1  0  0  0
  7  8  2  0  0  0
  7 26  1  0  0  0
  7 29  1  0  0  0
  8  9  1  0  0  0
  8 22  1  0  0  0
  9 10  1  0  0  0
  9 27  2  0  0  0
 10 11  2  0  0  0
 10 15  1  0  0  0
 11 12  1  0  0  0
 11 96  1  0  0  0
 12 13  2  0  0  0
 12 97  1  0  0  0
 13 14  1  0  0  0
 13 31  1  0  0  0
 14 15  2  0  0  0
 14 98  1  0  0  0
 15 99  1  0  0  0
 16 17  2  0  0  0
 16 21  1  0  0  0
 16 31  1  0  0  0
 17 18  1  0  0  0
 17100  1  0  0  0
 18 19  2  0  0  0
 18101  1  0  0  0
 19 20  1  0  0  0
 19 24  1  0  0  0
 20 21  2  0  0  0
 20102  1  0  0  0
 21 23  1  0  0  0
 22 28  1  0  0  0
 22 32  2  0  0  0
 26 27  1  0  0  0
 28103  1  0  0  0
 28104  1  0  0  0
 29105  1  0  0  0
 29106  1  0  0  0
 33 34  1  0  0  0
 33 66  1  0  0  0
 33 70  2  0  0  0
 34 36  1  0  0  0
 34 59  1  0  0  0
 34107  1  0  0  0
 35 44  2  0  0  0
 35 45  1  0  0  0
 35 68  1  0  0  0
 36 56  1  0  0  0
 36108  1  0  0  0
 37 39  1  0  0  0
 37 47  1  0  0  0
 37 66  1  0  0  0
 37109  1  0  0  0
 38 43  2  0  0  0
 38 46  1  0  0  0
 38 47  1  0  0  0
 39 64  1  0  0  0
 39 67  2  0  0  0
 40 52  1  0  0  0
 40 53  2  0  0  0
 40 58  1  0  0  0
 41110  1  0  0  0
 41111  1  0  0  0
 41112  1  0  0  0
 41 48  1  0  0  0
 42 43  1  0  0  0
 42 66  1  0  0  0
 42113  1  0  0  0
 42114  1  0  0  0
 43 44  1  0  0  0
 44115  1  0  0  0
 45 46  2  0  0  0
 45116  1  0  0  0
 46117  1  0  0  0
 47118  1  0  0  0
 47119  1  0  0  0
 48 56  1  0  0  0
 48 65  1  0  0  0
 48120  1  0  0  0
 49 50  1  0  0  0
 49 53  1  0  0  0
 49 64  1  0  0  0
 49121  1  0  0  0
 50 51  1  0  0  0
 50122  1  0  0  0
 50123  1  0  0  0
 51 52  1  0  0  0
 51124  1  0  0  0
 51125  1  0  0  0
 52126  1  0  0  0
 52127  1  0  0  0
 53 54  1  0  0  0
 54 55  2  0  0  0
 54128  1  0  0  0
 55 57  1  0  0  0
 55129  1  0  0  0
 56 69  2  0  0  0
 57 58  2  0  0  0
 57130  1  0  0  0
 58131  1  0  0  0
 59 60  1  0  0  0
 59 61  1  0  0  0
 59 62  1  0  0  0
 60132  1  0  0  0
 60133  1  0  0  0
 60134  1  0  0  0
 61135  1  0  0  0
 61136  1  0  0  0
 61137  1  0  0  0
 62138  1  0  0  0
 62139  1  0  0  0
 62140  1  0  0  0
 63 65  1  0  0  0
 63141  1  0  0  0
 63142  1  0  0  0
 63143  1  0  0  0
 64144  1  0  0  0
 65145  1  0  0  0
 68 82  1  0  0  0
 71 72  2  0  0  0
 71 74  1  0  0  0
 71146  1  0  0  0
 72 75  1  0  0  0
 72147  1  0  0  0
 73 75  2  0  0  0
 73 76  1  0  0  0
 73148  1  0  0  0
 74 76  2  0  0  0
 74 77  1  0  0  0
 75 84  1  0  0  0
 76 86  1  0  0  0
 77 83  1  0  0  0
 77 85  2  0  0  0
 78 79  1  0  0  0
 78 81  1  0  0  0
 78149  1  0  0  0
 78150  1  0  0  0
 79 83  1  0  0  0
 79151  1  0  0  0
 79152  1  0  0  0
 80 81  1  0  0  0
 80 83  1  0  0  0
 80153  1  0  0  0
 80154  1  0  0  0
 81 82  1  0  0  0
 81155  1  0  0  0
 82156  1  0  0  0
 82157  1  0  0  0
 84158  1  0  0  0
M  ISO  4   1 100  68 101  82 101  84 100
M  END
> <chiral flag>
0

> <version>
0

> <s_m_source_file>
/data/baiqing/PycharmProjects/Reinvent-master-3.2/result/LINK_invent/BTK/process_docking_weight1_custom_product_contain_oxygen_bond_distance_aromatic_linkinvent_7_9_3/rearranged_h_0099.sdf

> <i_m_source_file_index>
57

> <r_mmod_Potential_Energy-OPLS-2005>
188.682983398438

> <r_mmod_Stretch_Energy-OPLS-2005>
39.6657981872559

> <r_mmod_Bend_Energy-OPLS-2005>
120.707160949707

> <r_mmod_Torsional_Energy-OPLS-2005>
385.269836425781

> <r_mmod_Improper_Torsional_Energy-OPLS-2005>
10.6854152679443

> <r_mmod_Van_der_Waal_Energy-OPLS-2005>
153.290451049805

> <r_mmod_Electrostatic_Energy-OPLS-2005>
-313.307983398438

> <r_mmod_Solvation_Energy-OPLS-2005>
-222.441513061523

> <b_mmod_Minimization_Converged-OPLS-2005>
0

> <r_mmod_RMS_Derivative-OPLS-2005>
1.88756191730499

$$$$
57
                    3D
 Structure written by MMmdl.
156164  0  0  1  0            999 V2000
  -30.6643  -14.5182   20.5175 C   0  0  0  0  0  0
  -30.4247  -12.3177   19.4393 C   0  0  0  0  0  0
  -29.5014  -12.4971   18.2148 C   0  0  0  0  0  0
  -28.0199  -12.3591   18.6204 C   0  0  0  0  0  0
  -27.6576  -13.2096   19.8684 C   0  0  2  0  0  0
  -28.6972  -13.0100   20.9945 C   0  0  0  0  0  0
  -25.2573  -13.8166   20.5692 C   0  0  0  0  0  0
  -24.1829  -13.0435   20.9192 C   0  0  0  0  0  0
  -24.6384  -11.6907   20.8724 C   0  0  0  0  0  0
  -23.9047  -10.4290   21.0393 C   0  0  0  0  0  0
  -24.3604   -9.4212   21.9173 C   0  0  0  0  0  0
  -23.6288   -8.2242   22.0743 C   0  0  0  0  0  0
  -22.4265   -8.0274   21.3536 C   0  0  0  0  0  0
  -21.9897   -9.0245   20.4638 C   0  0  0  0  0  0
  -22.7220  -10.2127   20.3043 C   0  0  0  0  0  0
  -21.6845   -6.0732   22.5278 C   0  0  0  0  0  0
  -21.4017   -6.5642   23.8215 C   0  0  0  0  0  0
  -21.3659   -5.6792   24.9180 C   0  0  0  0  0  0
  -21.6041   -4.3051   24.7229 C   0  0  0  0  0  0
  -21.8818   -3.8144   23.4348 C   0  0  0  0  0  0
  -21.9198   -4.6961   22.3405 C   0  0  0  0  0  0
  -22.7852  -13.5234   21.1878 C   0  0  0  0  0  0
  -22.1663   -4.2148   21.0979 F   0  0  0  0  0  0
  -21.5629   -3.4534   25.7741 F   0  0  0  0  0  0
  -30.0257  -13.3172   20.4421 N   0  0  0  0  0  0
  -26.2997  -12.9339   20.3326 N   0  0  0  0  0  0
  -25.9310  -11.6495   20.5738 N   0  0  0  0  0  0
  -22.0487  -12.8220   22.0425 N   0  0  0  0  0  0
  -25.4297  -15.1887   20.4112 N   0  0  0  0  0  0
  -31.8223  -14.6677   20.1136 O   0  0  0  0  0  0
  -21.6628   -6.8872   21.4235 O   0  0  0  0  0  0
  -22.3542  -14.5540   20.6727 O   0  0  0  0  0  0
  -24.6160  -31.8651   23.2071 C   0  0  0  0  0  0
  -25.9039  -32.4798   23.8385 C   0  0  1  0  0  0
  -27.2335  -27.4149   20.1165 C   0  0  0  0  0  0
  -25.5887  -33.8596   24.2321 N   0  0  0  0  0  0
  -23.4060  -30.4884   21.5458 C   0  0  2  0  0  0
  -24.8567  -28.9517   20.1131 C   0  0  0  0  0  0
  -22.7424  -29.4651   22.4967 C   0  0  0  0  0  0
  -18.0284  -28.1387   22.8499 C   0  0  0  0  0  0
  -24.1474  -36.7273   23.2651 C   0  0  0  0  0  0
  -25.9368  -30.8284   21.3633 C   0  0  0  0  0  0
  -26.0167  -29.4613   20.7110 C   0  0  0  0  0  0
  -27.2126  -28.7022   20.7049 C   0  0  0  0  0  0
  -26.0620  -26.9294   19.4983 C   0  0  0  0  0  0
  -24.8747  -27.6862   19.5000 C   0  0  0  0  0  0
  -23.6176  -29.8180   20.1620 C   0  0  0  0  0  0
  -25.4095  -36.3083   24.0359 C   0  0  1  0  0  0
  -20.5871  -28.3651   23.1320 C   0  0  2  0  0  0
  -20.6752  -26.9377   22.5420 C   0  0  0  0  0  0
  -19.5722  -26.6381   21.5220 C   0  0  0  0  0  0
  -18.1907  -26.7934   22.1634 C   0  0  0  0  0  0
  -19.1534  -28.8835   23.2909 C   0  0  0  0  0  0
  -18.9470  -30.1454   23.8895 C   0  0  0  0  0  0
  -17.6471  -30.6588   24.0572 C   0  0  0  0  0  0
  -25.9024  -34.9460   23.5131 C   0  0  0  0  0  0
  -16.5358  -29.9094   23.6334 C   0  0  0  0  0  0
  -16.7272  -28.6514   23.0343 C   0  0  0  0  0  0
  -26.4467  -31.6585   25.0715 C   0  0  0  0  0  0
  -25.3744  -31.3686   26.1472 C   0  0  0  0  0  0
  -27.0306  -30.3032   24.6093 C   0  0  0  0  0  0
  -27.6049  -32.4300   25.7476 C   0  0  0  0  0  0
  -27.5563  -37.1783   24.8488 C   0  0  0  0  0  0
  -21.4151  -29.3020   22.3722 N   0  0  0  0  0  0
  -26.4276  -37.3778   23.9431 N   0  0  0  0  0  0
  -24.6711  -31.0761   22.0967 N   0  0  0  0  0  0
  -23.4200  -28.8188   23.3002 O   0  0  0  0  0  0
  -28.3697  -26.6289   20.1417 O   0  0  0  0  0  0
  -26.5599  -34.8922   22.4696 O   0  0  0  0  0  0
  -23.5340  -32.1403   23.7448 O   0  0  0  0  0  0
  -30.5524  -18.8513   19.6612 C   0  0  0  0  0  0
  -30.8228  -17.4503   19.6382 C   0  0  0  0  0  0
  -29.6107  -19.0717   20.6328 C   0  0  0  0  0  0
  -30.0206  -16.8909   20.5993 C   0  0  0  0  0  0
  -29.1261  -20.3899   22.7036 C   0  0  0  0  0  0
  -28.9304  -24.1629   20.2452 C   0  0  0  0  0  0
  -29.3753  -21.6600   20.4846 C   0  0  0  0  0  0
  -28.2377  -25.3981   20.8962 C   0  0  0  0  0  0
  -28.9318  -20.3211   21.1777 C   0  0  1  0  0  0
  -29.8972  -15.5618   20.9164 N   0  0  0  0  0  0
  -28.6743  -22.8835   20.9879 N   0  3  0  0  0  0
  -29.2516  -17.8605   21.1930 O   0  0  0  0  0  0
  -31.4707  -12.4156   19.1428 H   0  0  0  0  0  0
  -30.3271  -11.3128   19.8535 H   0  0  0  0  0  0
  -29.7496  -11.7631   17.4476 H   0  0  0  0  0  0
  -29.6689  -13.4777   17.7667 H   0  0  0  0  0  0
  -27.8304  -11.3045   18.8230 H   0  0  0  0  0  0
  -27.3757  -12.6266   17.7824 H   0  0  0  0  0  0
  -27.6938  -14.2543   19.5583 H   0  0  0  0  0  0
  -28.6781  -11.9775   21.3466 H   0  0  0  0  0  0
  -28.4592  -13.6218   21.8656 H   0  0  0  0  0  0
  -25.2751   -9.5694   22.4749 H   0  0  0  0  0  0
  -24.0008   -7.4625   22.7447 H   0  0  0  0  0  0
  -21.0839   -8.8745   19.8935 H   0  0  0  0  0  0
  -22.3669  -10.9660   19.6148 H   0  0  0  0  0  0
  -21.1996   -7.6149   23.9724 H   0  0  0  0  0  0
  -21.1488   -6.0518   25.9085 H   0  0  0  0  0  0
  -22.0595   -2.7606   23.2842 H   0  0  0  0  0  0
  -22.4102  -11.9887   22.4830 H   0  0  0  0  0  0
  -21.1079  -13.1213   22.2585 H   0  0  0  0  0  0
  -24.6646  -15.8444   20.5276 H   0  0  0  0  0  0
  -26.2809  -15.6265   20.0821 H   0  0  0  0  0  0
  -26.7108  -32.5509   23.1143 H   0  0  0  0  0  0
  -25.0045  -33.9760   25.0474 H   0  0  0  0  0  0
  -22.6964  -31.3059   21.4023 H   0  0  0  0  0  0
  -23.3738  -35.9599   23.3332 H   0  0  0  0  0  0
  -24.3572  -36.8847   22.2061 H   0  0  0  0  0  0
  -23.7221  -37.6481   23.6641 H   0  0  0  0  0  0
  -26.0582  -31.5943   20.5956 H   0  0  0  0  0  0
  -26.8218  -30.8784   21.9858 H   0  0  0  0  0  0
  -28.1062  -29.0902   21.1729 H   0  0  0  0  0  0
  -26.0609  -25.9575   19.0249 H   0  0  0  0  0  0
  -23.9842  -27.2878   19.0338 H   0  0  0  0  0  0
  -23.7244  -30.5892   19.3990 H   0  0  0  0  0  0
  -22.7434  -29.2347   19.8670 H   0  0  0  0  0  0
  -25.1268  -36.1930   25.0849 H   0  0  0  0  0  0
  -20.9979  -28.3194   24.1436 H   0  0  0  0  0  0
  -20.5619  -26.2258   23.3612 H   0  0  0  0  0  0
  -21.6627  -26.7395   22.1226 H   0  0  0  0  0  0
  -19.6872  -25.6299   21.1221 H   0  0  0  0  0  0
  -19.6656  -27.3222   20.6773 H   0  0  0  0  0  0
  -17.4172  -26.6698   21.4039 H   0  0  0  0  0  0
  -18.0298  -26.0092   22.9042 H   0  0  0  0  0  0
  -19.7949  -30.7278   24.2243 H   0  0  0  0  0  0
  -17.5031  -31.6268   24.5169 H   0  0  0  0  0  0
  -15.5354  -30.2987   23.7674 H   0  0  0  0  0  0
  -15.8680  -28.0845   22.7029 H   0  0  0  0  0  0
  -24.5934  -30.7005   25.7816 H   0  0  0  0  0  0
  -24.8927  -32.2834   26.4930 H   0  0  0  0  0  0
  -25.8114  -30.8863   27.0221 H   0  0  0  0  0  0
  -26.2852  -29.6784   24.1155 H   0  0  0  0  0  0
  -27.4120  -29.7278   25.4535 H   0  0  0  0  0  0
  -27.8662  -30.4378   23.9227 H   0  0  0  0  0  0
  -27.2677  -33.3594   26.2079 H   0  0  0  0  0  0
  -28.3838  -32.6861   25.0279 H   0  0  0  0  0  0
  -28.0736  -31.8411   26.5369 H   0  0  0  0  0  0
  -28.2599  -38.0062   24.7500 H   0  0  0  0  0  0
  -28.1025  -36.2585   24.6331 H   0  0  0  0  0  0
  -27.2286  -37.1465   25.8898 H   0  0  0  0  0  0
  -20.9311  -29.8747   21.6954 H   0  0  0  0  0  0
  -26.0148  -38.2840   24.1435 H   0  0  0  0  0  0
  -31.0082  -19.6091   19.0391 H   0  0  0  0  0  0
  -31.5157  -16.9334   18.9887 H   0  0  0  0  0  0
  -28.7471  -19.4867   23.1829 H   0  0  0  0  0  0
  -28.5931  -21.2266   23.1524 H   0  0  0  0  0  0
  -30.1804  -20.4814   22.9657 H   0  0  0  0  0  0
  -30.0045  -24.3460   20.1938 H   0  0  0  0  0  0
  -28.5794  -24.0520   19.2192 H   0  0  0  0  0  0
  -29.1973  -21.5791   19.4111 H   0  0  0  0  0  0
  -30.4503  -21.7951   20.6098 H   0  0  0  0  0  0
  -28.6762  -25.5749   21.8800 H   0  0  0  0  0  0
  -27.1915  -25.1547   21.0881 H   0  0  0  0  0  0
  -27.8620  -20.2063   20.9926 H   0  0  0  0  0  0
  -29.0317  -15.3009   21.3631 H   0  0  0  0  0  0
  -27.6831  -22.6979   20.9778 H   0  0  0  0  0  0
  -28.9438  -23.0143   21.9509 H   0  0  0  0  0  0
  1 25  1  0  0  0
  1 30  2  0  0  0
  1 80  1  0  0  0
  2  3  1  0  0  0
  2 25  1  0  0  0
  2 83  1  0  0  0
  2 84  1  0  0  0
  3  4  1  0  0  0
  3 85  1  0  0  0
  3 86  1  0  0  0
  4  5  1  0  0  0
  4 87  1  0  0  0
  4 88  1  0  0  0
  5  6  1  0  0  0
  5 26  1  0  0  0
  5 89  1  0  0  0
  6 25  1  0  0  0
  6 90  1  0  0  0
  6 91  1  0  0  0
  7  8  2  0  0  0
  7 26  1  0  0  0
  7 29  1  0  0  0
  8  9  1  0  0  0
  8 22  1  0  0  0
  9 10  1  0  0  0
  9 27  2  0  0  0
 10 11  2  0  0  0
 10 15  1  0  0  0
 11 12  1  0  0  0
 11 92  1  0  0  0
 12 13  2  0  0  0
 12 93  1  0  0  0
 13 14  1  0  0  0
 13 31  1  0  0  0
 14 15  2  0  0  0
 14 94  1  0  0  0
 15 95  1  0  0  0
 16 17  2  0  0  0
 16 21  1  0  0  0
 16 31  1  0  0  0
 17 18  1  0  0  0
 17 96  1  0  0  0
 18 19  2  0  0  0
 18 97  1  0  0  0
 19 20  1  0  0  0
 19 24  1  0  0  0
 20 21  2  0  0  0
 20 98  1  0  0  0
 21 23  1  0  0  0
 22 28  1  0  0  0
 22 32  2  0  0  0
 26 27  1  0  0  0
 28 99  1  0  0  0
 28100  1  0  0  0
 29101  1  0  0  0
 29102  1  0  0  0
 33 34  1  0  0  0
 33 66  1  0  0  0
 33 70  2  0  0  0
 34 36  1  0  0  0
 34 59  1  0  0  0
 34103  1  0  0  0
 35 44  2  0  0  0
 35 45  1  0  0  0
 35 68  1  0  0  0
 36 56  1  0  0  0
 36104  1  0  0  0
 37 39  1  0  0  0
 37 47  1  0  0  0
 37 66  1  0  0  0
 37105  1  0  0  0
 38 43  2  0  0  0
 38 46  1  0  0  0
 38 47  1  0  0  0
 39 64  1  0  0  0
 39 67  2  0  0  0
 40 52  1  0  0  0
 40 53  2  0  0  0
 40 58  1  0  0  0
 41106  1  0  0  0
 41107  1  0  0  0
 41108  1  0  0  0
 41 48  1  0  0  0
 42 43  1  0  0  0
 42 66  1  0  0  0
 42109  1  0  0  0
 42110  1  0  0  0
 43 44  1  0  0  0
 44111  1  0  0  0
 45 46  2  0  0  0
 45112  1  0  0  0
 46113  1  0  0  0
 47114  1  0  0  0
 47115  1  0  0  0
 48 56  1  0  0  0
 48 65  1  0  0  0
 48116  1  0  0  0
 49 50  1  0  0  0
 49 53  1  0  0  0
 49 64  1  0  0  0
 49117  1  0  0  0
 50 51  1  0  0  0
 50118  1  0  0  0
 50119  1  0  0  0
 51 52  1  0  0  0
 51120  1  0  0  0
 51121  1  0  0  0
 52122  1  0  0  0
 52123  1  0  0  0
 53 54  1  0  0  0
 54 55  2  0  0  0
 54124  1  0  0  0
 55 57  1  0  0  0
 55125  1  0  0  0
 56 69  2  0  0  0
 57 58  2  0  0  0
 57126  1  0  0  0
 58127  1  0  0  0
 59 60  1  0  0  0
 59 61  1  0  0  0
 59 62  1  0  0  0
 60128  1  0  0  0
 60129  1  0  0  0
 60130  1  0  0  0
 61131  1  0  0  0
 61132  1  0  0  0
 61133  1  0  0  0
 62134  1  0  0  0
 62135  1  0  0  0
 62136  1  0  0  0
 63 65  1  0  0  0
 63137  1  0  0  0
 63138  1  0  0  0
 63139  1  0  0  0
 64140  1  0  0  0
 65141  1  0  0  0
 68 78  1  0  0  0
 71 72  1  0  0  0
 71 73  2  0  0  0
 71142  1  0  0  0
 72 74  2  0  0  0
 72143  1  0  0  0
 73 79  1  0  0  0
 73 82  1  0  0  0
 74 80  1  0  0  0
 74 82  1  0  0  0
 75144  1  0  0  0
 75145  1  0  0  0
 75146  1  0  0  0
 75 79  1  0  0  0
 76 78  1  0  0  0
 76 81  1  0  0  0
 76147  1  0  0  0
 76148  1  0  0  0
 77 79  1  0  0  0
 77 81  1  0  0  0
 77149  1  0  0  0
 77150  1  0  0  0
 78151  1  0  0  0
 78152  1  0  0  0
 79153  1  0  0  0
 80154  1  0  0  0
 81155  1  0  0  0
 81156  1  0  0  0
M  CHG  1  81   1
M  ISO  4   1 100  68 101  78 101  80 100
M  END
> <chiral flag>
0

> <version>
0

> <s_m_source_file>
/data/baiqing/PycharmProjects/Reinvent-master-3.2/result/LINK_invent/BTK/process_docking_weight1_custom_product_contain_oxygen_bond_distance_aromatic_linkinvent_7_9_3/rearranged_h_0099.sdf

> <i_m_source_file_index>
58

> <r_mmod_Potential_Energy-OPLS-2005>
-200.376434326172

> <r_mmod_Stretch_Energy-OPLS-2005>
42.8313674926758

> <r_mmod_Bend_Energy-OPLS-2005>
102.757484436035

> <r_mmod_Torsional_Energy-OPLS-2005>
244.439361572266

> <r_mmod_Improper_Torsional_Energy-OPLS-2005>
4.04607963562012

> <r_mmod_Van_der_Waal_Energy-OPLS-2005>
129.445343017578

> <r_mmod_Electrostatic_Energy-OPLS-2005>
-284.605987548828

> <r_mmod_Solvation_Energy-OPLS-2005>
-458.847229003906

> <b_mmod_Minimization_Converged-OPLS-2005>
0

> <r_mmod_RMS_Derivative-OPLS-2005>
2.05269932746887

$$$$
58
                    3D
 Structure written by MMmdl.
159167  0  0  1  0            999 V2000
  -30.7862  -14.4390   20.6166 C   0  0  0  0  0  0
  -30.4097  -12.3166   19.4122 C   0  0  0  0  0  0
  -29.4845  -12.4988   18.1971 C   0  0  0  0  0  0
  -28.0089  -12.3655   18.6145 C   0  0  0  0  0  0
  -27.6566  -13.2165   19.8650 C   0  0  2  0  0  0
  -28.7031  -13.0385   20.9877 C   0  0  0  0  0  0
  -25.2587  -13.8188   20.5681 C   0  0  0  0  0  0
  -24.1844  -13.0448   20.9172 C   0  0  0  0  0  0
  -24.6415  -11.6922   20.8736 C   0  0  0  0  0  0
  -23.9077  -10.4303   21.0405 C   0  0  0  0  0  0
  -24.3637   -9.4217   21.9183 C   0  0  0  0  0  0
  -23.6314   -8.2249   22.0751 C   0  0  0  0  0  0
  -22.4289   -8.0291   21.3545 C   0  0  0  0  0  0
  -21.9926   -9.0259   20.4636 C   0  0  0  0  0  0
  -22.7248  -10.2142   20.3049 C   0  0  0  0  0  0
  -21.6854   -6.0755   22.5283 C   0  0  0  0  0  0
  -21.4004   -6.5653   23.8215 C   0  0  0  0  0  0
  -21.3655   -5.6799   24.9179 C   0  0  0  0  0  0
  -21.6044   -4.3062   24.7218 C   0  0  0  0  0  0
  -21.8825   -3.8162   23.4336 C   0  0  0  0  0  0
  -21.9195   -4.6988   22.3396 C   0  0  0  0  0  0
  -22.7867  -13.5246   21.1829 C   0  0  0  0  0  0
  -22.1668   -4.2174   21.0977 F   0  0  0  0  0  0
  -21.5628   -3.4543   25.7728 F   0  0  0  0  0  0
  -30.0295  -13.3232   20.4191 N   0  0  0  0  0  0
  -26.3019  -12.9369   20.3343 N   0  0  0  0  0  0
  -25.9345  -11.6516   20.5759 N   0  0  0  0  0  0
  -22.0510  -12.8237   22.0387 N   0  0  0  0  0  0
  -25.4298  -15.1895   20.4093 N   0  0  0  0  0  0
  -31.9114  -14.5400   20.1172 O   0  0  0  0  0  0
  -21.6648   -6.8894   21.4242 O   0  0  0  0  0  0
  -22.3553  -14.5556   20.6685 O   0  0  0  0  0  0
  -24.6185  -31.8662   23.2105 C   0  0  0  0  0  0
  -25.9060  -32.4801   23.8417 C   0  0  1  0  0  0
  -27.2428  -27.4183   20.0629 C   0  0  0  0  0  0
  -25.5913  -33.8611   24.2350 N   0  0  0  0  0  0
  -23.4068  -30.4916   21.5531 C   0  0  2  0  0  0
  -24.8513  -28.9543   20.1171 C   0  0  0  0  0  0
  -22.7418  -29.4649   22.5001 C   0  0  0  0  0  0
  -18.0261  -28.1375   22.8498 C   0  0  0  0  0  0
  -24.1478  -36.7288   23.2635 C   0  0  0  0  0  0
  -25.9411  -30.8196   21.3704 C   0  0  0  0  0  0
  -26.0153  -29.4541   20.7112 C   0  0  0  0  0  0
  -27.2098  -28.6932   20.6815 C   0  0  0  0  0  0
  -26.0568  -26.9476   19.4493 C   0  0  0  0  0  0
  -24.8660  -27.6975   19.4905 C   0  0  0  0  0  0
  -23.6174  -29.8281   20.1682 C   0  0  0  0  0  0
  -25.4097  -36.3097   24.0351 C   0  0  1  0  0  0
  -20.5856  -28.3657   23.1317 C   0  0  2  0  0  0
  -20.6749  -26.9390   22.5422 C   0  0  0  0  0  0
  -19.5724  -26.6381   21.5222 C   0  0  0  0  0  0
  -18.1904  -26.7926   22.1631 C   0  0  0  0  0  0
  -19.1508  -28.8838   23.2908 C   0  0  0  0  0  0
  -18.9442  -30.1451   23.8910 C   0  0  0  0  0  0
  -17.6440  -30.6577   24.0571 C   0  0  0  0  0  0
  -25.9035  -34.9463   23.5142 C   0  0  0  0  0  0
  -16.5330  -29.9084   23.6324 C   0  0  0  0  0  0
  -16.7251  -28.6503   23.0342 C   0  0  0  0  0  0
  -26.4479  -31.6569   25.0741 C   0  0  0  0  0  0
  -25.3732  -31.3679   26.1488 C   0  0  0  0  0  0
  -27.0312  -30.3013   24.6127 C   0  0  0  0  0  0
  -27.6091  -32.4259   25.7463 C   0  0  0  0  0  0
  -27.5590  -37.1772   24.8448 C   0  0  0  0  0  0
  -21.4141  -29.3036   22.3727 N   0  0  0  0  0  0
  -26.4276  -37.3794   23.9433 N   0  0  0  0  0  0
  -24.6738  -31.0736   22.1016 N   0  0  0  0  0  0
  -23.4184  -28.8167   23.3026 O   0  0  0  0  0  0
  -28.4243  -26.6884   20.0769 O   0  0  0  0  0  0
  -26.5599  -34.8926   22.4705 O   0  0  0  0  0  0
  -23.5365  -32.1438   23.7475 O   0  0  0  0  0  0
  -29.4276  -18.5257   22.1232 C   0  0  0  0  0  0
  -30.7665  -20.0901   20.2161 C   0  0  0  0  0  0
  -30.4557  -17.9359   21.3614 C   0  0  0  0  0  0
  -31.1253  -18.7323   20.3847 C   0  0  0  0  0  0
  -29.7553  -20.6891   21.0053 C   0  0  0  0  0  0
  -29.0893  -19.8979   21.9750 C   0  0  0  0  0  0
  -30.9182  -16.5394   21.7046 C   0  0  0  0  0  0
  -29.6737  -23.0158   20.0017 C   0  0  0  0  0  0
  -27.6334  -19.8041   23.8789 C   0  0  0  0  0  0
  -29.5257  -24.5012   20.4070 C   0  0  0  0  0  0
  -28.4368  -25.3048   19.6518 C   0  0  0  0  0  0
  -32.1572  -18.2358   19.5802 N   0  0  0  0  0  0
  -29.4477  -22.0918   20.9620 N   0  0  0  0  0  0
  -30.2092  -15.4886   21.2396 N   0  0  0  0  0  0
  -31.9552  -16.4104   22.3705 O   0  0  0  0  0  0
  -29.9913  -22.7312   18.8442 O   0  0  0  0  0  0
  -28.1522  -20.5289   22.7680 O   0  0  0  0  0  0
  -31.4498  -12.3944   19.0909 H   0  0  0  0  0  0
  -30.3096  -11.3130   19.8283 H   0  0  0  0  0  0
  -29.7247  -11.7606   17.4311 H   0  0  0  0  0  0
  -29.6561  -13.4774   17.7465 H   0  0  0  0  0  0
  -27.8154  -11.3107   18.8148 H   0  0  0  0  0  0
  -27.3585  -12.6364   17.7804 H   0  0  0  0  0  0
  -27.6891  -14.2590   19.5486 H   0  0  0  0  0  0
  -28.6814  -12.0171   21.3701 H   0  0  0  0  0  0
  -28.4685  -13.6798   21.8381 H   0  0  0  0  0  0
  -25.2795   -9.5701   22.4736 H   0  0  0  0  0  0
  -24.0039   -7.4643   22.7463 H   0  0  0  0  0  0
  -21.0864   -8.8763   19.8934 H   0  0  0  0  0  0
  -22.3711  -10.9678   19.6147 H   0  0  0  0  0  0
  -21.1984   -7.6156   23.9724 H   0  0  0  0  0  0
  -21.1465   -6.0528   25.9078 H   0  0  0  0  0  0
  -22.0609   -2.7627   23.2822 H   0  0  0  0  0  0
  -22.4136  -11.9913   22.4790 H   0  0  0  0  0  0
  -21.1108  -13.1226   22.2545 H   0  0  0  0  0  0
  -24.6629  -15.8445   20.5123 H   0  0  0  0  0  0
  -26.2819  -15.6279   20.0845 H   0  0  0  0  0  0
  -26.7116  -32.5502   23.1167 H   0  0  0  0  0  0
  -25.0069  -33.9778   25.0503 H   0  0  0  0  0  0
  -22.6979  -31.3115   21.4164 H   0  0  0  0  0  0
  -23.3773  -35.9576   23.3235 H   0  0  0  0  0  0
  -24.3604  -36.8964   22.2064 H   0  0  0  0  0  0
  -23.7185  -37.6464   23.6675 H   0  0  0  0  0  0
  -26.0671  -31.5889   20.6078 H   0  0  0  0  0  0
  -26.8250  -30.8646   21.9957 H   0  0  0  0  0  0
  -28.1129  -29.0851   21.1308 H   0  0  0  0  0  0
  -26.0273  -26.0126   18.9117 H   0  0  0  0  0  0
  -23.9710  -27.3101   19.0245 H   0  0  0  0  0  0
  -23.7430  -30.6089   19.4178 H   0  0  0  0  0  0
  -22.7349  -29.2650   19.8578 H   0  0  0  0  0  0
  -25.1261  -36.1946   25.0843 H   0  0  0  0  0  0
  -20.9953  -28.3202   24.1439 H   0  0  0  0  0  0
  -20.5646  -26.2256   23.3612 H   0  0  0  0  0  0
  -21.6611  -26.7429   22.1200 H   0  0  0  0  0  0
  -19.6860  -25.6302   21.1225 H   0  0  0  0  0  0
  -19.6639  -27.3212   20.6766 H   0  0  0  0  0  0
  -17.4172  -26.6686   21.4036 H   0  0  0  0  0  0
  -18.0293  -26.0078   22.9028 H   0  0  0  0  0  0
  -19.7919  -30.7263   24.2279 H   0  0  0  0  0  0
  -17.4990  -31.6260   24.5173 H   0  0  0  0  0  0
  -15.5326  -30.2976   23.7656 H   0  0  0  0  0  0
  -15.8658  -28.0825   22.7034 H   0  0  0  0  0  0
  -24.5879  -30.7063   25.7798 H   0  0  0  0  0  0
  -24.8947  -32.2835   26.4972 H   0  0  0  0  0  0
  -25.8067  -30.8787   27.0223 H   0  0  0  0  0  0
  -26.2865  -29.6757   24.1195 H   0  0  0  0  0  0
  -27.4108  -29.7263   25.4581 H   0  0  0  0  0  0
  -27.8683  -30.4340   23.9278 H   0  0  0  0  0  0
  -27.2785  -33.3591   26.2036 H   0  0  0  0  0  0
  -28.3886  -32.6757   25.0245 H   0  0  0  0  0  0
  -28.0773  -31.8364   26.5361 H   0  0  0  0  0  0
  -28.2530  -38.0145   24.7624 H   0  0  0  0  0  0
  -28.1176  -36.2700   24.6096 H   0  0  0  0  0  0
  -27.2341  -37.1180   25.8853 H   0  0  0  0  0  0
  -20.9288  -29.8804   21.7000 H   0  0  0  0  0  0
  -26.0158  -38.2851   24.1520 H   0  0  0  0  0  0
  -28.9503  -17.9089   22.8705 H   0  0  0  0  0  0
  -31.3163  -20.6912   19.5063 H   0  0  0  0  0  0
  -28.4319  -19.4482   24.5317 H   0  0  0  0  0  0
  -27.0338  -18.9528   23.5518 H   0  0  0  0  0  0
  -26.9930  -20.4491   24.4803 H   0  0  0  0  0  0
  -30.4951  -24.9781   20.2562 H   0  0  0  0  0  0
  -29.3242  -24.5619   21.4757 H   0  0  0  0  0  0
  -27.4880  -24.8044   19.8408 H   0  0  0  0  0  0
  -28.6151  -25.2653   18.5760 H   0  0  0  0  0  0
  -32.4749  -18.7684   18.7760 H   0  0  0  0  0  0
  -32.3098  -17.2364   19.4784 H   0  0  0  0  0  0
  -29.0150  -22.4446   21.8038 H   0  0  0  0  0  0
  -29.2100  -15.5752   21.1717 H   0  0  0  0  0  0
  1 25  1  0  0  0
  1 30  2  0  0  0
  1 84  1  0  0  0
  2  3  1  0  0  0
  2 25  1  0  0  0
  2 88  1  0  0  0
  2 89  1  0  0  0
  3  4  1  0  0  0
  3 90  1  0  0  0
  3 91  1  0  0  0
  4  5  1  0  0  0
  4 92  1  0  0  0
  4 93  1  0  0  0
  5  6  1  0  0  0
  5 26  1  0  0  0
  5 94  1  0  0  0
  6 25  1  0  0  0
  6 95  1  0  0  0
  6 96  1  0  0  0
  7  8  2  0  0  0
  7 26  1  0  0  0
  7 29  1  0  0  0
  8  9  1  0  0  0
  8 22  1  0  0  0
  9 10  1  0  0  0
  9 27  2  0  0  0
 10 11  2  0  0  0
 10 15  1  0  0  0
 11 12  1  0  0  0
 11 97  1  0  0  0
 12 13  2  0  0  0
 12 98  1  0  0  0
 13 14  1  0  0  0
 13 31  1  0  0  0
 14 15  2  0  0  0
 14 99  1  0  0  0
 15100  1  0  0  0
 16 17  2  0  0  0
 16 21  1  0  0  0
 16 31  1  0  0  0
 17 18  1  0  0  0
 17101  1  0  0  0
 18 19  2  0  0  0
 18102  1  0  0  0
 19 20  1  0  0  0
 19 24  1  0  0  0
 20 21  2  0  0  0
 20103  1  0  0  0
 21 23  1  0  0  0
 22 28  1  0  0  0
 22 32  2  0  0  0
 26 27  1  0  0  0
 28104  1  0  0  0
 28105  1  0  0  0
 29106  1  0  0  0
 29107  1  0  0  0
 33 34  1  0  0  0
 33 66  1  0  0  0
 33 70  2  0  0  0
 34 36  1  0  0  0
 34 59  1  0  0  0
 34108  1  0  0  0
 35 44  2  0  0  0
 35 45  1  0  0  0
 35 68  1  0  0  0
 36 56  1  0  0  0
 36109  1  0  0  0
 37 39  1  0  0  0
 37 47  1  0  0  0
 37 66  1  0  0  0
 37110  1  0  0  0
 38 43  2  0  0  0
 38 46  1  0  0  0
 38 47  1  0  0  0
 39 64  1  0  0  0
 39 67  2  0  0  0
 40 52  1  0  0  0
 40 53  2  0  0  0
 40 58  1  0  0  0
 41111  1  0  0  0
 41112  1  0  0  0
 41113  1  0  0  0
 41 48  1  0  0  0
 42 43  1  0  0  0
 42 66  1  0  0  0
 42114  1  0  0  0
 42115  1  0  0  0
 43 44  1  0  0  0
 44116  1  0  0  0
 45 46  2  0  0  0
 45117  1  0  0  0
 46118  1  0  0  0
 47119  1  0  0  0
 47120  1  0  0  0
 48 56  1  0  0  0
 48 65  1  0  0  0
 48121  1  0  0  0
 49 50  1  0  0  0
 49 53  1  0  0  0
 49 64  1  0  0  0
 49122  1  0  0  0
 50 51  1  0  0  0
 50123  1  0  0  0
 50124  1  0  0  0
 51 52  1  0  0  0
 51125  1  0  0  0
 51126  1  0  0  0
 52127  1  0  0  0
 52128  1  0  0  0
 53 54  1  0  0  0
 54 55  2  0  0  0
 54129  1  0  0  0
 55 57  1  0  0  0
 55130  1  0  0  0
 56 69  2  0  0  0
 57 58  2  0  0  0
 57131  1  0  0  0
 58132  1  0  0  0
 59 60  1  0  0  0
 59 61  1  0  0  0
 59 62  1  0  0  0
 60133  1  0  0  0
 60134  1  0  0  0
 60135  1  0  0  0
 61136  1  0  0  0
 61137  1  0  0  0
 61138  1  0  0  0
 62139  1  0  0  0
 62140  1  0  0  0
 62141  1  0  0  0
 63 65  1  0  0  0
 63142  1  0  0  0
 63143  1  0  0  0
 63144  1  0  0  0
 64145  1  0  0  0
 65146  1  0  0  0
 68 81  1  0  0  0
 71 73  2  0  0  0
 71 76  1  0  0  0
 71147  1  0  0  0
 72 74  2  0  0  0
 72 75  1  0  0  0
 72148  1  0  0  0
 73 74  1  0  0  0
 73 77  1  0  0  0
 74 82  1  0  0  0
 75 76  2  0  0  0
 75 83  1  0  0  0
 76 87  1  0  0  0
 77 84  1  0  0  0
 77 85  2  0  0  0
 78 80  1  0  0  0
 78 83  1  0  0  0
 78 86  2  0  0  0
 79 87  1  0  0  0
 79149  1  0  0  0
 79150  1  0  0  0
 79151  1  0  0  0
 80 81  1  0  0  0
 80152  1  0  0  0
 80153  1  0  0  0
 81154  1  0  0  0
 81155  1  0  0  0
 82156  1  0  0  0
 82157  1  0  0  0
 83158  1  0  0  0
 84159  1  0  0  0
M  ISO  4   1 100  68 101  81 101  84 100
M  END
> <chiral flag>
0

> <version>
0

> <s_m_source_file>
/data/baiqing/PycharmProjects/Reinvent-master-3.2/result/LINK_invent/BTK/process_docking_weight1_custom_product_contain_oxygen_bond_distance_aromatic_linkinvent_7_9_3/rearranged_h_0099.sdf

> <i_m_source_file_index>
59

> <r_mmod_Potential_Energy-OPLS-2005>
-33.301082611084

> <r_mmod_Stretch_Energy-OPLS-2005>
43.6809234619141

> <r_mmod_Bend_Energy-OPLS-2005>
121.353813171387

> <r_mmod_Torsional_Energy-OPLS-2005>
289.832824707031

> <r_mmod_Improper_Torsional_Energy-OPLS-2005>
6.49803256988525

> <r_mmod_Van_der_Waal_Energy-OPLS-2005>
171.33381652832

> <r_mmod_Electrostatic_Energy-OPLS-2005>
-429.014770507812

> <r_mmod_Solvation_Energy-OPLS-2005>
-254.207077026367

> <b_mmod_Minimization_Converged-OPLS-2005>
0

> <r_mmod_RMS_Derivative-OPLS-2005>
3.4084837436676

$$$$
59
                    3D
 Structure written by MMmdl.
154162  0  0  1  0            999 V2000
  -30.7557  -14.4873   20.5105 C   0  0  0  0  0  0
  -30.4046  -12.2817   19.4591 C   0  0  0  0  0  0
  -29.4875  -12.4090   18.2290 C   0  0  0  0  0  0
  -28.0154  -12.2818   18.6564 C   0  0  0  0  0  0
  -27.6469  -13.2046   19.8435 C   0  0  2  0  0  0
  -28.6884  -13.1110   20.9829 C   0  0  0  0  0  0
  -25.2533  -13.8177   20.5601 C   0  0  0  0  0  0
  -24.1777  -13.0470   20.9134 C   0  0  0  0  0  0
  -24.6310  -11.6905   20.8710 C   0  0  0  0  0  0
  -23.8941  -10.4302   21.0373 C   0  0  0  0  0  0
  -24.3491   -9.4227   21.9163 C   0  0  0  0  0  0
  -23.6186   -8.2263   22.0764 C   0  0  0  0  0  0
  -22.4192   -8.0266   21.3522 C   0  0  0  0  0  0
  -21.9801   -9.0216   20.4632 C   0  0  0  0  0  0
  -22.7108  -10.2110   20.3028 C   0  0  0  0  0  0
  -21.6860   -6.0637   22.5214 C   0  0  0  0  0  0
  -21.4004   -6.5562   23.8135 C   0  0  0  0  0  0
  -21.3675   -5.6764   24.9136 C   0  0  0  0  0  0
  -21.6049   -4.3015   24.7225 C   0  0  0  0  0  0
  -21.8819   -3.8074   23.4357 C   0  0  0  0  0  0
  -21.9185   -4.6861   22.3372 C   0  0  0  0  0  0
  -22.7789  -13.5228   21.1792 C   0  0  0  0  0  0
  -22.1661   -4.2009   21.0980 F   0  0  0  0  0  0
  -21.5653   -3.4543   25.7770 F   0  0  0  0  0  0
  -30.0233  -13.3416   20.4094 N   0  0  0  0  0  0
  -26.2934  -12.9329   20.3242 N   0  0  0  0  0  0
  -25.9238  -11.6493   20.5761 N   0  0  0  0  0  0
  -22.0416  -12.8259   22.0359 N   0  0  0  0  0  0
  -25.4388  -15.1895   20.3956 N   0  0  0  0  0  0
  -31.9198  -14.5373   20.1157 O   0  0  0  0  0  0
  -21.6642   -6.8791   21.4175 O   0  0  0  0  0  0
  -22.3454  -14.5515   20.6605 O   0  0  0  0  0  0
  -24.6150  -31.8704   23.2121 C   0  0  0  0  0  0
  -25.9046  -32.4840   23.8447 C   0  0  1  0  0  0
  -27.1989  -27.4232   20.1322 C   0  0  0  0  0  0
  -25.5872  -33.8638   24.2345 N   0  0  0  0  0  0
  -23.4014  -30.4962   21.5520 C   0  0  2  0  0  0
  -24.8463  -28.9728   20.1042 C   0  0  0  0  0  0
  -22.7420  -29.4659   22.4982 C   0  0  0  0  0  0
  -18.0262  -28.1352   22.8488 C   0  0  0  0  0  0
  -24.1473  -36.7281   23.2652 C   0  0  0  0  0  0
  -25.9306  -30.8402   21.3614 C   0  0  0  0  0  0
  -26.0058  -29.4781   20.7035 C   0  0  0  0  0  0
  -27.1948  -28.7114   20.7090 C   0  0  0  0  0  0
  -26.0321  -26.9419   19.5031 C   0  0  0  0  0  0
  -24.8568  -27.7120   19.4860 C   0  0  0  0  0  0
  -23.6042  -29.8338   20.1606 C   0  0  0  0  0  0
  -25.4100  -36.3125   24.0350 C   0  0  1  0  0  0
  -20.5858  -28.3636   23.1328 C   0  0  2  0  0  0
  -20.6750  -26.9377   22.5429 C   0  0  0  0  0  0
  -19.5726  -26.6367   21.5218 C   0  0  0  0  0  0
  -18.1889  -26.7900   22.1610 C   0  0  0  0  0  0
  -19.1509  -28.8817   23.2915 C   0  0  0  0  0  0
  -18.9438  -30.1406   23.8971 C   0  0  0  0  0  0
  -17.6446  -30.6582   24.0550 C   0  0  0  0  0  0
  -25.9042  -34.9492   23.5143 C   0  0  0  0  0  0
  -16.5341  -29.9089   23.6317 C   0  0  0  0  0  0
  -16.7244  -28.6484   23.0386 C   0  0  0  0  0  0
  -26.4466  -31.6647   25.0787 C   0  0  0  0  0  0
  -25.3711  -31.3660   26.1505 C   0  0  0  0  0  0
  -27.0326  -30.3119   24.6126 C   0  0  0  0  0  0
  -27.6119  -32.4339   25.7492 C   0  0  0  0  0  0
  -27.5560  -37.1791   24.8454 C   0  0  0  0  0  0
  -21.4156  -29.3027   22.3773 N   0  0  0  0  0  0
  -26.4257  -37.3818   23.9433 N   0  0  0  0  0  0
  -24.6681  -31.0815   22.1012 N   0  0  0  0  0  0
  -23.4191  -28.8205   23.3014 O   0  0  0  0  0  0
  -28.2940  -26.6030   20.2420 O   0  0  0  0  0  0
  -26.5647  -34.8924   22.4725 O   0  0  0  0  0  0
  -23.5334  -32.1429   23.7531 O   0  0  0  0  0  0
  -29.2606  -18.3879   19.5708 C   0  0  0  0  0  0
  -28.5550  -20.0552   21.7122 C   0  0  0  0  0  0
  -29.6132  -17.9986   20.8812 C   0  0  0  0  0  0
  -29.2005  -18.8227   21.9710 C   0  0  0  0  0  0
  -28.3083  -20.4886   20.3865 C   0  0  0  0  0  0
  -28.6230  -19.6163   19.3243 C   0  0  0  0  0  0
  -30.5762  -16.8437   21.0158 C   0  0  0  0  0  0
  -28.1231  -24.1265   20.2408 C   0  0  0  0  0  0
  -28.0176  -25.4323   21.0503 C   0  0  0  0  0  0
  -27.9329  -22.7994   20.9999 C   0  0  0  0  0  0
  -29.4134  -18.4851   23.3116 N   0  0  0  0  0  0
  -30.0698  -15.5996   20.8588 N   0  0  0  0  0  0
  -31.7726  -17.1130   21.1955 O   0  0  0  0  0  0
  -28.3650  -24.1408   19.0278 O   0  0  0  0  0  0
  -27.7869  -21.7253   20.0628 O   0  0  0  0  0  0
  -28.3705  -19.9947   18.0480 F   0  0  0  0  0  0
  -31.4506  -12.3320   19.1567 H   0  0  0  0  0  0
  -30.2829  -11.3024   19.9274 H   0  0  0  0  0  0
  -29.7264  -11.6296   17.5039 H   0  0  0  0  0  0
  -29.6609  -13.3629   17.7305 H   0  0  0  0  0  0
  -27.8606  -11.2429   18.9564 H   0  0  0  0  0  0
  -27.3510  -12.4493   17.8085 H   0  0  0  0  0  0
  -27.6655  -14.2205   19.4514 H   0  0  0  0  0  0
  -28.6529  -12.1349   21.4680 H   0  0  0  0  0  0
  -28.4511  -13.8375   21.7624 H   0  0  0  0  0  0
  -25.2606   -9.5716   22.4760 H   0  0  0  0  0  0
  -23.9861   -7.4670   22.7542 H   0  0  0  0  0  0
  -21.0722   -8.8668   19.8958 H   0  0  0  0  0  0
  -22.3493  -10.9611   19.6149 H   0  0  0  0  0  0
  -21.1989   -7.6074   23.9561 H   0  0  0  0  0  0
  -21.1515   -6.0532   25.9006 H   0  0  0  0  0  0
  -22.0581   -2.7511   23.2917 H   0  0  0  0  0  0
  -22.3988  -11.9923   22.4793 H   0  0  0  0  0  0
  -21.1011  -13.1277   22.2483 H   0  0  0  0  0  0
  -24.6906  -15.8643   20.4982 H   0  0  0  0  0  0
  -26.2913  -15.6032   20.0426 H   0  0  0  0  0  0
  -26.7113  -32.5531   23.1231 H   0  0  0  0  0  0
  -24.9959  -33.9804   25.0449 H   0  0  0  0  0  0
  -22.6903  -31.3130   21.4157 H   0  0  0  0  0  0
  -23.3782  -35.9555   23.3299 H   0  0  0  0  0  0
  -24.3535  -36.8937   22.2052 H   0  0  0  0  0  0
  -23.7150  -37.6445   23.6697 H   0  0  0  0  0  0
  -26.0361  -31.6048   20.5891 H   0  0  0  0  0  0
  -26.8219  -30.8975   21.9746 H   0  0  0  0  0  0
  -28.0852  -29.0798   21.1980 H   0  0  0  0  0  0
  -26.0222  -25.9574   19.0562 H   0  0  0  0  0  0
  -23.9667  -27.3289   19.0117 H   0  0  0  0  0  0
  -23.6924  -30.6136   19.4016 H   0  0  0  0  0  0
  -22.7310  -29.2465   19.8695 H   0  0  0  0  0  0
  -25.1271  -36.2013   25.0837 H   0  0  0  0  0  0
  -20.9914  -28.3183   24.1450 H   0  0  0  0  0  0
  -20.5636  -26.2250   23.3602 H   0  0  0  0  0  0
  -21.6618  -26.7413   22.1223 H   0  0  0  0  0  0
  -19.6935  -25.6293   21.1199 H   0  0  0  0  0  0
  -19.6690  -27.3215   20.6758 H   0  0  0  0  0  0
  -17.4186  -26.6667   21.3988 H   0  0  0  0  0  0
  -18.0308  -25.9998   22.8947 H   0  0  0  0  0  0
  -19.7904  -30.7170   24.2403 H   0  0  0  0  0  0
  -17.4991  -31.6264   24.5128 H   0  0  0  0  0  0
  -15.5348  -30.3023   23.7586 H   0  0  0  0  0  0
  -15.8618  -28.0794   22.7157 H   0  0  0  0  0  0
  -24.5996  -30.6882   25.7818 H   0  0  0  0  0  0
  -24.8702  -32.2711   26.4954 H   0  0  0  0  0  0
  -25.8016  -30.8866   27.0297 H   0  0  0  0  0  0
  -26.2848  -29.6848   24.1230 H   0  0  0  0  0  0
  -27.4212  -29.7407   25.4574 H   0  0  0  0  0  0
  -27.8633  -30.4517   23.9200 H   0  0  0  0  0  0
  -27.2910  -33.3768   26.1935 H   0  0  0  0  0  0
  -28.3968  -32.6672   25.0288 H   0  0  0  0  0  0
  -28.0710  -31.8493   26.5470 H   0  0  0  0  0  0
  -28.2606  -38.0076   24.7593 H   0  0  0  0  0  0
  -28.1061  -36.2634   24.6224 H   0  0  0  0  0  0
  -27.2267  -37.1352   25.8851 H   0  0  0  0  0  0
  -20.9360  -29.8730   21.6954 H   0  0  0  0  0  0
  -26.0178  -38.2906   24.1479 H   0  0  0  0  0  0
  -29.5610  -17.7775   18.7280 H   0  0  0  0  0  0
  -28.2696  -20.6828   22.5437 H   0  0  0  0  0  0
  -28.7128  -25.3957   21.8882 H   0  0  0  0  0  0
  -27.0220  -25.4776   21.5030 H   0  0  0  0  0  0
  -27.0461  -22.8426   21.6331 H   0  0  0  0  0  0
  -28.8001  -22.6551   21.6447 H   0  0  0  0  0  0
  -28.8787  -18.9833   24.0193 H   0  0  0  0  0  0
  -29.5442  -17.5121   23.5658 H   0  0  0  0  0  0
  -29.0709  -15.5168   20.9375 H   0  0  0  0  0  0
  1 25  1  0  0  0
  1 30  2  0  0  0
  1 82  1  0  0  0
  2  3  1  0  0  0
  2 25  1  0  0  0
  2 87  1  0  0  0
  2 88  1  0  0  0
  3  4  1  0  0  0
  3 89  1  0  0  0
  3 90  1  0  0  0
  4  5  1  0  0  0
  4 91  1  0  0  0
  4 92  1  0  0  0
  5  6  1  0  0  0
  5 26  1  0  0  0
  5 93  1  0  0  0
  6 25  1  0  0  0
  6 94  1  0  0  0
  6 95  1  0  0  0
  7  8  2  0  0  0
  7 26  1  0  0  0
  7 29  1  0  0  0
  8  9  1  0  0  0
  8 22  1  0  0  0
  9 10  1  0  0  0
  9 27  2  0  0  0
 10 11  2  0  0  0
 10 15  1  0  0  0
 11 12  1  0  0  0
 11 96  1  0  0  0
 12 13  2  0  0  0
 12 97  1  0  0  0
 13 14  1  0  0  0
 13 31  1  0  0  0
 14 15  2  0  0  0
 14 98  1  0  0  0
 15 99  1  0  0  0
 16 17  2  0  0  0
 16 21  1  0  0  0
 16 31  1  0  0  0
 17 18  1  0  0  0
 17100  1  0  0  0
 18 19  2  0  0  0
 18101  1  0  0  0
 19 20  1  0  0  0
 19 24  1  0  0  0
 20 21  2  0  0  0
 20102  1  0  0  0
 21 23  1  0  0  0
 22 28  1  0  0  0
 22 32  2  0  0  0
 26 27  1  0  0  0
 28103  1  0  0  0
 28104  1  0  0  0
 29105  1  0  0  0
 29106  1  0  0  0
 33 34  1  0  0  0
 33 66  1  0  0  0
 33 70  2  0  0  0
 34 36  1  0  0  0
 34 59  1  0  0  0
 34107  1  0  0  0
 35 44  2  0  0  0
 35 45  1  0  0  0
 35 68  1  0  0  0
 36 56  1  0  0  0
 36108  1  0  0  0
 37 39  1  0  0  0
 37 47  1  0  0  0
 37 66  1  0  0  0
 37109  1  0  0  0
 38 43  2  0  0  0
 38 46  1  0  0  0
 38 47  1  0  0  0
 39 64  1  0  0  0
 39 67  2  0  0  0
 40 52  1  0  0  0
 40 53  2  0  0  0
 40 58  1  0  0  0
 41110  1  0  0  0
 41111  1  0  0  0
 41112  1  0  0  0
 41 48  1  0  0  0
 42 43  1  0  0  0
 42 66  1  0  0  0
 42113  1  0  0  0
 42114  1  0  0  0
 43 44  1  0  0  0
 44115  1  0  0  0
 45 46  2  0  0  0
 45116  1  0  0  0
 46117  1  0  0  0
 47118  1  0  0  0
 47119  1  0  0  0
 48 56  1  0  0  0
 48 65  1  0  0  0
 48120  1  0  0  0
 49 50  1  0  0  0
 49 53  1  0  0  0
 49 64  1  0  0  0
 49121  1  0  0  0
 50 51  1  0  0  0
 50122  1  0  0  0
 50123  1  0  0  0
 51 52  1  0  0  0
 51124  1  0  0  0
 51125  1  0  0  0
 52126  1  0  0  0
 52127  1  0  0  0
 53 54  1  0  0  0
 54 55  2  0  0  0
 54128  1  0  0  0
 55 57  1  0  0  0
 55129  1  0  0  0
 56 69  2  0  0  0
 57 58  2  0  0  0
 57130  1  0  0  0
 58131  1  0  0  0
 59 60  1  0  0  0
 59 61  1  0  0  0
 59 62  1  0  0  0
 60132  1  0  0  0
 60133  1  0  0  0
 60134  1  0  0  0
 61135  1  0  0  0
 61136  1  0  0  0
 61137  1  0  0  0
 62138  1  0  0  0
 62139  1  0  0  0
 62140  1  0  0  0
 63 65  1  0  0  0
 63141  1  0  0  0
 63142  1  0  0  0
 63143  1  0  0  0
 64144  1  0  0  0
 65145  1  0  0  0
 68 79  1  0  0  0
 71 73  2  0  0  0
 71 76  1  0  0  0
 71146  1  0  0  0
 72 74  2  0  0  0
 72 75  1  0  0  0
 72147  1  0  0  0
 73 74  1  0  0  0
 73 77  1  0  0  0
 74 81  1  0  0  0
 75 76  2  0  0  0
 75 85  1  0  0  0
 76 86  1  0  0  0
 77 82  1  0  0  0
 77 83  2  0  0  0
 78 79  1  0  0  0
 78 80  1  0  0  0
 78 84  2  0  0  0
 79148  1  0  0  0
 79149  1  0  0  0
 80 85  1  0  0  0
 80150  1  0  0  0
 80151  1  0  0  0
 81152  1  0  0  0
 81153  1  0  0  0
 82154  1  0  0  0
M  ISO  4   1 100  68 101  79 101  82 100
M  END
> <chiral flag>
0

> <version>
0

> <s_m_source_file>
/data/baiqing/PycharmProjects/Reinvent-master-3.2/result/LINK_invent/BTK/process_docking_weight1_custom_product_contain_oxygen_bond_distance_aromatic_linkinvent_7_9_3/rearranged_h_0099.sdf

> <i_m_source_file_index>
60

> <r_mmod_Potential_Energy-OPLS-2005>
38.7067070007324

> <r_mmod_Stretch_Energy-OPLS-2005>
39.5651359558105

> <r_mmod_Bend_Energy-OPLS-2005>
100.92455291748

> <r_mmod_Torsional_Energy-OPLS-2005>
276.123016357422

> <r_mmod_Improper_Torsional_Energy-OPLS-2005>
9.71816062927246

> <r_mmod_Van_der_Waal_Energy-OPLS-2005>
157.615631103516

> <r_mmod_Electrostatic_Energy-OPLS-2005>
-303.999908447266

> <r_mmod_Solvation_Energy-OPLS-2005>
-274.412780761719

> <b_mmod_Minimization_Converged-OPLS-2005>
0

> <r_mmod_RMS_Derivative-OPLS-2005>
6.30056762695312

$$$$
60
                    3D
 Structure written by MMmdl.
162170  0  0  1  0            999 V2000
  -30.5246  -14.9787   20.4145 C   0  0  0  0  0  0
  -30.4422  -12.6049   19.5190 C   0  0  0  0  0  0
  -29.5306  -12.5535   18.2694 C   0  0  0  0  0  0
  -28.0626  -12.3322   18.6775 C   0  0  0  0  0  0
  -27.6341  -13.2541   19.8497 C   0  0  2  0  0  0
  -28.6737  -13.2813   20.9913 C   0  0  0  0  0  0
  -25.2470  -13.8219   20.5733 C   0  0  0  0  0  0
  -24.1782  -13.0456   20.9259 C   0  0  0  0  0  0
  -24.6398  -11.6939   20.8771 C   0  0  0  0  0  0
  -23.9073  -10.4312   21.0414 C   0  0  0  0  0  0
  -24.3622   -9.4223   21.9193 C   0  0  0  0  0  0
  -23.6307   -8.2251   22.0748 C   0  0  0  0  0  0
  -22.4283   -8.0297   21.3546 C   0  0  0  0  0  0
  -21.9933   -9.0265   20.4632 C   0  0  0  0  0  0
  -22.7249  -10.2154   20.3050 C   0  0  0  0  0  0
  -21.6858   -6.0756   22.5283 C   0  0  0  0  0  0
  -21.4015   -6.5647   23.8220 C   0  0  0  0  0  0
  -21.3668   -5.6792   24.9178 C   0  0  0  0  0  0
  -21.6050   -4.3054   24.7224 C   0  0  0  0  0  0
  -21.8816   -3.8158   23.4340 C   0  0  0  0  0  0
  -21.9195   -4.6984   22.3406 C   0  0  0  0  0  0
  -22.7802  -13.5227   21.1917 C   0  0  0  0  0  0
  -22.1672   -4.2175   21.0982 F   0  0  0  0  0  0
  -21.5629   -3.4538   25.7737 F   0  0  0  0  0  0
  -29.9500  -13.7046   20.4025 N   0  0  0  0  0  0
  -26.2909  -12.9470   20.3279 N   0  0  0  0  0  0
  -25.9332  -11.6595   20.5740 N   0  0  0  0  0  0
  -22.0428  -12.8218   22.0444 N   0  0  0  0  0  0
  -25.4143  -15.1949   20.4145 N   0  0  0  0  0  0
  -31.7072  -15.0480   20.0645 O   0  0  0  0  0  0
  -21.6641   -6.8898   21.4240 O   0  0  0  0  0  0
  -22.3518  -14.5554   20.6770 O   0  0  0  0  0  0
  -24.6487  -31.8388   23.1854 C   0  0  0  0  0  0
  -25.9235  -32.4668   23.8278 C   0  0  1  0  0  0
  -27.2269  -27.1024   20.1611 C   0  0  0  0  0  0
  -25.5972  -33.8485   24.2195 N   0  0  0  0  0  0
  -23.4571  -30.4554   21.5303 C   0  0  2  0  0  0
  -24.9119  -28.8769   20.1097 C   0  0  0  0  0  0
  -22.7613  -29.4504   22.4841 C   0  0  0  0  0  0
  -18.0322  -28.1391   22.8474 C   0  0  0  0  0  0
  -24.1496  -36.7238   23.2632 C   0  0  0  0  0  0
  -26.0158  -30.7058   21.3884 C   0  0  0  0  0  0
  -26.0898  -29.3125   20.7303 C   0  0  0  0  0  0
  -27.2483  -28.4413   20.7361 C   0  0  0  0  0  0
  -26.0215  -26.7777   19.4981 C   0  0  0  0  0  0
  -24.8926  -27.6253   19.4763 C   0  0  0  0  0  0
  -23.6871  -29.7785   20.1525 C   0  0  0  0  0  0
  -25.4133  -36.3027   24.0301 C   0  0  1  0  0  0
  -20.5938  -28.3713   23.1217 C   0  0  2  0  0  0
  -20.6789  -26.9407   22.5399 C   0  0  0  0  0  0
  -19.5762  -26.6371   21.5207 C   0  0  0  0  0  0
  -18.1945  -26.7935   22.1622 C   0  0  0  0  0  0
  -19.1575  -28.8882   23.2839 C   0  0  0  0  0  0
  -18.9484  -30.1475   23.8871 C   0  0  0  0  0  0
  -17.6468  -30.6584   24.0552 C   0  0  0  0  0  0
  -25.9079  -34.9386   23.5059 C   0  0  0  0  0  0
  -16.5368  -29.9062   23.6334 C   0  0  0  0  0  0
  -16.7300  -28.6486   23.0357 C   0  0  0  0  0  0
  -26.4549  -31.6522   25.0713 C   0  0  0  0  0  0
  -25.3723  -31.3713   26.1404 C   0  0  0  0  0  0
  -27.0380  -30.2906   24.6306 C   0  0  0  0  0  0
  -27.6077  -32.4297   25.7500 C   0  0  0  0  0  0
  -27.5582  -37.1787   24.8458 C   0  0  0  0  0  0
  -21.4302  -29.3027   22.3593 N   0  0  0  0  0  0
  -26.4292  -37.3742   23.9398 N   0  0  0  0  0  0
  -24.7265  -31.0218   22.0896 N   0  0  0  0  0  0
  -23.4225  -28.8037   23.2998 O   0  0  0  0  0  0
  -28.2720  -26.0981   20.2355 O   0  0  0  0  0  0
  -26.5658  -34.8884   22.4637 O   0  0  0  0  0  0
  -23.5598  -32.1265   23.7058 O   0  0  0  0  0  0
  -29.9682  -18.9881   21.2834 C   0  0  0  0  0  0
  -30.8768  -18.6333   22.3415 C   0  0  0  0  0  0
  -29.3730  -20.4091   21.3776 C   0  0  0  0  0  0
  -30.8924  -19.3113   23.5763 C   0  0  0  0  0  0
  -29.2986  -20.9232   22.7105 C   0  0  0  0  0  0
  -30.0332  -20.3894   23.7808 C   0  0  0  0  0  0
  -31.9093  -17.5174   22.1765 C   0  0  0  0  0  0
  -28.7366  -21.5350   20.3310 C   0  0  0  0  0  0
  -29.8184  -17.7167   20.2316 C   0  0  0  0  0  0
  -29.0467  -23.2357   20.4048 C   0  0  0  0  0  0
  -27.9948  -24.5505   20.1291 C   0  0  0  0  0  0
  -31.7279  -18.9136   24.6272 N   0  0  0  0  0  0
  -28.4438  -21.9690   23.0768 N   0  0  0  0  0  0
  -29.9476  -20.9731   25.0502 N   0  0  0  0  0  0
  -29.7393  -16.1579   20.6262 N   0  0  0  0  0  0
  -31.4794  -12.7588   19.2181 H   0  0  0  0  0  0
  -30.4332  -11.6492   20.0454 H   0  0  0  0  0  0
  -29.8571  -11.7604   17.5958 H   0  0  0  0  0  0
  -29.6204  -13.4879   17.7114 H   0  0  0  0  0  0
  -27.9539  -11.2866   18.9677 H   0  0  0  0  0  0
  -27.4030  -12.4834   17.8230 H   0  0  0  0  0  0
  -27.5985  -14.2591   19.4284 H   0  0  0  0  0  0
  -28.7614  -12.3030   21.4652 H   0  0  0  0  0  0
  -28.3688  -13.9745   21.7756 H   0  0  0  0  0  0
  -25.2759   -9.5721   22.4780 H   0  0  0  0  0  0
  -24.0036   -7.4634   22.7449 H   0  0  0  0  0  0
  -21.0891   -8.8781   19.8911 H   0  0  0  0  0  0
  -22.3714  -10.9704   19.6165 H   0  0  0  0  0  0
  -21.2001   -7.6158   23.9745 H   0  0  0  0  0  0
  -21.1492   -6.0511   25.9090 H   0  0  0  0  0  0
  -22.0586   -2.7625   23.2820 H   0  0  0  0  0  0
  -22.4049  -11.9888   22.4859 H   0  0  0  0  0  0
  -21.1020  -13.1216   22.2568 H   0  0  0  0  0  0
  -24.6438  -15.8440   20.5198 H   0  0  0  0  0  0
  -26.2519  -15.6311   20.0522 H   0  0  0  0  0  0
  -26.7320  -32.5270   23.1031 H   0  0  0  0  0  0
  -25.0156  -33.9605   25.0369 H   0  0  0  0  0  0
  -22.7635  -31.2837   21.3676 H   0  0  0  0  0  0
  -23.3780  -35.9547   23.3289 H   0  0  0  0  0  0
  -24.3587  -36.8889   22.2049 H   0  0  0  0  0  0
  -23.7216  -37.6418   23.6685 H   0  0  0  0  0  0
  -26.1747  -31.4603   20.6169 H   0  0  0  0  0  0
  -26.8855  -30.7636   22.0314 H   0  0  0  0  0  0
  -28.1464  -28.7668   21.2424 H   0  0  0  0  0  0
  -25.9220  -25.8197   19.0108 H   0  0  0  0  0  0
  -23.9940  -27.2895   18.9778 H   0  0  0  0  0  0
  -23.8245  -30.5478   19.3922 H   0  0  0  0  0  0
  -22.8054  -29.2141   19.8441 H   0  0  0  0  0  0
  -25.1323  -36.1872   25.0791 H   0  0  0  0  0  0
  -21.0045  -28.3292   24.1327 H   0  0  0  0  0  0
  -20.5666  -26.2320   23.3616 H   0  0  0  0  0  0
  -21.6646  -26.7371   22.1201 H   0  0  0  0  0  0
  -19.6906  -25.6274   21.1243 H   0  0  0  0  0  0
  -19.6704  -27.3172   20.6728 H   0  0  0  0  0  0
  -17.4206  -26.6696   21.4026 H   0  0  0  0  0  0
  -18.0344  -26.0085   22.9031 H   0  0  0  0  0  0
  -19.7949  -30.7314   24.2231 H   0  0  0  0  0  0
  -17.5001  -31.6262   24.5148 H   0  0  0  0  0  0
  -15.5356  -30.2941   23.7664 H   0  0  0  0  0  0
  -15.8711  -28.0779   22.7083 H   0  0  0  0  0  0
  -24.5938  -30.7031   25.7718 H   0  0  0  0  0  0
  -24.8880  -32.2886   26.4781 H   0  0  0  0  0  0
  -25.8002  -30.8913   27.0211 H   0  0  0  0  0  0
  -26.2987  -29.6656   24.1272 H   0  0  0  0  0  0
  -27.8938  -30.4107   23.9656 H   0  0  0  0  0  0
  -27.3947  -29.7185   25.4884 H   0  0  0  0  0  0
  -27.2672  -33.3637   26.1974 H   0  0  0  0  0  0
  -28.3901  -32.6810   25.0324 H   0  0  0  0  0  0
  -28.0748  -31.8502   26.5486 H   0  0  0  0  0  0
  -28.2589  -38.0096   24.7537 H   0  0  0  0  0  0
  -28.1092  -36.2624   24.6271 H   0  0  0  0  0  0
  -27.2285  -37.1420   25.8856 H   0  0  0  0  0  0
  -20.9535  -29.8748   21.6768 H   0  0  0  0  0  0
  -26.0164  -38.2808   24.1450 H   0  0  0  0  0  0
  -32.1941  -17.3647   21.1384 H   0  0  0  0  0  0
  -31.5449  -16.5859   22.6072 H   0  0  0  0  0  0
  -32.8499  -17.7574   22.6682 H   0  0  0  0  0  0
  -27.6555  -21.4174   20.4208 H   0  0  0  0  0  0
  -28.9530  -21.1933   19.3200 H   0  0  0  0  0  0
  -28.9183  -17.9165   19.6488 H   0  0  0  0  0  0
  -30.6300  -17.8105   19.5091 H   0  0  0  0  0  0
  -29.8895  -23.3912   19.7323 H   0  0  0  0  0  0
  -29.4956  -23.4476   21.3724 H   0  0  0  0  0  0
  -27.1349  -24.3746   20.7756 H   0  0  0  0  0  0
  -27.6167  -24.3946   19.1196 H   0  0  0  0  0  0
  -32.4705  -18.2744   24.3769 H   0  0  0  0  0  0
  -32.0835  -19.6692   25.1989 H   0  0  0  0  0  0
  -27.5884  -22.0551   22.5441 H   0  0  0  0  0  0
  -28.2710  -21.9546   24.0774 H   0  0  0  0  0  0
  -30.6496  -20.6267   25.6894 H   0  0  0  0  0  0
  -29.9148  -21.9845   25.0243 H   0  0  0  0  0  0
  -28.8202  -15.9160   20.9649 H   0  0  0  0  0  0
  1 25  1  0  0  0
  1 30  2  0  0  0
  1 85  1  0  0  0
  2  3  1  0  0  0
  2 25  1  0  0  0
  2 86  1  0  0  0
  2 87  1  0  0  0
  3  4  1  0  0  0
  3 88  1  0  0  0
  3 89  1  0  0  0
  4  5  1  0  0  0
  4 90  1  0  0  0
  4 91  1  0  0  0
  5  6  1  0  0  0
  5 26  1  0  0  0
  5 92  1  0  0  0
  6 25  1  0  0  0
  6 93  1  0  0  0
  6 94  1  0  0  0
  7  8  2  0  0  0
  7 26  1  0  0  0
  7 29  1  0  0  0
  8  9  1  0  0  0
  8 22  1  0  0  0
  9 10  1  0  0  0
  9 27  2  0  0  0
 10 11  2  0  0  0
 10 15  1  0  0  0
 11 12  1  0  0  0
 11 95  1  0  0  0
 12 13  2  0  0  0
 12 96  1  0  0  0
 13 14  1  0  0  0
 13 31  1  0  0  0
 14 15  2  0  0  0
 14 97  1  0  0  0
 15 98  1  0  0  0
 16 17  2  0  0  0
 16 21  1  0  0  0
 16 31  1  0  0  0
 17 18  1  0  0  0
 17 99  1  0  0  0
 18 19  2  0  0  0
 18100  1  0  0  0
 19 20  1  0  0  0
 19 24  1  0  0  0
 20 21  2  0  0  0
 20101  1  0  0  0
 21 23  1  0  0  0
 22 28  1  0  0  0
 22 32  2  0  0  0
 26 27  1  0  0  0
 28102  1  0  0  0
 28103  1  0  0  0
 29104  1  0  0  0
 29105  1  0  0  0
 33 34  1  0  0  0
 33 66  1  0  0  0
 33 70  2  0  0  0
 34 36  1  0  0  0
 34 59  1  0  0  0
 34106  1  0  0  0
 35 44  2  0  0  0
 35 45  1  0  0  0
 35 68  1  0  0  0
 36 56  1  0  0  0
 36107  1  0  0  0
 37 39  1  0  0  0
 37 47  1  0  0  0
 37 66  1  0  0  0
 37108  1  0  0  0
 38 43  2  0  0  0
 38 46  1  0  0  0
 38 47  1  0  0  0
 39 64  1  0  0  0
 39 67  2  0  0  0
 40 52  1  0  0  0
 40 53  2  0  0  0
 40 58  1  0  0  0
 41109  1  0  0  0
 41110  1  0  0  0
 41111  1  0  0  0
 41 48  1  0  0  0
 42 43  1  0  0  0
 42 66  1  0  0  0
 42112  1  0  0  0
 42113  1  0  0  0
 43 44  1  0  0  0
 44114  1  0  0  0
 45 46  2  0  0  0
 45115  1  0  0  0
 46116  1  0  0  0
 47117  1  0  0  0
 47118  1  0  0  0
 48 56  1  0  0  0
 48 65  1  0  0  0
 48119  1  0  0  0
 49 50  1  0  0  0
 49 53  1  0  0  0
 49 64  1  0  0  0
 49120  1  0  0  0
 50 51  1  0  0  0
 50121  1  0  0  0
 50122  1  0  0  0
 51 52  1  0  0  0
 51123  1  0  0  0
 51124  1  0  0  0
 52125  1  0  0  0
 52126  1  0  0  0
 53 54  1  0  0  0
 54 55  2  0  0  0
 54127  1  0  0  0
 55 57  1  0  0  0
 55128  1  0  0  0
 56 69  2  0  0  0
 57 58  2  0  0  0
 57129  1  0  0  0
 58130  1  0  0  0
 59 60  1  0  0  0
 59 61  1  0  0  0
 59 62  1  0  0  0
 60131  1  0  0  0
 60132  1  0  0  0
 60133  1  0  0  0
 61134  1  0  0  0
 61135  1  0  0  0
 61136  1  0  0  0
 62137  1  0  0  0
 62138  1  0  0  0
 62139  1  0  0  0
 63 65  1  0  0  0
 63140  1  0  0  0
 63141  1  0  0  0
 63142  1  0  0  0
 64143  1  0  0  0
 65144  1  0  0  0
 68 81  1  0  0  0
 71 72  2  0  0  0
 71 73  1  0  0  0
 71 79  1  0  0  0
 72 74  1  0  0  0
 72 77  1  0  0  0
 73 75  2  0  0  0
 73 78  1  0  0  0
 74 76  2  0  0  0
 74 82  1  0  0  0
 75 76  1  0  0  0
 75 83  1  0  0  0
 76 84  1  0  0  0
 77145  1  0  0  0
 77146  1  0  0  0
 77147  1  0  0  0
 78 80  1  0  0  0
 78148  1  0  0  0
 78149  1  0  0  0
 79 85  1  0  0  0
 79150  1  0  0  0
 79151  1  0  0  0
 80 81  1  0  0  0
 80152  1  0  0  0
 80153  1  0  0  0
 81154  1  0  0  0
 81155  1  0  0  0
 82156  1  0  0  0
 82157  1  0  0  0
 83158  1  0  0  0
 83159  1  0  0  0
 84160  1  0  0  0
 84161  1  0  0  0
 85162  1  0  0  0
M  ISO  4   1 100  68 101  81 101  85 100
M  END
> <chiral flag>
0

> <version>
0

> <s_m_source_file>
/data/baiqing/PycharmProjects/Reinvent-master-3.2/result/LINK_invent/BTK/process_docking_weight1_custom_product_contain_oxygen_bond_distance_aromatic_linkinvent_7_9_3/rearranged_h_0099.sdf

> <i_m_source_file_index>
61

> <r_mmod_Potential_Energy-OPLS-2005>
481.568511962891

> <r_mmod_Stretch_Energy-OPLS-2005>
348.178802490234

> <r_mmod_Bend_Energy-OPLS-2005>
326.844787597656

> <r_mmod_Torsional_Energy-OPLS-2005>
285.288940429688

> <r_mmod_Improper_Torsional_Energy-OPLS-2005>
19.7674541473389

> <r_mmod_Van_der_Waal_Energy-OPLS-2005>
175.315658569336

> <r_mmod_Electrostatic_Energy-OPLS-2005>
-663.169067382812

> <r_mmod_Solvation_Energy-OPLS-2005>
-228.623504638672

> <b_mmod_Minimization_Converged-OPLS-2005>
0

> <r_mmod_RMS_Derivative-OPLS-2005>
2.8277416229248

$$$$
61
                    3D
 Structure written by MMmdl.
155163  0  0  1  0            999 V2000
  -30.7569  -14.5054   20.5275 C   0  0  0  0  0  0
  -30.4155  -12.3241   19.4315 C   0  0  0  0  0  0
  -29.4886  -12.4805   18.2108 C   0  0  0  0  0  0
  -28.0157  -12.3498   18.6359 C   0  0  0  0  0  0
  -27.6587  -13.2214   19.8709 C   0  0  2  0  0  0
  -28.7089  -13.0718   20.9948 C   0  0  0  0  0  0
  -25.2576  -13.8168   20.5702 C   0  0  0  0  0  0
  -24.1829  -13.0421   20.9147 C   0  0  0  0  0  0
  -24.6410  -11.6911   20.8716 C   0  0  0  0  0  0
  -23.9077  -10.4299   21.0392 C   0  0  0  0  0  0
  -24.3649   -9.4221   21.9156 C   0  0  0  0  0  0
  -23.6324   -8.2254   22.0740 C   0  0  0  0  0  0
  -22.4302   -8.0284   21.3528 C   0  0  0  0  0  0
  -21.9925   -9.0265   20.4640 C   0  0  0  0  0  0
  -22.7243  -10.2150   20.3051 C   0  0  0  0  0  0
  -21.6861   -6.0743   22.5277 C   0  0  0  0  0  0
  -21.4016   -6.5648   23.8208 C   0  0  0  0  0  0
  -21.3671   -5.6803   24.9172 C   0  0  0  0  0  0
  -21.6054   -4.3062   24.7235 C   0  0  0  0  0  0
  -21.8828   -3.8152   23.4351 C   0  0  0  0  0  0
  -21.9203   -4.6967   22.3409 C   0  0  0  0  0  0
  -22.7869  -13.5220   21.1841 C   0  0  0  0  0  0
  -22.1662   -4.2146   21.0990 F   0  0  0  0  0  0
  -21.5646   -3.4549   25.7753 F   0  0  0  0  0  0
  -30.0313  -13.3542   20.4162 N   0  0  0  0  0  0
  -26.3033  -12.9381   20.3412 N   0  0  0  0  0  0
  -25.9352  -11.6519   20.5777 N   0  0  0  0  0  0
  -22.0542  -12.8178   22.0386 N   0  0  0  0  0  0
  -25.4263  -15.1877   20.4182 N   0  0  0  0  0  0
  -31.9156  -14.5504   20.1081 O   0  0  0  0  0  0
  -21.6641   -6.8892   21.4248 O   0  0  0  0  0  0
  -22.3557  -14.5565   20.6745 O   0  0  0  0  0  0
  -24.6166  -31.8666   23.2080 C   0  0  0  0  0  0
  -25.9039  -32.4815   23.8386 C   0  0  1  0  0  0
  -27.2283  -27.4074   20.1029 C   0  0  0  0  0  0
  -25.5889  -33.8617   24.2327 N   0  0  0  0  0  0
  -23.4071  -30.4892   21.5499 C   0  0  2  0  0  0
  -24.8545  -28.9557   20.1119 C   0  0  0  0  0  0
  -22.7436  -29.4641   22.4982 C   0  0  0  0  0  0
  -18.0274  -28.1376   22.8487 C   0  0  0  0  0  0
  -24.1486  -36.7309   23.2638 C   0  0  0  0  0  0
  -25.9380  -30.8267   21.3642 C   0  0  0  0  0  0
  -26.0176  -29.4600   20.7083 C   0  0  0  0  0  0
  -27.2114  -28.6960   20.6945 C   0  0  0  0  0  0
  -26.0507  -26.9319   19.4871 C   0  0  0  0  0  0
  -24.8681  -27.6940   19.4940 C   0  0  0  0  0  0
  -23.6160  -29.8240   20.1643 C   0  0  0  0  0  0
  -25.4104  -36.3114   24.0339 C   0  0  1  0  0  0
  -20.5871  -28.3667   23.1315 C   0  0  2  0  0  0
  -20.6765  -26.9406   22.5419 C   0  0  0  0  0  0
  -19.5747  -26.6387   21.5213 C   0  0  0  0  0  0
  -18.1924  -26.7919   22.1624 C   0  0  0  0  0  0
  -19.1526  -28.8837   23.2894 C   0  0  0  0  0  0
  -18.9450  -30.1437   23.8914 C   0  0  0  0  0  0
  -17.6451  -30.6582   24.0557 C   0  0  0  0  0  0
  -25.9037  -34.9475   23.5136 C   0  0  0  0  0  0
  -16.5342  -29.9082   23.6319 C   0  0  0  0  0  0
  -16.7259  -28.6495   23.0346 C   0  0  0  0  0  0
  -26.4464  -31.6595   25.0717 C   0  0  0  0  0  0
  -25.3727  -31.3687   26.1458 C   0  0  0  0  0  0
  -27.0281  -30.3031   24.6094 C   0  0  0  0  0  0
  -27.6054  -32.4302   25.7474 C   0  0  0  0  0  0
  -27.5579  -37.1806   24.8465 C   0  0  0  0  0  0
  -21.4161  -29.3022   22.3721 N   0  0  0  0  0  0
  -26.4295  -37.3790   23.9410 N   0  0  0  0  0  0
  -24.6727  -31.0741   22.0996 N   0  0  0  0  0  0
  -23.4195  -28.8196   23.3043 O   0  0  0  0  0  0
  -28.3631  -26.6145   20.1233 O   0  0  0  0  0  0
  -26.5614  -34.8925   22.4706 O   0  0  0  0  0  0
  -23.5349  -32.1428   23.7459 O   0  0  0  0  0  0
  -30.0468  -19.3513   20.6226 C   0  0  0  0  0  0
  -29.6810  -18.0496   21.1322 C   0  0  0  0  0  0
  -29.1137  -20.3544   20.7915 C   0  0  0  0  0  0
  -28.4428  -18.0697   21.7415 C   0  0  0  0  0  0
  -30.6323  -16.8777   21.0379 C   0  0  0  0  0  0
  -28.3816  -22.7054   20.4901 C   0  0  0  0  0  0
  -26.4982  -17.2977   23.0760 C   0  0  0  0  0  0
  -28.8403  -24.1057   19.9927 C   0  0  0  0  0  0
  -28.1914  -25.3120   20.7456 C   0  0  0  0  0  0
  -29.2543  -21.6665   20.4003 N   0  0  0  0  0  0
  -27.7763  -17.0406   22.4243 N   0  0  0  0  0  0
  -30.1004  -15.6269   20.9236 N   0  0  0  0  0  0
  -31.8467  -17.1147   21.0161 O   0  0  0  0  0  0
  -27.2341  -22.5773   20.9230 O   0  0  0  0  0  0
  -27.7227  -19.6700   21.6142 S   0  0  0  0  0  0
  -31.4566  -12.3965   19.1099 H   0  0  0  0  0  0
  -30.3146  -11.3301   19.8690 H   0  0  0  0  0  0
  -29.7269  -11.7241   17.4623 H   0  0  0  0  0  0
  -29.6556  -13.4468   17.7337 H   0  0  0  0  0  0
  -27.8417  -11.2980   18.8661 H   0  0  0  0  0  0
  -27.3565  -12.5889   17.7999 H   0  0  0  0  0  0
  -27.6828  -14.2601   19.5402 H   0  0  0  0  0  0
  -28.6917  -12.0594   21.4002 H   0  0  0  0  0  0
  -28.4807  -13.7313   21.8319 H   0  0  0  0  0  0
  -25.2816   -9.5693   22.4693 H   0  0  0  0  0  0
  -24.0042   -7.4663   22.7468 H   0  0  0  0  0  0
  -21.0838   -8.8819   19.8970 H   0  0  0  0  0  0
  -22.3704  -10.9705   19.6163 H   0  0  0  0  0  0
  -21.1978   -7.6148   23.9705 H   0  0  0  0  0  0
  -21.1490   -6.0530   25.9075 H   0  0  0  0  0  0
  -22.0581   -2.7606   23.2860 H   0  0  0  0  0  0
  -22.4156  -11.9797   22.4699 H   0  0  0  0  0  0
  -21.1192  -13.1226   22.2656 H   0  0  0  0  0  0
  -24.6718  -15.8376   20.6072 H   0  0  0  0  0  0
  -26.3219  -15.6461   20.3026 H   0  0  0  0  0  0
  -26.7119  -32.5527   23.1156 H   0  0  0  0  0  0
  -24.9988  -33.9782   25.0437 H   0  0  0  0  0  0
  -22.6959  -31.3066   21.4122 H   0  0  0  0  0  0
  -23.3749  -35.9644   23.3318 H   0  0  0  0  0  0
  -24.3576  -36.8901   22.2051 H   0  0  0  0  0  0
  -23.7248  -37.6519   23.6640 H   0  0  0  0  0  0
  -26.0525  -31.5954   20.5993 H   0  0  0  0  0  0
  -26.8253  -30.8800   21.9820 H   0  0  0  0  0  0
  -28.1102  -29.0788   21.1587 H   0  0  0  0  0  0
  -26.0426  -25.9638   19.0065 H   0  0  0  0  0  0
  -23.9739  -27.3056   19.0267 H   0  0  0  0  0  0
  -23.7233  -30.6011   19.4065 H   0  0  0  0  0  0
  -22.7390  -29.2452   19.8692 H   0  0  0  0  0  0
  -25.1282  -36.1974   25.0831 H   0  0  0  0  0  0
  -20.9947  -28.3229   24.1439 H   0  0  0  0  0  0
  -20.5677  -26.2274   23.3600 H   0  0  0  0  0  0
  -21.6635  -26.7448   22.1212 H   0  0  0  0  0  0
  -19.6922  -25.6308   21.1218 H   0  0  0  0  0  0
  -19.6686  -27.3218   20.6763 H   0  0  0  0  0  0
  -17.4193  -26.6656   21.4022 H   0  0  0  0  0  0
  -18.0333  -26.0064   22.9031 H   0  0  0  0  0  0
  -19.7926  -30.7238   24.2308 H   0  0  0  0  0  0
  -17.5006  -31.6266   24.5157 H   0  0  0  0  0  0
  -15.5346  -30.2985   23.7631 H   0  0  0  0  0  0
  -15.8660  -28.0808   22.7065 H   0  0  0  0  0  0
  -24.5912  -30.7026   25.7774 H   0  0  0  0  0  0
  -24.8900  -32.2835   26.4909 H   0  0  0  0  0  0
  -25.8071  -30.8842   27.0215 H   0  0  0  0  0  0
  -26.2821  -29.6816   24.1120 H   0  0  0  0  0  0
  -27.4015  -29.7233   25.4549 H   0  0  0  0  0  0
  -27.8682  -30.4336   23.9266 H   0  0  0  0  0  0
  -27.2685  -33.3584   26.2097 H   0  0  0  0  0  0
  -28.3834  -32.6885   25.0280 H   0  0  0  0  0  0
  -28.0762  -31.8397   26.5344 H   0  0  0  0  0  0
  -28.2605  -38.0095   24.7504 H   0  0  0  0  0  0
  -28.1071  -36.2626   24.6302 H   0  0  0  0  0  0
  -27.2299  -37.1466   25.8870 H   0  0  0  0  0  0
  -20.9341  -29.8703   21.6899 H   0  0  0  0  0  0
  -26.0186  -38.2867   24.1408 H   0  0  0  0  0  0
  -31.0067  -19.5013   20.1494 H   0  0  0  0  0  0
  -26.1573  -16.4046   23.6002 H   0  0  0  0  0  0
  -25.7289  -17.5750   22.3539 H   0  0  0  0  0  0
  -26.5901  -18.0949   23.8143 H   0  0  0  0  0  0
  -28.5899  -24.1682   18.9339 H   0  0  0  0  0  0
  -29.9263  -24.1780   20.0556 H   0  0  0  0  0  0
  -28.6411  -25.3772   21.7367 H   0  0  0  0  0  0
  -27.1398  -25.0988   20.9381 H   0  0  0  0  0  0
  -30.1469  -21.8969   19.9831 H   0  0  0  0  0  0
  -28.3108  -16.2899   22.8554 H   0  0  0  0  0  0
  -29.1070  -15.5530   21.0707 H   0  0  0  0  0  0
  1 25  1  0  0  0
  1 30  2  0  0  0
  1 82  1  0  0  0
  2  3  1  0  0  0
  2 25  1  0  0  0
  2 86  1  0  0  0
  2 87  1  0  0  0
  3  4  1  0  0  0
  3 88  1  0  0  0
  3 89  1  0  0  0
  4  5  1  0  0  0
  4 90  1  0  0  0
  4 91  1  0  0  0
  5  6  1  0  0  0
  5 26  1  0  0  0
  5 92  1  0  0  0
  6 25  1  0  0  0
  6 93  1  0  0  0
  6 94  1  0  0  0
  7  8  2  0  0  0
  7 26  1  0  0  0
  7 29  1  0  0  0
  8  9  1  0  0  0
  8 22  1  0  0  0
  9 10  1  0  0  0
  9 27  2  0  0  0
 10 11  2  0  0  0
 10 15  1  0  0  0
 11 12  1  0  0  0
 11 95  1  0  0  0
 12 13  2  0  0  0
 12 96  1  0  0  0
 13 14  1  0  0  0
 13 31  1  0  0  0
 14 15  2  0  0  0
 14 97  1  0  0  0
 15 98  1  0  0  0
 16 17  2  0  0  0
 16 21  1  0  0  0
 16 31  1  0  0  0
 17 18  1  0  0  0
 17 99  1  0  0  0
 18 19  2  0  0  0
 18100  1  0  0  0
 19 20  1  0  0  0
 19 24  1  0  0  0
 20 21  2  0  0  0
 20101  1  0  0  0
 21 23  1  0  0  0
 22 28  1  0  0  0
 22 32  2  0  0  0
 26 27  1  0  0  0
 28102  1  0  0  0
 28103  1  0  0  0
 29104  1  0  0  0
 29105  1  0  0  0
 33 34  1  0  0  0
 33 66  1  0  0  0
 33 70  2  0  0  0
 34 36  1  0  0  0
 34 59  1  0  0  0
 34106  1  0  0  0
 35 44  2  0  0  0
 35 45  1  0  0  0
 35 68  1  0  0  0
 36 56  1  0  0  0
 36107  1  0  0  0
 37 39  1  0  0  0
 37 47  1  0  0  0
 37 66  1  0  0  0
 37108  1  0  0  0
 38 43  2  0  0  0
 38 46  1  0  0  0
 38 47  1  0  0  0
 39 64  1  0  0  0
 39 67  2  0  0  0
 40 52  1  0  0  0
 40 53  2  0  0  0
 40 58  1  0  0  0
 41109  1  0  0  0
 41110  1  0  0  0
 41111  1  0  0  0
 41 48  1  0  0  0
 42 43  1  0  0  0
 42 66  1  0  0  0
 42112  1  0  0  0
 42113  1  0  0  0
 43 44  1  0  0  0
 44114  1  0  0  0
 45 46  2  0  0  0
 45115  1  0  0  0
 46116  1  0  0  0
 47117  1  0  0  0
 47118  1  0  0  0
 48 56  1  0  0  0
 48 65  1  0  0  0
 48119  1  0  0  0
 49 50  1  0  0  0
 49 53  1  0  0  0
 49 64  1  0  0  0
 49120  1  0  0  0
 50 51  1  0  0  0
 50121  1  0  0  0
 50122  1  0  0  0
 51 52  1  0  0  0
 51123  1  0  0  0
 51124  1  0  0  0
 52125  1  0  0  0
 52126  1  0  0  0
 53 54  1  0  0  0
 54 55  2  0  0  0
 54127  1  0  0  0
 55 57  1  0  0  0
 55128  1  0  0  0
 56 69  2  0  0  0
 57 58  2  0  0  0
 57129  1  0  0  0
 58130  1  0  0  0
 59 60  1  0  0  0
 59 61  1  0  0  0
 59 62  1  0  0  0
 60131  1  0  0  0
 60132  1  0  0  0
 60133  1  0  0  0
 61134  1  0  0  0
 61135  1  0  0  0
 61136  1  0  0  0
 62137  1  0  0  0
 62138  1  0  0  0
 62139  1  0  0  0
 63 65  1  0  0  0
 63140  1  0  0  0
 63141  1  0  0  0
 63142  1  0  0  0
 64143  1  0  0  0
 65144  1  0  0  0
 68 79  1  0  0  0
 71 72  1  0  0  0
 71 73  2  0  0  0
 71145  1  0  0  0
 72 74  2  0  0  0
 72 75  1  0  0  0
 73 80  1  0  0  0
 73 85  1  0  0  0
 74 81  1  0  0  0
 74 85  1  0  0  0
 75 82  1  0  0  0
 75 83  2  0  0  0
 76 78  1  0  0  0
 76 80  1  0  0  0
 76 84  2  0  0  0
 77 81  1  0  0  0
 77146  1  0  0  0
 77147  1  0  0  0
 77148  1  0  0  0
 78 79  1  0  0  0
 78149  1  0  0  0
 78150  1  0  0  0
 79151  1  0  0  0
 79152  1  0  0  0
 80153  1  0  0  0
 81154  1  0  0  0
 82155  1  0  0  0
M  ISO  4   1 100  68 101  79 101  82 100
M  END
> <chiral flag>
0

> <version>
0

> <s_m_source_file>
/data/baiqing/PycharmProjects/Reinvent-master-3.2/result/LINK_invent/BTK/process_docking_weight1_custom_product_contain_oxygen_bond_distance_aromatic_linkinvent_7_9_3/rearranged_h_0099.sdf

> <i_m_source_file_index>
62

> <r_mmod_Potential_Energy-OPLS-2005>
-68.9108047485352

> <r_mmod_Stretch_Energy-OPLS-2005>
46.5215492248535

> <r_mmod_Bend_Energy-OPLS-2005>
116.298515319824

> <r_mmod_Torsional_Energy-OPLS-2005>
224.134613037109

> <r_mmod_Improper_Torsional_Energy-OPLS-2005>
6.93174457550049

> <r_mmod_Van_der_Waal_Energy-OPLS-2005>
143.882019042969

> <r_mmod_Electrostatic_Energy-OPLS-2005>
-381.051147460938

> <r_mmod_Solvation_Energy-OPLS-2005>
-249.252777099609

> <b_mmod_Minimization_Converged-OPLS-2005>
0

> <r_mmod_RMS_Derivative-OPLS-2005>
2.5056312084198

$$$$
62
                    3D
 Structure written by MMmdl.
149157  0  0  1  0            999 V2000
  -30.5143  -14.8886   20.4683 C   0  0  0  0  0  0
  -30.4650  -12.5596   19.4773 C   0  0  0  0  0  0
  -29.5228  -12.5516   18.2453 C   0  0  0  0  0  0
  -28.0478  -12.3484   18.6528 C   0  0  0  0  0  0
  -27.6484  -13.2238   19.8687 C   0  0  2  0  0  0
  -28.7023  -13.0980   20.9875 C   0  0  0  0  0  0
  -25.2551  -13.8149   20.5731 C   0  0  0  0  0  0
  -24.1800  -13.0408   20.9149 C   0  0  0  0  0  0
  -24.6389  -11.6884   20.8718 C   0  0  0  0  0  0
  -23.9057  -10.4274   21.0388 C   0  0  0  0  0  0
  -24.3604   -9.4197   21.9176 C   0  0  0  0  0  0
  -23.6279   -8.2239   22.0752 C   0  0  0  0  0  0
  -22.4264   -8.0278   21.3541 C   0  0  0  0  0  0
  -21.9895   -9.0244   20.4644 C   0  0  0  0  0  0
  -22.7221  -10.2122   20.3046 C   0  0  0  0  0  0
  -21.6852   -6.0732   22.5274 C   0  0  0  0  0  0
  -21.4009   -6.5637   23.8206 C   0  0  0  0  0  0
  -21.3658   -5.6791   24.9171 C   0  0  0  0  0  0
  -21.6043   -4.3055   24.7223 C   0  0  0  0  0  0
  -21.8820   -3.8143   23.4344 C   0  0  0  0  0  0
  -21.9188   -4.6958   22.3397 C   0  0  0  0  0  0
  -22.7827  -13.5213   21.1823 C   0  0  0  0  0  0
  -22.1659   -4.2143   21.0973 F   0  0  0  0  0  0
  -21.5631   -3.4540   25.7735 F   0  0  0  0  0  0
  -29.9772  -13.5949   20.4342 N   0  0  0  0  0  0
  -26.2982  -12.9337   20.3389 N   0  0  0  0  0  0
  -25.9330  -11.6483   20.5764 N   0  0  0  0  0  0
  -22.0486  -12.8214   22.0399 N   0  0  0  0  0  0
  -25.4316  -15.1869   20.4266 N   0  0  0  0  0  0
  -31.6789  -15.0358   20.0735 O   0  0  0  0  0  0
  -21.6633   -6.8870   21.4235 O   0  0  0  0  0  0
  -22.3513  -14.5529   20.6690 O   0  0  0  0  0  0
  -24.6397  -31.8467   23.1909 C   0  0  0  0  0  0
  -25.9186  -32.4712   23.8279 C   0  0  1  0  0  0
  -27.2231  -27.1754   20.1386 C   0  0  0  0  0  0
  -25.5956  -33.8517   24.2200 N   0  0  0  0  0  0
  -23.4420  -30.4687   21.5360 C   0  0  2  0  0  0
  -24.8921  -28.9048   20.1081 C   0  0  0  0  0  0
  -22.7555  -29.4566   22.4864 C   0  0  0  0  0  0
  -18.0303  -28.1395   22.8483 C   0  0  0  0  0  0
  -24.1485  -36.7253   23.2644 C   0  0  0  0  0  0
  -25.9960  -30.7321   21.3865 C   0  0  0  0  0  0
  -26.0680  -29.3476   20.7279 C   0  0  0  0  0  0
  -27.2329  -28.4971   20.7319 C   0  0  0  0  0  0
  -26.0214  -26.8327   19.4751 C   0  0  0  0  0  0
  -24.8795  -27.6584   19.4693 C   0  0  0  0  0  0
  -23.6659  -29.8003   20.1533 C   0  0  0  0  0  0
  -25.4119  -36.3040   24.0317 C   0  0  1  0  0  0
  -20.5913  -28.3714   23.1240 C   0  0  2  0  0  0
  -20.6783  -26.9421   22.5403 C   0  0  0  0  0  0
  -19.5754  -26.6377   21.5216 C   0  0  0  0  0  0
  -18.1938  -26.7932   22.1625 C   0  0  0  0  0  0
  -19.1561  -28.8873   23.2851 C   0  0  0  0  0  0
  -18.9482  -30.1476   23.8867 C   0  0  0  0  0  0
  -17.6480  -30.6591   24.0566 C   0  0  0  0  0  0
  -25.9069  -34.9419   23.5060 C   0  0  0  0  0  0
  -16.5367  -29.9086   23.6346 C   0  0  0  0  0  0
  -16.7288  -28.6510   23.0359 C   0  0  0  0  0  0
  -26.4519  -31.6572   25.0705 C   0  0  0  0  0  0
  -25.3717  -31.3768   26.1417 C   0  0  0  0  0  0
  -27.0388  -30.2970   24.6274 C   0  0  0  0  0  0
  -27.6050  -32.4349   25.7485 C   0  0  0  0  0  0
  -27.5570  -37.1785   24.8474 C   0  0  0  0  0  0
  -21.4247  -29.3051   22.3618 N   0  0  0  0  0  0
  -26.4281  -37.3757   23.9419 N   0  0  0  0  0  0
  -24.7124  -31.0364   22.0926 N   0  0  0  0  0  0
  -23.4215  -28.8102   23.2993 O   0  0  0  0  0  0
  -28.2796  -26.2028   20.2170 O   0  0  0  0  0  0
  -26.5652  -34.8922   22.4634 O   0  0  0  0  0  0
  -23.5521  -32.1323   23.7152 O   0  0  0  0  0  0
  -28.9185  -18.2791   19.4513 C   0  0  0  0  0  0
  -28.6473  -19.6872   19.2767 C   0  0  0  0  0  0
  -30.0084  -20.1999   21.1373 C   0  0  0  0  0  0
  -29.7166  -17.7279   20.5026 C   0  0  0  0  0  0
  -29.1414  -20.7308   20.1242 C   0  0  0  0  0  0
  -30.2730  -18.7764   21.3232 C   0  0  0  0  0  0
  -29.5912  -16.1891   20.9196 C   0  0  0  0  0  0
  -28.9296  -23.4617   20.3674 C   0  0  0  0  0  0
  -27.9802  -24.7215   19.9047 C   0  0  0  0  0  0
  -28.5988  -16.0043   21.6848 N   0  0  0  0  0  0
  -28.6551  -22.1581   19.9104 N   0  0  0  0  0  0
  -29.8796  -23.6759   21.1248 O   0  0  0  0  0  0
  -31.0267  -18.4177   22.3911 F   0  0  0  0  0  0
  -31.4883  -12.7533   19.1536 H   0  0  0  0  0  0
  -30.4934  -11.5758   19.9487 H   0  0  0  0  0  0
  -29.8268  -11.7745   17.5427 H   0  0  0  0  0  0
  -29.6209  -13.4982   17.7116 H   0  0  0  0  0  0
  -27.9127  -11.2942   18.8987 H   0  0  0  0  0  0
  -27.3882  -12.5503   17.8079 H   0  0  0  0  0  0
  -27.6517  -14.2565   19.5220 H   0  0  0  0  0  0
  -28.7951  -12.0536   21.2884 H   0  0  0  0  0  0
  -28.4053  -13.6005   21.9044 H   0  0  0  0  0  0
  -25.2754   -9.5678   22.4752 H   0  0  0  0  0  0
  -23.9986   -7.4633   22.7480 H   0  0  0  0  0  0
  -21.0826   -8.8756   19.8957 H   0  0  0  0  0  0
  -22.3671  -10.9658   19.6157 H   0  0  0  0  0  0
  -21.1998   -7.6148   23.9703 H   0  0  0  0  0  0
  -21.1481   -6.0526   25.9068 H   0  0  0  0  0  0
  -22.0598   -2.7607   23.2844 H   0  0  0  0  0  0
  -22.4111  -11.9869   22.4762 H   0  0  0  0  0  0
  -21.1118  -13.1249   22.2645 H   0  0  0  0  0  0
  -24.6932  -15.8558   20.6136 H   0  0  0  0  0  0
  -26.3472  -15.6129   20.3387 H   0  0  0  0  0  0
  -26.7252  -32.5330   23.1013 H   0  0  0  0  0  0
  -25.0132  -33.9643   25.0362 H   0  0  0  0  0  0
  -22.7442  -31.2938   21.3838 H   0  0  0  0  0  0
  -23.3758  -35.9576   23.3303 H   0  0  0  0  0  0
  -24.3578  -36.8880   22.2061 H   0  0  0  0  0  0
  -23.7230  -37.6443   23.6681 H   0  0  0  0  0  0
  -26.1514  -31.4878   20.6149 H   0  0  0  0  0  0
  -26.8674  -30.7786   22.0279 H   0  0  0  0  0  0
  -28.1247  -28.8297   21.2430 H   0  0  0  0  0  0
  -25.9209  -25.8861   18.9667 H   0  0  0  0  0  0
  -23.9828  -27.3167   18.9697 H   0  0  0  0  0  0
  -23.7965  -30.5756   19.3975 H   0  0  0  0  0  0
  -22.7835  -29.2376   19.8437 H   0  0  0  0  0  0
  -25.1302  -36.1867   25.0808 H   0  0  0  0  0  0
  -21.0011  -28.3296   24.1360 H   0  0  0  0  0  0
  -20.5683  -26.2328   23.3618 H   0  0  0  0  0  0
  -21.6647  -26.7430   22.1193 H   0  0  0  0  0  0
  -19.6915  -25.6287   21.1252 H   0  0  0  0  0  0
  -19.6686  -27.3188   20.6746 H   0  0  0  0  0  0
  -17.4205  -26.6692   21.4030 H   0  0  0  0  0  0
  -18.0331  -26.0075   22.9016 H   0  0  0  0  0  0
  -19.7962  -30.7307   24.2206 H   0  0  0  0  0  0
  -17.5036  -31.6271   24.5173 H   0  0  0  0  0  0
  -15.5372  -30.2981   23.7695 H   0  0  0  0  0  0
  -15.8685  -28.0830   22.7081 H   0  0  0  0  0  0
  -24.5887  -30.7126   25.7745 H   0  0  0  0  0  0
  -24.8923  -32.2958   26.4796 H   0  0  0  0  0  0
  -25.7996  -30.8968   27.0222 H   0  0  0  0  0  0
  -26.2996  -29.6702   24.1276 H   0  0  0  0  0  0
  -27.4010  -29.7270   25.4836 H   0  0  0  0  0  0
  -27.8900  -30.4221   23.9580 H   0  0  0  0  0  0
  -27.2640  -33.3687   26.1972 H   0  0  0  0  0  0
  -28.3897  -32.6851   25.0330 H   0  0  0  0  0  0
  -28.0673  -31.8533   26.5472 H   0  0  0  0  0  0
  -28.2586  -38.0082   24.7514 H   0  0  0  0  0  0
  -28.1054  -36.2611   24.6292 H   0  0  0  0  0  0
  -27.2289  -37.1417   25.8876 H   0  0  0  0  0  0
  -20.9448  -29.8791   21.6826 H   0  0  0  0  0  0
  -26.0138  -38.2818   24.1436 H   0  0  0  0  0  0
  -28.4078  -17.5894   18.7944 H   0  0  0  0  0  0
  -27.9785  -19.9593   18.4713 H   0  0  0  0  0  0
  -30.4430  -20.8881   21.8466 H   0  0  0  0  0  0
  -27.0100  -24.4870   20.3437 H   0  0  0  0  0  0
  -27.8563  -24.6369   18.8249 H   0  0  0  0  0  0
  -28.1163  -16.8731   21.8792 H   0  0  0  0  0  0
  -27.8889  -22.1958   19.2516 H   0  0  0  0  0  0
  1 25  1  0  0  0
  1 30  2  0  0  0
  1 77  1  0  0  0
  2  3  1  0  0  0
  2 25  1  0  0  0
  2 84  1  0  0  0
  2 85  1  0  0  0
  3  4  1  0  0  0
  3 86  1  0  0  0
  3 87  1  0  0  0
  4  5  1  0  0  0
  4 88  1  0  0  0
  4 89  1  0  0  0
  5  6  1  0  0  0
  5 26  1  0  0  0
  5 90  1  0  0  0
  6 25  1  0  0  0
  6 91  1  0  0  0
  6 92  1  0  0  0
  7  8  2  0  0  0
  7 26  1  0  0  0
  7 29  1  0  0  0
  8  9  1  0  0  0
  8 22  1  0  0  0
  9 10  1  0  0  0
  9 27  2  0  0  0
 10 11  2  0  0  0
 10 15  1  0  0  0
 11 12  1  0  0  0
 11 93  1  0  0  0
 12 13  2  0  0  0
 12 94  1  0  0  0
 13 14  1  0  0  0
 13 31  1  0  0  0
 14 15  2  0  0  0
 14 95  1  0  0  0
 15 96  1  0  0  0
 16 17  2  0  0  0
 16 21  1  0  0  0
 16 31  1  0  0  0
 17 18  1  0  0  0
 17 97  1  0  0  0
 18 19  2  0  0  0
 18 98  1  0  0  0
 19 20  1  0  0  0
 19 24  1  0  0  0
 20 21  2  0  0  0
 20 99  1  0  0  0
 21 23  1  0  0  0
 22 28  1  0  0  0
 22 32  2  0  0  0
 26 27  1  0  0  0
 28100  1  0  0  0
 28101  1  0  0  0
 29102  1  0  0  0
 29103  1  0  0  0
 33 34  1  0  0  0
 33 66  1  0  0  0
 33 70  2  0  0  0
 34 36  1  0  0  0
 34 59  1  0  0  0
 34104  1  0  0  0
 35 44  2  0  0  0
 35 45  1  0  0  0
 35 68  1  0  0  0
 36 56  1  0  0  0
 36105  1  0  0  0
 37 39  1  0  0  0
 37 47  1  0  0  0
 37 66  1  0  0  0
 37106  1  0  0  0
 38 43  2  0  0  0
 38 46  1  0  0  0
 38 47  1  0  0  0
 39 64  1  0  0  0
 39 67  2  0  0  0
 40 52  1  0  0  0
 40 53  2  0  0  0
 40 58  1  0  0  0
 41107  1  0  0  0
 41108  1  0  0  0
 41109  1  0  0  0
 41 48  1  0  0  0
 42 43  1  0  0  0
 42 66  1  0  0  0
 42110  1  0  0  0
 42111  1  0  0  0
 43 44  1  0  0  0
 44112  1  0  0  0
 45 46  2  0  0  0
 45113  1  0  0  0
 46114  1  0  0  0
 47115  1  0  0  0
 47116  1  0  0  0
 48 56  1  0  0  0
 48 65  1  0  0  0
 48117  1  0  0  0
 49 50  1  0  0  0
 49 53  1  0  0  0
 49 64  1  0  0  0
 49118  1  0  0  0
 50 51  1  0  0  0
 50119  1  0  0  0
 50120  1  0  0  0
 51 52  1  0  0  0
 51121  1  0  0  0
 51122  1  0  0  0
 52123  1  0  0  0
 52124  1  0  0  0
 53 54  1  0  0  0
 54 55  2  0  0  0
 54125  1  0  0  0
 55 57  1  0  0  0
 55126  1  0  0  0
 56 69  2  0  0  0
 57 58  2  0  0  0
 57127  1  0  0  0
 58128  1  0  0  0
 59 60  1  0  0  0
 59 61  1  0  0  0
 59 62  1  0  0  0
 60129  1  0  0  0
 60130  1  0  0  0
 60131  1  0  0  0
 61132  1  0  0  0
 61133  1  0  0  0
 61134  1  0  0  0
 62135  1  0  0  0
 62136  1  0  0  0
 62137  1  0  0  0
 63 65  1  0  0  0
 63138  1  0  0  0
 63139  1  0  0  0
 63140  1  0  0  0
 64141  1  0  0  0
 65142  1  0  0  0
 68 79  1  0  0  0
 71 72  2  0  0  0
 71 74  1  0  0  0
 71143  1  0  0  0
 72 75  1  0  0  0
 72144  1  0  0  0
 73 75  2  0  0  0
 73 76  1  0  0  0
 73145  1  0  0  0
 74 76  2  0  0  0
 74 77  1  0  0  0
 75 81  1  0  0  0
 76 83  1  0  0  0
 77 80  2  0  0  0
 78 79  1  0  0  0
 78 81  1  0  0  0
 78 82  2  0  0  0
 79146  1  0  0  0
 79147  1  0  0  0
 80148  1  0  0  0
 81149  1  0  0  0
M  ISO  4   1 100  68 101  77 100  79 101
M  END
> <chiral flag>
0

> <version>
0

> <s_m_source_file>
/data/baiqing/PycharmProjects/Reinvent-master-3.2/result/LINK_invent/BTK/process_docking_weight1_custom_product_contain_oxygen_bond_distance_aromatic_linkinvent_7_9_3/rearranged_h_0099.sdf

> <i_m_source_file_index>
63

> <r_mmod_Potential_Energy-OPLS-2005>
530.817321777344

> <r_mmod_Stretch_Energy-OPLS-2005>
213.108108520508

> <r_mmod_Bend_Energy-OPLS-2005>
255.599899291992

> <r_mmod_Torsional_Energy-OPLS-2005>
224.767272949219

> <r_mmod_Improper_Torsional_Energy-OPLS-2005>
7.35699939727783

> <r_mmod_Van_der_Waal_Energy-OPLS-2005>
141.823883056641

> <r_mmod_Electrostatic_Energy-OPLS-2005>
-225.215377807617

> <r_mmod_Solvation_Energy-OPLS-2005>
-238.698486328125

> <b_mmod_Minimization_Converged-OPLS-2005>
0

> <r_mmod_RMS_Derivative-OPLS-2005>
1.44469618797302

$$$$
63
                    3D
 Structure written by MMmdl.
153161  0  0  1  0            999 V2000
  -30.6137  -14.6518   20.5187 C   0  0  0  0  0  0
  -30.4439  -12.4029   19.4578 C   0  0  0  0  0  0
  -29.5128  -12.5159   18.2290 C   0  0  0  0  0  0
  -28.0367  -12.3438   18.6406 C   0  0  0  0  0  0
  -27.6575  -13.2145   19.8687 C   0  0  2  0  0  0
  -28.7003  -13.0632   21.0000 C   0  0  0  0  0  0
  -25.2583  -13.8163   20.5687 C   0  0  0  0  0  0
  -24.1841  -13.0438   20.9176 C   0  0  0  0  0  0
  -24.6404  -11.6906   20.8735 C   0  0  0  0  0  0
  -23.9071  -10.4293   21.0405 C   0  0  0  0  0  0
  -24.3621   -9.4208   21.9186 C   0  0  0  0  0  0
  -23.6294   -8.2246   22.0755 C   0  0  0  0  0  0
  -22.4277   -8.0283   21.3547 C   0  0  0  0  0  0
  -21.9914   -9.0259   20.4650 C   0  0  0  0  0  0
  -22.7242  -10.2136   20.3058 C   0  0  0  0  0  0
  -21.6855   -6.0739   22.5281 C   0  0  0  0  0  0
  -21.4013   -6.5643   23.8213 C   0  0  0  0  0  0
  -21.3660   -5.6795   24.9177 C   0  0  0  0  0  0
  -21.6044   -4.3058   24.7227 C   0  0  0  0  0  0
  -21.8819   -3.8149   23.4349 C   0  0  0  0  0  0
  -21.9191   -4.6967   22.3404 C   0  0  0  0  0  0
  -22.7865  -13.5238   21.1844 C   0  0  0  0  0  0
  -22.1660   -4.2153   21.0982 F   0  0  0  0  0  0
  -21.5629   -3.4540   25.7739 F   0  0  0  0  0  0
  -30.0171  -13.4179   20.4438 N   0  0  0  0  0  0
  -26.3014  -12.9342   20.3339 N   0  0  0  0  0  0
  -25.9337  -11.6499   20.5768 N   0  0  0  0  0  0
  -22.0504  -12.8235   22.0399 N   0  0  0  0  0  0
  -25.4308  -15.1884   20.4111 N   0  0  0  0  0  0
  -31.7507  -14.8424   20.0752 O   0  0  0  0  0  0
  -21.6640   -6.8883   21.4244 O   0  0  0  0  0  0
  -22.3557  -14.5550   20.6693 O   0  0  0  0  0  0
  -24.6269  -31.8586   23.2032 C   0  0  0  0  0  0
  -25.9116  -32.4768   23.8361 C   0  0  1  0  0  0
  -27.2254  -27.3123   20.1162 C   0  0  0  0  0  0
  -25.5933  -33.8571   24.2284 N   0  0  0  0  0  0
  -23.4210  -30.4840   21.5448 C   0  0  2  0  0  0
  -24.8686  -28.9411   20.1090 C   0  0  0  0  0  0
  -22.7476  -29.4617   22.4923 C   0  0  0  0  0  0
  -18.0287  -28.1372   22.8493 C   0  0  0  0  0  0
  -24.1494  -36.7290   23.2636 C   0  0  0  0  0  0
  -25.9638  -30.7881   21.3769 C   0  0  0  0  0  0
  -26.0375  -29.4158   20.7170 C   0  0  0  0  0  0
  -27.2176  -28.6123   20.7131 C   0  0  0  0  0  0
  -26.0345  -26.8998   19.4733 C   0  0  0  0  0  0
  -24.8692  -27.6885   19.4785 C   0  0  0  0  0  0
  -23.6368  -29.8214   20.1593 C   0  0  0  0  0  0
  -25.4117  -36.3074   24.0325 C   0  0  1  0  0  0
  -20.5889  -28.3682   23.1277 C   0  0  2  0  0  0
  -20.6772  -26.9404   22.5406 C   0  0  0  0  0  0
  -19.5745  -26.6380   21.5210 C   0  0  0  0  0  0
  -18.1927  -26.7919   22.1625 C   0  0  0  0  0  0
  -19.1540  -28.8844   23.2884 C   0  0  0  0  0  0
  -18.9459  -30.1447   23.8899 C   0  0  0  0  0  0
  -17.6457  -30.6577   24.0562 C   0  0  0  0  0  0
  -25.9051  -34.9443   23.5103 C   0  0  0  0  0  0
  -16.5349  -29.9074   23.6330 C   0  0  0  0  0  0
  -16.7274  -28.6490   23.0357 C   0  0  0  0  0  0
  -26.4514  -31.6576   25.0724 C   0  0  0  0  0  0
  -25.3755  -31.3705   26.1454 C   0  0  0  0  0  0
  -27.0357  -30.2996   24.6178 C   0  0  0  0  0  0
  -27.6070  -32.4311   25.7501 C   0  0  0  0  0  0
  -27.5578  -37.1797   24.8461 C   0  0  0  0  0  0
  -21.4186  -29.3036   22.3666 N   0  0  0  0  0  0
  -26.4292  -37.3770   23.9404 N   0  0  0  0  0  0
  -24.6892  -31.0601   22.0982 N   0  0  0  0  0  0
  -23.4201  -28.8150   23.2998 O   0  0  0  0  0  0
  -28.3396  -26.4537   20.1816 O   0  0  0  0  0  0
  -26.5615  -34.8910   22.4667 O   0  0  0  0  0  0
  -23.5431  -32.1383   23.7360 O   0  0  0  0  0  0
  -29.8950  -17.8854   19.7459 C   0  0  0  0  0  0
  -29.7833  -19.3177   19.7475 C   0  0  0  0  0  0
  -29.8296  -17.8792   22.1506 C   0  0  0  0  0  0
  -29.9199  -17.1260   20.9518 C   0  0  0  0  0  0
  -29.7518  -19.3020   22.1532 C   0  0  0  0  0  0
  -29.7131  -20.0670   20.9565 C   0  0  0  0  0  0
  -29.1712  -23.9352   20.5236 C   0  0  0  0  0  0
  -28.1409  -24.9997   19.9368 C   0  0  0  0  0  0
  -28.9791  -22.3820   20.1735 C   0  0  0  0  0  0
  -29.6874  -19.9810   23.3697 N   0  0  0  0  0  0
  -29.8351  -15.6645   21.0163 N   0  0  0  0  0  0
  -29.6866  -21.4764   21.0794 O   0  0  0  0  0  0
  -31.4851  -12.5331   19.1573 H   0  0  0  0  0  0
  -30.3836  -11.4058   19.8963 H   0  0  0  0  0  0
  -29.7820  -11.7696   17.4804 H   0  0  0  0  0  0
  -29.6485  -13.4880   17.7526 H   0  0  0  0  0  0
  -27.8810  -11.2898   18.8748 H   0  0  0  0  0  0
  -27.3806  -12.5667   17.7986 H   0  0  0  0  0  0
  -27.6789  -14.2512   19.5315 H   0  0  0  0  0  0
  -28.7167  -12.0377   21.3718 H   0  0  0  0  0  0
  -28.4370  -13.6807   21.8599 H   0  0  0  0  0  0
  -25.2769   -9.5684   22.4758 H   0  0  0  0  0  0
  -24.0001   -7.4641   22.7478 H   0  0  0  0  0  0
  -21.0843   -8.8786   19.8960 H   0  0  0  0  0  0
  -22.3706  -10.9679   19.6166 H   0  0  0  0  0  0
  -21.2005   -7.6150   23.9719 H   0  0  0  0  0  0
  -21.1483   -6.0525   25.9080 H   0  0  0  0  0  0
  -22.0595   -2.7611   23.2848 H   0  0  0  0  0  0
  -22.4115  -11.9894   22.4786 H   0  0  0  0  0  0
  -21.1128  -13.1276   22.2613 H   0  0  0  0  0  0
  -24.6656  -15.8448   20.5227 H   0  0  0  0  0  0
  -26.2869  -15.6291   20.0987 H   0  0  0  0  0  0
  -26.7189  -32.5446   23.1116 H   0  0  0  0  0  0
  -25.0098  -33.9732   25.0440 H   0  0  0  0  0  0
  -22.7144  -31.3043   21.4022 H   0  0  0  0  0  0
  -23.3750  -35.9630   23.3300 H   0  0  0  0  0  0
  -24.3590  -36.8906   22.2050 H   0  0  0  0  0  0
  -23.7259  -37.6496   23.6661 H   0  0  0  0  0  0
  -26.0977  -31.5529   20.6103 H   0  0  0  0  0  0
  -26.8434  -30.8349   22.0076 H   0  0  0  0  0  0
  -28.1124  -28.9695   21.2036 H   0  0  0  0  0  0
  -25.9734  -25.9484   18.9666 H   0  0  0  0  0  0
  -23.9751  -27.3199   18.9944 H   0  0  0  0  0  0
  -23.7562  -30.5986   19.4033 H   0  0  0  0  0  0
  -22.7576  -29.2501   19.8567 H   0  0  0  0  0  0
  -25.1301  -36.1922   25.0817 H   0  0  0  0  0  0
  -21.0000  -28.3263   24.1389 H   0  0  0  0  0  0
  -20.5664  -26.2295   23.3608 H   0  0  0  0  0  0
  -21.6641  -26.7419   22.1201 H   0  0  0  0  0  0
  -19.6901  -25.6296   21.1227 H   0  0  0  0  0  0
  -19.6674  -27.3202   20.6750 H   0  0  0  0  0  0
  -17.4193  -26.6672   21.4027 H   0  0  0  0  0  0
  -18.0321  -26.0055   22.9015 H   0  0  0  0  0  0
  -19.7936  -30.7262   24.2269 H   0  0  0  0  0  0
  -17.5009  -31.6260   24.5155 H   0  0  0  0  0  0
  -15.5348  -30.2972   23.7647 H   0  0  0  0  0  0
  -15.8676  -28.0804   22.7074 H   0  0  0  0  0  0
  -24.5951  -30.7026   25.7791 H   0  0  0  0  0  0
  -24.8931  -32.2865   26.4875 H   0  0  0  0  0  0
  -25.8099  -30.8900   27.0230 H   0  0  0  0  0  0
  -26.2929  -29.6738   24.1212 H   0  0  0  0  0  0
  -27.4060  -29.7257   25.4685 H   0  0  0  0  0  0
  -27.8806  -30.4274   23.9404 H   0  0  0  0  0  0
  -27.2678  -33.3611   26.2085 H   0  0  0  0  0  0
  -28.3891  -32.6865   25.0336 H   0  0  0  0  0  0
  -28.0733  -31.8424   26.5414 H   0  0  0  0  0  0
  -28.2587  -38.0101   24.7510 H   0  0  0  0  0  0
  -28.1079  -36.2627   24.6288 H   0  0  0  0  0  0
  -27.2293  -37.1450   25.8863 H   0  0  0  0  0  0
  -20.9344  -29.8783   21.6909 H   0  0  0  0  0  0
  -26.0163  -38.2839   24.1413 H   0  0  0  0  0  0
  -29.9260  -17.3690   18.7967 H   0  0  0  0  0  0
  -29.7696  -19.8394   18.8020 H   0  0  0  0  0  0
  -29.8122  -17.3509   23.0938 H   0  0  0  0  0  0
  -30.1792  -24.2237   20.2248 H   0  0  0  0  0  0
  -29.1493  -24.0346   21.6087 H   0  0  0  0  0  0
  -28.0758  -24.8525   18.8580 H   0  0  0  0  0  0
  -27.1726  -24.7085   20.3456 H   0  0  0  0  0  0
  -29.2952  -22.1986   19.1461 H   0  0  0  0  0  0
  -27.9188  -22.1313   20.2208 H   0  0  0  0  0  0
  -29.3915  -20.9509   23.3092 H   0  0  0  0  0  0
  -29.2757  -19.4992   24.1621 H   0  0  0  0  0  0
  -29.0110  -15.3168   21.4832 H   0  0  0  0  0  0
  1 25  1  0  0  0
  1 30  2  0  0  0
  1 81  1  0  0  0
  2  3  1  0  0  0
  2 25  1  0  0  0
  2 83  1  0  0  0
  2 84  1  0  0  0
  3  4  1  0  0  0
  3 85  1  0  0  0
  3 86  1  0  0  0
  4  5  1  0  0  0
  4 87  1  0  0  0
  4 88  1  0  0  0
  5  6  1  0  0  0
  5 26  1  0  0  0
  5 89  1  0  0  0
  6 25  1  0  0  0
  6 90  1  0  0  0
  6 91  1  0  0  0
  7  8  2  0  0  0
  7 26  1  0  0  0
  7 29  1  0  0  0
  8  9  1  0  0  0
  8 22  1  0  0  0
  9 10  1  0  0  0
  9 27  2  0  0  0
 10 11  2  0  0  0
 10 15  1  0  0  0
 11 12  1  0  0  0
 11 92  1  0  0  0
 12 13  2  0  0  0
 12 93  1  0  0  0
 13 14  1  0  0  0
 13 31  1  0  0  0
 14 15  2  0  0  0
 14 94  1  0  0  0
 15 95  1  0  0  0
 16 17  2  0  0  0
 16 21  1  0  0  0
 16 31  1  0  0  0
 17 18  1  0  0  0
 17 96  1  0  0  0
 18 19  2  0  0  0
 18 97  1  0  0  0
 19 20  1  0  0  0
 19 24  1  0  0  0
 20 21  2  0  0  0
 20 98  1  0  0  0
 21 23  1  0  0  0
 22 28  1  0  0  0
 22 32  2  0  0  0
 26 27  1  0  0  0
 28 99  1  0  0  0
 28100  1  0  0  0
 29101  1  0  0  0
 29102  1  0  0  0
 33 34  1  0  0  0
 33 66  1  0  0  0
 33 70  2  0  0  0
 34 36  1  0  0  0
 34 59  1  0  0  0
 34103  1  0  0  0
 35 44  2  0  0  0
 35 45  1  0  0  0
 35 68  1  0  0  0
 36 56  1  0  0  0
 36104  1  0  0  0
 37 39  1  0  0  0
 37 47  1  0  0  0
 37 66  1  0  0  0
 37105  1  0  0  0
 38 43  2  0  0  0
 38 46  1  0  0  0
 38 47  1  0  0  0
 39 64  1  0  0  0
 39 67  2  0  0  0
 40 52  1  0  0  0
 40 53  2  0  0  0
 40 58  1  0  0  0
 41106  1  0  0  0
 41107  1  0  0  0
 41108  1  0  0  0
 41 48  1  0  0  0
 42 43  1  0  0  0
 42 66  1  0  0  0
 42109  1  0  0  0
 42110  1  0  0  0
 43 44  1  0  0  0
 44111  1  0  0  0
 45 46  2  0  0  0
 45112  1  0  0  0
 46113  1  0  0  0
 47114  1  0  0  0
 47115  1  0  0  0
 48 56  1  0  0  0
 48 65  1  0  0  0
 48116  1  0  0  0
 49 50  1  0  0  0
 49 53  1  0  0  0
 49 64  1  0  0  0
 49117  1  0  0  0
 50 51  1  0  0  0
 50118  1  0  0  0
 50119  1  0  0  0
 51 52  1  0  0  0
 51120  1  0  0  0
 51121  1  0  0  0
 52122  1  0  0  0
 52123  1  0  0  0
 53 54  1  0  0  0
 54 55  2  0  0  0
 54124  1  0  0  0
 55 57  1  0  0  0
 55125  1  0  0  0
 56 69  2  0  0  0
 57 58  2  0  0  0
 57126  1  0  0  0
 58127  1  0  0  0
 59 60  1  0  0  0
 59 61  1  0  0  0
 59 62  1  0  0  0
 60128  1  0  0  0
 60129  1  0  0  0
 60130  1  0  0  0
 61131  1  0  0  0
 61132  1  0  0  0
 61133  1  0  0  0
 62134  1  0  0  0
 62135  1  0  0  0
 62136  1  0  0  0
 63 65  1  0  0  0
 63137  1  0  0  0
 63138  1  0  0  0
 63139  1  0  0  0
 64140  1  0  0  0
 65141  1  0  0  0
 68 78  1  0  0  0
 71 72  2  0  0  0
 71 74  1  0  0  0
 71142  1  0  0  0
 72 76  1  0  0  0
 72143  1  0  0  0
 73 74  2  0  0  0
 73 75  1  0  0  0
 73144  1  0  0  0
 74 81  1  0  0  0
 75 76  2  0  0  0
 75 80  1  0  0  0
 76 82  1  0  0  0
 77 78  1  0  0  0
 77 79  1  0  0  0
 77145  1  0  0  0
 77146  1  0  0  0
 78147  1  0  0  0
 78148  1  0  0  0
 79 82  1  0  0  0
 79149  1  0  0  0
 79150  1  0  0  0
 80151  1  0  0  0
 80152  1  0  0  0
 81153  1  0  0  0
M  ISO  4   1 100  68 101  78 101  81 100
M  END
> <chiral flag>
0

> <version>
0

> <s_m_source_file>
/data/baiqing/PycharmProjects/Reinvent-master-3.2/result/LINK_invent/BTK/process_docking_weight1_custom_product_contain_oxygen_bond_distance_aromatic_linkinvent_7_9_3/rearranged_h_0099.sdf

> <i_m_source_file_index>
64

> <r_mmod_Potential_Energy-OPLS-2005>
66.8887023925781

> <r_mmod_Stretch_Energy-OPLS-2005>
82.94677734375

> <r_mmod_Bend_Energy-OPLS-2005>
149.46403503418

> <r_mmod_Torsional_Energy-OPLS-2005>
245.477020263672

> <r_mmod_Improper_Torsional_Energy-OPLS-2005>
7.72417879104614

> <r_mmod_Van_der_Waal_Energy-OPLS-2005>
142.917083740234

> <r_mmod_Electrostatic_Energy-OPLS-2005>
-385.364990234375

> <r_mmod_Solvation_Energy-OPLS-2005>
-228.714752197266

> <b_mmod_Minimization_Converged-OPLS-2005>
0

> <r_mmod_RMS_Derivative-OPLS-2005>
0.953903317451477

$$$$
64
                    3D
 Structure written by MMmdl.
157165  0  0  1  0            999 V2000
  -30.6611  -14.6327   20.6008 C   0  0  0  0  0  0
  -30.4328  -12.4188   19.4528 C   0  0  0  0  0  0
  -29.5049  -12.5291   18.2232 C   0  0  0  0  0  0
  -28.0297  -12.3518   18.6305 C   0  0  0  0  0  0
  -27.6508  -13.2189   19.8585 C   0  0  2  0  0  0
  -28.6867  -13.0605   20.9867 C   0  0  0  0  0  0
  -25.2545  -13.8183   20.5663 C   0  0  0  0  0  0
  -24.1814  -13.0441   20.9167 C   0  0  0  0  0  0
  -24.6388  -11.6916   20.8712 C   0  0  0  0  0  0
  -23.9061  -10.4298   21.0385 C   0  0  0  0  0  0
  -24.3612   -9.4221   21.9174 C   0  0  0  0  0  0
  -23.6290   -8.2254   22.0753 C   0  0  0  0  0  0
  -22.4276   -8.0285   21.3540 C   0  0  0  0  0  0
  -21.9915   -9.0247   20.4625 C   0  0  0  0  0  0
  -22.7239  -10.2128   20.3024 C   0  0  0  0  0  0
  -21.6858   -6.0739   22.5274 C   0  0  0  0  0  0
  -21.4018   -6.5648   23.8206 C   0  0  0  0  0  0
  -21.3668   -5.6804   24.9169 C   0  0  0  0  0  0
  -21.6047   -4.3063   24.7223 C   0  0  0  0  0  0
  -21.8821   -3.8149   23.4348 C   0  0  0  0  0  0
  -21.9190   -4.6964   22.3403 C   0  0  0  0  0  0
  -22.7838  -13.5236   21.1845 C   0  0  0  0  0  0
  -22.1653   -4.2146   21.0980 F   0  0  0  0  0  0
  -21.5637   -3.4548   25.7737 F   0  0  0  0  0  0
  -30.0068  -13.4288   20.4496 N   0  0  0  0  0  0
  -26.2965  -12.9364   20.3267 N   0  0  0  0  0  0
  -25.9314  -11.6515   20.5710 N   0  0  0  0  0  0
  -22.0497  -12.8233   22.0424 N   0  0  0  0  0  0
  -25.4269  -15.1910   20.4121 N   0  0  0  0  0  0
  -31.7498  -14.8196   20.0463 O   0  0  0  0  0  0
  -21.6642   -6.8881   21.4237 O   0  0  0  0  0  0
  -22.3515  -14.5542   20.6703 O   0  0  0  0  0  0
  -24.6266  -31.8590   23.2008 C   0  0  0  0  0  0
  -25.9110  -32.4779   23.8339 C   0  0  1  0  0  0
  -27.2242  -27.3142   20.1256 C   0  0  0  0  0  0
  -25.5926  -33.8578   24.2274 N   0  0  0  0  0  0
  -23.4206  -30.4811   21.5441 C   0  0  2  0  0  0
  -24.8680  -28.9303   20.1146 C   0  0  0  0  0  0
  -22.7479  -29.4618   22.4939 C   0  0  0  0  0  0
  -18.0288  -28.1386   22.8495 C   0  0  0  0  0  0
  -24.1487  -36.7288   23.2636 C   0  0  0  0  0  0
  -25.9612  -30.7893   21.3707 C   0  0  0  0  0  0
  -26.0370  -29.4145   20.7162 C   0  0  0  0  0  0
  -27.2219  -28.6198   20.7059 C   0  0  0  0  0  0
  -26.0367  -26.8799   19.5008 C   0  0  0  0  0  0
  -24.8697  -27.6689   19.4965 C   0  0  0  0  0  0
  -23.6360  -29.8120   20.1607 C   0  0  0  0  0  0
  -25.4113  -36.3084   24.0328 C   0  0  1  0  0  0
  -20.5890  -28.3688   23.1288 C   0  0  2  0  0  0
  -20.6774  -26.9412   22.5413 C   0  0  0  0  0  0
  -19.5746  -26.6388   21.5216 C   0  0  0  0  0  0
  -18.1931  -26.7932   22.1633 C   0  0  0  0  0  0
  -19.1541  -28.8853   23.2887 C   0  0  0  0  0  0
  -18.9458  -30.1459   23.8901 C   0  0  0  0  0  0
  -17.6456  -30.6585   24.0568 C   0  0  0  0  0  0
  -25.9047  -34.9454   23.5100 C   0  0  0  0  0  0
  -16.5349  -29.9085   23.6335 C   0  0  0  0  0  0
  -16.7276  -28.6505   23.0355 C   0  0  0  0  0  0
  -26.4496  -31.6585   25.0707 C   0  0  0  0  0  0
  -25.3727  -31.3725   26.1429 C   0  0  0  0  0  0
  -27.0336  -30.3013   24.6151 C   0  0  0  0  0  0
  -27.6059  -32.4312   25.7481 C   0  0  0  0  0  0
  -27.5580  -37.1801   24.8467 C   0  0  0  0  0  0
  -21.4192  -29.3036   22.3678 N   0  0  0  0  0  0
  -26.4293  -37.3777   23.9407 N   0  0  0  0  0  0
  -24.6886  -31.0594   22.0961 N   0  0  0  0  0  0
  -23.4197  -28.8173   23.3030 O   0  0  0  0  0  0
  -28.3392  -26.4655   20.1299 O   0  0  0  0  0  0
  -26.5617  -34.8923   22.4667 O   0  0  0  0  0  0
  -23.5428  -32.1392   23.7335 O   0  0  0  0  0  0
  -30.2611  -18.1329   21.8361 C   0  0  0  0  0  0
  -29.9963  -19.5017   21.5309 C   0  0  0  0  0  0
  -29.3219  -17.4505   19.7409 C   0  0  0  0  0  0
  -29.9180  -17.0485   20.9688 C   0  0  0  0  0  0
  -29.3754  -19.8912   20.3165 C   0  0  0  0  0  0
  -29.0643  -18.8244   19.4254 C   0  0  0  0  0  0
  -28.9616  -22.4443   20.6297 C   0  0  0  0  0  0
  -28.8522  -15.8031   23.5816 C   0  0  0  0  0  0
  -28.8288  -23.8410   19.8817 C   0  0  0  0  0  0
  -30.1261  -15.3529   22.8324 C   0  0  0  0  0  0
  -28.1672  -25.0812   20.6477 C   0  0  0  0  0  0
  -29.1170  -21.2826   19.9111 N   0  0  0  0  0  0
  -30.0879  -15.6293   21.3769 N   0  0  0  0  0  0
  -28.9237  -22.4311   21.8617 O   0  0  0  0  0  0
  -28.4896  -19.1233   18.2349 F   0  0  0  0  0  0
  -31.4730  -12.5469   19.1491 H   0  0  0  0  0  0
  -30.3766  -11.4189   19.8857 H   0  0  0  0  0  0
  -29.7776  -11.7841   17.4747 H   0  0  0  0  0  0
  -29.6399  -13.5028   17.7502 H   0  0  0  0  0  0
  -27.8725  -11.2971   18.8603 H   0  0  0  0  0  0
  -27.3742  -12.5809   17.7900 H   0  0  0  0  0  0
  -27.6765  -14.2580   19.5313 H   0  0  0  0  0  0
  -28.7054  -12.0329   21.3514 H   0  0  0  0  0  0
  -28.3872  -13.6630   21.8376 H   0  0  0  0  0  0
  -25.2757   -9.5705   22.4748 H   0  0  0  0  0  0
  -24.0000   -7.4649   22.7479 H   0  0  0  0  0  0
  -21.0854   -8.8757   19.8923 H   0  0  0  0  0  0
  -22.3699  -10.9657   19.6118 H   0  0  0  0  0  0
  -21.2011   -7.6156   23.9701 H   0  0  0  0  0  0
  -21.1494   -6.0540   25.9074 H   0  0  0  0  0  0
  -22.0601   -2.7611   23.2849 H   0  0  0  0  0  0
  -22.4114  -11.9888   22.4795 H   0  0  0  0  0  0
  -21.1135  -13.1277   22.2680 H   0  0  0  0  0  0
  -24.6652  -15.8495   20.5348 H   0  0  0  0  0  0
  -26.2894  -15.6332   20.1214 H   0  0  0  0  0  0
  -26.7185  -32.5456   23.1092 H   0  0  0  0  0  0
  -25.0083  -33.9720   25.0427 H   0  0  0  0  0  0
  -22.7147  -31.3013   21.3991 H   0  0  0  0  0  0
  -23.3752  -35.9617   23.3307 H   0  0  0  0  0  0
  -24.3579  -36.8900   22.2050 H   0  0  0  0  0  0
  -23.7241  -37.6494   23.6651 H   0  0  0  0  0  0
  -26.0883  -31.5512   20.6004 H   0  0  0  0  0  0
  -26.8432  -30.8425   21.9981 H   0  0  0  0  0  0
  -28.1229  -28.9893   21.1754 H   0  0  0  0  0  0
  -26.0066  -25.9137   19.0179 H   0  0  0  0  0  0
  -23.9751  -27.2933   19.0193 H   0  0  0  0  0  0
  -23.7566  -30.5866   19.4023 H   0  0  0  0  0  0
  -22.7558  -29.2410   19.8596 H   0  0  0  0  0  0
  -25.1299  -36.1937   25.0824 H   0  0  0  0  0  0
  -20.9985  -28.3260   24.1405 H   0  0  0  0  0  0
  -20.5675  -26.2298   23.3610 H   0  0  0  0  0  0
  -21.6643  -26.7440   22.1206 H   0  0  0  0  0  0
  -19.6902  -25.6298   21.1244 H   0  0  0  0  0  0
  -19.6681  -27.3199   20.6745 H   0  0  0  0  0  0
  -17.4201  -26.6689   21.4034 H   0  0  0  0  0  0
  -18.0330  -26.0066   22.9021 H   0  0  0  0  0  0
  -19.7929  -30.7284   24.2267 H   0  0  0  0  0  0
  -17.5004  -31.6268   24.5166 H   0  0  0  0  0  0
  -15.5348  -30.2985   23.7644 H   0  0  0  0  0  0
  -15.8683  -28.0823   22.7058 H   0  0  0  0  0  0
  -24.5907  -30.7072   25.7753 H   0  0  0  0  0  0
  -24.8909  -32.2890   26.4844 H   0  0  0  0  0  0
  -25.8040  -30.8911   27.0213 H   0  0  0  0  0  0
  -26.2914  -29.6777   24.1153 H   0  0  0  0  0  0
  -27.4023  -29.7255   25.4649 H   0  0  0  0  0  0
  -27.8788  -30.4310   23.9384 H   0  0  0  0  0  0
  -27.2675  -33.3602   26.2081 H   0  0  0  0  0  0
  -28.3858  -32.6886   25.0302 H   0  0  0  0  0  0
  -28.0743  -31.8423   26.5378 H   0  0  0  0  0  0
  -28.2607  -38.0090   24.7507 H   0  0  0  0  0  0
  -28.1068  -36.2620   24.6306 H   0  0  0  0  0  0
  -27.2294  -37.1471   25.8870 H   0  0  0  0  0  0
  -20.9368  -29.8751   21.6886 H   0  0  0  0  0  0
  -26.0177  -38.2855   24.1401 H   0  0  0  0  0  0
  -30.7351  -17.9354   22.7863 H   0  0  0  0  0  0
  -30.2918  -20.2540   22.2476 H   0  0  0  0  0  0
  -29.0223  -16.6996   19.0252 H   0  0  0  0  0  0
  -28.8881  -15.4778   24.6214 H   0  0  0  0  0  0
  -27.9464  -15.3853   23.1434 H   0  0  0  0  0  0
  -28.7308  -16.8857   23.5967 H   0  0  0  0  0  0
  -28.2978  -23.6827   18.9436 H   0  0  0  0  0  0
  -29.8427  -24.1251   19.6018 H   0  0  0  0  0  0
  -30.2682  -14.2889   23.0366 H   0  0  0  0  0  0
  -31.0087  -15.8221   23.2688 H   0  0  0  0  0  0
  -28.5782  -25.1037   21.6575 H   0  0  0  0  0  0
  -27.1109  -24.8531   20.7939 H   0  0  0  0  0  0
  -29.0078  -21.3937   18.9113 H   0  0  0  0  0  0
  1 25  1  0  0  0
  1 30  2  0  0  0
  1 83  1  0  0  0
  2  3  1  0  0  0
  2 25  1  0  0  0
  2 86  1  0  0  0
  2 87  1  0  0  0
  3  4  1  0  0  0
  3 88  1  0  0  0
  3 89  1  0  0  0
  4  5  1  0  0  0
  4 90  1  0  0  0
  4 91  1  0  0  0
  5  6  1  0  0  0
  5 26  1  0  0  0
  5 92  1  0  0  0
  6 25  1  0  0  0
  6 93  1  0  0  0
  6 94  1  0  0  0
  7  8  2  0  0  0
  7 26  1  0  0  0
  7 29  1  0  0  0
  8  9  1  0  0  0
  8 22  1  0  0  0
  9 10  1  0  0  0
  9 27  2  0  0  0
 10 11  2  0  0  0
 10 15  1  0  0  0
 11 12  1  0  0  0
 11 95  1  0  0  0
 12 13  2  0  0  0
 12 96  1  0  0  0
 13 14  1  0  0  0
 13 31  1  0  0  0
 14 15  2  0  0  0
 14 97  1  0  0  0
 15 98  1  0  0  0
 16 17  2  0  0  0
 16 21  1  0  0  0
 16 31  1  0  0  0
 17 18  1  0  0  0
 17 99  1  0  0  0
 18 19  2  0  0  0
 18100  1  0  0  0
 19 20  1  0  0  0
 19 24  1  0  0  0
 20 21  2  0  0  0
 20101  1  0  0  0
 21 23  1  0  0  0
 22 28  1  0  0  0
 22 32  2  0  0  0
 26 27  1  0  0  0
 28102  1  0  0  0
 28103  1  0  0  0
 29104  1  0  0  0
 29105  1  0  0  0
 33 34  1  0  0  0
 33 66  1  0  0  0
 33 70  2  0  0  0
 34 36  1  0  0  0
 34 59  1  0  0  0
 34106  1  0  0  0
 35 44  2  0  0  0
 35 45  1  0  0  0
 35 68  1  0  0  0
 36 56  1  0  0  0
 36107  1  0  0  0
 37 39  1  0  0  0
 37 47  1  0  0  0
 37 66  1  0  0  0
 37108  1  0  0  0
 38 43  2  0  0  0
 38 46  1  0  0  0
 38 47  1  0  0  0
 39 64  1  0  0  0
 39 67  2  0  0  0
 40 52  1  0  0  0
 40 53  2  0  0  0
 40 58  1  0  0  0
 41109  1  0  0  0
 41110  1  0  0  0
 41111  1  0  0  0
 41 48  1  0  0  0
 42 43  1  0  0  0
 42 66  1  0  0  0
 42112  1  0  0  0
 42113  1  0  0  0
 43 44  1  0  0  0
 44114  1  0  0  0
 45 46  2  0  0  0
 45115  1  0  0  0
 46116  1  0  0  0
 47117  1  0  0  0
 47118  1  0  0  0
 48 56  1  0  0  0
 48 65  1  0  0  0
 48119  1  0  0  0
 49 50  1  0  0  0
 49 53  1  0  0  0
 49 64  1  0  0  0
 49120  1  0  0  0
 50 51  1  0  0  0
 50121  1  0  0  0
 50122  1  0  0  0
 51 52  1  0  0  0
 51123  1  0  0  0
 51124  1  0  0  0
 52125  1  0  0  0
 52126  1  0  0  0
 53 54  1  0  0  0
 54 55  2  0  0  0
 54127  1  0  0  0
 55 57  1  0  0  0
 55128  1  0  0  0
 56 69  2  0  0  0
 57 58  2  0  0  0
 57129  1  0  0  0
 58130  1  0  0  0
 59 60  1  0  0  0
 59 61  1  0  0  0
 59 62  1  0  0  0
 60131  1  0  0  0
 60132  1  0  0  0
 60133  1  0  0  0
 61134  1  0  0  0
 61135  1  0  0  0
 61136  1  0  0  0
 62137  1  0  0  0
 62138  1  0  0  0
 62139  1  0  0  0
 63 65  1  0  0  0
 63140  1  0  0  0
 63141  1  0  0  0
 63142  1  0  0  0
 64143  1  0  0  0
 65144  1  0  0  0
 68 81  1  0  0  0
 71 72  2  0  0  0
 71 74  1  0  0  0
 71145  1  0  0  0
 72 75  1  0  0  0
 72146  1  0  0  0
 73 74  2  0  0  0
 73 76  1  0  0  0
 73147  1  0  0  0
 74 83  1  0  0  0
 75 76  2  0  0  0
 75 82  1  0  0  0
 76 85  1  0  0  0
 77 79  1  0  0  0
 77 82  1  0  0  0
 77 84  2  0  0  0
 78 80  1  0  0  0
 78148  1  0  0  0
 78149  1  0  0  0
 78150  1  0  0  0
 79 81  1  0  0  0
 79151  1  0  0  0
 79152  1  0  0  0
 80 83  1  0  0  0
 80153  1  0  0  0
 80154  1  0  0  0
 81155  1  0  0  0
 81156  1  0  0  0
 82157  1  0  0  0
M  ISO  4   1 100  68 101  81 101  83 100
M  END
> <chiral flag>
0

> <version>
0

> <s_m_source_file>
/data/baiqing/PycharmProjects/Reinvent-master-3.2/result/LINK_invent/BTK/process_docking_weight1_custom_product_contain_oxygen_bond_distance_aromatic_linkinvent_7_9_3/rearranged_h_0099.sdf

> <i_m_source_file_index>
65

> <r_mmod_Potential_Energy-OPLS-2005>
200.479476928711

> <r_mmod_Stretch_Energy-OPLS-2005>
94.6767807006836

> <r_mmod_Bend_Energy-OPLS-2005>
145.796646118164

> <r_mmod_Torsional_Energy-OPLS-2005>
310.268890380859

> <r_mmod_Improper_Torsional_Energy-OPLS-2005>
3.28334140777588

> <r_mmod_Van_der_Waal_Energy-OPLS-2005>
145.902786254883

> <r_mmod_Electrostatic_Energy-OPLS-2005>
-338.6005859375

> <r_mmod_Solvation_Energy-OPLS-2005>
-207.015899658203

> <b_mmod_Minimization_Converged-OPLS-2005>
0

> <r_mmod_RMS_Derivative-OPLS-2005>
1.14169812202454

$$$$
65
                    3D
 Structure written by MMmdl.
151159  0  0  1  0            999 V2000
  -30.6229  -14.6301   20.5039 C   0  0  0  0  0  0
  -30.4394  -12.3861   19.4520 C   0  0  0  0  0  0
  -29.5085  -12.5074   18.2247 C   0  0  0  0  0  0
  -28.0308  -12.3466   18.6356 C   0  0  0  0  0  0
  -27.6553  -13.2145   19.8660 C   0  0  2  0  0  0
  -28.6995  -13.0603   20.9952 C   0  0  0  0  0  0
  -25.2571  -13.8167   20.5686 C   0  0  0  0  0  0
  -24.1833  -13.0437   20.9188 C   0  0  0  0  0  0
  -24.6395  -11.6906   20.8736 C   0  0  0  0  0  0
  -23.9062  -10.4292   21.0404 C   0  0  0  0  0  0
  -24.3613   -9.4207   21.9182 C   0  0  0  0  0  0
  -23.6289   -8.2243   22.0753 C   0  0  0  0  0  0
  -22.4271   -8.0280   21.3544 C   0  0  0  0  0  0
  -21.9905   -9.0254   20.4647 C   0  0  0  0  0  0
  -22.7233  -10.2134   20.3055 C   0  0  0  0  0  0
  -21.6852   -6.0733   22.5277 C   0  0  0  0  0  0
  -21.4014   -6.5638   23.8211 C   0  0  0  0  0  0
  -21.3660   -5.6792   24.9173 C   0  0  0  0  0  0
  -21.6044   -4.3054   24.7225 C   0  0  0  0  0  0
  -21.8819   -3.8145   23.4347 C   0  0  0  0  0  0
  -21.9193   -4.6961   22.3401 C   0  0  0  0  0  0
  -22.7855  -13.5234   21.1850 C   0  0  0  0  0  0
  -22.1662   -4.2147   21.0979 F   0  0  0  0  0  0
  -21.5628   -3.4539   25.7739 F   0  0  0  0  0  0
  -30.0174  -13.4027   20.4357 N   0  0  0  0  0  0
  -26.2998  -12.9343   20.3326 N   0  0  0  0  0  0
  -25.9323  -11.6500   20.5756 N   0  0  0  0  0  0
  -22.0494  -12.8229   22.0407 N   0  0  0  0  0  0
  -25.4290  -15.1889   20.4100 N   0  0  0  0  0  0
  -31.7794  -14.7974   20.1055 O   0  0  0  0  0  0
  -21.6638   -6.8876   21.4240 O   0  0  0  0  0  0
  -22.3542  -14.5541   20.6699 O   0  0  0  0  0  0
  -24.6249  -31.8610   23.2039 C   0  0  0  0  0  0
  -25.9101  -32.4786   23.8365 C   0  0  1  0  0  0
  -27.2237  -27.3318   20.1191 C   0  0  0  0  0  0
  -25.5921  -33.8586   24.2291 N   0  0  0  0  0  0
  -23.4184  -30.4847   21.5462 C   0  0  2  0  0  0
  -24.8661  -28.9421   20.1120 C   0  0  0  0  0  0
  -22.7470  -29.4628   22.4942 C   0  0  0  0  0  0
  -18.0286  -28.1383   22.8487 C   0  0  0  0  0  0
  -24.1489  -36.7297   23.2638 C   0  0  0  0  0  0
  -25.9587  -30.7957   21.3740 C   0  0  0  0  0  0
  -26.0343  -29.4239   20.7171 C   0  0  0  0  0  0
  -27.2188  -28.6304   20.7108 C   0  0  0  0  0  0
  -26.0387  -26.9055   19.4791 C   0  0  0  0  0  0
  -24.8694  -27.6878   19.4833 C   0  0  0  0  0  0
  -23.6332  -29.8204   20.1612 C   0  0  0  0  0  0
  -25.4112  -36.3089   24.0332 C   0  0  1  0  0  0
  -20.5885  -28.3686   23.1287 C   0  0  2  0  0  0
  -20.6774  -26.9410   22.5410 C   0  0  0  0  0  0
  -19.5751  -26.6386   21.5211 C   0  0  0  0  0  0
  -18.1931  -26.7927   22.1624 C   0  0  0  0  0  0
  -19.1538  -28.8852   23.2883 C   0  0  0  0  0  0
  -18.9461  -30.1453   23.8900 C   0  0  0  0  0  0
  -17.6460  -30.6584   24.0566 C   0  0  0  0  0  0
  -25.9048  -34.9456   23.5112 C   0  0  0  0  0  0
  -16.5352  -29.9084   23.6328 C   0  0  0  0  0  0
  -16.7273  -28.6503   23.0348 C   0  0  0  0  0  0
  -26.4492  -31.6589   25.0728 C   0  0  0  0  0  0
  -25.3731  -31.3721   26.1460 C   0  0  0  0  0  0
  -27.0330  -30.3015   24.6170 C   0  0  0  0  0  0
  -27.6058  -32.4319   25.7492 C   0  0  0  0  0  0
  -27.5581  -37.1803   24.8464 C   0  0  0  0  0  0
  -21.4185  -29.3040   22.3682 N   0  0  0  0  0  0
  -26.4291  -37.3782   23.9410 N   0  0  0  0  0  0
  -24.6860  -31.0633   22.0985 N   0  0  0  0  0  0
  -23.4199  -28.8166   23.3016 O   0  0  0  0  0  0
  -28.3297  -26.4750   20.1511 O   0  0  0  0  0  0
  -26.5616  -34.8920   22.4677 O   0  0  0  0  0  0
  -23.5414  -32.1404   23.7371 O   0  0  0  0  0  0
  -28.8055  -17.9178   21.1915 C   0  0  0  0  0  0
  -28.7613  -19.3349   21.0278 C   0  0  0  0  0  0
  -30.9230  -17.8259   20.0541 C   0  0  0  0  0  0
  -29.8803  -17.1186   20.7106 C   0  0  0  0  0  0
  -29.7993  -20.0371   20.3662 C   0  0  0  0  0  0
  -30.8802  -19.2425   19.8881 C   0  0  0  0  0  0
  -29.0779  -23.9718   20.1775 C   0  0  0  0  0  0
  -28.7934  -22.4642   20.5698 C   0  0  0  0  0  0
  -28.0483  -25.0888   20.5957 C   0  0  0  0  0  0
  -29.8175  -15.6663   20.8975 N   0  0  0  0  0  0
  -29.8188  -21.4562   20.1564 N   0  0  0  0  0  0
  -30.1029  -24.2568   19.5470 O   0  0  0  0  0  0
  -31.9052  -19.8570   19.2467 F   0  0  0  0  0  0
  -31.4807  -12.5112   19.1499 H   0  0  0  0  0  0
  -30.3738  -11.3885   19.8890 H   0  0  0  0  0  0
  -29.7712  -11.7580   17.4768 H   0  0  0  0  0  0
  -29.6527  -13.4781   17.7478 H   0  0  0  0  0  0
  -27.8653  -11.2930   18.8638 H   0  0  0  0  0  0
  -27.3771  -12.5807   17.7946 H   0  0  0  0  0  0
  -27.6767  -14.2512   19.5293 H   0  0  0  0  0  0
  -28.7083  -12.0359   21.3704 H   0  0  0  0  0  0
  -28.4443  -13.6851   21.8524 H   0  0  0  0  0  0
  -25.2758   -9.5684   22.4756 H   0  0  0  0  0  0
  -23.9998   -7.4635   22.7473 H   0  0  0  0  0  0
  -21.0835   -8.8772   19.8954 H   0  0  0  0  0  0
  -22.3689  -10.9672   19.6165 H   0  0  0  0  0  0
  -21.2007   -7.6147   23.9713 H   0  0  0  0  0  0
  -21.1482   -6.0522   25.9076 H   0  0  0  0  0  0
  -22.0599   -2.7607   23.2848 H   0  0  0  0  0  0
  -22.4104  -11.9888   22.4795 H   0  0  0  0  0  0
  -21.1113  -13.1259   22.2612 H   0  0  0  0  0  0
  -24.6594  -15.8414   20.5127 H   0  0  0  0  0  0
  -26.2727  -15.6258   20.0618 H   0  0  0  0  0  0
  -26.7170  -32.5463   23.1116 H   0  0  0  0  0  0
  -25.0067  -33.9735   25.0434 H   0  0  0  0  0  0
  -22.7116  -31.3047   21.4038 H   0  0  0  0  0  0
  -23.3751  -35.9630   23.3302 H   0  0  0  0  0  0
  -24.3582  -36.8915   22.2053 H   0  0  0  0  0  0
  -23.7241  -37.6500   23.6657 H   0  0  0  0  0  0
  -26.0881  -31.5594   20.6058 H   0  0  0  0  0  0
  -26.8398  -30.8451   22.0021 H   0  0  0  0  0  0
  -28.1154  -28.9945   21.1928 H   0  0  0  0  0  0
  -26.0012  -25.9548   18.9678 H   0  0  0  0  0  0
  -23.9770  -27.3174   18.9977 H   0  0  0  0  0  0
  -23.7519  -30.5974   19.4050 H   0  0  0  0  0  0
  -22.7539  -29.2489   19.8588 H   0  0  0  0  0  0
  -25.1290  -36.1945   25.0824 H   0  0  0  0  0  0
  -20.9978  -28.3259   24.1407 H   0  0  0  0  0  0
  -20.5671  -26.2295   23.3608 H   0  0  0  0  0  0
  -21.6644  -26.7440   22.1207 H   0  0  0  0  0  0
  -19.6912  -25.6299   21.1236 H   0  0  0  0  0  0
  -19.6687  -27.3200   20.6743 H   0  0  0  0  0  0
  -17.4199  -26.6671   21.4028 H   0  0  0  0  0  0
  -18.0336  -26.0069   22.9021 H   0  0  0  0  0  0
  -19.7936  -30.7269   24.2272 H   0  0  0  0  0  0
  -17.5014  -31.6263   24.5171 H   0  0  0  0  0  0
  -15.5352  -30.2986   23.7652 H   0  0  0  0  0  0
  -15.8673  -28.0823   22.7060 H   0  0  0  0  0  0
  -24.5904  -30.7071   25.7791 H   0  0  0  0  0  0
  -24.8923  -32.2884   26.4896 H   0  0  0  0  0  0
  -25.8062  -30.8892   27.0229 H   0  0  0  0  0  0
  -26.2898  -29.6767   24.1202 H   0  0  0  0  0  0
  -27.4041  -29.7269   25.4667 H   0  0  0  0  0  0
  -27.8763  -30.4305   23.9382 H   0  0  0  0  0  0
  -27.2678  -33.3620   26.2074 H   0  0  0  0  0  0
  -28.3864  -32.6876   25.0314 H   0  0  0  0  0  0
  -28.0731  -31.8439   26.5403 H   0  0  0  0  0  0
  -28.2599  -38.0100   24.7514 H   0  0  0  0  0  0
  -28.1076  -36.2633   24.6284 H   0  0  0  0  0  0
  -27.2302  -37.1450   25.8868 H   0  0  0  0  0  0
  -20.9362  -29.8763   21.6894 H   0  0  0  0  0  0
  -26.0175  -38.2858   24.1413 H   0  0  0  0  0  0
  -27.9780  -17.4425   21.6997 H   0  0  0  0  0  0
  -27.9108  -19.8748   21.4174 H   0  0  0  0  0  0
  -31.7743  -17.2959   19.6557 H   0  0  0  0  0  0
  -27.8310  -22.1849   20.1395 H   0  0  0  0  0  0
  -28.6717  -22.4196   21.6526 H   0  0  0  0  0  0
  -27.9997  -25.0961   21.6846 H   0  0  0  0  0  0
  -27.0726  -24.7438   20.2609 H   0  0  0  0  0  0
  -28.9426  -15.3364   21.2756 H   0  0  0  0  0  0
  -30.6218  -21.8367   19.6591 H   0  0  0  0  0  0
  1 25  1  0  0  0
  1 30  2  0  0  0
  1 80  1  0  0  0
  2  3  1  0  0  0
  2 25  1  0  0  0
  2 84  1  0  0  0
  2 85  1  0  0  0
  3  4  1  0  0  0
  3 86  1  0  0  0
  3 87  1  0  0  0
  4  5  1  0  0  0
  4 88  1  0  0  0
  4 89  1  0  0  0
  5  6  1  0  0  0
  5 26  1  0  0  0
  5 90  1  0  0  0
  6 25  1  0  0  0
  6 91  1  0  0  0
  6 92  1  0  0  0
  7  8  2  0  0  0
  7 26  1  0  0  0
  7 29  1  0  0  0
  8  9  1  0  0  0
  8 22  1  0  0  0
  9 10  1  0  0  0
  9 27  2  0  0  0
 10 11  2  0  0  0
 10 15  1  0  0  0
 11 12  1  0  0  0
 11 93  1  0  0  0
 12 13  2  0  0  0
 12 94  1  0  0  0
 13 14  1  0  0  0
 13 31  1  0  0  0
 14 15  2  0  0  0
 14 95  1  0  0  0
 15 96  1  0  0  0
 16 17  2  0  0  0
 16 21  1  0  0  0
 16 31  1  0  0  0
 17 18  1  0  0  0
 17 97  1  0  0  0
 18 19  2  0  0  0
 18 98  1  0  0  0
 19 20  1  0  0  0
 19 24  1  0  0  0
 20 21  2  0  0  0
 20 99  1  0  0  0
 21 23  1  0  0  0
 22 28  1  0  0  0
 22 32  2  0  0  0
 26 27  1  0  0  0
 28100  1  0  0  0
 28101  1  0  0  0
 29102  1  0  0  0
 29103  1  0  0  0
 33 34  1  0  0  0
 33 66  1  0  0  0
 33 70  2  0  0  0
 34 36  1  0  0  0
 34 59  1  0  0  0
 34104  1  0  0  0
 35 44  2  0  0  0
 35 45  1  0  0  0
 35 68  1  0  0  0
 36 56  1  0  0  0
 36105  1  0  0  0
 37 39  1  0  0  0
 37 47  1  0  0  0
 37 66  1  0  0  0
 37106  1  0  0  0
 38 43  2  0  0  0
 38 46  1  0  0  0
 38 47  1  0  0  0
 39 64  1  0  0  0
 39 67  2  0  0  0
 40 52  1  0  0  0
 40 53  2  0  0  0
 40 58  1  0  0  0
 41107  1  0  0  0
 41108  1  0  0  0
 41109  1  0  0  0
 41 48  1  0  0  0
 42 43  1  0  0  0
 42 66  1  0  0  0
 42110  1  0  0  0
 42111  1  0  0  0
 43 44  1  0  0  0
 44112  1  0  0  0
 45 46  2  0  0  0
 45113  1  0  0  0
 46114  1  0  0  0
 47115  1  0  0  0
 47116  1  0  0  0
 48 56  1  0  0  0
 48 65  1  0  0  0
 48117  1  0  0  0
 49 50  1  0  0  0
 49 53  1  0  0  0
 49 64  1  0  0  0
 49118  1  0  0  0
 50 51  1  0  0  0
 50119  1  0  0  0
 50120  1  0  0  0
 51 52  1  0  0  0
 51121  1  0  0  0
 51122  1  0  0  0
 52123  1  0  0  0
 52124  1  0  0  0
 53 54  1  0  0  0
 54 55  2  0  0  0
 54125  1  0  0  0
 55 57  1  0  0  0
 55126  1  0  0  0
 56 69  2  0  0  0
 57 58  2  0  0  0
 57127  1  0  0  0
 58128  1  0  0  0
 59 60  1  0  0  0
 59 61  1  0  0  0
 59 62  1  0  0  0
 60129  1  0  0  0
 60130  1  0  0  0
 60131  1  0  0  0
 61132  1  0  0  0
 61133  1  0  0  0
 61134  1  0  0  0
 62135  1  0  0  0
 62136  1  0  0  0
 62137  1  0  0  0
 63 65  1  0  0  0
 63138  1  0  0  0
 63139  1  0  0  0
 63140  1  0  0  0
 64141  1  0  0  0
 65142  1  0  0  0
 68 79  1  0  0  0
 71 72  2  0  0  0
 71 74  1  0  0  0
 71143  1  0  0  0
 72 75  1  0  0  0
 72144  1  0  0  0
 73 74  2  0  0  0
 73 76  1  0  0  0
 73145  1  0  0  0
 74 80  1  0  0  0
 75 76  2  0  0  0
 75 81  1  0  0  0
 76 83  1  0  0  0
 77 78  1  0  0  0
 77 79  1  0  0  0
 77 82  2  0  0  0
 78 81  1  0  0  0
 78146  1  0  0  0
 78147  1  0  0  0
 79148  1  0  0  0
 79149  1  0  0  0
 80150  1  0  0  0
 81151  1  0  0  0
M  ISO  4   1 100  68 101  79 101  80 100
M  END
> <chiral flag>
0

> <version>
0

> <s_m_source_file>
/data/baiqing/PycharmProjects/Reinvent-master-3.2/result/LINK_invent/BTK/process_docking_weight1_custom_product_contain_oxygen_bond_distance_aromatic_linkinvent_7_9_3/rearranged_h_0099.sdf

> <i_m_source_file_index>
66

> <r_mmod_Potential_Energy-OPLS-2005>
77.6357116699219

> <r_mmod_Stretch_Energy-OPLS-2005>
74.2182769775391

> <r_mmod_Bend_Energy-OPLS-2005>
142.131134033203

> <r_mmod_Torsional_Energy-OPLS-2005>
213.043853759766

> <r_mmod_Improper_Torsional_Energy-OPLS-2005>
3.73473215103149

> <r_mmod_Van_der_Waal_Energy-OPLS-2005>
142.753158569336

> <r_mmod_Electrostatic_Energy-OPLS-2005>
-303.966339111328

> <r_mmod_Solvation_Energy-OPLS-2005>
-239.210723876953

> <b_mmod_Minimization_Converged-OPLS-2005>
0

> <r_mmod_RMS_Derivative-OPLS-2005>
0.217900902032852

$$$$
66
                    3D
 Structure written by MMmdl.
153161  0  0  1  0            999 V2000
  -30.7141  -14.4939   20.5568 C   0  0  0  0  0  0
  -30.4172  -12.3173   19.4305 C   0  0  0  0  0  0
  -29.4931  -12.5017   18.2101 C   0  0  0  0  0  0
  -28.0157  -12.3600   18.6247 C   0  0  0  0  0  0
  -27.6583  -13.2132   19.8716 C   0  0  2  0  0  0
  -28.7018  -13.0255   20.9966 C   0  0  0  0  0  0
  -25.2575  -13.8178   20.5695 C   0  0  0  0  0  0
  -24.1828  -13.0442   20.9169 C   0  0  0  0  0  0
  -24.6393  -11.6913   20.8731 C   0  0  0  0  0  0
  -23.9060  -10.4296   21.0403 C   0  0  0  0  0  0
  -24.3615   -9.4212   21.9180 C   0  0  0  0  0  0
  -23.6294   -8.2246   22.0753 C   0  0  0  0  0  0
  -22.4275   -8.0281   21.3544 C   0  0  0  0  0  0
  -21.9907   -9.0252   20.4646 C   0  0  0  0  0  0
  -22.7233  -10.2134   20.3053 C   0  0  0  0  0  0
  -21.6852   -6.0735   22.5279 C   0  0  0  0  0  0
  -21.4015   -6.5640   23.8212 C   0  0  0  0  0  0
  -21.3659   -5.6794   24.9174 C   0  0  0  0  0  0
  -21.6044   -4.3056   24.7225 C   0  0  0  0  0  0
  -21.8819   -3.8147   23.4346 C   0  0  0  0  0  0
  -21.9194   -4.6963   22.3403 C   0  0  0  0  0  0
  -22.7852  -13.5235   21.1837 C   0  0  0  0  0  0
  -22.1662   -4.2149   21.0980 F   0  0  0  0  0  0
  -21.5627   -3.4538   25.7737 F   0  0  0  0  0  0
  -30.0299  -13.3218   20.4360 N   0  0  0  0  0  0
  -26.3013  -12.9358   20.3370 N   0  0  0  0  0  0
  -25.9325  -11.6510   20.5776 N   0  0  0  0  0  0
  -22.0498  -12.8229   22.0398 N   0  0  0  0  0  0
  -25.4297  -15.1901   20.4151 N   0  0  0  0  0  0
  -31.8495  -14.6320   20.0955 O   0  0  0  0  0  0
  -21.6640   -6.8878   21.4241 O   0  0  0  0  0  0
  -22.3533  -14.5542   20.6690 O   0  0  0  0  0  0
  -24.6166  -31.8666   23.2089 C   0  0  0  0  0  0
  -25.9051  -32.4816   23.8389 C   0  0  1  0  0  0
  -27.2283  -27.4199   20.1029 C   0  0  0  0  0  0
  -25.5901  -33.8615   24.2325 N   0  0  0  0  0  0
  -23.4056  -30.4900   21.5492 C   0  0  2  0  0  0
  -24.8531  -28.9569   20.1110 C   0  0  0  0  0  0
  -22.7423  -29.4651   22.4978 C   0  0  0  0  0  0
  -18.0273  -28.1381   22.8491 C   0  0  0  0  0  0
  -24.1486  -36.7311   23.2637 C   0  0  0  0  0  0
  -25.9360  -30.8299   21.3626 C   0  0  0  0  0  0
  -26.0153  -29.4639   20.7080 C   0  0  0  0  0  0
  -27.2105  -28.7040   20.6982 C   0  0  0  0  0  0
  -26.0539  -26.9353   19.4899 C   0  0  0  0  0  0
  -24.8682  -27.6932   19.4961 C   0  0  0  0  0  0
  -23.6148  -29.8237   20.1633 C   0  0  0  0  0  0
  -25.4106  -36.3107   24.0339 C   0  0  1  0  0  0
  -20.5866  -28.3668   23.1316 C   0  0  2  0  0  0
  -20.6765  -26.9403   22.5417 C   0  0  0  0  0  0
  -19.5745  -26.6389   21.5213 C   0  0  0  0  0  0
  -18.1922  -26.7930   22.1621 C   0  0  0  0  0  0
  -19.1524  -28.8842   23.2898 C   0  0  0  0  0  0
  -18.9452  -30.1448   23.8908 C   0  0  0  0  0  0
  -17.6454  -30.6585   24.0567 C   0  0  0  0  0  0
  -25.9033  -34.9473   23.5129 C   0  0  0  0  0  0
  -16.5343  -29.9089   23.6328 C   0  0  0  0  0  0
  -16.7262  -28.6506   23.0347 C   0  0  0  0  0  0
  -26.4475  -31.6593   25.0717 C   0  0  0  0  0  0
  -25.3745  -31.3701   26.1468 C   0  0  0  0  0  0
  -27.0299  -30.3034   24.6087 C   0  0  0  0  0  0
  -27.6058  -32.4305   25.7474 C   0  0  0  0  0  0
  -27.5582  -37.1806   24.8464 C   0  0  0  0  0  0
  -21.4149  -29.3032   22.3721 N   0  0  0  0  0  0
  -26.4291  -37.3792   23.9411 N   0  0  0  0  0  0
  -24.6711  -31.0761   22.0991 N   0  0  0  0  0  0
  -23.4190  -28.8192   23.3025 O   0  0  0  0  0  0
  -28.3495  -26.6170   20.1371 O   0  0  0  0  0  0
  -26.5591  -34.8927   22.4688 O   0  0  0  0  0  0
  -23.5356  -32.1419   23.7480 O   0  0  0  0  0  0
  -32.0969  -18.6865   21.3726 C   0  0  0  0  0  0
  -31.0977  -19.6736   21.2956 C   0  0  0  0  0  0
  -31.7585  -17.3236   21.2984 C   0  0  0  0  0  0
  -29.7381  -19.3170   21.1359 C   0  0  0  0  0  0
  -30.4122  -16.9235   21.1237 C   0  0  0  0  0  0
  -29.4083  -17.9274   21.0542 C   0  0  0  0  0  0
  -28.6765  -20.4013   21.1605 C   0  0  0  0  0  0
  -28.7602  -24.1410   20.3754 C   0  0  0  0  0  0
  -28.1230  -22.8110   20.8403 C   0  0  0  0  0  0
  -28.1551  -25.4411   20.9598 C   0  0  0  0  0  0
  -30.0214  -15.5398   21.0622 N   0  0  0  0  0  0
  -29.0097  -21.6346   20.7211 N   0  0  0  0  0  0
  -27.5450  -20.1636   21.5879 O   0  0  0  0  0  0
  -29.7158  -24.1539   19.5906 O   0  0  0  0  0  0
  -28.1216  -17.5236   20.9037 F   0  0  0  0  0  0
  -31.4628  -12.4023   19.1288 H   0  0  0  0  0  0
  -30.3109  -11.3137   19.8450 H   0  0  0  0  0  0
  -29.7370  -11.7699   17.4387 H   0  0  0  0  0  0
  -29.6584  -13.4838   17.7642 H   0  0  0  0  0  0
  -27.8329  -11.3053   18.8338 H   0  0  0  0  0  0
  -27.3630  -12.6202   17.7906 H   0  0  0  0  0  0
  -27.6932  -14.2566   19.5571 H   0  0  0  0  0  0
  -28.6817  -12.0000   21.3681 H   0  0  0  0  0  0
  -28.4654  -13.6538   21.8566 H   0  0  0  0  0  0
  -25.2763   -9.5687   22.4750 H   0  0  0  0  0  0
  -24.0004   -7.4637   22.7473 H   0  0  0  0  0  0
  -21.0837   -8.8766   19.8955 H   0  0  0  0  0  0
  -22.3689  -10.9667   19.6158 H   0  0  0  0  0  0
  -21.2007   -7.6149   23.9715 H   0  0  0  0  0  0
  -21.1480   -6.0524   25.9078 H   0  0  0  0  0  0
  -22.0599   -2.7610   23.2845 H   0  0  0  0  0  0
  -22.4117  -11.9888   22.4778 H   0  0  0  0  0  0
  -21.1117  -13.1253   22.2612 H   0  0  0  0  0  0
  -24.6684  -15.8472   20.5452 H   0  0  0  0  0  0
  -26.2969  -15.6411   20.1500 H   0  0  0  0  0  0
  -26.7124  -32.5525   23.1155 H   0  0  0  0  0  0
  -25.0069  -33.9779   25.0482 H   0  0  0  0  0  0
  -22.6948  -31.3071   21.4104 H   0  0  0  0  0  0
  -23.3749  -35.9643   23.3304 H   0  0  0  0  0  0
  -24.3584  -36.8918   22.2051 H   0  0  0  0  0  0
  -23.7241  -37.6521   23.6645 H   0  0  0  0  0  0
  -26.0484  -31.5964   20.5944 H   0  0  0  0  0  0
  -26.8242  -30.8839   21.9802 H   0  0  0  0  0  0
  -28.1054  -29.0861   21.1697 H   0  0  0  0  0  0
  -26.0517  -25.9623   19.0187 H   0  0  0  0  0  0
  -23.9762  -27.2986   19.0294 H   0  0  0  0  0  0
  -23.7223  -30.5989   19.4037 H   0  0  0  0  0  0
  -22.7387  -29.2435   19.8673 H   0  0  0  0  0  0
  -25.1285  -36.1968   25.0833 H   0  0  0  0  0  0
  -20.9958  -28.3230   24.1435 H   0  0  0  0  0  0
  -20.5672  -26.2272   23.3605 H   0  0  0  0  0  0
  -21.6635  -26.7448   22.1208 H   0  0  0  0  0  0
  -19.6906  -25.6306   21.1228 H   0  0  0  0  0  0
  -19.6687  -27.3214   20.6754 H   0  0  0  0  0  0
  -17.4196  -26.6683   21.4016 H   0  0  0  0  0  0
  -18.0315  -26.0069   22.9013 H   0  0  0  0  0  0
  -19.7928  -30.7258   24.2283 H   0  0  0  0  0  0
  -17.5011  -31.6267   24.5168 H   0  0  0  0  0  0
  -15.5345  -30.2993   23.7651 H   0  0  0  0  0  0
  -15.8662  -28.0831   22.7052 H   0  0  0  0  0  0
  -24.5924  -30.7037   25.7812 H   0  0  0  0  0  0
  -24.8930  -32.2857   26.4911 H   0  0  0  0  0  0
  -25.8107  -30.8880   27.0226 H   0  0  0  0  0  0
  -26.2835  -29.6797   24.1152 H   0  0  0  0  0  0
  -27.4085  -29.7263   25.4533 H   0  0  0  0  0  0
  -27.8663  -30.4354   23.9221 H   0  0  0  0  0  0
  -27.2688  -33.3598   26.2078 H   0  0  0  0  0  0
  -28.3853  -32.6873   25.0289 H   0  0  0  0  0  0
  -28.0743  -31.8409   26.5367 H   0  0  0  0  0  0
  -28.2602  -38.0099   24.7512 H   0  0  0  0  0  0
  -28.1074  -36.2635   24.6284 H   0  0  0  0  0  0
  -27.2303  -37.1446   25.8867 H   0  0  0  0  0  0
  -20.9313  -29.8755   21.6942 H   0  0  0  0  0  0
  -26.0182  -38.2867   24.1419 H   0  0  0  0  0  0
  -33.1301  -18.9760   21.5089 H   0  0  0  0  0  0
  -31.3890  -20.7103   21.3903 H   0  0  0  0  0  0
  -32.5524  -16.5969   21.3907 H   0  0  0  0  0  0
  -27.2181  -22.6452   20.2543 H   0  0  0  0  0  0
  -27.8102  -22.9231   21.8795 H   0  0  0  0  0  0
  -28.6198  -25.6240   21.9285 H   0  0  0  0  0  0
  -27.0989  -25.2585   21.1606 H   0  0  0  0  0  0
  -29.0557  -15.3535   21.2850 H   0  0  0  0  0  0
  -29.9322  -21.7914   20.3381 H   0  0  0  0  0  0
  1 25  1  0  0  0
  1 30  2  0  0  0
  1 81  1  0  0  0
  2  3  1  0  0  0
  2 25  1  0  0  0
  2 86  1  0  0  0
  2 87  1  0  0  0
  3  4  1  0  0  0
  3 88  1  0  0  0
  3 89  1  0  0  0
  4  5  1  0  0  0
  4 90  1  0  0  0
  4 91  1  0  0  0
  5  6  1  0  0  0
  5 26  1  0  0  0
  5 92  1  0  0  0
  6 25  1  0  0  0
  6 93  1  0  0  0
  6 94  1  0  0  0
  7  8  2  0  0  0
  7 26  1  0  0  0
  7 29  1  0  0  0
  8  9  1  0  0  0
  8 22  1  0  0  0
  9 10  1  0  0  0
  9 27  2  0  0  0
 10 11  2  0  0  0
 10 15  1  0  0  0
 11 12  1  0  0  0
 11 95  1  0  0  0
 12 13  2  0  0  0
 12 96  1  0  0  0
 13 14  1  0  0  0
 13 31  1  0  0  0
 14 15  2  0  0  0
 14 97  1  0  0  0
 15 98  1  0  0  0
 16 17  2  0  0  0
 16 21  1  0  0  0
 16 31  1  0  0  0
 17 18  1  0  0  0
 17 99  1  0  0  0
 18 19  2  0  0  0
 18100  1  0  0  0
 19 20  1  0  0  0
 19 24  1  0  0  0
 20 21  2  0  0  0
 20101  1  0  0  0
 21 23  1  0  0  0
 22 28  1  0  0  0
 22 32  2  0  0  0
 26 27  1  0  0  0
 28102  1  0  0  0
 28103  1  0  0  0
 29104  1  0  0  0
 29105  1  0  0  0
 33 34  1  0  0  0
 33 66  1  0  0  0
 33 70  2  0  0  0
 34 36  1  0  0  0
 34 59  1  0  0  0
 34106  1  0  0  0
 35 44  2  0  0  0
 35 45  1  0  0  0
 35 68  1  0  0  0
 36 56  1  0  0  0
 36107  1  0  0  0
 37 39  1  0  0  0
 37 47  1  0  0  0
 37 66  1  0  0  0
 37108  1  0  0  0
 38 43  2  0  0  0
 38 46  1  0  0  0
 38 47  1  0  0  0
 39 64  1  0  0  0
 39 67  2  0  0  0
 40 52  1  0  0  0
 40 53  2  0  0  0
 40 58  1  0  0  0
 41109  1  0  0  0
 41110  1  0  0  0
 41111  1  0  0  0
 41 48  1  0  0  0
 42 43  1  0  0  0
 42 66  1  0  0  0
 42112  1  0  0  0
 42113  1  0  0  0
 43 44  1  0  0  0
 44114  1  0  0  0
 45 46  2  0  0  0
 45115  1  0  0  0
 46116  1  0  0  0
 47117  1  0  0  0
 47118  1  0  0  0
 48 56  1  0  0  0
 48 65  1  0  0  0
 48119  1  0  0  0
 49 50  1  0  0  0
 49 53  1  0  0  0
 49 64  1  0  0  0
 49120  1  0  0  0
 50 51  1  0  0  0
 50121  1  0  0  0
 50122  1  0  0  0
 51 52  1  0  0  0
 51123  1  0  0  0
 51124  1  0  0  0
 52125  1  0  0  0
 52126  1  0  0  0
 53 54  1  0  0  0
 54 55  2  0  0  0
 54127  1  0  0  0
 55 57  1  0  0  0
 55128  1  0  0  0
 56 69  2  0  0  0
 57 58  2  0  0  0
 57129  1  0  0  0
 58130  1  0  0  0
 59 60  1  0  0  0
 59 61  1  0  0  0
 59 62  1  0  0  0
 60131  1  0  0  0
 60132  1  0  0  0
 60133  1  0  0  0
 61134  1  0  0  0
 61135  1  0  0  0
 61136  1  0  0  0
 62137  1  0  0  0
 62138  1  0  0  0
 62139  1  0  0  0
 63 65  1  0  0  0
 63140  1  0  0  0
 63141  1  0  0  0
 63142  1  0  0  0
 64143  1  0  0  0
 65144  1  0  0  0
 68 80  1  0  0  0
 71 72  2  0  0  0
 71 73  1  0  0  0
 71145  1  0  0  0
 72 74  1  0  0  0
 72146  1  0  0  0
 73 75  2  0  0  0
 73147  1  0  0  0
 74 76  2  0  0  0
 74 77  1  0  0  0
 75 76  1  0  0  0
 75 81  1  0  0  0
 76 85  1  0  0  0
 77 82  1  0  0  0
 77 83  2  0  0  0
 78 79  1  0  0  0
 78 80  1  0  0  0
 78 84  2  0  0  0
 79 82  1  0  0  0
 79148  1  0  0  0
 79149  1  0  0  0
 80150  1  0  0  0
 80151  1  0  0  0
 81152  1  0  0  0
 82153  1  0  0  0
M  ISO  4   1 100  68 101  80 101  81 100
M  END
> <chiral flag>
0

> <version>
0

> <s_m_source_file>
/data/baiqing/PycharmProjects/Reinvent-master-3.2/result/LINK_invent/BTK/process_docking_weight1_custom_product_contain_oxygen_bond_distance_aromatic_linkinvent_7_9_3/rearranged_h_0099.sdf

> <i_m_source_file_index>
67

> <r_mmod_Potential_Energy-OPLS-2005>
-141.195861816406

> <r_mmod_Stretch_Energy-OPLS-2005>
43.2876510620117

> <r_mmod_Bend_Energy-OPLS-2005>
95.7245407104492

> <r_mmod_Torsional_Energy-OPLS-2005>
245.230056762695

> <r_mmod_Improper_Torsional_Energy-OPLS-2005>
3.97701478004456

> <r_mmod_Van_der_Waal_Energy-OPLS-2005>
155.954498291016

> <r_mmod_Electrostatic_Energy-OPLS-2005>
-465.295593261719

> <r_mmod_Solvation_Energy-OPLS-2005>
-237.752319335938

> <b_mmod_Minimization_Converged-OPLS-2005>
0

> <r_mmod_RMS_Derivative-OPLS-2005>
0.555076420307159

$$$$
67
                    3D
 Structure written by MMmdl.
158167  0  0  1  0            999 V2000
  -30.6172  -14.6319   20.5064 C   0  0  0  0  0  0
  -30.4367  -12.3852   19.4507 C   0  0  0  0  0  0
  -29.5073  -12.5332   18.2261 C   0  0  0  0  0  0
  -28.0298  -12.3682   18.6378 C   0  0  0  0  0  0
  -27.6565  -13.2189   19.8815 C   0  0  2  0  0  0
  -28.7026  -13.0535   21.0069 C   0  0  0  0  0  0
  -25.2543  -13.8188   20.5725 C   0  0  0  0  0  0
  -24.1804  -13.0436   20.9185 C   0  0  0  0  0  0
  -24.6392  -11.6916   20.8738 C   0  0  0  0  0  0
  -23.9076  -10.4296   21.0395 C   0  0  0  0  0  0
  -24.3615   -9.4210   21.9177 C   0  0  0  0  0  0
  -23.6280   -8.2246   22.0764 C   0  0  0  0  0  0
  -22.4249   -8.0298   21.3560 C   0  0  0  0  0  0
  -21.9899   -9.0259   20.4652 C   0  0  0  0  0  0
  -22.7248  -10.2127   20.3056 C   0  0  0  0  0  0
  -21.6851   -6.0738   22.5281 C   0  0  0  0  0  0
  -21.4017   -6.5648   23.8216 C   0  0  0  0  0  0
  -21.3677   -5.6801   24.9171 C   0  0  0  0  0  0
  -21.6040   -4.3056   24.7227 C   0  0  0  0  0  0
  -21.8820   -3.8151   23.4345 C   0  0  0  0  0  0
  -21.9188   -4.6966   22.3387 C   0  0  0  0  0  0
  -22.7825  -13.5229   21.1882 C   0  0  0  0  0  0
  -22.1652   -4.2162   21.0958 F   0  0  0  0  0  0
  -21.5643   -3.4536   25.7738 F   0  0  0  0  0  0
  -30.0214  -13.3993   20.4439 N   0  0  0  0  0  0
  -26.2989  -12.9371   20.3396 N   0  0  0  0  0  0
  -25.9327  -11.6520   20.5807 N   0  0  0  0  0  0
  -22.0473  -12.8184   22.0426 N   0  0  0  0  0  0
  -25.4229  -15.1940   20.4258 N   0  0  0  0  0  0
  -31.7445  -14.8320   20.0432 O   0  0  0  0  0  0
  -21.6637   -6.8874   21.4243 O   0  0  0  0  0  0
  -22.3496  -14.5530   20.6768 O   0  0  0  0  0  0
  -24.6277  -31.8633   23.2031 C   0  0  0  0  0  0
  -25.9124  -32.4802   23.8373 C   0  0  1  0  0  0
  -27.2162  -27.2993   20.1069 C   0  0  0  0  0  0
  -25.5932  -33.8606   24.2268 N   0  0  0  0  0  0
  -23.4206  -30.4870   21.5445 C   0  0  2  0  0  0
  -24.8691  -28.9414   20.1050 C   0  0  0  0  0  0
  -22.7447  -29.4666   22.4920 C   0  0  0  0  0  0
  -18.0280  -28.1432   22.8513 C   0  0  0  0  0  0
  -24.1488  -36.7315   23.2642 C   0  0  0  0  0  0
  -25.9639  -30.7774   21.3843 C   0  0  0  0  0  0
  -26.0344  -29.4030   20.7300 C   0  0  0  0  0  0
  -27.2040  -28.5836   20.7415 C   0  0  0  0  0  0
  -26.0432  -26.9192   19.4256 C   0  0  0  0  0  0
  -24.8756  -27.7026   19.4484 C   0  0  0  0  0  0
  -23.6348  -29.8212   20.1603 C   0  0  0  0  0  0
  -25.4116  -36.3091   24.0320 C   0  0  1  0  0  0
  -20.5885  -28.3756   23.1298 C   0  0  2  0  0  0
  -20.6792  -26.9475   22.5435 C   0  0  0  0  0  0
  -19.5748  -26.6414   21.5258 C   0  0  0  0  0  0
  -18.1916  -26.7971   22.1647 C   0  0  0  0  0  0
  -19.1535  -28.8894   23.2911 C   0  0  0  0  0  0
  -18.9448  -30.1497   23.8944 C   0  0  0  0  0  0
  -17.6445  -30.6630   24.0592 C   0  0  0  0  0  0
  -25.9051  -34.9462   23.5086 C   0  0  0  0  0  0
  -16.5348  -29.9132   23.6353 C   0  0  0  0  0  0
  -16.7264  -28.6549   23.0387 C   0  0  0  0  0  0
  -26.4478  -31.6625   25.0781 C   0  0  0  0  0  0
  -25.3676  -31.3774   26.1492 C   0  0  0  0  0  0
  -27.0334  -30.3040   24.6294 C   0  0  0  0  0  0
  -27.6031  -32.4381   25.7558 C   0  0  0  0  0  0
  -27.5577  -37.1807   24.8448 C   0  0  0  0  0  0
  -21.4158  -29.3105   22.3653 N   0  0  0  0  0  0
  -26.4288  -37.3792   23.9416 N   0  0  0  0  0  0
  -24.6890  -31.0608   22.0987 N   0  0  0  0  0  0
  -23.4158  -28.8211   23.3004 O   0  0  0  0  0  0
  -28.3156  -26.4267   20.2037 O   0  0  0  0  0  0
  -26.5597  -34.8923   22.4644 O   0  0  0  0  0  0
  -23.5444  -32.1456   23.7368 O   0  0  0  0  0  0
  -29.4741  -19.2204   19.6586 C   0  0  0  0  0  0
  -29.8462  -17.8320   19.7043 C   0  0  0  0  0  0
  -29.5467  -17.8436   22.0852 C   0  0  0  0  0  0
  -29.0813  -19.9462   20.8232 C   0  0  0  0  0  0
  -29.8231  -17.0904   20.9221 C   0  0  0  0  0  0
  -29.2238  -19.2289   22.0503 C   0  0  0  0  0  0
  -26.5854  -23.4593   20.3363 C   0  0  0  0  0  0
  -26.4582  -22.6360   21.6070 C   0  0  0  0  0  0
  -27.1100  -21.2462   21.4628 C   0  0  0  0  0  0
  -29.0240  -22.5654   20.3976 C   0  0  0  0  0  0
  -28.0066  -23.6580   19.7980 C   0  0  2  0  0  0
  -28.4350  -25.1755   19.4088 C   0  0  0  0  0  0
  -28.4182  -21.2372   20.7752 N   0  0  0  0  0  0
  -29.8551  -15.6295   21.0444 N   0  0  0  0  0  0
  -25.5806  -23.8476   19.7356 O   0  0  0  0  0  0
  -29.0109  -19.8530   23.2349 F   0  0  0  0  0  0
  -31.4820  -12.5008   19.1524 H   0  0  0  0  0  0
  -30.3491  -11.3819   19.8714 H   0  0  0  0  0  0
  -29.7656  -11.8076   17.4548 H   0  0  0  0  0  0
  -29.6558  -13.5168   17.7785 H   0  0  0  0  0  0
  -27.8601  -11.3123   18.8517 H   0  0  0  0  0  0
  -27.3747  -12.6191   17.8036 H   0  0  0  0  0  0
  -27.6816  -14.2606   19.5663 H   0  0  0  0  0  0
  -28.7083  -12.0279   21.3784 H   0  0  0  0  0  0
  -28.4481  -13.6688   21.8703 H   0  0  0  0  0  0
  -25.2770   -9.5680   22.4738 H   0  0  0  0  0  0
  -24.0005   -7.4622   22.7471 H   0  0  0  0  0  0
  -21.0847   -8.8758   19.8940 H   0  0  0  0  0  0
  -22.3710  -10.9642   19.6150 H   0  0  0  0  0  0
  -21.1998   -7.6153   23.9732 H   0  0  0  0  0  0
  -21.1518   -6.0521   25.9079 H   0  0  0  0  0  0
  -22.0582   -2.7620   23.2849 H   0  0  0  0  0  0
  -22.4066  -11.9802   22.4739 H   0  0  0  0  0  0
  -21.1141  -13.1255   22.2735 H   0  0  0  0  0  0
  -24.6594  -15.8519   20.5521 H   0  0  0  0  0  0
  -26.2901  -15.6440   20.1621 H   0  0  0  0  0  0
  -26.7183  -32.5435   23.1113 H   0  0  0  0  0  0
  -25.0037  -33.9766   25.0386 H   0  0  0  0  0  0
  -22.7164  -31.3105   21.3999 H   0  0  0  0  0  0
  -23.3764  -35.9639   23.3283 H   0  0  0  0  0  0
  -24.3541  -36.8961   22.2050 H   0  0  0  0  0  0
  -23.7239  -37.6506   23.6689 H   0  0  0  0  0  0
  -26.0967  -31.5306   20.6051 H   0  0  0  0  0  0
  -26.8413  -30.8372   22.0123 H   0  0  0  0  0  0
  -28.0879  -28.9198   21.2652 H   0  0  0  0  0  0
  -25.9931  -26.0014   18.8705 H   0  0  0  0  0  0
  -23.9901  -27.3462   18.9412 H   0  0  0  0  0  0
  -23.7500  -30.5974   19.4031 H   0  0  0  0  0  0
  -22.7546  -29.2502   19.8583 H   0  0  0  0  0  0
  -25.1299  -36.1941   25.0810 H   0  0  0  0  0  0
  -20.9993  -28.3394   24.1412 H   0  0  0  0  0  0
  -20.5793  -26.2360   23.3659 H   0  0  0  0  0  0
  -21.6644  -26.7553   22.1172 H   0  0  0  0  0  0
  -19.6932  -25.6326   21.1273 H   0  0  0  0  0  0
  -19.6704  -27.3244   20.6805 H   0  0  0  0  0  0
  -17.4207  -26.6780   21.4010 H   0  0  0  0  0  0
  -18.0279  -26.0134   22.9049 H   0  0  0  0  0  0
  -19.7924  -30.7321   24.2323 H   0  0  0  0  0  0
  -17.5014  -31.6296   24.5213 H   0  0  0  0  0  0
  -15.5358  -30.3065   23.7657 H   0  0  0  0  0  0
  -15.8655  -28.0871   22.7106 H   0  0  0  0  0  0
  -24.5942  -30.7016   25.7830 H   0  0  0  0  0  0
  -24.8760  -32.2928   26.4797 H   0  0  0  0  0  0
  -25.7989  -30.9072   27.0343 H   0  0  0  0  0  0
  -26.2924  -29.6808   24.1281 H   0  0  0  0  0  0
  -27.3941  -29.7310   25.4845 H   0  0  0  0  0  0
  -27.8831  -30.4298   23.9586 H   0  0  0  0  0  0
  -27.2634  -33.3720   26.2066 H   0  0  0  0  0  0
  -28.3869  -32.6896   25.0393 H   0  0  0  0  0  0
  -28.0687  -31.8575   26.5528 H   0  0  0  0  0  0
  -28.2560  -38.0137   24.7514 H   0  0  0  0  0  0
  -28.1087  -36.2649   24.6228 H   0  0  0  0  0  0
  -27.2278  -37.1401   25.8847 H   0  0  0  0  0  0
  -20.9365  -29.8803   21.6822 H   0  0  0  0  0  0
  -26.0156  -38.2861   24.1467 H   0  0  0  0  0  0
  -29.4163  -19.7059   18.6950 H   0  0  0  0  0  0
  -30.0664  -17.3260   18.7767 H   0  0  0  0  0  0
  -29.5396  -17.3428   23.0436 H   0  0  0  0  0  0
  -25.4028  -22.5285   21.8612 H   0  0  0  0  0  0
  -26.9266  -23.1889   22.4198 H   0  0  0  0  0  0
  -26.4286  -20.5947   20.9113 H   0  0  0  0  0  0
  -27.1670  -20.8164   22.4620 H   0  0  0  0  0  0
  -29.5227  -22.9802   21.2748 H   0  0  0  0  0  0
  -29.8067  -22.3769   19.6617 H   0  0  0  0  0  0
  -27.8785  -23.2402   18.7986 H   0  0  0  0  0  0
  -28.0379  -25.3835   18.4167 H   0  0  0  0  0  0
  -29.5058  -25.1121   19.2190 H   0  0  0  0  0  0
  -29.0803  -15.2484   21.5654 H   0  0  0  0  0  0
  1 25  1  0  0  0
  1 30  2  0  0  0
  1 84  1  0  0  0
  2  3  1  0  0  0
  2 25  1  0  0  0
  2 87  1  0  0  0
  2 88  1  0  0  0
  3  4  1  0  0  0
  3 89  1  0  0  0
  3 90  1  0  0  0
  4  5  1  0  0  0
  4 91  1  0  0  0
  4 92  1  0  0  0
  5  6  1  0  0  0
  5 26  1  0  0  0
  5 93  1  0  0  0
  6 25  1  0  0  0
  6 94  1  0  0  0
  6 95  1  0  0  0
  7  8  2  0  0  0
  7 26  1  0  0  0
  7 29  1  0  0  0
  8  9  1  0  0  0
  8 22  1  0  0  0
  9 10  1  0  0  0
  9 27  2  0  0  0
 10 11  2  0  0  0
 10 15  1  0  0  0
 11 12  1  0  0  0
 11 96  1  0  0  0
 12 13  2  0  0  0
 12 97  1  0  0  0
 13 14  1  0  0  0
 13 31  1  0  0  0
 14 15  2  0  0  0
 14 98  1  0  0  0
 15 99  1  0  0  0
 16 17  2  0  0  0
 16 21  1  0  0  0
 16 31  1  0  0  0
 17 18  1  0  0  0
 17100  1  0  0  0
 18 19  2  0  0  0
 18101  1  0  0  0
 19 20  1  0  0  0
 19 24  1  0  0  0
 20 21  2  0  0  0
 20102  1  0  0  0
 21 23  1  0  0  0
 22 28  1  0  0  0
 22 32  2  0  0  0
 26 27  1  0  0  0
 28103  1  0  0  0
 28104  1  0  0  0
 29105  1  0  0  0
 29106  1  0  0  0
 33 34  1  0  0  0
 33 66  1  0  0  0
 33 70  2  0  0  0
 34 36  1  0  0  0
 34 59  1  0  0  0
 34107  1  0  0  0
 35 44  2  0  0  0
 35 45  1  0  0  0
 35 68  1  0  0  0
 36 56  1  0  0  0
 36108  1  0  0  0
 37 39  1  0  0  0
 37 47  1  0  0  0
 37 66  1  0  0  0
 37109  1  0  0  0
 38 43  2  0  0  0
 38 46  1  0  0  0
 38 47  1  0  0  0
 39 64  1  0  0  0
 39 67  2  0  0  0
 40 52  1  0  0  0
 40 53  2  0  0  0
 40 58  1  0  0  0
 41110  1  0  0  0
 41111  1  0  0  0
 41112  1  0  0  0
 41 48  1  0  0  0
 42 43  1  0  0  0
 42 66  1  0  0  0
 42113  1  0  0  0
 42114  1  0  0  0
 43 44  1  0  0  0
 44115  1  0  0  0
 45 46  2  0  0  0
 45116  1  0  0  0
 46117  1  0  0  0
 47118  1  0  0  0
 47119  1  0  0  0
 48 56  1  0  0  0
 48 65  1  0  0  0
 48120  1  0  0  0
 49 50  1  0  0  0
 49 53  1  0  0  0
 49 64  1  0  0  0
 49121  1  0  0  0
 50 51  1  0  0  0
 50122  1  0  0  0
 50123  1  0  0  0
 51 52  1  0  0  0
 51124  1  0  0  0
 51125  1  0  0  0
 52126  1  0  0  0
 52127  1  0  0  0
 53 54  1  0  0  0
 54 55  2  0  0  0
 54128  1  0  0  0
 55 57  1  0  0  0
 55129  1  0  0  0
 56 69  2  0  0  0
 57 58  2  0  0  0
 57130  1  0  0  0
 58131  1  0  0  0
 59 60  1  0  0  0
 59 61  1  0  0  0
 59 62  1  0  0  0
 60132  1  0  0  0
 60133  1  0  0  0
 60134  1  0  0  0
 61135  1  0  0  0
 61136  1  0  0  0
 61137  1  0  0  0
 62138  1  0  0  0
 62139  1  0  0  0
 62140  1  0  0  0
 63 65  1  0  0  0
 63141  1  0  0  0
 63142  1  0  0  0
 63143  1  0  0  0
 64144  1  0  0  0
 65145  1  0  0  0
 68 82  1  0  0  0
 71 72  2  0  0  0
 71 74  1  0  0  0
 71146  1  0  0  0
 72 75  1  0  0  0
 72147  1  0  0  0
 73 75  2  0  0  0
 73 76  1  0  0  0
 73148  1  0  0  0
 74 76  2  0  0  0
 74 83  1  0  0  0
 75 84  1  0  0  0
 76 86  1  0  0  0
 77 78  1  0  0  0
 77 81  1  0  0  0
 77 85  2  0  0  0
 78 79  1  0  0  0
 78149  1  0  0  0
 78150  1  0  0  0
 79 83  1  0  0  0
 79151  1  0  0  0
 79152  1  0  0  0
 80 81  1  0  0  0
 80 83  1  0  0  0
 80153  1  0  0  0
 80154  1  0  0  0
 81 82  1  0  0  0
 81155  1  0  0  0
 82156  1  0  0  0
 82157  1  0  0  0
 84158  1  0  0  0
M  ISO  4   1 100  68 101  82 101  84 100
M  END
> <chiral flag>
0

> <version>
0

> <s_m_source_file>
/data/baiqing/PycharmProjects/Reinvent-master-3.2/result/LINK_invent/BTK/process_docking_weight1_custom_product_contain_oxygen_bond_distance_aromatic_linkinvent_7_9_3/rearranged_h_0099.sdf

> <i_m_source_file_index>
68

> <r_mmod_Potential_Energy-OPLS-2005>
202.784713745117

> <r_mmod_Stretch_Energy-OPLS-2005>
95.3648986816406

> <r_mmod_Bend_Energy-OPLS-2005>
212.331481933594

> <r_mmod_Torsional_Energy-OPLS-2005>
251.202835083008

> <r_mmod_Improper_Torsional_Energy-OPLS-2005>
5.77939081192017

> <r_mmod_Van_der_Waal_Energy-OPLS-2005>
151.830535888672

> <r_mmod_Electrostatic_Energy-OPLS-2005>
-341.539794921875

> <r_mmod_Solvation_Energy-OPLS-2005>
-227.146362304688

> <b_mmod_Minimization_Converged-OPLS-2005>
0

> <r_mmod_RMS_Derivative-OPLS-2005>
4.44240283966064

$$$$
68
                    3D
 Structure written by MMmdl.
159168  0  0  1  0            999 V2000
  -30.2672  -15.6583   20.3219 C   0  0  0  0  0  0
  -30.4229  -13.0846   19.5514 C   0  0  0  0  0  0
  -29.5505  -12.6739   18.3266 C   0  0  0  0  0  0
  -28.1207  -12.3122   18.7590 C   0  0  0  0  0  0
  -27.5918  -13.3136   19.8100 C   0  0  2  0  0  0
  -28.6057  -13.6406   20.9288 C   0  0  0  0  0  0
  -25.2317  -13.8303   20.5783 C   0  0  0  0  0  0
  -24.1711  -13.0472   20.9276 C   0  0  0  0  0  0
  -24.6398  -11.6968   20.8761 C   0  0  0  0  0  0
  -23.9111  -10.4310   21.0398 C   0  0  0  0  0  0
  -24.3651   -9.4218   21.9184 C   0  0  0  0  0  0
  -23.6314   -8.2256   22.0751 C   0  0  0  0  0  0
  -22.4283   -8.0295   21.3564 C   0  0  0  0  0  0
  -21.9957   -9.0265   20.4645 C   0  0  0  0  0  0
  -22.7284  -10.2143   20.3045 C   0  0  0  0  0  0
  -21.6856   -6.0743   22.5294 C   0  0  0  0  0  0
  -21.4026   -6.5652   23.8236 C   0  0  0  0  0  0
  -21.3660   -5.6799   24.9195 C   0  0  0  0  0  0
  -21.6041   -4.3067   24.7230 C   0  0  0  0  0  0
  -21.8831   -3.8157   23.4357 C   0  0  0  0  0  0
  -21.9191   -4.6967   22.3409 C   0  0  0  0  0  0
  -22.7733  -13.5168   21.1970 C   0  0  0  0  0  0
  -22.1665   -4.2156   21.0982 F   0  0  0  0  0  0
  -21.5625   -3.4552   25.7741 F   0  0  0  0  0  0
  -29.7853  -14.2692   20.2874 N   0  0  0  0  0  0
  -26.2745  -12.9624   20.3202 N   0  0  0  0  0  0
  -25.9332  -11.6694   20.5692 N   0  0  0  0  0  0
  -22.0431  -12.8084   22.0497 N   0  0  0  0  0  0
  -25.3976  -15.2054   20.4236 N   0  0  0  0  0  0
  -31.5088  -15.6189   20.1950 O   0  0  0  0  0  0
  -21.6652   -6.8883   21.4249 O   0  0  0  0  0  0
  -22.3387  -14.5444   20.6783 O   0  0  0  0  0  0
  -24.6888  -31.7963   23.1456 C   0  0  0  0  0  0
  -25.9467  -32.4445   23.8015 C   0  0  1  0  0  0
  -27.2089  -26.6688   20.2036 C   0  0  0  0  0  0
  -25.6030  -33.8266   24.1908 N   0  0  0  0  0  0
  -23.5130  -30.3974   21.4999 C   0  0  2  0  0  0
  -24.9669  -28.7281   20.1136 C   0  0  0  0  0  0
  -22.7798  -29.4338   22.4688 C   0  0  0  0  0  0
  -18.0340  -28.1431   22.8426 C   0  0  0  0  0  0
  -24.1476  -36.7150   23.2648 C   0  0  0  0  0  0
  -26.0952  -30.5154   21.4129 C   0  0  0  0  0  0
  -26.1552  -29.0780   20.7616 C   0  0  0  0  0  0
  -27.2614  -28.0744   20.7753 C   0  0  0  0  0  0
  -25.9890  -26.5386   19.4919 C   0  0  0  0  0  0
  -24.9244  -27.4898   19.4526 C   0  0  0  0  0  0
  -23.7636  -29.6865   20.1378 C   0  0  0  0  0  0
  -25.4118  -36.2876   24.0274 C   0  0  1  0  0  0
  -20.5977  -28.3816   23.1085 C   0  0  2  0  0  0
  -20.6823  -26.9481   22.5362 C   0  0  0  0  0  0
  -19.5791  -26.6386   21.5177 C   0  0  0  0  0  0
  -18.1972  -26.7954   22.1588 C   0  0  0  0  0  0
  -19.1611  -28.8945   23.2728 C   0  0  0  0  0  0
  -18.9527  -30.1515   23.8799 C   0  0  0  0  0  0
  -17.6529  -30.6623   24.0551 C   0  0  0  0  0  0
  -25.9137  -34.9282   23.4940 C   0  0  0  0  0  0
  -16.5401  -29.9112   23.6369 C   0  0  0  0  0  0
  -16.7324  -28.6523   23.0380 C   0  0  0  0  0  0
  -26.4623  -31.6496   25.0650 C   0  0  0  0  0  0
  -25.3658  -31.3838   26.1240 C   0  0  0  0  0  0
  -27.0583  -30.2825   24.6615 C   0  0  0  0  0  0
  -27.6005  -32.4399   25.7509 C   0  0  0  0  0  0
  -27.5538  -37.1747   24.8457 C   0  0  0  0  0  0
  -21.4438  -29.3058   22.3446 N   0  0  0  0  0  0
  -26.4235  -37.3638   23.9418 N   0  0  0  0  0  0
  -24.7902  -30.9359   22.0737 N   0  0  0  0  0  0
  -23.4265  -28.7902   23.2988 O   0  0  0  0  0  0
  -28.1527  -25.4313   20.2921 O   0  0  0  0  0  0
  -26.5742  -34.8890   22.4542 O   0  0  0  0  0  0
  -23.5888  -32.1033   23.6359 O   0  0  0  0  0  0
  -28.6651  -20.5001   20.0390 C   0  0  0  0  0  0
  -30.5373  -20.9413   21.8595 C   0  0  0  0  0  0
  -29.4315  -19.1399   20.4694 C   0  0  0  0  0  0
  -28.7839  -22.0649   20.4397 C   0  0  0  0  0  0
  -29.7805  -22.0973   21.4503 C   0  0  0  0  0  0
  -30.4042  -19.5831   21.4026 C   0  0  0  0  0  0
  -30.9960  -24.1371   21.9548 C   0  0  0  0  0  0
  -29.2684  -17.3093   20.2245 C   0  0  0  0  0  0
  -30.9997  -25.5450   22.5731 C   0  0  0  0  0  0
  -30.1590  -25.6674   23.8525 C   0  0  0  0  0  0
  -28.7738  -25.0651   23.6314 C   0  0  0  0  0  0
  -28.8819  -23.6026   23.1695 C   0  0  0  0  0  0
  -27.9198  -23.6921   20.0607 C   0  0  0  0  0  0
  -28.0849  -17.0593   19.8393 N   0  0  0  0  0  0
  -29.9348  -23.3182   22.1721 N   0  0  0  0  0  0
  -31.9570  -23.8092   21.2511 O   0  0  0  0  0  0
  -31.2196  -18.6570   21.9630 F   0  0  0  0  0  0
  -31.4271  -13.3353   19.2091 H   0  0  0  0  0  0
  -30.5652  -12.2348   20.2218 H   0  0  0  0  0  0
  -30.0029  -11.8418   17.7880 H   0  0  0  0  0  0
  -29.5074  -13.5050   17.6231 H   0  0  0  0  0  0
  -28.1496  -11.3102   19.1919 H   0  0  0  0  0  0
  -27.4512  -12.2643   17.8979 H   0  0  0  0  0  0
  -27.4538  -14.2364   19.2439 H   0  0  0  0  0  0
  -28.8642  -12.7535   21.5122 H   0  0  0  0  0  0
  -28.1716  -14.3475   21.6361 H   0  0  0  0  0  0
  -25.2804   -9.5696   22.4762 H   0  0  0  0  0  0
  -24.0052   -7.4644   22.7456 H   0  0  0  0  0  0
  -21.0909   -8.8755   19.8930 H   0  0  0  0  0  0
  -22.3737  -10.9673   19.6146 H   0  0  0  0  0  0
  -21.2042   -7.6175   23.9714 H   0  0  0  0  0  0
  -21.1470   -6.0550   25.9092 H   0  0  0  0  0  0
  -22.0604   -2.7611   23.2831 H   0  0  0  0  0  0
  -22.4113  -11.9748   22.4839 H   0  0  0  0  0  0
  -21.1033  -13.1019   22.2715 H   0  0  0  0  0  0
  -24.6418  -15.8673   20.5579 H   0  0  0  0  0  0
  -26.2631  -15.6515   20.1291 H   0  0  0  0  0  0
  -26.7531  -32.4871   23.0681 H   0  0  0  0  0  0
  -25.0109  -33.9290   25.0022 H   0  0  0  0  0  0
  -22.8382  -31.2359   21.3067 H   0  0  0  0  0  0
  -23.3776  -35.9458   23.3241 H   0  0  0  0  0  0
  -24.3529  -36.8913   22.2089 H   0  0  0  0  0  0
  -23.7247  -37.6300   23.6790 H   0  0  0  0  0  0
  -26.3047  -31.2406   20.6249 H   0  0  0  0  0  0
  -26.9436  -30.5797   22.0806 H   0  0  0  0  0  0
  -28.1566  -28.3425   21.3121 H   0  0  0  0  0  0
  -25.8199  -25.6026   18.9798 H   0  0  0  0  0  0
  -24.0274  -27.2227   18.9099 H   0  0  0  0  0  0
  -23.9398  -30.4426   19.3744 H   0  0  0  0  0  0
  -22.8667  -29.1532   19.8112 H   0  0  0  0  0  0
  -25.1353  -36.1621   25.0764 H   0  0  0  0  0  0
  -21.0027  -28.3476   24.1216 H   0  0  0  0  0  0
  -20.5636  -26.2483   23.3639 H   0  0  0  0  0  0
  -21.6690  -26.7364   22.1212 H   0  0  0  0  0  0
  -19.6939  -25.6260   21.1304 H   0  0  0  0  0  0
  -19.6732  -27.3130   20.6660 H   0  0  0  0  0  0
  -17.4240  -26.6684   21.4006 H   0  0  0  0  0  0
  -18.0322  -26.0108   22.8985 H   0  0  0  0  0  0
  -19.8012  -30.7318   24.2152 H   0  0  0  0  0  0
  -17.5106  -31.6291   24.5182 H   0  0  0  0  0  0
  -15.5402  -30.3004   23.7734 H   0  0  0  0  0  0
  -15.8710  -28.0808   22.7153 H   0  0  0  0  0  0
  -24.5840  -30.7186   25.7543 H   0  0  0  0  0  0
  -24.8820  -32.3055   26.4460 H   0  0  0  0  0  0
  -25.7797  -30.9135   27.0162 H   0  0  0  0  0  0
  -26.3299  -29.6384   24.1655 H   0  0  0  0  0  0
  -27.4024  -29.7343   25.5403 H   0  0  0  0  0  0
  -27.9287  -30.3928   24.0141 H   0  0  0  0  0  0
  -27.2484  -33.3766   26.1839 H   0  0  0  0  0  0
  -28.3948  -32.6898   25.0467 H   0  0  0  0  0  0
  -28.0516  -31.8717   26.5643 H   0  0  0  0  0  0
  -28.2528  -38.0077   24.7516 H   0  0  0  0  0  0
  -28.1097  -36.2610   24.6282 H   0  0  0  0  0  0
  -27.2266  -37.1340   25.8865 H   0  0  0  0  0  0
  -20.9766  -29.8771   21.6533 H   0  0  0  0  0  0
  -26.0080  -38.2703   24.1442 H   0  0  0  0  0  0
  -27.8709  -20.3097   19.3309 H   0  0  0  0  0  0
  -31.2590  -21.0866   22.6524 H   0  0  0  0  0  0
  -30.6065  -26.2256   21.8192 H   0  0  0  0  0  0
  -32.0221  -25.8618   22.7697 H   0  0  0  0  0  0
  -30.0587  -26.7156   24.1397 H   0  0  0  0  0  0
  -30.6657  -25.1678   24.6780 H   0  0  0  0  0  0
  -28.2287  -25.6574   22.8952 H   0  0  0  0  0  0
  -28.1832  -25.1190   24.5467 H   0  0  0  0  0  0
  -27.9076  -23.2836   22.7951 H   0  0  0  0  0  0
  -29.0831  -22.9798   24.0402 H   0  0  0  0  0  0
  -26.9439  -23.5359   20.5246 H   0  0  0  0  0  0
  -27.7030  -23.6154   18.9962 H   0  0  0  0  0  0
  -27.5478  -17.9144   19.7643 H   0  0  0  0  0  0
  1 25  1  0  0  0
  1 30  2  0  0  0
  1 78  1  0  0  0
  2  3  1  0  0  0
  2 25  1  0  0  0
  2 88  1  0  0  0
  2 89  1  0  0  0
  3  4  1  0  0  0
  3 90  1  0  0  0
  3 91  1  0  0  0
  4  5  1  0  0  0
  4 92  1  0  0  0
  4 93  1  0  0  0
  5  6  1  0  0  0
  5 26  1  0  0  0
  5 94  1  0  0  0
  6 25  1  0  0  0
  6 95  1  0  0  0
  6 96  1  0  0  0
  7  8  2  0  0  0
  7 26  1  0  0  0
  7 29  1  0  0  0
  8  9  1  0  0  0
  8 22  1  0  0  0
  9 10  1  0  0  0
  9 27  2  0  0  0
 10 11  2  0  0  0
 10 15  1  0  0  0
 11 12  1  0  0  0
 11 97  1  0  0  0
 12 13  2  0  0  0
 12 98  1  0  0  0
 13 14  1  0  0  0
 13 31  1  0  0  0
 14 15  2  0  0  0
 14 99  1  0  0  0
 15100  1  0  0  0
 16 17  2  0  0  0
 16 21  1  0  0  0
 16 31  1  0  0  0
 17 18  1  0  0  0
 17101  1  0  0  0
 18 19  2  0  0  0
 18102  1  0  0  0
 19 20  1  0  0  0
 19 24  1  0  0  0
 20 21  2  0  0  0
 20103  1  0  0  0
 21 23  1  0  0  0
 22 28  1  0  0  0
 22 32  2  0  0  0
 26 27  1  0  0  0
 28104  1  0  0  0
 28105  1  0  0  0
 29106  1  0  0  0
 29107  1  0  0  0
 33 34  1  0  0  0
 33 66  1  0  0  0
 33 70  2  0  0  0
 34 36  1  0  0  0
 34 59  1  0  0  0
 34108  1  0  0  0
 35 44  2  0  0  0
 35 45  1  0  0  0
 35 68  1  0  0  0
 36 56  1  0  0  0
 36109  1  0  0  0
 37 39  1  0  0  0
 37 47  1  0  0  0
 37 66  1  0  0  0
 37110  1  0  0  0
 38 43  2  0  0  0
 38 46  1  0  0  0
 38 47  1  0  0  0
 39 64  1  0  0  0
 39 67  2  0  0  0
 40 52  1  0  0  0
 40 53  2  0  0  0
 40 58  1  0  0  0
 41111  1  0  0  0
 41112  1  0  0  0
 41113  1  0  0  0
 41 48  1  0  0  0
 42 43  1  0  0  0
 42 66  1  0  0  0
 42114  1  0  0  0
 42115  1  0  0  0
 43 44  1  0  0  0
 44116  1  0  0  0
 45 46  2  0  0  0
 45117  1  0  0  0
 46118  1  0  0  0
 47119  1  0  0  0
 47120  1  0  0  0
 48 56  1  0  0  0
 48 65  1  0  0  0
 48121  1  0  0  0
 49 50  1  0  0  0
 49 53  1  0  0  0
 49 64  1  0  0  0
 49122  1  0  0  0
 50 51  1  0  0  0
 50123  1  0  0  0
 50124  1  0  0  0
 51 52  1  0  0  0
 51125  1  0  0  0
 51126  1  0  0  0
 52127  1  0  0  0
 52128  1  0  0  0
 53 54  1  0  0  0
 54 55  2  0  0  0
 54129  1  0  0  0
 55 57  1  0  0  0
 55130  1  0  0  0
 56 69  2  0  0  0
 57 58  2  0  0  0
 57131  1  0  0  0
 58132  1  0  0  0
 59 60  1  0  0  0
 59 61  1  0  0  0
 59 62  1  0  0  0
 60133  1  0  0  0
 60134  1  0  0  0
 60135  1  0  0  0
 61136  1  0  0  0
 61137  1  0  0  0
 61138  1  0  0  0
 62139  1  0  0  0
 62140  1  0  0  0
 62141  1  0  0  0
 63 65  1  0  0  0
 63142  1  0  0  0
 63143  1  0  0  0
 63144  1  0  0  0
 64145  1  0  0  0
 65146  1  0  0  0
 68 83  1  0  0  0
 71 73  2  0  0  0
 71 74  1  0  0  0
 71147  1  0  0  0
 72 75  1  0  0  0
 72 76  2  0  0  0
 72148  1  0  0  0
 73 76  1  0  0  0
 73 78  1  0  0  0
 74 75  2  0  0  0
 74 83  1  0  0  0
 75 85  1  0  0  0
 76 87  1  0  0  0
 77 79  1  0  0  0
 77 85  1  0  0  0
 77 86  2  0  0  0
 78 84  2  0  0  0
 79 80  1  0  0  0
 79149  1  0  0  0
 79150  1  0  0  0
 80 81  1  0  0  0
 80151  1  0  0  0
 80152  1  0  0  0
 81 82  1  0  0  0
 81153  1  0  0  0
 81154  1  0  0  0
 82 85  1  0  0  0
 82155  1  0  0  0
 82156  1  0  0  0
 83157  1  0  0  0
 83158  1  0  0  0
 84159  1  0  0  0
M  ISO  4   1 100  68 101  78 100  83 101
M  END
> <chiral flag>
0

> <version>
0

> <s_m_source_file>
/data/baiqing/PycharmProjects/Reinvent-master-3.2/result/LINK_invent/BTK/process_docking_weight1_custom_product_contain_oxygen_bond_distance_aromatic_linkinvent_7_9_3/rearranged_h_0099.sdf

> <i_m_source_file_index>
69

> <r_mmod_Potential_Energy-OPLS-2005>
2741.67797851562

> <r_mmod_Stretch_Energy-OPLS-2005>
1185.87438964844

> <r_mmod_Bend_Energy-OPLS-2005>
615.665283203125

> <r_mmod_Torsional_Energy-OPLS-2005>
289.900054931641

> <r_mmod_Improper_Torsional_Energy-OPLS-2005>
7.54015874862671

> <r_mmod_Van_der_Waal_Energy-OPLS-2005>
124.561912536621

> <r_mmod_Electrostatic_Energy-OPLS-2005>
-226.010070800781

> <r_mmod_Solvation_Energy-OPLS-2005>
-211.886138916016

> <b_mmod_Minimization_Converged-OPLS-2005>
0

> <r_mmod_RMS_Derivative-OPLS-2005>
5.27340459823608

$$$$
69
                    3D
 Structure written by MMmdl.
154162  0  0  1  0            999 V2000
  -30.6595  -14.6136   20.5749 C   0  0  0  0  0  0
  -30.4317  -12.3932   19.4604 C   0  0  0  0  0  0
  -29.5121  -12.5315   18.2256 C   0  0  0  0  0  0
  -28.0345  -12.3557   18.6256 C   0  0  0  0  0  0
  -27.6544  -13.2113   19.8621 C   0  0  2  0  0  0
  -28.6890  -13.0256   20.9929 C   0  0  0  0  0  0
  -25.2495  -13.8076   20.5635 C   0  0  0  0  0  0
  -24.1802  -13.0348   20.9192 C   0  0  0  0  0  0
  -24.6412  -11.6845   20.8724 C   0  0  0  0  0  0
  -23.9096  -10.4242   21.0395 C   0  0  0  0  0  0
  -24.3649   -9.4171   21.9170 C   0  0  0  0  0  0
  -23.6296   -8.2230   22.0749 C   0  0  0  0  0  0
  -22.4284   -8.0273   21.3548 C   0  0  0  0  0  0
  -21.9924   -9.0250   20.4662 C   0  0  0  0  0  0
  -22.7263  -10.2108   20.3051 C   0  0  0  0  0  0
  -21.6861   -6.0733   22.5284 C   0  0  0  0  0  0
  -21.4032   -6.5641   23.8221 C   0  0  0  0  0  0
  -21.3654   -5.6783   24.9178 C   0  0  0  0  0  0
  -21.6030   -4.3040   24.7225 C   0  0  0  0  0  0
  -21.8814   -3.8146   23.4345 C   0  0  0  0  0  0
  -21.9205   -4.6968   22.3409 C   0  0  0  0  0  0
  -22.7818  -13.5149   21.1838 C   0  0  0  0  0  0
  -22.1666   -4.2156   21.0979 F   0  0  0  0  0  0
  -21.5614   -3.4526   25.7739 F   0  0  0  0  0  0
  -30.0145  -13.3979   20.4650 N   0  0  0  0  0  0
  -26.2968  -12.9313   20.3234 N   0  0  0  0  0  0
  -25.9330  -11.6468   20.5662 N   0  0  0  0  0  0
  -22.0491  -12.8192   22.0462 N   0  0  0  0  0  0
  -25.3965  -15.1768   20.4013 N   0  0  0  0  0  0
  -31.7349  -14.8112   19.9980 O   0  0  0  0  0  0
  -21.6622   -6.8880   21.4253 O   0  0  0  0  0  0
  -22.3521  -14.5481   20.6698 O   0  0  0  0  0  0
  -24.6259  -31.8626   23.2037 C   0  0  0  0  0  0
  -25.9101  -32.4804   23.8374 C   0  0  1  0  0  0
  -27.2200  -27.3365   20.1138 C   0  0  0  0  0  0
  -25.5920  -33.8605   24.2277 N   0  0  0  0  0  0
  -23.4197  -30.4875   21.5468 C   0  0  2  0  0  0
  -24.8611  -28.9421   20.1193 C   0  0  0  0  0  0
  -22.7469  -29.4656   22.4933 C   0  0  0  0  0  0
  -18.0285  -28.1439   22.8492 C   0  0  0  0  0  0
  -24.1479  -36.7272   23.2634 C   0  0  0  0  0  0
  -25.9596  -30.7992   21.3721 C   0  0  0  0  0  0
  -26.0340  -29.4269   20.7164 C   0  0  0  0  0  0
  -27.2169  -28.6354   20.7040 C   0  0  0  0  0  0
  -26.0269  -26.9031   19.4921 C   0  0  0  0  0  0
  -24.8562  -27.6806   19.5069 C   0  0  0  0  0  0
  -23.6361  -29.8273   20.1614 C   0  0  0  0  0  0
  -25.4112  -36.3092   24.0327 C   0  0  1  0  0  0
  -20.5878  -28.3742   23.1283 C   0  0  2  0  0  0
  -20.6785  -26.9463   22.5417 C   0  0  0  0  0  0
  -19.5748  -26.6433   21.5226 C   0  0  0  0  0  0
  -18.1928  -26.7984   22.1635 C   0  0  0  0  0  0
  -19.1538  -28.8901   23.2904 C   0  0  0  0  0  0
  -18.9471  -30.1491   23.8940 C   0  0  0  0  0  0
  -17.6475  -30.6642   24.0589 C   0  0  0  0  0  0
  -25.9056  -34.9464   23.5103 C   0  0  0  0  0  0
  -16.5355  -29.9155   23.6343 C   0  0  0  0  0  0
  -16.7274  -28.6575   23.0362 C   0  0  0  0  0  0
  -26.4504  -31.6632   25.0739 C   0  0  0  0  0  0
  -25.3753  -31.3771   26.1480 C   0  0  0  0  0  0
  -27.0338  -30.3060   24.6169 C   0  0  0  0  0  0
  -27.6076  -32.4366   25.7491 C   0  0  0  0  0  0
  -27.5565  -37.1780   24.8475 C   0  0  0  0  0  0
  -21.4180  -29.3080   22.3660 N   0  0  0  0  0  0
  -26.4282  -37.3793   23.9420 N   0  0  0  0  0  0
  -24.6877  -31.0641   22.0989 N   0  0  0  0  0  0
  -23.4171  -28.8197   23.3030 O   0  0  0  0  0  0
  -28.3449  -26.5050   20.1218 O   0  0  0  0  0  0
  -26.5616  -34.8925   22.4659 O   0  0  0  0  0  0
  -23.5420  -32.1413   23.7365 O   0  0  0  0  0  0
  -31.0704  -18.0817   21.2142 C   0  0  0  0  0  0
  -30.9914  -19.4847   20.9801 C   0  0  0  0  0  0
  -28.7175  -19.2396   20.2494 C   0  0  0  0  0  0
  -29.9792  -17.2044   20.9879 C   0  0  0  0  0  0
  -29.8060  -20.1117   20.5188 C   0  0  0  0  0  0
  -28.7949  -17.8310   20.4825 C   0  0  0  0  0  0
  -30.0521  -15.7474   21.4770 C   0  0  0  0  0  0
  -28.8031  -22.4850   20.1965 C   0  0  0  0  0  0
  -29.1695  -24.0025   19.9555 C   0  0  0  0  0  0
  -28.1442  -25.0862   20.4950 C   0  0  0  0  0  0
  -29.6794  -15.5158   22.6693 N   0  0  0  0  0  0
  -27.6349  -17.0922   20.2589 N   0  0  0  0  0  0
  -29.8077  -21.5658   20.3341 N   0  0  0  0  0  0
  -27.6140  -22.1635   20.2440 O   0  0  0  0  0  0
  -31.4798  -12.4942   19.1735 H   0  0  0  0  0  0
  -30.3491  -11.3888   19.8786 H   0  0  0  0  0  0
  -29.7841  -11.7974   17.4678 H   0  0  0  0  0  0
  -29.6566  -13.5097   17.7663 H   0  0  0  0  0  0
  -27.8752  -11.2982   18.8422 H   0  0  0  0  0  0
  -27.3851  -12.5922   17.7816 H   0  0  0  0  0  0
  -27.6882  -14.2528   19.5455 H   0  0  0  0  0  0
  -28.7025  -11.9861   21.3249 H   0  0  0  0  0  0
  -28.3838  -13.5889   21.8704 H   0  0  0  0  0  0
  -25.2813   -9.5615   22.4722 H   0  0  0  0  0  0
  -23.9999   -7.4601   22.7455 H   0  0  0  0  0  0
  -21.0850   -8.8779   19.8966 H   0  0  0  0  0  0
  -22.3741  -10.9648   19.6146 H   0  0  0  0  0  0
  -21.2038   -7.6149   23.9738 H   0  0  0  0  0  0
  -21.1479   -6.0505   25.9076 H   0  0  0  0  0  0
  -22.0612   -2.7618   23.2837 H   0  0  0  0  0  0
  -22.4113  -11.9854   22.4840 H   0  0  0  0  0  0
  -21.1141  -13.1251   22.2742 H   0  0  0  0  0  0
  -24.6133  -15.8056   20.5436 H   0  0  0  0  0  0
  -26.1978  -15.6356   19.9772 H   0  0  0  0  0  0
  -26.7166  -32.5476   23.1131 H   0  0  0  0  0  0
  -25.0118  -33.9787   25.0446 H   0  0  0  0  0  0
  -22.7150  -31.3086   21.4026 H   0  0  0  0  0  0
  -23.3760  -35.9583   23.3325 H   0  0  0  0  0  0
  -24.3572  -36.8860   22.2040 H   0  0  0  0  0  0
  -23.7204  -37.6468   23.6646 H   0  0  0  0  0  0
  -26.0854  -31.5619   20.6027 H   0  0  0  0  0  0
  -26.8450  -30.8512   21.9967 H   0  0  0  0  0  0
  -28.1228  -29.0009   21.1682 H   0  0  0  0  0  0
  -25.9847  -25.9512   18.9827 H   0  0  0  0  0  0
  -23.9543  -27.2987   19.0472 H   0  0  0  0  0  0
  -23.7713  -30.6095   19.4120 H   0  0  0  0  0  0
  -22.7542  -29.2663   19.8466 H   0  0  0  0  0  0
  -25.1285  -36.1949   25.0819 H   0  0  0  0  0  0
  -20.9990  -28.3337   24.1392 H   0  0  0  0  0  0
  -20.5725  -26.2341   23.3627 H   0  0  0  0  0  0
  -21.6654  -26.7526   22.1173 H   0  0  0  0  0  0
  -19.6919  -25.6352   21.1261 H   0  0  0  0  0  0
  -19.6693  -27.3250   20.6766 H   0  0  0  0  0  0
  -17.4191  -26.6726   21.4055 H   0  0  0  0  0  0
  -18.0330  -26.0154   22.9062 H   0  0  0  0  0  0
  -19.7950  -30.7298   24.2327 H   0  0  0  0  0  0
  -17.5044  -31.6324   24.5196 H   0  0  0  0  0  0
  -15.5369  -30.3086   23.7674 H   0  0  0  0  0  0
  -15.8661  -28.0930   22.7049 H   0  0  0  0  0  0
  -24.5910  -30.7137   25.7815 H   0  0  0  0  0  0
  -24.8976  -32.2953   26.4925 H   0  0  0  0  0  0
  -25.8100  -30.8938   27.0248 H   0  0  0  0  0  0
  -26.2891  -29.6818   24.1213 H   0  0  0  0  0  0
  -27.4080  -29.7317   25.4662 H   0  0  0  0  0  0
  -27.8762  -30.4369   23.9361 H   0  0  0  0  0  0
  -27.2699  -33.3669   26.2095 H   0  0  0  0  0  0
  -28.3882  -32.6937   25.0306 H   0  0  0  0  0  0
  -28.0783  -31.8487   26.5393 H   0  0  0  0  0  0
  -28.2609  -38.0051   24.7524 H   0  0  0  0  0  0
  -28.1028  -36.2586   24.6315 H   0  0  0  0  0  0
  -27.2289  -37.1459   25.8880 H   0  0  0  0  0  0
  -20.9348  -29.8756   21.6844 H   0  0  0  0  0  0
  -26.0158  -38.2849   24.1488 H   0  0  0  0  0  0
  -31.9818  -17.6729   21.6260 H   0  0  0  0  0  0
  -31.8631  -20.0879   21.1896 H   0  0  0  0  0  0
  -27.7888  -19.6606   19.8864 H   0  0  0  0  0  0
  -30.1658  -24.2071   20.3567 H   0  0  0  0  0  0
  -29.2603  -24.1275   18.8745 H   0  0  0  0  0  0
  -28.1889  -25.0577   21.5842 H   0  0  0  0  0  0
  -27.1387  -24.7396   20.2590 H   0  0  0  0  0  0
  -29.3546  -16.3679   23.1100 H   0  0  0  0  0  0
  -27.4352  -16.4131   20.9889 H   0  0  0  0  0  0
  -26.8074  -17.6503   20.0773 H   0  0  0  0  0  0
  -30.7270  -21.9870   20.3520 H   0  0  0  0  0  0
  1 25  1  0  0  0
  1 30  2  0  0  0
  1 77  1  0  0  0
  2  3  1  0  0  0
  2 25  1  0  0  0
  2 85  1  0  0  0
  2 86  1  0  0  0
  3  4  1  0  0  0
  3 87  1  0  0  0
  3 88  1  0  0  0
  4  5  1  0  0  0
  4 89  1  0  0  0
  4 90  1  0  0  0
  5  6  1  0  0  0
  5 26  1  0  0  0
  5 91  1  0  0  0
  6 25  1  0  0  0
  6 92  1  0  0  0
  6 93  1  0  0  0
  7  8  2  0  0  0
  7 26  1  0  0  0
  7 29  1  0  0  0
  8  9  1  0  0  0
  8 22  1  0  0  0
  9 10  1  0  0  0
  9 27  2  0  0  0
 10 11  2  0  0  0
 10 15  1  0  0  0
 11 12  1  0  0  0
 11 94  1  0  0  0
 12 13  2  0  0  0
 12 95  1  0  0  0
 13 14  1  0  0  0
 13 31  1  0  0  0
 14 15  2  0  0  0
 14 96  1  0  0  0
 15 97  1  0  0  0
 16 17  2  0  0  0
 16 21  1  0  0  0
 16 31  1  0  0  0
 17 18  1  0  0  0
 17 98  1  0  0  0
 18 19  2  0  0  0
 18 99  1  0  0  0
 19 20  1  0  0  0
 19 24  1  0  0  0
 20 21  2  0  0  0
 20100  1  0  0  0
 21 23  1  0  0  0
 22 28  1  0  0  0
 22 32  2  0  0  0
 26 27  1  0  0  0
 28101  1  0  0  0
 28102  1  0  0  0
 29103  1  0  0  0
 29104  1  0  0  0
 33 34  1  0  0  0
 33 66  1  0  0  0
 33 70  2  0  0  0
 34 36  1  0  0  0
 34 59  1  0  0  0
 34105  1  0  0  0
 35 44  2  0  0  0
 35 45  1  0  0  0
 35 68  1  0  0  0
 36 56  1  0  0  0
 36106  1  0  0  0
 37 39  1  0  0  0
 37 47  1  0  0  0
 37 66  1  0  0  0
 37107  1  0  0  0
 38 43  2  0  0  0
 38 46  1  0  0  0
 38 47  1  0  0  0
 39 64  1  0  0  0
 39 67  2  0  0  0
 40 52  1  0  0  0
 40 53  2  0  0  0
 40 58  1  0  0  0
 41108  1  0  0  0
 41109  1  0  0  0
 41110  1  0  0  0
 41 48  1  0  0  0
 42 43  1  0  0  0
 42 66  1  0  0  0
 42111  1  0  0  0
 42112  1  0  0  0
 43 44  1  0  0  0
 44113  1  0  0  0
 45 46  2  0  0  0
 45114  1  0  0  0
 46115  1  0  0  0
 47116  1  0  0  0
 47117  1  0  0  0
 48 56  1  0  0  0
 48 65  1  0  0  0
 48118  1  0  0  0
 49 50  1  0  0  0
 49 53  1  0  0  0
 49 64  1  0  0  0
 49119  1  0  0  0
 50 51  1  0  0  0
 50120  1  0  0  0
 50121  1  0  0  0
 51 52  1  0  0  0
 51122  1  0  0  0
 51123  1  0  0  0
 52124  1  0  0  0
 52125  1  0  0  0
 53 54  1  0  0  0
 54 55  2  0  0  0
 54126  1  0  0  0
 55 57  1  0  0  0
 55127  1  0  0  0
 56 69  2  0  0  0
 57 58  2  0  0  0
 57128  1  0  0  0
 58129  1  0  0  0
 59 60  1  0  0  0
 59 61  1  0  0  0
 59 62  1  0  0  0
 60130  1  0  0  0
 60131  1  0  0  0
 60132  1  0  0  0
 61133  1  0  0  0
 61134  1  0  0  0
 61135  1  0  0  0
 62136  1  0  0  0
 62137  1  0  0  0
 62138  1  0  0  0
 63 65  1  0  0  0
 63139  1  0  0  0
 63140  1  0  0  0
 63141  1  0  0  0
 64142  1  0  0  0
 65143  1  0  0  0
 68 80  1  0  0  0
 71 72  2  0  0  0
 71 74  1  0  0  0
 71144  1  0  0  0
 72 75  1  0  0  0
 72145  1  0  0  0
 73 75  2  0  0  0
 73 76  1  0  0  0
 73146  1  0  0  0
 74 76  2  0  0  0
 74 77  1  0  0  0
 75 83  1  0  0  0
 76 82  1  0  0  0
 77 81  2  0  0  0
 78 79  1  0  0  0
 78 83  1  0  0  0
 78 84  2  0  0  0
 79 80  1  0  0  0
 79147  1  0  0  0
 79148  1  0  0  0
 80149  1  0  0  0
 80150  1  0  0  0
 81151  1  0  0  0
 82152  1  0  0  0
 82153  1  0  0  0
 83154  1  0  0  0
M  ISO  4   1 100  68 101  77 100  80 101
M  END
> <chiral flag>
0

> <version>
0

> <s_m_source_file>
/data/baiqing/PycharmProjects/Reinvent-master-3.2/result/LINK_invent/BTK/process_docking_weight1_custom_product_contain_oxygen_bond_distance_aromatic_linkinvent_7_9_3/rearranged_h_0099.sdf

> <i_m_source_file_index>
70

> <r_mmod_Potential_Energy-OPLS-2005>
228.033264160156

> <r_mmod_Stretch_Energy-OPLS-2005>
82.6574401855469

> <r_mmod_Bend_Energy-OPLS-2005>
142.34294128418

> <r_mmod_Torsional_Energy-OPLS-2005>
244.710296630859

> <r_mmod_Improper_Torsional_Energy-OPLS-2005>
9.4391450881958

> <r_mmod_Van_der_Waal_Energy-OPLS-2005>
152.098114013672

> <r_mmod_Electrostatic_Energy-OPLS-2005>
-223.340560913086

> <r_mmod_Solvation_Energy-OPLS-2005>
-219.079788208008

> <b_mmod_Minimization_Converged-OPLS-2005>
0

> <r_mmod_RMS_Derivative-OPLS-2005>
3.93905901908875

$$$$
70
                    3D
 Structure written by MMmdl.
150158  0  0  1  0            999 V2000
  -30.4043  -15.2801   20.3667 C   0  0  0  0  0  0
  -30.4513  -12.8183   19.5141 C   0  0  0  0  0  0
  -29.5409  -12.5770   18.2823 C   0  0  0  0  0  0
  -28.0881  -12.2998   18.7116 C   0  0  0  0  0  0
  -27.6159  -13.2722   19.8213 C   0  0  2  0  0  0
  -28.6532  -13.4340   20.9522 C   0  0  0  0  0  0
  -25.2413  -13.8238   20.5727 C   0  0  0  0  0  0
  -24.1764  -13.0433   20.9254 C   0  0  0  0  0  0
  -24.6413  -11.6927   20.8749 C   0  0  0  0  0  0
  -23.9099  -10.4288   21.0398 C   0  0  0  0  0  0
  -24.3638   -9.4204   21.9180 C   0  0  0  0  0  0
  -23.6301   -8.2245   22.0755 C   0  0  0  0  0  0
  -22.4284   -8.0285   21.3546 C   0  0  0  0  0  0
  -21.9924   -9.0259   20.4645 C   0  0  0  0  0  0
  -22.7263  -10.2131   20.3048 C   0  0  0  0  0  0
  -21.6856   -6.0734   22.5277 C   0  0  0  0  0  0
  -21.4020   -6.5639   23.8213 C   0  0  0  0  0  0
  -21.3656   -5.6791   24.9174 C   0  0  0  0  0  0
  -21.6046   -4.3053   24.7225 C   0  0  0  0  0  0
  -21.8818   -3.8142   23.4349 C   0  0  0  0  0  0
  -21.9198   -4.6962   22.3404 C   0  0  0  0  0  0
  -22.7781  -13.5186   21.1903 C   0  0  0  0  0  0
  -22.1662   -4.2147   21.0981 F   0  0  0  0  0  0
  -21.5626   -3.4537   25.7738 F   0  0  0  0  0  0
  -29.8809  -13.9546   20.3253 N   0  0  0  0  0  0
  -26.2845  -12.9510   20.3194 N   0  0  0  0  0  0
  -25.9351  -11.6617   20.5703 N   0  0  0  0  0  0
  -22.0429  -12.8166   22.0451 N   0  0  0  0  0  0
  -25.4005  -15.1979   20.4153 N   0  0  0  0  0  0
  -31.6299  -15.3217   20.1761 O   0  0  0  0  0  0
  -21.6646   -6.8881   21.4243 O   0  0  0  0  0  0
  -22.3456  -14.5483   20.6741 O   0  0  0  0  0  0
  -24.6646  -31.8231   23.1702 C   0  0  0  0  0  0
  -25.9316  -32.4595   23.8177 C   0  0  1  0  0  0
  -27.2198  -26.9142   20.1873 C   0  0  0  0  0  0
  -25.5976  -33.8410   24.2078 N   0  0  0  0  0  0
  -23.4811  -30.4344   21.5209 C   0  0  2  0  0  0
  -24.9371  -28.8196   20.1187 C   0  0  0  0  0  0
  -22.7678  -29.4439   22.4787 C   0  0  0  0  0  0
  -18.0327  -28.1417   22.8483 C   0  0  0  0  0  0
  -24.1484  -36.7205   23.2652 C   0  0  0  0  0  0
  -26.0525  -30.6240   21.4056 C   0  0  0  0  0  0
  -26.1228  -29.2105   20.7549 C   0  0  0  0  0  0
  -27.2617  -28.2791   20.7674 C   0  0  0  0  0  0
  -26.0060  -26.6834   19.5030 C   0  0  0  0  0  0
  -24.9038  -27.5747   19.4734 C   0  0  0  0  0  0
  -23.7244  -29.7494   20.1490 C   0  0  0  0  0  0
  -25.4131  -36.2979   24.0297 C   0  0  1  0  0  0
  -20.5950  -28.3772   23.1183 C   0  0  2  0  0  0
  -20.6797  -26.9451   22.5404 C   0  0  0  0  0  0
  -19.5764  -26.6388   21.5219 C   0  0  0  0  0  0
  -18.1950  -26.7955   22.1634 C   0  0  0  0  0  0
  -19.1594  -28.8917   23.2822 C   0  0  0  0  0  0
  -18.9501  -30.1509   23.8862 C   0  0  0  0  0  0
  -17.6490  -30.6611   24.0566 C   0  0  0  0  0  0
  -25.9099  -34.9358   23.5016 C   0  0  0  0  0  0
  -16.5381  -29.9100   23.6346 C   0  0  0  0  0  0
  -16.7306  -28.6515   23.0374 C   0  0  0  0  0  0
  -26.4558  -31.6540   25.0711 C   0  0  0  0  0  0
  -25.3684  -31.3783   26.1365 C   0  0  0  0  0  0
  -27.0458  -30.2909   24.6452 C   0  0  0  0  0  0
  -27.6056  -32.4342   25.7518 C   0  0  0  0  0  0
  -27.5561  -37.1765   24.8479 C   0  0  0  0  0  0
  -21.4346  -29.3057   22.3526 N   0  0  0  0  0  0
  -26.4285  -37.3708   23.9396 N   0  0  0  0  0  0
  -24.7543  -30.9879   22.0855 N   0  0  0  0  0  0
  -23.4215  -28.8000   23.3035 O   0  0  0  0  0  0
  -28.1845  -25.7662   20.1886 O   0  0  0  0  0  0
  -26.5712  -34.8897   22.4613 O   0  0  0  0  0  0
  -23.5704  -32.1217   23.6762 O   0  0  0  0  0  0
  -27.9532  -20.2507   19.8750 C   0  0  0  0  0  0
  -30.3015  -19.2277   20.7871 C   0  0  0  0  0  0
  -28.7427  -21.3778   20.3723 C   0  0  0  0  0  0
  -29.9759  -20.7026   20.8197 C   0  0  0  0  0  0
  -29.4497  -18.1168   20.3388 C   0  0  0  0  0  0
  -28.2509  -18.7954   19.8693 C   0  0  0  0  0  0
  -27.8293  -24.3775   20.7134 C   0  0  0  0  0  0
  -28.0279  -22.8889   20.7829 C   0  0  0  0  0  0
  -27.0497  -22.3417   21.8365 C   0  0  0  0  0  0
  -30.9375  -21.5331   21.3921 N   0  0  0  0  0  0
  -29.5410  -16.4859   20.3987 N   0  0  0  0  0  0
  -27.2696  -17.9841   19.4049 F   0  0  0  0  0  0
  -31.4628  -13.0457   19.1735 H   0  0  0  0  0  0
  -30.5397  -11.9136   20.1176 H   0  0  0  0  0  0
  -29.9216  -11.7469   17.6855 H   0  0  0  0  0  0
  -29.5681  -13.4562   17.6371 H   0  0  0  0  0  0
  -28.0434  -11.2751   19.0822 H   0  0  0  0  0  0
  -27.4195  -12.3415   17.8512 H   0  0  0  0  0  0
  -27.5325  -14.2417   19.3294 H   0  0  0  0  0  0
  -28.8275  -12.4912   21.4728 H   0  0  0  0  0  0
  -28.2946  -14.1415   21.7020 H   0  0  0  0  0  0
  -25.2779   -9.5682   22.4759 H   0  0  0  0  0  0
  -24.0008   -7.4636   22.7474 H   0  0  0  0  0  0
  -21.0856   -8.8781   19.8945 H   0  0  0  0  0  0
  -22.3723  -10.9673   19.6158 H   0  0  0  0  0  0
  -21.2013   -7.6147   23.9716 H   0  0  0  0  0  0
  -21.1479   -6.0520   25.9078 H   0  0  0  0  0  0
  -22.0599   -2.7604   23.2850 H   0  0  0  0  0  0
  -22.4063  -11.9845   22.4855 H   0  0  0  0  0  0
  -21.1036  -13.1169   22.2629 H   0  0  0  0  0  0
  -24.6191  -15.8347   20.5271 H   0  0  0  0  0  0
  -26.2189  -15.6496   20.0292 H   0  0  0  0  0  0
  -26.7401  -32.5133   23.0907 H   0  0  0  0  0  0
  -25.0066  -33.9489   25.0188 H   0  0  0  0  0  0
  -22.7953  -31.2655   21.3462 H   0  0  0  0  0  0
  -23.3760  -35.9526   23.3333 H   0  0  0  0  0  0
  -24.3552  -36.8834   22.2066 H   0  0  0  0  0  0
  -23.7237  -37.6400   23.6692 H   0  0  0  0  0  0
  -26.2322  -31.3611   20.6216 H   0  0  0  0  0  0
  -26.9126  -30.6873   22.0599 H   0  0  0  0  0  0
  -28.1606  -28.5779   21.2881 H   0  0  0  0  0  0
  -25.8843  -25.7306   19.0089 H   0  0  0  0  0  0
  -24.0046  -27.2671   18.9564 H   0  0  0  0  0  0
  -23.8858  -30.5171   19.3918 H   0  0  0  0  0  0
  -22.8330  -29.2068   19.8293 H   0  0  0  0  0  0
  -25.1324  -36.1799   25.0787 H   0  0  0  0  0  0
  -21.0048  -28.3398   24.1301 H   0  0  0  0  0  0
  -20.5672  -26.2396   23.3650 H   0  0  0  0  0  0
  -21.6653  -26.7407   22.1213 H   0  0  0  0  0  0
  -19.6914  -25.6285   21.1275 H   0  0  0  0  0  0
  -19.6691  -27.3176   20.6729 H   0  0  0  0  0  0
  -17.4205  -26.6719   21.4049 H   0  0  0  0  0  0
  -18.0350  -26.0102   22.9036 H   0  0  0  0  0  0
  -19.7973  -30.7344   24.2213 H   0  0  0  0  0  0
  -17.5035  -31.6283   24.5179 H   0  0  0  0  0  0
  -15.5377  -30.2985   23.7688 H   0  0  0  0  0  0
  -15.8712  -28.0811   22.7111 H   0  0  0  0  0  0
  -24.5894  -30.7102   25.7677 H   0  0  0  0  0  0
  -24.8838  -32.2978   26.4661 H   0  0  0  0  0  0
  -25.7918  -30.9050   27.0232 H   0  0  0  0  0  0
  -26.3140  -29.6588   24.1417 H   0  0  0  0  0  0
  -27.3957  -29.7270   25.5108 H   0  0  0  0  0  0
  -27.9087  -30.4098   23.9896 H   0  0  0  0  0  0
  -27.2631  -33.3674   26.1995 H   0  0  0  0  0  0
  -28.3925  -32.6845   25.0392 H   0  0  0  0  0  0
  -28.0669  -31.8545   26.5527 H   0  0  0  0  0  0
  -28.2591  -38.0047   24.7473 H   0  0  0  0  0  0
  -28.1038  -36.2566   24.6364 H   0  0  0  0  0  0
  -27.2270  -37.1486   25.8885 H   0  0  0  0  0  0
  -20.9608  -29.8739   21.6642 H   0  0  0  0  0  0
  -26.0147  -38.2778   24.1381 H   0  0  0  0  0  0
  -26.9611  -20.5013   19.5325 H   0  0  0  0  0  0
  -31.2566  -18.9318   21.1960 H   0  0  0  0  0  0
  -27.0325  -24.6753   21.3761 H   0  0  0  0  0  0
  -26.2860  -21.7197   21.3707 H   0  0  0  0  0  0
  -26.5080  -23.0787   22.4279 H   0  0  0  0  0  0
  -27.5837  -21.7297   22.5655 H   0  0  0  0  0  0
  -31.7429  -21.1566   21.8828 H   0  0  0  0  0  0
  -30.7051  -22.4935   21.6269 H   0  0  0  0  0  0
  -28.5972  -16.1309   20.3903 H   0  0  0  0  0  0
  1 25  1  0  0  0
  1 30  2  0  0  0
  1 81  1  0  0  0
  2  3  1  0  0  0
  2 25  1  0  0  0
  2 83  1  0  0  0
  2 84  1  0  0  0
  3  4  1  0  0  0
  3 85  1  0  0  0
  3 86  1  0  0  0
  4  5  1  0  0  0
  4 87  1  0  0  0
  4 88  1  0  0  0
  5  6  1  0  0  0
  5 26  1  0  0  0
  5 89  1  0  0  0
  6 25  1  0  0  0
  6 90  1  0  0  0
  6 91  1  0  0  0
  7  8  2  0  0  0
  7 26  1  0  0  0
  7 29  1  0  0  0
  8  9  1  0  0  0
  8 22  1  0  0  0
  9 10  1  0  0  0
  9 27  2  0  0  0
 10 11  2  0  0  0
 10 15  1  0  0  0
 11 12  1  0  0  0
 11 92  1  0  0  0
 12 13  2  0  0  0
 12 93  1  0  0  0
 13 14  1  0  0  0
 13 31  1  0  0  0
 14 15  2  0  0  0
 14 94  1  0  0  0
 15 95  1  0  0  0
 16 17  2  0  0  0
 16 21  1  0  0  0
 16 31  1  0  0  0
 17 18  1  0  0  0
 17 96  1  0  0  0
 18 19  2  0  0  0
 18 97  1  0  0  0
 19 20  1  0  0  0
 19 24  1  0  0  0
 20 21  2  0  0  0
 20 98  1  0  0  0
 21 23  1  0  0  0
 22 28  1  0  0  0
 22 32  2  0  0  0
 26 27  1  0  0  0
 28 99  1  0  0  0
 28100  1  0  0  0
 29101  1  0  0  0
 29102  1  0  0  0
 33 34  1  0  0  0
 33 66  1  0  0  0
 33 70  2  0  0  0
 34 36  1  0  0  0
 34 59  1  0  0  0
 34103  1  0  0  0
 35 44  2  0  0  0
 35 45  1  0  0  0
 35 68  1  0  0  0
 36 56  1  0  0  0
 36104  1  0  0  0
 37 39  1  0  0  0
 37 47  1  0  0  0
 37 66  1  0  0  0
 37105  1  0  0  0
 38 43  2  0  0  0
 38 46  1  0  0  0
 38 47  1  0  0  0
 39 64  1  0  0  0
 39 67  2  0  0  0
 40 52  1  0  0  0
 40 53  2  0  0  0
 40 58  1  0  0  0
 41106  1  0  0  0
 41107  1  0  0  0
 41108  1  0  0  0
 41 48  1  0  0  0
 42 43  1  0  0  0
 42 66  1  0  0  0
 42109  1  0  0  0
 42110  1  0  0  0
 43 44  1  0  0  0
 44111  1  0  0  0
 45 46  2  0  0  0
 45112  1  0  0  0
 46113  1  0  0  0
 47114  1  0  0  0
 47115  1  0  0  0
 48 56  1  0  0  0
 48 65  1  0  0  0
 48116  1  0  0  0
 49 50  1  0  0  0
 49 53  1  0  0  0
 49 64  1  0  0  0
 49117  1  0  0  0
 50 51  1  0  0  0
 50118  1  0  0  0
 50119  1  0  0  0
 51 52  1  0  0  0
 51120  1  0  0  0
 51121  1  0  0  0
 52122  1  0  0  0
 52123  1  0  0  0
 53 54  1  0  0  0
 54 55  2  0  0  0
 54124  1  0  0  0
 55 57  1  0  0  0
 55125  1  0  0  0
 56 69  2  0  0  0
 57 58  2  0  0  0
 57126  1  0  0  0
 58127  1  0  0  0
 59 60  1  0  0  0
 59 61  1  0  0  0
 59 62  1  0  0  0
 60128  1  0  0  0
 60129  1  0  0  0
 60130  1  0  0  0
 61131  1  0  0  0
 61132  1  0  0  0
 61133  1  0  0  0
 62134  1  0  0  0
 62135  1  0  0  0
 62136  1  0  0  0
 63 65  1  0  0  0
 63137  1  0  0  0
 63138  1  0  0  0
 63139  1  0  0  0
 64140  1  0  0  0
 65141  1  0  0  0
 68 77  1  0  0  0
 71 73  2  0  0  0
 71 76  1  0  0  0
 71142  1  0  0  0
 72 74  2  0  0  0
 72 75  1  0  0  0
 72143  1  0  0  0
 73 74  1  0  0  0
 73 78  1  0  0  0
 74 80  1  0  0  0
 75 76  2  0  0  0
 75 81  1  0  0  0
 76 82  1  0  0  0
 77 78  2  0  0  0
 77144  1  0  0  0
 78 79  1  0  0  0
 79145  1  0  0  0
 79146  1  0  0  0
 79147  1  0  0  0
 80148  1  0  0  0
 80149  1  0  0  0
 81150  1  0  0  0
M  ISO  4   1 100  68 101  77 101  81 100
M  END
> <chiral flag>
0

> <version>
0

> <s_m_source_file>
/data/baiqing/PycharmProjects/Reinvent-master-3.2/result/LINK_invent/BTK/process_docking_weight1_custom_product_contain_oxygen_bond_distance_aromatic_linkinvent_7_9_3/rearranged_h_0099.sdf

> <i_m_source_file_index>
71

> <r_mmod_Potential_Energy-OPLS-2005>
1432.34167480469

> <r_mmod_Stretch_Energy-OPLS-2005>
520.113525390625

> <r_mmod_Bend_Energy-OPLS-2005>
622.517211914062

> <r_mmod_Torsional_Energy-OPLS-2005>
258.445068359375

> <r_mmod_Improper_Torsional_Energy-OPLS-2005>
13.0102615356445

> <r_mmod_Van_der_Waal_Energy-OPLS-2005>
139.869277954102

> <r_mmod_Electrostatic_Energy-OPLS-2005>
-401.314788818359

> <r_mmod_Solvation_Energy-OPLS-2005>
-204.507675170898

> <b_mmod_Minimization_Converged-OPLS-2005>
0

> <r_mmod_RMS_Derivative-OPLS-2005>
1.50416576862335

$$$$
71
                    3D
 Structure written by MMmdl.
157165  0  0  1  0            999 V2000
  -30.7205  -14.4777   20.5663 C   0  0  0  0  0  0
  -30.4158  -12.3104   19.4271 C   0  0  0  0  0  0
  -29.4914  -12.5019   18.2083 C   0  0  0  0  0  0
  -28.0141  -12.3621   18.6224 C   0  0  0  0  0  0
  -27.6585  -13.2124   19.8718 C   0  0  2  0  0  0
  -28.7013  -13.0173   20.9961 C   0  0  0  0  0  0
  -25.2579  -13.8181   20.5693 C   0  0  0  0  0  0
  -24.1832  -13.0446   20.9173 C   0  0  0  0  0  0
  -24.6392  -11.6917   20.8731 C   0  0  0  0  0  0
  -23.9062  -10.4297   21.0402 C   0  0  0  0  0  0
  -24.3616   -9.4214   21.9181 C   0  0  0  0  0  0
  -23.6294   -8.2248   22.0753 C   0  0  0  0  0  0
  -22.4274   -8.0283   21.3545 C   0  0  0  0  0  0
  -21.9909   -9.0255   20.4646 C   0  0  0  0  0  0
  -22.7235  -10.2136   20.3053 C   0  0  0  0  0  0
  -21.6854   -6.0737   22.5279 C   0  0  0  0  0  0
  -21.4015   -6.5642   23.8212 C   0  0  0  0  0  0
  -21.3659   -5.6795   24.9175 C   0  0  0  0  0  0
  -21.6044   -4.3057   24.7226 C   0  0  0  0  0  0
  -21.8819   -3.8149   23.4346 C   0  0  0  0  0  0
  -21.9193   -4.6965   22.3403 C   0  0  0  0  0  0
  -22.7853  -13.5240   21.1842 C   0  0  0  0  0  0
  -22.1661   -4.2152   21.0980 F   0  0  0  0  0  0
  -21.5628   -3.4540   25.7738 F   0  0  0  0  0  0
  -30.0312  -13.3104   20.4373 N   0  0  0  0  0  0
  -26.3014  -12.9357   20.3366 N   0  0  0  0  0  0
  -25.9322  -11.6511   20.5770 N   0  0  0  0  0  0
  -22.0499  -12.8225   22.0400 N   0  0  0  0  0  0
  -25.4303  -15.1903   20.4138 N   0  0  0  0  0  0
  -31.8538  -14.6222   20.1002 O   0  0  0  0  0  0
  -21.6640   -6.8879   21.4241 O   0  0  0  0  0  0
  -22.3533  -14.5544   20.6696 O   0  0  0  0  0  0
  -24.6177  -31.8682   23.2114 C   0  0  0  0  0  0
  -25.9066  -32.4821   23.8403 C   0  0  1  0  0  0
  -27.2204  -27.4094   20.0945 C   0  0  0  0  0  0
  -25.5918  -33.8619   24.2327 N   0  0  0  0  0  0
  -23.4058  -30.4958   21.5526 C   0  0  2  0  0  0
  -24.8498  -28.9705   20.1084 C   0  0  0  0  0  0
  -22.7431  -29.4661   22.4971 C   0  0  0  0  0  0
  -18.0278  -28.1380   22.8484 C   0  0  0  0  0  0
  -24.1496  -36.7311   23.2638 C   0  0  0  0  0  0
  -25.9401  -30.8276   21.3697 C   0  0  0  0  0  0
  -26.0150  -29.4640   20.7092 C   0  0  0  0  0  0
  -27.2046  -28.6924   20.6976 C   0  0  0  0  0  0
  -26.0355  -26.9550   19.4647 C   0  0  0  0  0  0
  -24.8569  -27.7167   19.4815 C   0  0  0  0  0  0
  -23.6143  -29.8392   20.1636 C   0  0  0  0  0  0
  -25.4116  -36.3105   24.0334 C   0  0  1  0  0  0
  -20.5872  -28.3669   23.1308 C   0  0  2  0  0  0
  -20.6775  -26.9401   22.5416 C   0  0  0  0  0  0
  -19.5752  -26.6383   21.5217 C   0  0  0  0  0  0
  -18.1928  -26.7924   22.1623 C   0  0  0  0  0  0
  -19.1528  -28.8840   23.2892 C   0  0  0  0  0  0
  -18.9455  -30.1445   23.8903 C   0  0  0  0  0  0
  -17.6458  -30.6582   24.0562 C   0  0  0  0  0  0
  -25.9044  -34.9472   23.5122 C   0  0  0  0  0  0
  -16.5349  -29.9084   23.6327 C   0  0  0  0  0  0
  -16.7266  -28.6504   23.0336 C   0  0  0  0  0  0
  -26.4483  -31.6603   25.0736 C   0  0  0  0  0  0
  -25.3743  -31.3712   26.1479 C   0  0  0  0  0  0
  -27.0317  -30.3043   24.6124 C   0  0  0  0  0  0
  -27.6057  -32.4326   25.7499 C   0  0  0  0  0  0
  -27.5582  -37.1814   24.8463 C   0  0  0  0  0  0
  -21.4156  -29.3037   22.3715 N   0  0  0  0  0  0
  -26.4298  -37.3790   23.9402 N   0  0  0  0  0  0
  -24.6730  -31.0773   22.1026 N   0  0  0  0  0  0
  -23.4198  -28.8191   23.3007 O   0  0  0  0  0  0
  -28.3561  -26.6114   20.1505 O   0  0  0  0  0  0
  -26.5598  -34.8919   22.4679 O   0  0  0  0  0  0
  -23.5365  -32.1443   23.7498 O   0  0  0  0  0  0
  -32.1444  -18.6321   21.4023 C   0  0  0  0  0  0
  -31.2039  -19.6251   21.0718 C   0  0  0  0  0  0
  -31.7734  -17.2753   21.4188 C   0  0  0  0  0  0
  -29.8663  -19.2797   20.7691 C   0  0  0  0  0  0
  -30.4485  -16.8917   21.1072 C   0  0  0  0  0  0
  -29.4952  -17.9023   20.8206 C   0  0  0  0  0  0
  -28.6788  -22.8216   20.9549 C   0  0  0  0  0  0
  -28.2718  -20.1316   18.9724 C   0  0  0  0  0  0
  -29.2068  -24.2539   20.6825 C   0  0  0  0  0  0
  -28.1118  -25.1827   20.0882 C   0  0  0  0  0  0
  -28.8399  -20.3679   20.3840 C   0  0  2  0  0  0
  -30.0405  -15.5166   21.0964 N   0  0  0  0  0  0
  -29.3332  -21.7650   20.4315 N   0  0  0  0  0  0
  -27.6577  -22.6759   21.6304 O   0  0  0  0  0  0
  -28.2152  -17.5271   20.5772 F   0  0  0  0  0  0
  -31.4610  -12.3950   19.1250 H   0  0  0  0  0  0
  -30.3074  -11.3051   19.8363 H   0  0  0  0  0  0
  -29.7321  -11.7720   17.4343 H   0  0  0  0  0  0
  -29.6594  -13.4849   17.7653 H   0  0  0  0  0  0
  -27.8287  -11.3071   18.8278 H   0  0  0  0  0  0
  -27.3620  -12.6266   17.7894 H   0  0  0  0  0  0
  -27.6958  -14.2568   19.5610 H   0  0  0  0  0  0
  -28.6780  -11.9899   21.3629 H   0  0  0  0  0  0
  -28.4651  -13.6414   21.8591 H   0  0  0  0  0  0
  -25.2763   -9.5690   22.4753 H   0  0  0  0  0  0
  -24.0004   -7.4640   22.7472 H   0  0  0  0  0  0
  -21.0841   -8.8772   19.8951 H   0  0  0  0  0  0
  -22.3694  -10.9673   19.6161 H   0  0  0  0  0  0
  -21.2008   -7.6151   23.9717 H   0  0  0  0  0  0
  -21.1481   -6.0525   25.9077 H   0  0  0  0  0  0
  -22.0598   -2.7612   23.2846 H   0  0  0  0  0  0
  -22.4116  -11.9883   22.4778 H   0  0  0  0  0  0
  -21.1120  -13.1250   22.2616 H   0  0  0  0  0  0
  -24.6678  -15.8471   20.5385 H   0  0  0  0  0  0
  -26.2939  -15.6394   20.1346 H   0  0  0  0  0  0
  -26.7138  -32.5520   23.1166 H   0  0  0  0  0  0
  -25.0085  -33.9783   25.0483 H   0  0  0  0  0  0
  -22.6945  -31.3133   21.4175 H   0  0  0  0  0  0
  -23.3751  -35.9652   23.3315 H   0  0  0  0  0  0
  -24.3590  -36.8913   22.2050 H   0  0  0  0  0  0
  -23.7262  -37.6525   23.6644 H   0  0  0  0  0  0
  -26.0610  -31.5973   20.6060 H   0  0  0  0  0  0
  -26.8258  -30.8734   21.9920 H   0  0  0  0  0  0
  -28.0997  -29.0641   21.1767 H   0  0  0  0  0  0
  -25.9906  -26.0021   18.9584 H   0  0  0  0  0  0
  -23.9644  -27.3344   19.0055 H   0  0  0  0  0  0
  -23.7248  -30.6201   19.4099 H   0  0  0  0  0  0
  -22.7366  -29.2647   19.8625 H   0  0  0  0  0  0
  -25.1298  -36.1970   25.0829 H   0  0  0  0  0  0
  -20.9965  -28.3236   24.1427 H   0  0  0  0  0  0
  -20.5701  -26.2267   23.3600 H   0  0  0  0  0  0
  -21.6642  -26.7454   22.1193 H   0  0  0  0  0  0
  -19.6916  -25.6301   21.1231 H   0  0  0  0  0  0
  -19.6696  -27.3204   20.6755 H   0  0  0  0  0  0
  -17.4200  -26.6669   21.4018 H   0  0  0  0  0  0
  -18.0322  -26.0065   22.9019 H   0  0  0  0  0  0
  -19.7931  -30.7256   24.2275 H   0  0  0  0  0  0
  -17.5012  -31.6262   24.5163 H   0  0  0  0  0  0
  -15.5350  -30.2987   23.7649 H   0  0  0  0  0  0
  -15.8663  -28.0836   22.7036 H   0  0  0  0  0  0
  -24.5912  -30.7062   25.7815 H   0  0  0  0  0  0
  -24.8936  -32.2869   26.4934 H   0  0  0  0  0  0
  -25.8094  -30.8875   27.0233 H   0  0  0  0  0  0
  -26.2863  -29.6803   24.1175 H   0  0  0  0  0  0
  -27.4082  -29.7283   25.4590 H   0  0  0  0  0  0
  -27.8705  -30.4361   23.9284 H   0  0  0  0  0  0
  -27.2671  -33.3614   26.2103 H   0  0  0  0  0  0
  -28.3852  -32.6911   25.0318 H   0  0  0  0  0  0
  -28.0740  -31.8434   26.5394 H   0  0  0  0  0  0
  -28.2608  -38.0104   24.7497 H   0  0  0  0  0  0
  -28.1070  -36.2632   24.6307 H   0  0  0  0  0  0
  -27.2288  -37.1484   25.8864 H   0  0  0  0  0  0
  -20.9315  -29.8762   21.6944 H   0  0  0  0  0  0
  -26.0186  -38.2869   24.1398 H   0  0  0  0  0  0
  -33.1620  -18.9130   21.6365 H   0  0  0  0  0  0
  -31.5300  -20.6547   21.0595 H   0  0  0  0  0  0
  -32.5205  -16.5358   21.6701 H   0  0  0  0  0  0
  -27.7688  -19.1694   18.8869 H   0  0  0  0  0  0
  -29.0591  -20.1588   18.2188 H   0  0  0  0  0  0
  -27.5354  -20.8922   18.7121 H   0  0  0  0  0  0
  -30.0789  -24.2295   20.0286 H   0  0  0  0  0  0
  -29.5435  -24.6616   21.6357 H   0  0  0  0  0  0
  -27.9506  -24.8989   19.0467 H   0  0  0  0  0  0
  -27.1845  -24.9663   20.6226 H   0  0  0  0  0  0
  -28.0189  -20.2538   21.0950 H   0  0  0  0  0  0
  -29.0699  -15.3423   21.3077 H   0  0  0  0  0  0
  -30.1767  -21.9594   19.9095 H   0  0  0  0  0  0
  1 25  1  0  0  0
  1 30  2  0  0  0
  1 82  1  0  0  0
  2  3  1  0  0  0
  2 25  1  0  0  0
  2 86  1  0  0  0
  2 87  1  0  0  0
  3  4  1  0  0  0
  3 88  1  0  0  0
  3 89  1  0  0  0
  4  5  1  0  0  0
  4 90  1  0  0  0
  4 91  1  0  0  0
  5  6  1  0  0  0
  5 26  1  0  0  0
  5 92  1  0  0  0
  6 25  1  0  0  0
  6 93  1  0  0  0
  6 94  1  0  0  0
  7  8  2  0  0  0
  7 26  1  0  0  0
  7 29  1  0  0  0
  8  9  1  0  0  0
  8 22  1  0  0  0
  9 10  1  0  0  0
  9 27  2  0  0  0
 10 11  2  0  0  0
 10 15  1  0  0  0
 11 12  1  0  0  0
 11 95  1  0  0  0
 12 13  2  0  0  0
 12 96  1  0  0  0
 13 14  1  0  0  0
 13 31  1  0  0  0
 14 15  2  0  0  0
 14 97  1  0  0  0
 15 98  1  0  0  0
 16 17  2  0  0  0
 16 21  1  0  0  0
 16 31  1  0  0  0
 17 18  1  0  0  0
 17 99  1  0  0  0
 18 19  2  0  0  0
 18100  1  0  0  0
 19 20  1  0  0  0
 19 24  1  0  0  0
 20 21  2  0  0  0
 20101  1  0  0  0
 21 23  1  0  0  0
 22 28  1  0  0  0
 22 32  2  0  0  0
 26 27  1  0  0  0
 28102  1  0  0  0
 28103  1  0  0  0
 29104  1  0  0  0
 29105  1  0  0  0
 33 34  1  0  0  0
 33 66  1  0  0  0
 33 70  2  0  0  0
 34 36  1  0  0  0
 34 59  1  0  0  0
 34106  1  0  0  0
 35 44  2  0  0  0
 35 45  1  0  0  0
 35 68  1  0  0  0
 36 56  1  0  0  0
 36107  1  0  0  0
 37 39  1  0  0  0
 37 47  1  0  0  0
 37 66  1  0  0  0
 37108  1  0  0  0
 38 43  2  0  0  0
 38 46  1  0  0  0
 38 47  1  0  0  0
 39 64  1  0  0  0
 39 67  2  0  0  0
 40 52  1  0  0  0
 40 53  2  0  0  0
 40 58  1  0  0  0
 41109  1  0  0  0
 41110  1  0  0  0
 41111  1  0  0  0
 41 48  1  0  0  0
 42 43  1  0  0  0
 42 66  1  0  0  0
 42112  1  0  0  0
 42113  1  0  0  0
 43 44  1  0  0  0
 44114  1  0  0  0
 45 46  2  0  0  0
 45115  1  0  0  0
 46116  1  0  0  0
 47117  1  0  0  0
 47118  1  0  0  0
 48 56  1  0  0  0
 48 65  1  0  0  0
 48119  1  0  0  0
 49 50  1  0  0  0
 49 53  1  0  0  0
 49 64  1  0  0  0
 49120  1  0  0  0
 50 51  1  0  0  0
 50121  1  0  0  0
 50122  1  0  0  0
 51 52  1  0  0  0
 51123  1  0  0  0
 51124  1  0  0  0
 52125  1  0  0  0
 52126  1  0  0  0
 53 54  1  0  0  0
 54 55  2  0  0  0
 54127  1  0  0  0
 55 57  1  0  0  0
 55128  1  0  0  0
 56 69  2  0  0  0
 57 58  2  0  0  0
 57129  1  0  0  0
 58130  1  0  0  0
 59 60  1  0  0  0
 59 61  1  0  0  0
 59 62  1  0  0  0
 60131  1  0  0  0
 60132  1  0  0  0
 60133  1  0  0  0
 61134  1  0  0  0
 61135  1  0  0  0
 61136  1  0  0  0
 62137  1  0  0  0
 62138  1  0  0  0
 62139  1  0  0  0
 63 65  1  0  0  0
 63140  1  0  0  0
 63141  1  0  0  0
 63142  1  0  0  0
 64143  1  0  0  0
 65144  1  0  0  0
 68 80  1  0  0  0
 71 72  2  0  0  0
 71 73  1  0  0  0
 71145  1  0  0  0
 72 74  1  0  0  0
 72146  1  0  0  0
 73 75  2  0  0  0
 73147  1  0  0  0
 74 76  2  0  0  0
 74 81  1  0  0  0
 75 76  1  0  0  0
 75 82  1  0  0  0
 76 85  1  0  0  0
 77 79  1  0  0  0
 77 83  1  0  0  0
 77 84  2  0  0  0
 78148  1  0  0  0
 78149  1  0  0  0
 78150  1  0  0  0
 78 81  1  0  0  0
 79 80  1  0  0  0
 79151  1  0  0  0
 79152  1  0  0  0
 80153  1  0  0  0
 80154  1  0  0  0
 81 83  1  0  0  0
 81155  1  0  0  0
 82156  1  0  0  0
 83157  1  0  0  0
M  ISO  4   1 100  68 101  80 101  82 100
M  END
> <chiral flag>
0

> <version>
0

> <s_m_source_file>
/data/baiqing/PycharmProjects/Reinvent-master-3.2/result/LINK_invent/BTK/process_docking_weight1_custom_product_contain_oxygen_bond_distance_aromatic_linkinvent_7_9_3/rearranged_h_0099.sdf

> <i_m_source_file_index>
72

> <r_mmod_Potential_Energy-OPLS-2005>
-138.319229125977

> <r_mmod_Stretch_Energy-OPLS-2005>
43.7827758789062

> <r_mmod_Bend_Energy-OPLS-2005>
96.4364318847656

> <r_mmod_Torsional_Energy-OPLS-2005>
213.136276245117

> <r_mmod_Improper_Torsional_Energy-OPLS-2005>
3.9342634677887

> <r_mmod_Van_der_Waal_Energy-OPLS-2005>
167.367111206055

> <r_mmod_Electrostatic_Energy-OPLS-2005>
-459.872833251953

> <r_mmod_Solvation_Energy-OPLS-2005>
-221.351379394531

> <b_mmod_Minimization_Converged-OPLS-2005>
0

> <r_mmod_RMS_Derivative-OPLS-2005>
0.62044894695282

$$$$
72
                    3D
 Structure written by MMmdl.
156164  0  0  1  0            999 V2000
  -30.5926  -14.6614   20.4908 C   0  0  0  0  0  0
  -30.4447  -12.4035   19.4625 C   0  0  0  0  0  0
  -29.5143  -12.4952   18.2316 C   0  0  0  0  0  0
  -28.0354  -12.3252   18.6385 C   0  0  0  0  0  0
  -27.6462  -13.2082   19.8528 C   0  0  2  0  0  0
  -28.6867  -13.0818   20.9876 C   0  0  0  0  0  0
  -25.2512  -13.8136   20.5628 C   0  0  0  0  0  0
  -24.1791  -13.0423   20.9189 C   0  0  0  0  0  0
  -24.6346  -11.6889   20.8733 C   0  0  0  0  0  0
  -23.9020  -10.4286   21.0406 C   0  0  0  0  0  0
  -24.3582   -9.4210   21.9186 C   0  0  0  0  0  0
  -23.6268   -8.2236   22.0747 C   0  0  0  0  0  0
  -22.4257   -8.0264   21.3532 C   0  0  0  0  0  0
  -21.9878   -9.0236   20.4640 C   0  0  0  0  0  0
  -22.7189  -10.2120   20.3055 C   0  0  0  0  0  0
  -21.6850   -6.0726   22.5287 C   0  0  0  0  0  0
  -21.4015   -6.5634   23.8215 C   0  0  0  0  0  0
  -21.3657   -5.6784   24.9178 C   0  0  0  0  0  0
  -21.6038   -4.3048   24.7229 C   0  0  0  0  0  0
  -21.8818   -3.8139   23.4353 C   0  0  0  0  0  0
  -21.9191   -4.6953   22.3409 C   0  0  0  0  0  0
  -22.7821  -13.5224   21.1878 C   0  0  0  0  0  0
  -22.1661   -4.2140   21.0982 F   0  0  0  0  0  0
  -21.5628   -3.4534   25.7743 F   0  0  0  0  0  0
  -30.0028  -13.4276   20.4256 N   0  0  0  0  0  0
  -26.2929  -12.9309   20.3231 N   0  0  0  0  0  0
  -25.9267  -11.6479   20.5720 N   0  0  0  0  0  0
  -22.0447  -12.8239   22.0440 N   0  0  0  0  0  0
  -25.4179  -15.1862   20.3993 N   0  0  0  0  0  0
  -31.7744  -14.8320   20.1742 O   0  0  0  0  0  0
  -21.6627   -6.8860   21.4239 O   0  0  0  0  0  0
  -22.3511  -14.5523   20.6703 O   0  0  0  0  0  0
  -24.6278  -31.8614   23.2044 C   0  0  0  0  0  0
  -25.9129  -32.4787   23.8368 C   0  0  1  0  0  0
  -27.2204  -27.3218   20.1074 C   0  0  0  0  0  0
  -25.5952  -33.8588   24.2301 N   0  0  0  0  0  0
  -23.4192  -30.4879   21.5472 C   0  0  2  0  0  0
  -24.8623  -28.9457   20.1059 C   0  0  0  0  0  0
  -22.7480  -29.4646   22.4939 C   0  0  0  0  0  0
  -18.0301  -28.1407   22.8491 C   0  0  0  0  0  0
  -24.1493  -36.7278   23.2634 C   0  0  0  0  0  0
  -25.9606  -30.7894   21.3764 C   0  0  0  0  0  0
  -26.0304  -29.4192   20.7152 C   0  0  0  0  0  0
  -27.2104  -28.6183   20.7087 C   0  0  0  0  0  0
  -26.0314  -26.9100   19.4586 C   0  0  0  0  0  0
  -24.8648  -27.6967   19.4689 C   0  0  0  0  0  0
  -23.6318  -29.8271   20.1596 C   0  0  0  0  0  0
  -25.4117  -36.3084   24.0338 C   0  0  1  0  0  0
  -20.5902  -28.3724   23.1275 C   0  0  2  0  0  0
  -20.6804  -26.9453   22.5397 C   0  0  0  0  0  0
  -19.5768  -26.6419   21.5212 C   0  0  0  0  0  0
  -18.1948  -26.7948   22.1633 C   0  0  0  0  0  0
  -19.1555  -28.8881   23.2876 C   0  0  0  0  0  0
  -18.9469  -30.1482   23.8894 C   0  0  0  0  0  0
  -17.6471  -30.6605   24.0581 C   0  0  0  0  0  0
  -25.9053  -34.9460   23.5110 C   0  0  0  0  0  0
  -16.5364  -29.9108   23.6336 C   0  0  0  0  0  0
  -16.7286  -28.6528   23.0347 C   0  0  0  0  0  0
  -26.4506  -31.6593   25.0736 C   0  0  0  0  0  0
  -25.3740  -31.3728   26.1462 C   0  0  0  0  0  0
  -27.0334  -30.3017   24.6181 C   0  0  0  0  0  0
  -27.6078  -32.4319   25.7495 C   0  0  0  0  0  0
  -27.5576  -37.1807   24.8475 C   0  0  0  0  0  0
  -21.4199  -29.3070   22.3660 N   0  0  0  0  0  0
  -26.4296  -37.3781   23.9411 N   0  0  0  0  0  0
  -24.6878  -31.0634   22.0988 N   0  0  0  0  0  0
  -23.4201  -28.8181   23.3020 O   0  0  0  0  0  0
  -28.3390  -26.4734   20.1771 O   0  0  0  0  0  0
  -26.5609  -34.8927   22.4667 O   0  0  0  0  0  0
  -23.5449  -32.1418   23.7383 O   0  0  0  0  0  0
  -29.0885  -19.3683   19.7582 C   0  0  0  0  0  0
  -30.5241  -17.8789   21.6564 C   0  0  0  0  0  0
  -29.1343  -17.9365   19.6837 C   0  0  0  0  0  0
  -29.8557  -17.1548   20.6386 C   0  0  0  0  0  0
  -30.4602  -19.3016   21.7359 C   0  0  0  0  0  0
  -29.7438  -20.0914   20.7917 C   0  0  0  0  0  0
  -28.3910  -17.2439   18.5519 C   0  0  0  0  0  0
  -29.1632  -23.9716   20.5389 C   0  0  0  0  0  0
  -28.1520  -25.0265   19.9169 C   0  0  0  0  0  0
  -28.9139  -22.4266   20.2081 C   0  0  0  0  0  0
  -31.0900  -19.9531   22.7974 N   0  0  0  0  0  0
  -29.7211  -15.6996   20.6947 N   0  0  0  0  0  0
  -29.7559  -21.4963   20.9592 O   0  0  0  0  0  0
  -31.4850  -12.5469   19.1655 H   0  0  0  0  0  0
  -30.3962  -11.4137   19.9175 H   0  0  0  0  0  0
  -29.7925  -11.7415   17.4945 H   0  0  0  0  0  0
  -29.6486  -13.4619   17.7459 H   0  0  0  0  0  0
  -27.8790  -11.2744   18.8832 H   0  0  0  0  0  0
  -27.3834  -12.5379   17.7904 H   0  0  0  0  0  0
  -27.6554  -14.2352   19.4910 H   0  0  0  0  0  0
  -28.6994  -12.0670   21.3864 H   0  0  0  0  0  0
  -28.4224  -13.7280   21.8271 H   0  0  0  0  0  0
  -25.2725   -9.5704   22.4759 H   0  0  0  0  0  0
  -23.9993   -7.4625   22.7458 H   0  0  0  0  0  0
  -21.0816   -8.8732   19.8941 H   0  0  0  0  0  0
  -22.3636  -10.9652   19.6164 H   0  0  0  0  0  0
  -21.2010   -7.6142   23.9721 H   0  0  0  0  0  0
  -21.1481   -6.0516   25.9080 H   0  0  0  0  0  0
  -22.0600   -2.7605   23.2855 H   0  0  0  0  0  0
  -22.4042  -11.9903   22.4865 H   0  0  0  0  0  0
  -21.1059  -13.1273   22.2620 H   0  0  0  0  0  0
  -24.6352  -15.8262   20.4783 H   0  0  0  0  0  0
  -26.2490  -15.6262   20.0317 H   0  0  0  0  0  0
  -26.7179  -32.5438   23.1102 H   0  0  0  0  0  0
  -25.0157  -33.9738   25.0486 H   0  0  0  0  0  0
  -22.7148  -31.3107   21.4074 H   0  0  0  0  0  0
  -23.3761  -35.9601   23.3324 H   0  0  0  0  0  0
  -24.3559  -36.8864   22.2033 H   0  0  0  0  0  0
  -23.7254  -37.6499   23.6624 H   0  0  0  0  0  0
  -26.0982  -31.5545   20.6115 H   0  0  0  0  0  0
  -26.8386  -30.8295   22.0079 H   0  0  0  0  0  0
  -28.1045  -28.9764   21.1986 H   0  0  0  0  0  0
  -25.9706  -25.9656   18.9376 H   0  0  0  0  0  0
  -23.9730  -27.3366   18.9745 H   0  0  0  0  0  0
  -23.7498  -30.6070   19.4063 H   0  0  0  0  0  0
  -22.7495  -29.2607   19.8551 H   0  0  0  0  0  0
  -25.1296  -36.1929   25.0833 H   0  0  0  0  0  0
  -20.9995  -28.3295   24.1395 H   0  0  0  0  0  0
  -20.5736  -26.2328   23.3592 H   0  0  0  0  0  0
  -21.6665  -26.7504   22.1162 H   0  0  0  0  0  0
  -19.6935  -25.6329   21.1237 H   0  0  0  0  0  0
  -19.6698  -27.3235   20.6741 H   0  0  0  0  0  0
  -17.4219  -26.6703   21.4036 H   0  0  0  0  0  0
  -18.0355  -26.0089   22.9029 H   0  0  0  0  0  0
  -19.7942  -30.7311   24.2251 H   0  0  0  0  0  0
  -17.5023  -31.6271   24.5209 H   0  0  0  0  0  0
  -15.5364  -30.3018   23.7660 H   0  0  0  0  0  0
  -15.8682  -28.0853   22.7056 H   0  0  0  0  0  0
  -24.5936  -30.7046   25.7797 H   0  0  0  0  0  0
  -24.8900  -32.2884   26.4873 H   0  0  0  0  0  0
  -25.8075  -30.8928   27.0247 H   0  0  0  0  0  0
  -26.2886  -29.6785   24.1210 H   0  0  0  0  0  0
  -27.4036  -29.7263   25.4680 H   0  0  0  0  0  0
  -27.8771  -30.4315   23.9397 H   0  0  0  0  0  0
  -27.2717  -33.3648   26.2042 H   0  0  0  0  0  0
  -28.3902  -32.6837   25.0317 H   0  0  0  0  0  0
  -28.0726  -31.8452   26.5436 H   0  0  0  0  0  0
  -28.2626  -38.0075   24.7488 H   0  0  0  0  0  0
  -28.1048  -36.2608   24.6348 H   0  0  0  0  0  0
  -27.2276  -37.1497   25.8876 H   0  0  0  0  0  0
  -20.9385  -29.8759   21.6827 H   0  0  0  0  0  0
  -26.0181  -38.2863   24.1392 H   0  0  0  0  0  0
  -28.5298  -19.9108   19.0086 H   0  0  0  0  0  0
  -31.0580  -17.3294   22.4184 H   0  0  0  0  0  0
  -28.1000  -17.9515   17.7750 H   0  0  0  0  0  0
  -27.4878  -16.7529   18.9130 H   0  0  0  0  0  0
  -29.0258  -16.4903   18.0847 H   0  0  0  0  0  0
  -30.1766  -24.2354   20.2346 H   0  0  0  0  0  0
  -29.1434  -24.0933   21.6230 H   0  0  0  0  0  0
  -28.1326  -24.8887   18.8344 H   0  0  0  0  0  0
  -27.1720  -24.7212   20.2844 H   0  0  0  0  0  0
  -29.0608  -22.2625   19.1397 H   0  0  0  0  0  0
  -27.8724  -22.1851   20.4225 H   0  0  0  0  0  0
  -30.7491  -20.8926   22.9805 H   0  0  0  0  0  0
  -31.2293  -19.4270   23.6546 H   0  0  0  0  0  0
  -28.7711  -15.3802   20.8014 H   0  0  0  0  0  0
  1 25  1  0  0  0
  1 30  2  0  0  0
  1 82  1  0  0  0
  2  3  1  0  0  0
  2 25  1  0  0  0
  2 84  1  0  0  0
  2 85  1  0  0  0
  3  4  1  0  0  0
  3 86  1  0  0  0
  3 87  1  0  0  0
  4  5  1  0  0  0
  4 88  1  0  0  0
  4 89  1  0  0  0
  5  6  1  0  0  0
  5 26  1  0  0  0
  5 90  1  0  0  0
  6 25  1  0  0  0
  6 91  1  0  0  0
  6 92  1  0  0  0
  7  8  2  0  0  0
  7 26  1  0  0  0
  7 29  1  0  0  0
  8  9  1  0  0  0
  8 22  1  0  0  0
  9 10  1  0  0  0
  9 27  2  0  0  0
 10 11  2  0  0  0
 10 15  1  0  0  0
 11 12  1  0  0  0
 11 93  1  0  0  0
 12 13  2  0  0  0
 12 94  1  0  0  0
 13 14  1  0  0  0
 13 31  1  0  0  0
 14 15  2  0  0  0
 14 95  1  0  0  0
 15 96  1  0  0  0
 16 17  2  0  0  0
 16 21  1  0  0  0
 16 31  1  0  0  0
 17 18  1  0  0  0
 17 97  1  0  0  0
 18 19  2  0  0  0
 18 98  1  0  0  0
 19 20  1  0  0  0
 19 24  1  0  0  0
 20 21  2  0  0  0
 20 99  1  0  0  0
 21 23  1  0  0  0
 22 28  1  0  0  0
 22 32  2  0  0  0
 26 27  1  0  0  0
 28100  1  0  0  0
 28101  1  0  0  0
 29102  1  0  0  0
 29103  1  0  0  0
 33 34  1  0  0  0
 33 66  1  0  0  0
 33 70  2  0  0  0
 34 36  1  0  0  0
 34 59  1  0  0  0
 34104  1  0  0  0
 35 44  2  0  0  0
 35 45  1  0  0  0
 35 68  1  0  0  0
 36 56  1  0  0  0
 36105  1  0  0  0
 37 39  1  0  0  0
 37 47  1  0  0  0
 37 66  1  0  0  0
 37106  1  0  0  0
 38 43  2  0  0  0
 38 46  1  0  0  0
 38 47  1  0  0  0
 39 64  1  0  0  0
 39 67  2  0  0  0
 40 52  1  0  0  0
 40 53  2  0  0  0
 40 58  1  0  0  0
 41107  1  0  0  0
 41108  1  0  0  0
 41109  1  0  0  0
 41 48  1  0  0  0
 42 43  1  0  0  0
 42 66  1  0  0  0
 42110  1  0  0  0
 42111  1  0  0  0
 43 44  1  0  0  0
 44112  1  0  0  0
 45 46  2  0  0  0
 45113  1  0  0  0
 46114  1  0  0  0
 47115  1  0  0  0
 47116  1  0  0  0
 48 56  1  0  0  0
 48 65  1  0  0  0
 48117  1  0  0  0
 49 50  1  0  0  0
 49 53  1  0  0  0
 49 64  1  0  0  0
 49118  1  0  0  0
 50 51  1  0  0  0
 50119  1  0  0  0
 50120  1  0  0  0
 51 52  1  0  0  0
 51121  1  0  0  0
 51122  1  0  0  0
 52123  1  0  0  0
 52124  1  0  0  0
 53 54  1  0  0  0
 54 55  2  0  0  0
 54125  1  0  0  0
 55 57  1  0  0  0
 55126  1  0  0  0
 56 69  2  0  0  0
 57 58  2  0  0  0
 57127  1  0  0  0
 58128  1  0  0  0
 59 60  1  0  0  0
 59 61  1  0  0  0
 59 62  1  0  0  0
 60129  1  0  0  0
 60130  1  0  0  0
 60131  1  0  0  0
 61132  1  0  0  0
 61133  1  0  0  0
 61134  1  0  0  0
 62135  1  0  0  0
 62136  1  0  0  0
 62137  1  0  0  0
 63 65  1  0  0  0
 63138  1  0  0  0
 63139  1  0  0  0
 63140  1  0  0  0
 64141  1  0  0  0
 65142  1  0  0  0
 68 79  1  0  0  0
 71 73  2  0  0  0
 71 76  1  0  0  0
 71143  1  0  0  0
 72 74  2  0  0  0
 72 75  1  0  0  0
 72144  1  0  0  0
 73 74  1  0  0  0
 73 77  1  0  0  0
 74 82  1  0  0  0
 75 76  2  0  0  0
 75 81  1  0  0  0
 76 83  1  0  0  0
 77145  1  0  0  0
 77146  1  0  0  0
 77147  1  0  0  0
 78 79  1  0  0  0
 78 80  1  0  0  0
 78148  1  0  0  0
 78149  1  0  0  0
 79150  1  0  0  0
 79151  1  0  0  0
 80 83  1  0  0  0
 80152  1  0  0  0
 80153  1  0  0  0
 81154  1  0  0  0
 81155  1  0  0  0
 82156  1  0  0  0
M  ISO  4   1 100  68 101  79 101  82 100
M  END
> <chiral flag>
0

> <version>
0

> <s_m_source_file>
/data/baiqing/PycharmProjects/Reinvent-master-3.2/result/LINK_invent/BTK/process_docking_weight1_custom_product_contain_oxygen_bond_distance_aromatic_linkinvent_7_9_3/rearranged_h_0099.sdf

> <i_m_source_file_index>
73

> <r_mmod_Potential_Energy-OPLS-2005>
40.5813636779785

> <r_mmod_Stretch_Energy-OPLS-2005>
77.9691390991211

> <r_mmod_Bend_Energy-OPLS-2005>
141.757217407227

> <r_mmod_Torsional_Energy-OPLS-2005>
240.031539916992

> <r_mmod_Improper_Torsional_Energy-OPLS-2005>
11.209813117981

> <r_mmod_Van_der_Waal_Energy-OPLS-2005>
140.483016967773

> <r_mmod_Electrostatic_Energy-OPLS-2005>
-397.081329345703

> <r_mmod_Solvation_Energy-OPLS-2005>
-229.394943237305

> <b_mmod_Minimization_Converged-OPLS-2005>
0

> <r_mmod_RMS_Derivative-OPLS-2005>
2.329922914505

$$$$
73
                    3D
 Structure written by MMmdl.
156164  0  0  1  0            999 V2000
  -30.7559  -14.4239   20.5952 C   0  0  0  0  0  0
  -30.4040  -12.2980   19.4030 C   0  0  0  0  0  0
  -29.4779  -12.5065   18.1901 C   0  0  0  0  0  0
  -28.0027  -12.3638   18.6123 C   0  0  0  0  0  0
  -27.6540  -13.2110   19.8652 C   0  0  2  0  0  0
  -28.6999  -13.0112   20.9848 C   0  0  0  0  0  0
  -25.2579  -13.8183   20.5689 C   0  0  0  0  0  0
  -24.1842  -13.0453   20.9201 C   0  0  0  0  0  0
  -24.6396  -11.6922   20.8738 C   0  0  0  0  0  0
  -23.9078  -10.4299   21.0417 C   0  0  0  0  0  0
  -24.3620   -9.4211   21.9195 C   0  0  0  0  0  0
  -23.6299   -8.2245   22.0755 C   0  0  0  0  0  0
  -22.4287   -8.0287   21.3546 C   0  0  0  0  0  0
  -21.9929   -9.0261   20.4646 C   0  0  0  0  0  0
  -22.7252  -10.2140   20.3061 C   0  0  0  0  0  0
  -21.6852   -6.0751   22.5289 C   0  0  0  0  0  0
  -21.4005   -6.5657   23.8220 C   0  0  0  0  0  0
  -21.3644   -5.6815   24.9177 C   0  0  0  0  0  0
  -21.6048   -4.3070   24.7225 C   0  0  0  0  0  0
  -21.8816   -3.8169   23.4342 C   0  0  0  0  0  0
  -21.9189   -4.6991   22.3403 C   0  0  0  0  0  0
  -22.7871  -13.5234   21.1878 C   0  0  0  0  0  0
  -22.1669   -4.2176   21.0984 F   0  0  0  0  0  0
  -21.5624   -3.4551   25.7741 F   0  0  0  0  0  0
  -30.0253  -13.2930   20.4164 N   0  0  0  0  0  0
  -26.2992  -12.9362   20.3333 N   0  0  0  0  0  0
  -25.9311  -11.6511   20.5756 N   0  0  0  0  0  0
  -22.0516  -12.8194   22.0405 N   0  0  0  0  0  0
  -25.4333  -15.1892   20.4081 N   0  0  0  0  0  0
  -31.9070  -14.5292   20.1612 O   0  0  0  0  0  0
  -21.6629   -6.8895   21.4258 O   0  0  0  0  0  0
  -22.3562  -14.5545   20.6745 O   0  0  0  0  0  0
  -24.6127  -31.8691   23.2149 C   0  0  0  0  0  0
  -25.9018  -32.4829   23.8445 C   0  0  1  0  0  0
  -27.2347  -27.4575   20.1061 C   0  0  0  0  0  0
  -25.5905  -33.8633   24.2376 N   0  0  0  0  0  0
  -23.4020  -30.4905   21.5542 C   0  0  2  0  0  0
  -24.8483  -28.9604   20.1180 C   0  0  0  0  0  0
  -22.7407  -29.4663   22.5024 C   0  0  0  0  0  0
  -18.0257  -28.1359   22.8515 C   0  0  0  0  0  0
  -24.1474  -36.7297   23.2642 C   0  0  0  0  0  0
  -25.9276  -30.8443   21.3631 C   0  0  0  0  0  0
  -26.0069  -29.4809   20.7080 C   0  0  0  0  0  0
  -27.2061  -28.7377   20.6960 C   0  0  0  0  0  0
  -26.0641  -26.9407   19.5116 C   0  0  0  0  0  0
  -24.8694  -27.6878   19.5177 C   0  0  0  0  0  0
  -23.6080  -29.8236   20.1706 C   0  0  0  0  0  0
  -25.4102  -36.3114   24.0342 C   0  0  1  0  0  0
  -20.5856  -28.3667   23.1311 C   0  0  2  0  0  0
  -20.6759  -26.9401   22.5413 C   0  0  0  0  0  0
  -19.5741  -26.6385   21.5209 C   0  0  0  0  0  0
  -18.1909  -26.7921   22.1613 C   0  0  0  0  0  0
  -19.1514  -28.8820   23.2901 C   0  0  0  0  0  0
  -18.9443  -30.1429   23.8907 C   0  0  0  0  0  0
  -17.6451  -30.6579   24.0574 C   0  0  0  0  0  0
  -25.9034  -34.9475   23.5154 C   0  0  0  0  0  0
  -16.5338  -29.9092   23.6339 C   0  0  0  0  0  0
  -16.7253  -28.6495   23.0391 C   0  0  0  0  0  0
  -26.4483  -31.6599   25.0743 C   0  0  0  0  0  0
  -25.3751  -31.3654   26.1484 C   0  0  0  0  0  0
  -27.0371  -30.3064   24.6108 C   0  0  0  0  0  0
  -27.6074  -32.4336   25.7495 C   0  0  0  0  0  0
  -27.5584  -37.1779   24.8457 C   0  0  0  0  0  0
  -21.4141  -29.3028   22.3712 N   0  0  0  0  0  0
  -26.4285  -37.3805   23.9429 N   0  0  0  0  0  0
  -24.6656  -31.0821   22.1030 N   0  0  0  0  0  0
  -23.4157  -28.8201   23.3064 O   0  0  0  0  0  0
  -28.3892  -26.7174   20.1196 O   0  0  0  0  0  0
  -26.5596  -34.8905   22.4711 O   0  0  0  0  0  0
  -23.5309  -32.1443   23.7535 O   0  0  0  0  0  0
  -29.1797  -19.5825   19.4502 C   0  0  0  0  0  0
  -29.0850  -20.1186   21.8167 C   0  0  0  0  0  0
  -29.9377  -17.9261   21.0964 C   0  0  0  0  0  0
  -29.7114  -18.3053   19.7390 C   0  0  0  0  0  0
  -28.8849  -20.5060   20.4738 C   0  0  0  0  0  0
  -29.6096  -18.8437   22.1253 C   0  0  0  0  0  0
  -30.6592  -16.6486   21.4471 C   0  0  0  0  0  0
  -28.5141  -24.2594   20.1751 C   0  0  0  0  0  0
  -30.0814  -17.4127   18.5577 C   0  0  0  0  0  0
  -28.6231  -22.9420   20.9649 C   0  0  0  0  0  0
  -28.3247  -25.5611   20.9713 C   0  0  0  0  0  0
  -28.4078  -21.7750   20.1026 N   0  0  0  0  0  0
  -30.0847  -15.4908   21.0664 N   0  0  0  0  0  0
  -31.7556  -16.7173   22.0184 O   0  0  0  0  0  0
  -28.5741  -24.2532   18.9390 O   0  0  0  0  0  0
  -29.8075  -18.5169   23.4278 F   0  0  0  0  0  0
  -31.4462  -12.3770   19.0911 H   0  0  0  0  0  0
  -30.2906  -11.2897   19.8018 H   0  0  0  0  0  0
  -29.7120  -11.7864   17.4039 H   0  0  0  0  0  0
  -29.6432  -13.4951   17.7591 H   0  0  0  0  0  0
  -27.8210  -11.3086   18.8177 H   0  0  0  0  0  0
  -27.3442  -12.6289   17.7839 H   0  0  0  0  0  0
  -27.6933  -14.2543   19.5554 H   0  0  0  0  0  0
  -28.6725  -11.9868   21.3585 H   0  0  0  0  0  0
  -28.4725  -13.6434   21.8457 H   0  0  0  0  0  0
  -25.2757   -9.5678   22.4776 H   0  0  0  0  0  0
  -24.0018   -7.4623   22.7459 H   0  0  0  0  0  0
  -21.0873   -8.8775   19.8932 H   0  0  0  0  0  0
  -22.3728  -10.9687   19.6165 H   0  0  0  0  0  0
  -21.2000   -7.6166   23.9733 H   0  0  0  0  0  0
  -21.1471   -6.0537   25.9081 H   0  0  0  0  0  0
  -22.0606   -2.7639   23.2837 H   0  0  0  0  0  0
  -22.4151  -11.9825   22.4723 H   0  0  0  0  0  0
  -21.1132  -13.1210   22.2633 H   0  0  0  0  0  0
  -24.6654  -15.8438   20.5028 H   0  0  0  0  0  0
  -26.2832  -15.6249   20.0743 H   0  0  0  0  0  0
  -26.7097  -32.5548   23.1228 H   0  0  0  0  0  0
  -25.0090  -33.9831   25.0546 H   0  0  0  0  0  0
  -22.6892  -31.3043   21.4157 H   0  0  0  0  0  0
  -23.3747  -35.9614   23.3280 H   0  0  0  0  0  0
  -24.3575  -36.8945   22.2060 H   0  0  0  0  0  0
  -23.7193  -37.6469   23.6689 H   0  0  0  0  0  0
  -26.0363  -31.6127   20.5950 H   0  0  0  0  0  0
  -26.8150  -30.8946   21.9841 H   0  0  0  0  0  0
  -28.1034  -29.1416   21.1466 H   0  0  0  0  0  0
  -26.0752  -25.9650   19.0487 H   0  0  0  0  0  0
  -23.9757  -27.2808   19.0637 H   0  0  0  0  0  0
  -23.7117  -30.5977   19.4101 H   0  0  0  0  0  0
  -22.7324  -29.2377   19.8851 H   0  0  0  0  0  0
  -25.1269  -36.1984   25.0829 H   0  0  0  0  0  0
  -20.9948  -28.3250   24.1438 H   0  0  0  0  0  0
  -20.5668  -26.2280   23.3608 H   0  0  0  0  0  0
  -21.6627  -26.7446   22.1192 H   0  0  0  0  0  0
  -19.6908  -25.6296   21.1232 H   0  0  0  0  0  0
  -19.6674  -27.3199   20.6749 H   0  0  0  0  0  0
  -17.4183  -26.6698   21.3988 H   0  0  0  0  0  0
  -18.0254  -26.0031   22.8970 H   0  0  0  0  0  0
  -19.7923  -30.7250   24.2280 H   0  0  0  0  0  0
  -17.5006  -31.6270   24.5169 H   0  0  0  0  0  0
  -15.5335  -30.3004   23.7654 H   0  0  0  0  0  0
  -15.8648  -28.0815   22.7131 H   0  0  0  0  0  0
  -24.6034  -30.6874   25.7833 H   0  0  0  0  0  0
  -24.8795  -32.2750   26.4871 H   0  0  0  0  0  0
  -25.8126  -30.8926   27.0284 H   0  0  0  0  0  0
  -26.2939  -29.6726   24.1260 H   0  0  0  0  0  0
  -27.4275  -29.7387   25.4567 H   0  0  0  0  0  0
  -27.8683  -30.4422   23.9190 H   0  0  0  0  0  0
  -27.2755  -33.3708   26.1984 H   0  0  0  0  0  0
  -28.3916  -32.6773   25.0311 H   0  0  0  0  0  0
  -28.0682  -31.8490   26.5462 H   0  0  0  0  0  0
  -28.2561  -38.0123   24.7609 H   0  0  0  0  0  0
  -28.1136  -36.2654   24.6188 H   0  0  0  0  0  0
  -27.2304  -37.1306   25.8860 H   0  0  0  0  0  0
  -20.9274  -29.8729   21.6932 H   0  0  0  0  0  0
  -26.0155  -38.2870   24.1492 H   0  0  0  0  0  0
  -29.0308  -19.8657   18.4174 H   0  0  0  0  0  0
  -28.8572  -20.7917   22.6297 H   0  0  0  0  0  0
  -30.1263  -17.9839   17.6275 H   0  0  0  0  0  0
  -29.3410  -16.6232   18.4187 H   0  0  0  0  0  0
  -31.0626  -16.9531   18.6860 H   0  0  0  0  0  0
  -27.8945  -22.9494   21.7774 H   0  0  0  0  0  0
  -29.6116  -22.8989   21.4270 H   0  0  0  0  0  0
  -29.1028  -25.6403   21.7290 H   0  0  0  0  0  0
  -27.3740  -25.5093   21.5075 H   0  0  0  0  0  0
  -28.4442  -22.0100   19.1120 H   0  0  0  0  0  0
  -29.0823  -15.4670   20.9873 H   0  0  0  0  0  0
  1 25  1  0  0  0
  1 30  2  0  0  0
  1 83  1  0  0  0
  2  3  1  0  0  0
  2 25  1  0  0  0
  2 87  1  0  0  0
  2 88  1  0  0  0
  3  4  1  0  0  0
  3 89  1  0  0  0
  3 90  1  0  0  0
  4  5  1  0  0  0
  4 91  1  0  0  0
  4 92  1  0  0  0
  5  6  1  0  0  0
  5 26  1  0  0  0
  5 93  1  0  0  0
  6 25  1  0  0  0
  6 94  1  0  0  0
  6 95  1  0  0  0
  7  8  2  0  0  0
  7 26  1  0  0  0
  7 29  1  0  0  0
  8  9  1  0  0  0
  8 22  1  0  0  0
  9 10  1  0  0  0
  9 27  2  0  0  0
 10 11  2  0  0  0
 10 15  1  0  0  0
 11 12  1  0  0  0
 11 96  1  0  0  0
 12 13  2  0  0  0
 12 97  1  0  0  0
 13 14  1  0  0  0
 13 31  1  0  0  0
 14 15  2  0  0  0
 14 98  1  0  0  0
 15 99  1  0  0  0
 16 17  2  0  0  0
 16 21  1  0  0  0
 16 31  1  0  0  0
 17 18  1  0  0  0
 17100  1  0  0  0
 18 19  2  0  0  0
 18101  1  0  0  0
 19 20  1  0  0  0
 19 24  1  0  0  0
 20 21  2  0  0  0
 20102  1  0  0  0
 21 23  1  0  0  0
 22 28  1  0  0  0
 22 32  2  0  0  0
 26 27  1  0  0  0
 28103  1  0  0  0
 28104  1  0  0  0
 29105  1  0  0  0
 29106  1  0  0  0
 33 34  1  0  0  0
 33 66  1  0  0  0
 33 70  2  0  0  0
 34 36  1  0  0  0
 34 59  1  0  0  0
 34107  1  0  0  0
 35 44  2  0  0  0
 35 45  1  0  0  0
 35 68  1  0  0  0
 36 56  1  0  0  0
 36108  1  0  0  0
 37 39  1  0  0  0
 37 47  1  0  0  0
 37 66  1  0  0  0
 37109  1  0  0  0
 38 43  2  0  0  0
 38 46  1  0  0  0
 38 47  1  0  0  0
 39 64  1  0  0  0
 39 67  2  0  0  0
 40 52  1  0  0  0
 40 53  2  0  0  0
 40 58  1  0  0  0
 41110  1  0  0  0
 41111  1  0  0  0
 41112  1  0  0  0
 41 48  1  0  0  0
 42 43  1  0  0  0
 42 66  1  0  0  0
 42113  1  0  0  0
 42114  1  0  0  0
 43 44  1  0  0  0
 44115  1  0  0  0
 45 46  2  0  0  0
 45116  1  0  0  0
 46117  1  0  0  0
 47118  1  0  0  0
 47119  1  0  0  0
 48 56  1  0  0  0
 48 65  1  0  0  0
 48120  1  0  0  0
 49 50  1  0  0  0
 49 53  1  0  0  0
 49 64  1  0  0  0
 49121  1  0  0  0
 50 51  1  0  0  0
 50122  1  0  0  0
 50123  1  0  0  0
 51 52  1  0  0  0
 51124  1  0  0  0
 51125  1  0  0  0
 52126  1  0  0  0
 52127  1  0  0  0
 53 54  1  0  0  0
 54 55  2  0  0  0
 54128  1  0  0  0
 55 57  1  0  0  0
 55129  1  0  0  0
 56 69  2  0  0  0
 57 58  2  0  0  0
 57130  1  0  0  0
 58131  1  0  0  0
 59 60  1  0  0  0
 59 61  1  0  0  0
 59 62  1  0  0  0
 60132  1  0  0  0
 60133  1  0  0  0
 60134  1  0  0  0
 61135  1  0  0  0
 61136  1  0  0  0
 61137  1  0  0  0
 62138  1  0  0  0
 62139  1  0  0  0
 62140  1  0  0  0
 63 65  1  0  0  0
 63141  1  0  0  0
 63142  1  0  0  0
 63143  1  0  0  0
 64144  1  0  0  0
 65145  1  0  0  0
 68 81  1  0  0  0
 71 74  2  0  0  0
 71 75  1  0  0  0
 71146  1  0  0  0
 72 75  2  0  0  0
 72 76  1  0  0  0
 72147  1  0  0  0
 73 74  1  0  0  0
 73 76  2  0  0  0
 73 77  1  0  0  0
 74 79  1  0  0  0
 75 82  1  0  0  0
 76 86  1  0  0  0
 77 83  1  0  0  0
 77 84  2  0  0  0
 78 80  1  0  0  0
 78 81  1  0  0  0
 78 85  2  0  0  0
 79148  1  0  0  0
 79149  1  0  0  0
 79150  1  0  0  0
 80 82  1  0  0  0
 80151  1  0  0  0
 80152  1  0  0  0
 81153  1  0  0  0
 81154  1  0  0  0
 82155  1  0  0  0
 83156  1  0  0  0
M  ISO  4   1 100  68 101  81 101  83 100
M  END
> <chiral flag>
0

> <version>
0

> <s_m_source_file>
/data/baiqing/PycharmProjects/Reinvent-master-3.2/result/LINK_invent/BTK/process_docking_weight1_custom_product_contain_oxygen_bond_distance_aromatic_linkinvent_7_9_3/rearranged_h_0099.sdf

> <i_m_source_file_index>
74

> <r_mmod_Potential_Energy-OPLS-2005>
12.2316722869873

> <r_mmod_Stretch_Energy-OPLS-2005>
35.7087249755859

> <r_mmod_Bend_Energy-OPLS-2005>
94.6155548095703

> <r_mmod_Torsional_Energy-OPLS-2005>
270.920318603516

> <r_mmod_Improper_Torsional_Energy-OPLS-2005>
8.70365524291992

> <r_mmod_Van_der_Waal_Energy-OPLS-2005>
157.929321289062

> <r_mmod_Electrostatic_Energy-OPLS-2005>
-327.171264648438

> <r_mmod_Solvation_Energy-OPLS-2005>
-242.971710205078

> <b_mmod_Minimization_Converged-OPLS-2005>
0

> <r_mmod_RMS_Derivative-OPLS-2005>
3.38539266586304

$$$$
74
                    3D
 Structure written by MMmdl.
162171  0  0  1  0            999 V2000
  -30.5904  -14.7261   20.4680 C   0  0  0  0  0  0
  -30.4127  -12.4322   19.4690 C   0  0  0  0  0  0
  -29.4986  -12.4999   18.2271 C   0  0  0  0  0  0
  -28.0270  -12.3180   18.6489 C   0  0  0  0  0  0
  -27.6345  -13.2213   19.8479 C   0  0  2  0  0  0
  -28.6738  -13.1361   20.9840 C   0  0  0  0  0  0
  -25.2471  -13.8172   20.5677 C   0  0  0  0  0  0
  -24.1761  -13.0416   20.9192 C   0  0  0  0  0  0
  -24.6326  -11.6886   20.8728 C   0  0  0  0  0  0
  -23.9017  -10.4271   21.0396 C   0  0  0  0  0  0
  -24.3584   -9.4196   21.9163 C   0  0  0  0  0  0
  -23.6286   -8.2213   22.0723 C   0  0  0  0  0  0
  -22.4269   -8.0242   21.3516 C   0  0  0  0  0  0
  -21.9903   -9.0211   20.4627 C   0  0  0  0  0  0
  -22.7198  -10.2099   20.3050 C   0  0  0  0  0  0
  -21.6853   -6.0703   22.5261 C   0  0  0  0  0  0
  -21.4010   -6.5612   23.8191 C   0  0  0  0  0  0
  -21.3655   -5.6769   24.9154 C   0  0  0  0  0  0
  -21.6058   -4.3037   24.7228 C   0  0  0  0  0  0
  -21.8813   -3.8113   23.4352 C   0  0  0  0  0  0
  -21.9184   -4.6922   22.3400 C   0  0  0  0  0  0
  -22.7783  -13.5212   21.1870 C   0  0  0  0  0  0
  -22.1657   -4.2098   21.0987 F   0  0  0  0  0  0
  -21.5640   -3.4526   25.7752 F   0  0  0  0  0  0
  -29.9717  -13.4959   20.4054 N   0  0  0  0  0  0
  -26.2880  -12.9353   20.3259 N   0  0  0  0  0  0
  -25.9249  -11.6507   20.5716 N   0  0  0  0  0  0
  -22.0458  -12.8192   22.0459 N   0  0  0  0  0  0
  -25.4188  -15.1894   20.4051 N   0  0  0  0  0  0
  -31.7758  -14.8109   20.1382 O   0  0  0  0  0  0
  -21.6629   -6.8838   21.4228 O   0  0  0  0  0  0
  -22.3472  -14.5503   20.6690 O   0  0  0  0  0  0
  -24.6300  -31.8553   23.1998 C   0  0  0  0  0  0
  -25.9138  -32.4766   23.8308 C   0  0  1  0  0  0
  -27.2220  -27.2911   20.1028 C   0  0  0  0  0  0
  -25.5953  -33.8559   24.2239 N   0  0  0  0  0  0
  -23.4215  -30.4784   21.5403 C   0  0  2  0  0  0
  -24.8662  -28.9228   20.1041 C   0  0  0  0  0  0
  -22.7502  -29.4622   22.4932 C   0  0  0  0  0  0
  -18.0295  -28.1414   22.8476 C   0  0  0  0  0  0
  -24.1500  -36.7282   23.2625 C   0  0  0  0  0  0
  -25.9623  -30.7782   21.3687 C   0  0  0  0  0  0
  -26.0355  -29.4009   20.7097 C   0  0  0  0  0  0
  -27.2111  -28.5919   20.7017 C   0  0  0  0  0  0
  -26.0356  -26.8703   19.4658 C   0  0  0  0  0  0
  -24.8713  -27.6664   19.4707 C   0  0  0  0  0  0
  -23.6333  -29.8014   20.1587 C   0  0  0  0  0  0
  -25.4126  -36.3066   24.0312 C   0  0  1  0  0  0
  -20.5899  -28.3730   23.1270 C   0  0  2  0  0  0
  -20.6803  -26.9455   22.5401 C   0  0  0  0  0  0
  -19.5773  -26.6402   21.5206 C   0  0  0  0  0  0
  -18.1947  -26.7949   22.1614 C   0  0  0  0  0  0
  -19.1550  -28.8873   23.2853 C   0  0  0  0  0  0
  -18.9467  -30.1465   23.8878 C   0  0  0  0  0  0
  -17.6471  -30.6599   24.0555 C   0  0  0  0  0  0
  -25.9061  -34.9463   23.5075 C   0  0  0  0  0  0
  -16.5363  -29.9105   23.6334 C   0  0  0  0  0  0
  -16.7278  -28.6527   23.0355 C   0  0  0  0  0  0
  -26.4512  -31.6596   25.0694 C   0  0  0  0  0  0
  -25.3744  -31.3724   26.1413 C   0  0  0  0  0  0
  -27.0343  -30.3022   24.6148 C   0  0  0  0  0  0
  -27.6078  -32.4336   25.7458 C   0  0  0  0  0  0
  -27.5576  -37.1782   24.8448 C   0  0  0  0  0  0
  -21.4215  -29.3058   22.3659 N   0  0  0  0  0  0
  -26.4290  -37.3782   23.9400 N   0  0  0  0  0  0
  -24.6896  -31.0538   22.0939 N   0  0  0  0  0  0
  -23.4207  -28.8178   23.3035 O   0  0  0  0  0  0
  -28.3432  -26.4479   20.2014 O   0  0  0  0  0  0
  -26.5620  -34.8963   22.4631 O   0  0  0  0  0  0
  -23.5473  -32.1344   23.7363 O   0  0  0  0  0  0
  -31.4888  -17.6696   21.0589 C   0  0  0  0  0  0
  -29.6296  -19.8676   20.5043 C   0  0  0  0  0  0
  -31.8877  -19.0104   21.1517 C   0  0  0  0  0  0
  -30.1699  -17.3159   20.7143 C   0  0  0  0  0  0
  -31.0037  -20.0797   20.8748 C   0  0  0  0  0  0
  -29.2518  -18.4337   20.4763 C   0  0  0  0  0  0
  -26.5167  -21.7258   19.2921 C   0  0  0  0  0  0
  -26.8115  -23.2185   19.2021 C   0  0  0  0  0  0
  -27.7165  -20.7798   19.1711 C   0  0  0  0  0  0
  -29.1323  -22.5070   20.2002 C   0  0  0  0  0  0
  -28.0098  -23.6777   20.0725 C   0  0  1  0  0  0
  -28.4974  -25.1284   19.5247 C   0  0  0  0  0  0
  -28.7408  -21.0230   20.2007 N   0  0  0  0  0  0
  -33.2043  -19.3028   21.5314 N   0  0  0  0  0  0
  -31.5948  -21.3440   21.0081 N   0  0  0  0  0  0
  -29.8066  -15.8640   20.6786 N   0  0  0  0  0  0
  -25.3656  -21.3035   19.4198 O   0  0  0  0  0  0
  -27.9655  -18.0818   20.2374 F   0  0  0  0  0  0
  -31.4605  -12.5273   19.1866 H   0  0  0  0  0  0
  -30.3270  -11.4475   19.9376 H   0  0  0  0  0  0
  -29.7809  -11.7329   17.5048 H   0  0  0  0  0  0
  -29.6230  -13.4574   17.7206 H   0  0  0  0  0  0
  -27.9032  -11.2727   18.9320 H   0  0  0  0  0  0
  -27.3541  -12.4783   17.8058 H   0  0  0  0  0  0
  -27.6401  -14.2456   19.4717 H   0  0  0  0  0  0
  -28.7086  -12.1280   21.4022 H   0  0  0  0  0  0
  -28.4112  -13.7969   21.8105 H   0  0  0  0  0  0
  -25.2729   -9.5670   22.4715 H   0  0  0  0  0  0
  -23.9978   -7.4620   22.7454 H   0  0  0  0  0  0
  -21.0809   -8.8731   19.8970 H   0  0  0  0  0  0
  -22.3649  -10.9617   19.6149 H   0  0  0  0  0  0
  -21.2013   -7.6118   23.9686 H   0  0  0  0  0  0
  -21.1496   -6.0501   25.9056 H   0  0  0  0  0  0
  -22.0610   -2.7576   23.2871 H   0  0  0  0  0  0
  -22.4102  -11.9874   22.4857 H   0  0  0  0  0  0
  -21.1059  -13.1172   22.2651 H   0  0  0  0  0  0
  -24.6512  -15.8429   20.5065 H   0  0  0  0  0  0
  -26.2531  -15.6233   20.0337 H   0  0  0  0  0  0
  -26.7221  -32.5405   23.1054 H   0  0  0  0  0  0
  -25.0160  -33.9685   25.0427 H   0  0  0  0  0  0
  -22.7166  -31.2994   21.3930 H   0  0  0  0  0  0
  -23.3778  -35.9590   23.3270 H   0  0  0  0  0  0
  -24.3591  -36.8928   22.2037 H   0  0  0  0  0  0
  -23.7264  -37.6483   23.6671 H   0  0  0  0  0  0
  -26.0892  -31.5426   20.6017 H   0  0  0  0  0  0
  -26.8474  -30.8304   21.9909 H   0  0  0  0  0  0
  -28.1127  -28.9500   21.1824 H   0  0  0  0  0  0
  -25.9840  -25.9098   18.9797 H   0  0  0  0  0  0
  -23.9738  -27.2973   18.9931 H   0  0  0  0  0  0
  -23.7509  -30.5681   19.3934 H   0  0  0  0  0  0
  -22.7515  -29.2272   19.8641 H   0  0  0  0  0  0
  -25.1336  -36.1867   25.0807 H   0  0  0  0  0  0
  -20.9977  -28.3321   24.1393 H   0  0  0  0  0  0
  -20.5728  -26.2347   23.3617 H   0  0  0  0  0  0
  -21.6676  -26.7532   22.1158 H   0  0  0  0  0  0
  -19.6947  -25.6303   21.1249 H   0  0  0  0  0  0
  -19.6707  -27.3213   20.6729 H   0  0  0  0  0  0
  -17.4232  -26.6704   21.3997 H   0  0  0  0  0  0
  -18.0339  -26.0093   22.9008 H   0  0  0  0  0  0
  -19.7938  -30.7270   24.2271 H   0  0  0  0  0  0
  -17.5030  -31.6268   24.5185 H   0  0  0  0  0  0
  -15.5364  -30.2999   23.7656 H   0  0  0  0  0  0
  -15.8690  -28.0826   22.7104 H   0  0  0  0  0  0
  -24.5917  -30.7097   25.7709 H   0  0  0  0  0  0
  -24.8930  -32.2887   26.4841 H   0  0  0  0  0  0
  -25.8054  -30.8868   27.0182 H   0  0  0  0  0  0
  -26.2896  -29.6756   24.1229 H   0  0  0  0  0  0
  -27.4103  -29.7309   25.4651 H   0  0  0  0  0  0
  -27.8767  -30.4312   23.9348 H   0  0  0  0  0  0
  -27.2700  -33.3641   26.2040 H   0  0  0  0  0  0
  -28.3881  -32.6881   25.0271 H   0  0  0  0  0  0
  -28.0772  -31.8451   26.5352 H   0  0  0  0  0  0
  -28.2590  -38.0086   24.7540 H   0  0  0  0  0  0
  -28.1097  -36.2630   24.6246 H   0  0  0  0  0  0
  -27.2293  -37.1388   25.8851 H   0  0  0  0  0  0
  -20.9451  -29.8722   21.6798 H   0  0  0  0  0  0
  -26.0156  -38.2846   24.1441 H   0  0  0  0  0  0
  -32.2153  -16.9057   21.2824 H   0  0  0  0  0  0
  -25.9136  -23.7688   19.4790 H   0  0  0  0  0  0
  -27.0051  -23.4363   18.1516 H   0  0  0  0  0  0
  -28.1677  -20.9404   18.1890 H   0  0  0  0  0  0
  -27.3156  -19.7742   19.1513 H   0  0  0  0  0  0
  -29.6187  -22.7457   21.1453 H   0  0  0  0  0  0
  -29.8700  -22.6510   19.4083 H   0  0  0  0  0  0
  -27.6290  -23.8424   21.0815 H   0  0  0  0  0  0
  -28.1739  -25.2527   18.4906 H   0  0  0  0  0  0
  -29.5790  -25.0408   19.4121 H   0  0  0  0  0  0
  -33.9075  -18.5807   21.4434 H   0  0  0  0  0  0
  -33.5289  -20.2158   21.2299 H   0  0  0  0  0  0
  -30.9349  -22.0919   21.1600 H   0  0  0  0  0  0
  -32.3259  -21.3602   21.7083 H   0  0  0  0  0  0
  -28.8217  -15.6766   20.7878 H   0  0  0  0  0  0
  1 25  1  0  0  0
  1 30  2  0  0  0
  1 86  1  0  0  0
  2  3  1  0  0  0
  2 25  1  0  0  0
  2 89  1  0  0  0
  2 90  1  0  0  0
  3  4  1  0  0  0
  3 91  1  0  0  0
  3 92  1  0  0  0
  4  5  1  0  0  0
  4 93  1  0  0  0
  4 94  1  0  0  0
  5  6  1  0  0  0
  5 26  1  0  0  0
  5 95  1  0  0  0
  6 25  1  0  0  0
  6 96  1  0  0  0
  6 97  1  0  0  0
  7  8  2  0  0  0
  7 26  1  0  0  0
  7 29  1  0  0  0
  8  9  1  0  0  0
  8 22  1  0  0  0
  9 10  1  0  0  0
  9 27  2  0  0  0
 10 11  2  0  0  0
 10 15  1  0  0  0
 11 12  1  0  0  0
 11 98  1  0  0  0
 12 13  2  0  0  0
 12 99  1  0  0  0
 13 14  1  0  0  0
 13 31  1  0  0  0
 14 15  2  0  0  0
 14100  1  0  0  0
 15101  1  0  0  0
 16 17  2  0  0  0
 16 21  1  0  0  0
 16 31  1  0  0  0
 17 18  1  0  0  0
 17102  1  0  0  0
 18 19  2  0  0  0
 18103  1  0  0  0
 19 20  1  0  0  0
 19 24  1  0  0  0
 20 21  2  0  0  0
 20104  1  0  0  0
 21 23  1  0  0  0
 22 28  1  0  0  0
 22 32  2  0  0  0
 26 27  1  0  0  0
 28105  1  0  0  0
 28106  1  0  0  0
 29107  1  0  0  0
 29108  1  0  0  0
 33 34  1  0  0  0
 33 66  1  0  0  0
 33 70  2  0  0  0
 34 36  1  0  0  0
 34 59  1  0  0  0
 34109  1  0  0  0
 35 44  2  0  0  0
 35 45  1  0  0  0
 35 68  1  0  0  0
 36 56  1  0  0  0
 36110  1  0  0  0
 37 39  1  0  0  0
 37 47  1  0  0  0
 37 66  1  0  0  0
 37111  1  0  0  0
 38 43  2  0  0  0
 38 46  1  0  0  0
 38 47  1  0  0  0
 39 64  1  0  0  0
 39 67  2  0  0  0
 40 52  1  0  0  0
 40 53  2  0  0  0
 40 58  1  0  0  0
 41112  1  0  0  0
 41113  1  0  0  0
 41114  1  0  0  0
 41 48  1  0  0  0
 42 43  1  0  0  0
 42 66  1  0  0  0
 42115  1  0  0  0
 42116  1  0  0  0
 43 44  1  0  0  0
 44117  1  0  0  0
 45 46  2  0  0  0
 45118  1  0  0  0
 46119  1  0  0  0
 47120  1  0  0  0
 47121  1  0  0  0
 48 56  1  0  0  0
 48 65  1  0  0  0
 48122  1  0  0  0
 49 50  1  0  0  0
 49 53  1  0  0  0
 49 64  1  0  0  0
 49123  1  0  0  0
 50 51  1  0  0  0
 50124  1  0  0  0
 50125  1  0  0  0
 51 52  1  0  0  0
 51126  1  0  0  0
 51127  1  0  0  0
 52128  1  0  0  0
 52129  1  0  0  0
 53 54  1  0  0  0
 54 55  2  0  0  0
 54130  1  0  0  0
 55 57  1  0  0  0
 55131  1  0  0  0
 56 69  2  0  0  0
 57 58  2  0  0  0
 57132  1  0  0  0
 58133  1  0  0  0
 59 60  1  0  0  0
 59 61  1  0  0  0
 59 62  1  0  0  0
 60134  1  0  0  0
 60135  1  0  0  0
 60136  1  0  0  0
 61137  1  0  0  0
 61138  1  0  0  0
 61139  1  0  0  0
 62140  1  0  0  0
 62141  1  0  0  0
 62142  1  0  0  0
 63 65  1  0  0  0
 63143  1  0  0  0
 63144  1  0  0  0
 63145  1  0  0  0
 64146  1  0  0  0
 65147  1  0  0  0
 68 82  1  0  0  0
 71 73  2  0  0  0
 71 74  1  0  0  0
 71148  1  0  0  0
 72 75  2  0  0  0
 72 76  1  0  0  0
 72 83  1  0  0  0
 73 75  1  0  0  0
 73 84  1  0  0  0
 74 76  2  0  0  0
 74 86  1  0  0  0
 75 85  1  0  0  0
 76 88  1  0  0  0
 77 78  1  0  0  0
 77 79  1  0  0  0
 77 87  2  0  0  0
 78 81  1  0  0  0
 78149  1  0  0  0
 78150  1  0  0  0
 79 83  1  0  0  0
 79151  1  0  0  0
 79152  1  0  0  0
 80 81  1  0  0  0
 80 83  1  0  0  0
 80153  1  0  0  0
 80154  1  0  0  0
 81 82  1  0  0  0
 81155  1  0  0  0
 82156  1  0  0  0
 82157  1  0  0  0
 84158  1  0  0  0
 84159  1  0  0  0
 85160  1  0  0  0
 85161  1  0  0  0
 86162  1  0  0  0
M  ISO  4   1 100  68 101  82 101  86 100
M  END
> <chiral flag>
0

> <version>
0

> <s_m_source_file>
/data/baiqing/PycharmProjects/Reinvent-master-3.2/result/LINK_invent/BTK/process_docking_weight1_custom_product_contain_oxygen_bond_distance_aromatic_linkinvent_7_9_3/rearranged_h_0099.sdf

> <i_m_source_file_index>
75

> <r_mmod_Potential_Energy-OPLS-2005>
220.966766357422

> <r_mmod_Stretch_Energy-OPLS-2005>
149.046096801758

> <r_mmod_Bend_Energy-OPLS-2005>
212.381546020508

> <r_mmod_Torsional_Energy-OPLS-2005>
244.33381652832

> <r_mmod_Improper_Torsional_Energy-OPLS-2005>
17.2940921783447

> <r_mmod_Van_der_Waal_Energy-OPLS-2005>
179.828338623047

> <r_mmod_Electrostatic_Energy-OPLS-2005>
-408.475402832031

> <r_mmod_Solvation_Energy-OPLS-2005>
-245.621490478516

> <b_mmod_Minimization_Converged-OPLS-2005>
0

> <r_mmod_RMS_Derivative-OPLS-2005>
4.68438386917114

$$$$
75
                    3D
 Structure written by MMmdl.
158167  0  0  1  0            999 V2000
  -30.6789  -14.4732   20.5973 C   0  0  0  0  0  0
  -30.4327  -12.3144   19.4214 C   0  0  0  0  0  0
  -29.4987  -12.4991   18.2058 C   0  0  0  0  0  0
  -28.0176  -12.3682   18.6146 C   0  0  0  0  0  0
  -27.6650  -13.2014   19.8767 C   0  0  2  0  0  0
  -28.7033  -12.9554   20.9944 C   0  0  0  0  0  0
  -25.2585  -13.8145   20.5666 C   0  0  0  0  0  0
  -24.1844  -13.0444   20.9188 C   0  0  0  0  0  0
  -24.6394  -11.6908   20.8774 C   0  0  0  0  0  0
  -23.9065  -10.4306   21.0438 C   0  0  0  0  0  0
  -24.3623   -9.4212   21.9187 C   0  0  0  0  0  0
  -23.6313   -8.2244   22.0739 C   0  0  0  0  0  0
  -22.4288   -8.0291   21.3552 C   0  0  0  0  0  0
  -21.9922   -9.0265   20.4647 C   0  0  0  0  0  0
  -22.7246  -10.2149   20.3070 C   0  0  0  0  0  0
  -21.6841   -6.0752   22.5295 C   0  0  0  0  0  0
  -21.4013   -6.5648   23.8234 C   0  0  0  0  0  0
  -21.3663   -5.6789   24.9187 C   0  0  0  0  0  0
  -21.6032   -4.3053   24.7226 C   0  0  0  0  0  0
  -21.8823   -3.8160   23.4347 C   0  0  0  0  0  0
  -21.9190   -4.6981   22.3411 C   0  0  0  0  0  0
  -22.7866  -13.5259   21.1840 C   0  0  0  0  0  0
  -22.1655   -4.2167   21.0987 F   0  0  0  0  0  0
  -21.5623   -3.4538   25.7739 F   0  0  0  0  0  0
  -30.0365  -13.2802   20.4584 N   0  0  0  0  0  0
  -26.3021  -12.9315   20.3357 N   0  0  0  0  0  0
  -25.9308  -11.6479   20.5792 N   0  0  0  0  0  0
  -22.0500  -12.8294   22.0416 N   0  0  0  0  0  0
  -25.4287  -15.1861   20.4047 N   0  0  0  0  0  0
  -31.7785  -14.6871   20.0813 O   0  0  0  0  0  0
  -21.6631   -6.8908   21.4265 O   0  0  0  0  0  0
  -22.3572  -14.5563   20.6650 O   0  0  0  0  0  0
  -24.6168  -31.8659   23.2068 C   0  0  0  0  0  0
  -25.9051  -32.4817   23.8373 C   0  0  1  0  0  0
  -27.2316  -27.4134   20.1201 C   0  0  0  0  0  0
  -25.5905  -33.8613   24.2306 N   0  0  0  0  0  0
  -23.4062  -30.4886   21.5441 C   0  0  2  0  0  0
  -24.8551  -28.9444   20.1173 C   0  0  0  0  0  0
  -22.7414  -29.4669   22.4961 C   0  0  0  0  0  0
  -18.0276  -28.1383   22.8494 C   0  0  0  0  0  0
  -24.1486  -36.7304   23.2642 C   0  0  0  0  0  0
  -25.9357  -30.8227   21.3645 C   0  0  0  0  0  0
  -26.0132  -29.4533   20.7197 C   0  0  0  0  0  0
  -27.2070  -28.6937   20.7213 C   0  0  0  0  0  0
  -26.0641  -26.9214   19.5062 C   0  0  0  0  0  0
  -24.8751  -27.6767   19.5068 C   0  0  0  0  0  0
  -23.6190  -29.8149   20.1610 C   0  0  0  0  0  0
  -25.4111  -36.3102   24.0342 C   0  0  1  0  0  0
  -20.5872  -28.3680   23.1314 C   0  0  2  0  0  0
  -20.6772  -26.9416   22.5421 C   0  0  0  0  0  0
  -19.5754  -26.6397   21.5211 C   0  0  0  0  0  0
  -18.1931  -26.7933   22.1619 C   0  0  0  0  0  0
  -19.1526  -28.8849   23.2903 C   0  0  0  0  0  0
  -18.9459  -30.1457   23.8916 C   0  0  0  0  0  0
  -17.6468  -30.6592   24.0574 C   0  0  0  0  0  0
  -25.9036  -34.9471   23.5113 C   0  0  0  0  0  0
  -16.5359  -29.9095   23.6335 C   0  0  0  0  0  0
  -16.7270  -28.6512   23.0352 C   0  0  0  0  0  0
  -26.4481  -31.6598   25.0707 C   0  0  0  0  0  0
  -25.3766  -31.3715   26.1471 C   0  0  0  0  0  0
  -27.0307  -30.3037   24.6083 C   0  0  0  0  0  0
  -27.6046  -32.4333   25.7487 C   0  0  0  0  0  0
  -27.5575  -37.1810   24.8467 C   0  0  0  0  0  0
  -21.4144  -29.3040   22.3708 N   0  0  0  0  0  0
  -26.4289  -37.3793   23.9413 N   0  0  0  0  0  0
  -24.6704  -31.0754   22.0965 N   0  0  0  0  0  0
  -23.4174  -28.8224   23.3025 O   0  0  0  0  0  0
  -28.3742  -26.6425   20.1039 O   0  0  0  0  0  0
  -26.5602  -34.8937   22.4674 O   0  0  0  0  0  0
  -23.5353  -32.1418   23.7448 O   0  0  0  0  0  0
  -28.6594  -18.8714   20.5575 C   0  0  0  0  0  0
  -28.7251  -17.4888   20.8628 C   0  0  0  0  0  0
  -31.0821  -18.9779   20.6062 C   0  0  0  0  0  0
  -29.8436  -19.6331   20.4054 C   0  0  0  0  0  0
  -29.9695  -16.8279   21.0137 C   0  0  0  0  0  0
  -31.1508  -17.6064   20.9355 C   0  0  0  0  0  0
  -29.8411  -21.0650   19.8997 C   0  0  0  0  0  0
  -28.0483  -23.3760   22.1871 C   0  0  0  0  0  0
  -28.2960  -21.9288   21.7194 C   0  0  0  0  0  0
  -29.1512  -23.4486   20.0711 C   0  0  0  0  0  0
  -28.1491  -24.2456   20.9278 C   0  0  2  0  0  0
  -28.5165  -25.7358   21.2141 C   0  0  0  0  0  0
  -29.1029  -22.0370   20.5038 N   0  0  0  0  0  0
  -29.9758  -15.4156   21.2635 N   0  0  0  0  0  0
  -30.5678  -21.3270   18.9373 O   0  0  0  0  0  0
  -32.3622  -17.0596   21.1901 F   0  0  0  0  0  0
  -31.4735  -12.4295   19.1170 H   0  0  0  0  0  0
  -30.3531  -11.2988   19.8111 H   0  0  0  0  0  0
  -29.7368  -11.7613   17.4380 H   0  0  0  0  0  0
  -29.6672  -13.4772   17.7547 H   0  0  0  0  0  0
  -27.8210  -11.3135   18.8053 H   0  0  0  0  0  0
  -27.3709  -12.6467   17.7819 H   0  0  0  0  0  0
  -27.7219  -14.2548   19.5970 H   0  0  0  0  0  0
  -28.6794  -11.9079   21.2966 H   0  0  0  0  0  0
  -28.4497  -13.5162   21.8962 H   0  0  0  0  0  0
  -25.2782   -9.5677   22.4740 H   0  0  0  0  0  0
  -24.0017   -7.4638   22.7448 H   0  0  0  0  0  0
  -21.0842   -8.8804   19.8977 H   0  0  0  0  0  0
  -22.3719  -10.9679   19.6175 H   0  0  0  0  0  0
  -21.2011   -7.6156   23.9758 H   0  0  0  0  0  0
  -21.1466   -6.0506   25.9090 H   0  0  0  0  0  0
  -22.0597   -2.7623   23.2841 H   0  0  0  0  0  0
  -22.4096  -11.9984   22.4862 H   0  0  0  0  0  0
  -21.1110  -13.1322   22.2591 H   0  0  0  0  0  0
  -24.6548  -15.8333   20.5063 H   0  0  0  0  0  0
  -26.2607  -15.6185   20.0262 H   0  0  0  0  0  0
  -26.7118  -32.5521   23.1131 H   0  0  0  0  0  0
  -25.0097  -33.9769   25.0477 H   0  0  0  0  0  0
  -22.6965  -31.3065   21.3990 H   0  0  0  0  0  0
  -23.3742  -35.9643   23.3332 H   0  0  0  0  0  0
  -24.3580  -36.8876   22.2048 H   0  0  0  0  0  0
  -23.7251  -37.6525   23.6633 H   0  0  0  0  0  0
  -26.0539  -31.5824   20.5906 H   0  0  0  0  0  0
  -26.8225  -30.8787   21.9840 H   0  0  0  0  0  0
  -28.1036  -29.0789   21.1873 H   0  0  0  0  0  0
  -26.0749  -25.9490   19.0349 H   0  0  0  0  0  0
  -23.9859  -27.2767   19.0389 H   0  0  0  0  0  0
  -23.7337  -30.5845   19.3982 H   0  0  0  0  0  0
  -22.7436  -29.2358   19.8626 H   0  0  0  0  0  0
  -25.1288  -36.1959   25.0838 H   0  0  0  0  0  0
  -20.9985  -28.3244   24.1418 H   0  0  0  0  0  0
  -20.5664  -26.2283   23.3609 H   0  0  0  0  0  0
  -21.6644  -26.7440   22.1217 H   0  0  0  0  0  0
  -19.6911  -25.6305   21.1228 H   0  0  0  0  0  0
  -19.6689  -27.3218   20.6757 H   0  0  0  0  0  0
  -17.4199  -26.6692   21.4016 H   0  0  0  0  0  0
  -18.0320  -26.0067   22.9009 H   0  0  0  0  0  0
  -19.7943  -30.7265   24.2274 H   0  0  0  0  0  0
  -17.5028  -31.6267   24.5171 H   0  0  0  0  0  0
  -15.5360  -30.3000   23.7660 H   0  0  0  0  0  0
  -15.8670  -28.0845   22.7045 H   0  0  0  0  0  0
  -24.5934  -30.7049   25.7828 H   0  0  0  0  0  0
  -24.8979  -32.2874   26.4940 H   0  0  0  0  0  0
  -25.8159  -30.8887   27.0204 H   0  0  0  0  0  0
  -26.2828  -29.6821   24.1133 H   0  0  0  0  0  0
  -27.4057  -29.7267   25.4541 H   0  0  0  0  0  0
  -27.8687  -30.4355   23.9238 H   0  0  0  0  0  0
  -27.2626  -33.3603   26.2114 H   0  0  0  0  0  0
  -28.3850  -32.6945   25.0321 H   0  0  0  0  0  0
  -28.0721  -31.8428   26.5373 H   0  0  0  0  0  0
  -28.2611  -38.0091   24.7506 H   0  0  0  0  0  0
  -28.1056  -36.2623   24.6300 H   0  0  0  0  0  0
  -27.2302  -37.1468   25.8875 H   0  0  0  0  0  0
  -20.9300  -29.8765   21.6937 H   0  0  0  0  0  0
  -26.0174  -38.2869   24.1402 H   0  0  0  0  0  0
  -27.6942  -19.3272   20.3800 H   0  0  0  0  0  0
  -27.8024  -16.9300   20.9455 H   0  0  0  0  0  0
  -32.0033  -19.5308   20.4937 H   0  0  0  0  0  0
  -28.8242  -23.6655   22.8988 H   0  0  0  0  0  0
  -27.0889  -23.4902   22.6929 H   0  0  0  0  0  0
  -27.3498  -21.4419   21.4777 H   0  0  0  0  0  0
  -28.7929  -21.3327   22.4887 H   0  0  0  0  0  0
  -30.1643  -23.8214   20.2266 H   0  0  0  0  0  0
  -28.9229  -23.5419   19.0074 H   0  0  0  0  0  0
  -27.1767  -24.2126   20.4358 H   0  0  0  0  0  0
  -29.5525  -25.7874   21.5504 H   0  0  0  0  0  0
  -27.9267  -26.0931   22.0609 H   0  0  0  0  0  0
  -29.1325  -15.0483   21.6741 H   0  0  0  0  0  0
  1 25  1  0  0  0
  1 30  2  0  0  0
  1 84  1  0  0  0
  2  3  1  0  0  0
  2 25  1  0  0  0
  2 87  1  0  0  0
  2 88  1  0  0  0
  3  4  1  0  0  0
  3 89  1  0  0  0
  3 90  1  0  0  0
  4  5  1  0  0  0
  4 91  1  0  0  0
  4 92  1  0  0  0
  5  6  1  0  0  0
  5 26  1  0  0  0
  5 93  1  0  0  0
  6 25  1  0  0  0
  6 94  1  0  0  0
  6 95  1  0  0  0
  7  8  2  0  0  0
  7 26  1  0  0  0
  7 29  1  0  0  0
  8  9  1  0  0  0
  8 22  1  0  0  0
  9 10  1  0  0  0
  9 27  2  0  0  0
 10 11  2  0  0  0
 10 15  1  0  0  0
 11 12  1  0  0  0
 11 96  1  0  0  0
 12 13  2  0  0  0
 12 97  1  0  0  0
 13 14  1  0  0  0
 13 31  1  0  0  0
 14 15  2  0  0  0
 14 98  1  0  0  0
 15 99  1  0  0  0
 16 17  2  0  0  0
 16 21  1  0  0  0
 16 31  1  0  0  0
 17 18  1  0  0  0
 17100  1  0  0  0
 18 19  2  0  0  0
 18101  1  0  0  0
 19 20  1  0  0  0
 19 24  1  0  0  0
 20 21  2  0  0  0
 20102  1  0  0  0
 21 23  1  0  0  0
 22 28  1  0  0  0
 22 32  2  0  0  0
 26 27  1  0  0  0
 28103  1  0  0  0
 28104  1  0  0  0
 29105  1  0  0  0
 29106  1  0  0  0
 33 34  1  0  0  0
 33 66  1  0  0  0
 33 70  2  0  0  0
 34 36  1  0  0  0
 34 59  1  0  0  0
 34107  1  0  0  0
 35 44  2  0  0  0
 35 45  1  0  0  0
 35 68  1  0  0  0
 36 56  1  0  0  0
 36108  1  0  0  0
 37 39  1  0  0  0
 37 47  1  0  0  0
 37 66  1  0  0  0
 37109  1  0  0  0
 38 43  2  0  0  0
 38 46  1  0  0  0
 38 47  1  0  0  0
 39 64  1  0  0  0
 39 67  2  0  0  0
 40 52  1  0  0  0
 40 53  2  0  0  0
 40 58  1  0  0  0
 41110  1  0  0  0
 41111  1  0  0  0
 41112  1  0  0  0
 41 48  1  0  0  0
 42 43  1  0  0  0
 42 66  1  0  0  0
 42113  1  0  0  0
 42114  1  0  0  0
 43 44  1  0  0  0
 44115  1  0  0  0
 45 46  2  0  0  0
 45116  1  0  0  0
 46117  1  0  0  0
 47118  1  0  0  0
 47119  1  0  0  0
 48 56  1  0  0  0
 48 65  1  0  0  0
 48120  1  0  0  0
 49 50  1  0  0  0
 49 53  1  0  0  0
 49 64  1  0  0  0
 49121  1  0  0  0
 50 51  1  0  0  0
 50122  1  0  0  0
 50123  1  0  0  0
 51 52  1  0  0  0
 51124  1  0  0  0
 51125  1  0  0  0
 52126  1  0  0  0
 52127  1  0  0  0
 53 54  1  0  0  0
 54 55  2  0  0  0
 54128  1  0  0  0
 55 57  1  0  0  0
 55129  1  0  0  0
 56 69  2  0  0  0
 57 58  2  0  0  0
 57130  1  0  0  0
 58131  1  0  0  0
 59 60  1  0  0  0
 59 61  1  0  0  0
 59 62  1  0  0  0
 60132  1  0  0  0
 60133  1  0  0  0
 60134  1  0  0  0
 61135  1  0  0  0
 61136  1  0  0  0
 61137  1  0  0  0
 62138  1  0  0  0
 62139  1  0  0  0
 62140  1  0  0  0
 63 65  1  0  0  0
 63141  1  0  0  0
 63142  1  0  0  0
 63143  1  0  0  0
 64144  1  0  0  0
 65145  1  0  0  0
 68 82  1  0  0  0
 71 72  2  0  0  0
 71 74  1  0  0  0
 71146  1  0  0  0
 72 75  1  0  0  0
 72147  1  0  0  0
 73 74  2  0  0  0
 73 76  1  0  0  0
 73148  1  0  0  0
 74 77  1  0  0  0
 75 76  2  0  0  0
 75 84  1  0  0  0
 76 86  1  0  0  0
 77 83  1  0  0  0
 77 85  2  0  0  0
 78 79  1  0  0  0
 78 81  1  0  0  0
 78149  1  0  0  0
 78150  1  0  0  0
 79 83  1  0  0  0
 79151  1  0  0  0
 79152  1  0  0  0
 80 81  1  0  0  0
 80 83  1  0  0  0
 80153  1  0  0  0
 80154  1  0  0  0
 81 82  1  0  0  0
 81155  1  0  0  0
 82156  1  0  0  0
 82157  1  0  0  0
 84158  1  0  0  0
M  ISO  4   1 100  68 101  82 101  84 100
M  END
> <chiral flag>
0

> <version>
0

> <s_m_source_file>
/data/baiqing/PycharmProjects/Reinvent-master-3.2/result/LINK_invent/BTK/process_docking_weight1_custom_product_contain_oxygen_bond_distance_aromatic_linkinvent_7_9_3/rearranged_h_0099.sdf

> <i_m_source_file_index>
76

> <r_mmod_Potential_Energy-OPLS-2005>
61.5994758605957

> <r_mmod_Stretch_Energy-OPLS-2005>
42.0884399414062

> <r_mmod_Bend_Energy-OPLS-2005>
121.888999938965

> <r_mmod_Torsional_Energy-OPLS-2005>
345.329681396484

> <r_mmod_Improper_Torsional_Energy-OPLS-2005>
5.24740695953369

> <r_mmod_Van_der_Waal_Energy-OPLS-2005>
143.141616821289

> <r_mmod_Electrostatic_Energy-OPLS-2005>
-371.111633300781

> <r_mmod_Solvation_Energy-OPLS-2005>
-238.52311706543

> <b_mmod_Minimization_Converged-OPLS-2005>
0

> <r_mmod_RMS_Derivative-OPLS-2005>
3.09271645545959

$$$$
76
                    3D
 Structure written by MMmdl.
151159  0  0  1  0            999 V2000
  -30.6187  -14.6492   20.4963 C   0  0  0  0  0  0
  -30.4388  -12.3971   19.4558 C   0  0  0  0  0  0
  -29.5091  -12.5078   18.2265 C   0  0  0  0  0  0
  -28.0321  -12.3427   18.6377 C   0  0  0  0  0  0
  -27.6527  -13.2166   19.8626 C   0  0  2  0  0  0
  -28.6968  -13.0772   20.9938 C   0  0  0  0  0  0
  -25.2557  -13.8172   20.5682 C   0  0  0  0  0  0
  -24.1828  -13.0438   20.9196 C   0  0  0  0  0  0
  -24.6396  -11.6909   20.8742 C   0  0  0  0  0  0
  -23.9066  -10.4292   21.0408 C   0  0  0  0  0  0
  -24.3616   -9.4206   21.9185 C   0  0  0  0  0  0
  -23.6290   -8.2242   22.0754 C   0  0  0  0  0  0
  -22.4273   -8.0282   21.3545 C   0  0  0  0  0  0
  -21.9909   -9.0257   20.4648 C   0  0  0  0  0  0
  -22.7238  -10.2135   20.3057 C   0  0  0  0  0  0
  -21.6852   -6.0736   22.5279 C   0  0  0  0  0  0
  -21.4016   -6.5639   23.8214 C   0  0  0  0  0  0
  -21.3658   -5.6791   24.9176 C   0  0  0  0  0  0
  -21.6042   -4.3054   24.7225 C   0  0  0  0  0  0
  -21.8819   -3.8146   23.4346 C   0  0  0  0  0  0
  -21.9193   -4.6963   22.3403 C   0  0  0  0  0  0
  -22.7848  -13.5230   21.1855 C   0  0  0  0  0  0
  -22.1660   -4.2149   21.0980 F   0  0  0  0  0  0
  -21.5627   -3.4538   25.7737 F   0  0  0  0  0  0
  -30.0121  -13.4208   20.4308 N   0  0  0  0  0  0
  -26.2983  -12.9352   20.3310 N   0  0  0  0  0  0
  -25.9324  -11.6507   20.5757 N   0  0  0  0  0  0
  -22.0487  -12.8229   22.0412 N   0  0  0  0  0  0
  -25.4267  -15.1894   20.4076 N   0  0  0  0  0  0
  -31.7841  -14.8026   20.1193 O   0  0  0  0  0  0
  -21.6637   -6.8879   21.4242 O   0  0  0  0  0  0
  -22.3535  -14.5535   20.6697 O   0  0  0  0  0  0
  -24.6261  -31.8601   23.2026 C   0  0  0  0  0  0
  -25.9109  -32.4783   23.8353 C   0  0  1  0  0  0
  -27.2239  -27.3194   20.1158 C   0  0  0  0  0  0
  -25.5925  -33.8583   24.2282 N   0  0  0  0  0  0
  -23.4192  -30.4843   21.5452 C   0  0  2  0  0  0
  -24.8651  -28.9391   20.1113 C   0  0  0  0  0  0
  -22.7471  -29.4631   22.4937 C   0  0  0  0  0  0
  -18.0286  -28.1388   22.8486 C   0  0  0  0  0  0
  -24.1487  -36.7295   23.2639 C   0  0  0  0  0  0
  -25.9604  -30.7917   21.3727 C   0  0  0  0  0  0
  -26.0346  -29.4192   20.7140 C   0  0  0  0  0  0
  -27.2172  -28.6217   20.7046 C   0  0  0  0  0  0
  -26.0293  -26.8916   19.4910 C   0  0  0  0  0  0
  -24.8645  -27.6809   19.4910 C   0  0  0  0  0  0
  -23.6336  -29.8195   20.1603 C   0  0  0  0  0  0
  -25.4113  -36.3088   24.0331 C   0  0  1  0  0  0
  -20.5886  -28.3695   23.1284 C   0  0  2  0  0  0
  -20.6777  -26.9420   22.5408 C   0  0  0  0  0  0
  -19.5754  -26.6390   21.5211 C   0  0  0  0  0  0
  -18.1934  -26.7931   22.1623 C   0  0  0  0  0  0
  -19.1538  -28.8857   23.2880 C   0  0  0  0  0  0
  -18.9463  -30.1458   23.8900 C   0  0  0  0  0  0
  -17.6463  -30.6592   24.0566 C   0  0  0  0  0  0
  -25.9049  -34.9457   23.5107 C   0  0  0  0  0  0
  -16.5355  -29.9092   23.6330 C   0  0  0  0  0  0
  -16.7274  -28.6508   23.0354 C   0  0  0  0  0  0
  -26.4492  -31.6591   25.0723 C   0  0  0  0  0  0
  -25.3726  -31.3730   26.1450 C   0  0  0  0  0  0
  -27.0338  -30.3018   24.6176 C   0  0  0  0  0  0
  -27.6049  -32.4326   25.7496 C   0  0  0  0  0  0
  -27.5580  -37.1806   24.8466 C   0  0  0  0  0  0
  -21.4186  -29.3048   22.3677 N   0  0  0  0  0  0
  -26.4293  -37.3782   23.9408 N   0  0  0  0  0  0
  -24.6875  -31.0617   22.0972 N   0  0  0  0  0  0
  -23.4195  -28.8173   23.3019 O   0  0  0  0  0  0
  -28.3450  -26.4748   20.1661 O   0  0  0  0  0  0
  -26.5617  -34.8923   22.4673 O   0  0  0  0  0  0
  -23.5425  -32.1398   23.7357 O   0  0  0  0  0  0
  -31.0832  -19.2733   20.1180 C   0  0  0  0  0  0
  -31.0547  -17.8500   20.2111 C   0  0  0  0  0  0
  -28.8082  -17.9908   21.0445 C   0  0  0  0  0  0
  -29.9881  -20.1093   20.4899 C   0  0  0  0  0  0
  -29.9127  -17.1594   20.6913 C   0  0  0  0  0  0
  -28.8358  -19.4200   20.9543 C   0  0  0  0  0  0
  -30.1688  -21.6482   20.5007 C   0  0  0  0  0  0
  -29.3409  -24.0537   20.4339 C   0  0  0  0  0  0
  -28.1371  -25.0112   20.0428 C   0  0  0  0  0  0
  -29.8038  -15.7006   20.8398 N   0  0  0  0  0  0
  -29.1469  -22.5514   20.3734 N   0  0  0  0  0  0
  -31.3229  -22.0750   20.5990 O   0  0  0  0  0  0
  -27.7420  -20.1203   21.3431 F   0  0  0  0  0  0
  -31.4801  -12.5230   19.1542 H   0  0  0  0  0  0
  -30.3756  -11.4025   19.8998 H   0  0  0  0  0  0
  -29.7766  -11.7565   17.4821 H   0  0  0  0  0  0
  -29.6487  -13.4774   17.7455 H   0  0  0  0  0  0
  -27.8725  -11.2900   18.8737 H   0  0  0  0  0  0
  -27.3773  -12.5678   17.7952 H   0  0  0  0  0  0
  -27.6697  -14.2503   19.5172 H   0  0  0  0  0  0
  -28.7094  -12.0571   21.3806 H   0  0  0  0  0  0
  -28.4403  -13.7125   21.8429 H   0  0  0  0  0  0
  -25.2763   -9.5679   22.4757 H   0  0  0  0  0  0
  -24.0000   -7.4631   22.7471 H   0  0  0  0  0  0
  -21.0840   -8.8778   19.8953 H   0  0  0  0  0  0
  -22.3701  -10.9674   19.6164 H   0  0  0  0  0  0
  -21.2011   -7.6147   23.9719 H   0  0  0  0  0  0
  -21.1479   -6.0520   25.9079 H   0  0  0  0  0  0
  -22.0600   -2.7609   23.2846 H   0  0  0  0  0  0
  -22.4096  -11.9894   22.4811 H   0  0  0  0  0  0
  -21.1104  -13.1259   22.2609 H   0  0  0  0  0  0
  -24.6534  -15.8391   20.5028 H   0  0  0  0  0  0
  -26.2640  -15.6243   20.0421 H   0  0  0  0  0  0
  -26.7176  -32.5454   23.1102 H   0  0  0  0  0  0
  -25.0072  -33.9724   25.0428 H   0  0  0  0  0  0
  -22.7130  -31.3049   21.4029 H   0  0  0  0  0  0
  -23.3750  -35.9628   23.3306 H   0  0  0  0  0  0
  -24.3575  -36.8909   22.2052 H   0  0  0  0  0  0
  -23.7240  -37.6500   23.6655 H   0  0  0  0  0  0
  -26.0918  -31.5561   20.6054 H   0  0  0  0  0  0
  -26.8407  -30.8398   22.0021 H   0  0  0  0  0  0
  -28.1148  -28.9868   21.1838 H   0  0  0  0  0  0
  -25.9664  -25.9310   19.0026 H   0  0  0  0  0  0
  -23.9681  -27.3077   19.0151 H   0  0  0  0  0  0
  -23.7536  -30.5963   19.4042 H   0  0  0  0  0  0
  -22.7531  -29.2500   19.8575 H   0  0  0  0  0  0
  -25.1294  -36.1944   25.0824 H   0  0  0  0  0  0
  -20.9978  -28.3271   24.1405 H   0  0  0  0  0  0
  -20.5682  -26.2308   23.3607 H   0  0  0  0  0  0
  -21.6647  -26.7455   22.1202 H   0  0  0  0  0  0
  -19.6917  -25.6299   21.1244 H   0  0  0  0  0  0
  -19.6690  -27.3196   20.6737 H   0  0  0  0  0  0
  -17.4203  -26.6677   21.4026 H   0  0  0  0  0  0
  -18.0339  -26.0073   22.9020 H   0  0  0  0  0  0
  -19.7939  -30.7272   24.2272 H   0  0  0  0  0  0
  -17.5021  -31.6270   24.5169 H   0  0  0  0  0  0
  -15.5357  -30.2999   23.7650 H   0  0  0  0  0  0
  -15.8672  -28.0826   22.7074 H   0  0  0  0  0  0
  -24.5901  -30.7077   25.7780 H   0  0  0  0  0  0
  -24.8916  -32.2897   26.4870 H   0  0  0  0  0  0
  -25.8052  -30.8912   27.0227 H   0  0  0  0  0  0
  -26.2917  -29.6767   24.1196 H   0  0  0  0  0  0
  -27.4036  -29.7273   25.4679 H   0  0  0  0  0  0
  -27.8783  -30.4307   23.9402 H   0  0  0  0  0  0
  -27.2656  -33.3620   26.2079 H   0  0  0  0  0  0
  -28.3859  -32.6895   25.0327 H   0  0  0  0  0  0
  -28.0719  -31.8448   26.5409 H   0  0  0  0  0  0
  -28.2605  -38.0097   24.7511 H   0  0  0  0  0  0
  -28.1071  -36.2630   24.6298 H   0  0  0  0  0  0
  -27.2297  -37.1461   25.8869 H   0  0  0  0  0  0
  -20.9364  -29.8768   21.6885 H   0  0  0  0  0  0
  -26.0177  -38.2859   24.1404 H   0  0  0  0  0  0
  -31.9967  -19.7364   19.7717 H   0  0  0  0  0  0
  -31.9398  -17.3027   19.9203 H   0  0  0  0  0  0
  -27.9028  -17.5328   21.4149 H   0  0  0  0  0  0
  -29.6511  -24.2990   21.4503 H   0  0  0  0  0  0
  -30.1875  -24.3155   19.7973 H   0  0  0  0  0  0
  -27.2797  -24.7307   20.6572 H   0  0  0  0  0  0
  -27.8679  -24.7911   19.0094 H   0  0  0  0  0  0
  -28.9039  -15.3833   21.1656 H   0  0  0  0  0  0
  -28.2048  -22.1897   20.3007 H   0  0  0  0  0  0
  1 25  1  0  0  0
  1 30  2  0  0  0
  1 80  1  0  0  0
  2  3  1  0  0  0
  2 25  1  0  0  0
  2 84  1  0  0  0
  2 85  1  0  0  0
  3  4  1  0  0  0
  3 86  1  0  0  0
  3 87  1  0  0  0
  4  5  1  0  0  0
  4 88  1  0  0  0
  4 89  1  0  0  0
  5  6  1  0  0  0
  5 26  1  0  0  0
  5 90  1  0  0  0
  6 25  1  0  0  0
  6 91  1  0  0  0
  6 92  1  0  0  0
  7  8  2  0  0  0
  7 26  1  0  0  0
  7 29  1  0  0  0
  8  9  1  0  0  0
  8 22  1  0  0  0
  9 10  1  0  0  0
  9 27  2  0  0  0
 10 11  2  0  0  0
 10 15  1  0  0  0
 11 12  1  0  0  0
 11 93  1  0  0  0
 12 13  2  0  0  0
 12 94  1  0  0  0
 13 14  1  0  0  0
 13 31  1  0  0  0
 14 15  2  0  0  0
 14 95  1  0  0  0
 15 96  1  0  0  0
 16 17  2  0  0  0
 16 21  1  0  0  0
 16 31  1  0  0  0
 17 18  1  0  0  0
 17 97  1  0  0  0
 18 19  2  0  0  0
 18 98  1  0  0  0
 19 20  1  0  0  0
 19 24  1  0  0  0
 20 21  2  0  0  0
 20 99  1  0  0  0
 21 23  1  0  0  0
 22 28  1  0  0  0
 22 32  2  0  0  0
 26 27  1  0  0  0
 28100  1  0  0  0
 28101  1  0  0  0
 29102  1  0  0  0
 29103  1  0  0  0
 33 34  1  0  0  0
 33 66  1  0  0  0
 33 70  2  0  0  0
 34 36  1  0  0  0
 34 59  1  0  0  0
 34104  1  0  0  0
 35 44  2  0  0  0
 35 45  1  0  0  0
 35 68  1  0  0  0
 36 56  1  0  0  0
 36105  1  0  0  0
 37 39  1  0  0  0
 37 47  1  0  0  0
 37 66  1  0  0  0
 37106  1  0  0  0
 38 43  2  0  0  0
 38 46  1  0  0  0
 38 47  1  0  0  0
 39 64  1  0  0  0
 39 67  2  0  0  0
 40 52  1  0  0  0
 40 53  2  0  0  0
 40 58  1  0  0  0
 41107  1  0  0  0
 41108  1  0  0  0
 41109  1  0  0  0
 41 48  1  0  0  0
 42 43  1  0  0  0
 42 66  1  0  0  0
 42110  1  0  0  0
 42111  1  0  0  0
 43 44  1  0  0  0
 44112  1  0  0  0
 45 46  2  0  0  0
 45113  1  0  0  0
 46114  1  0  0  0
 47115  1  0  0  0
 47116  1  0  0  0
 48 56  1  0  0  0
 48 65  1  0  0  0
 48117  1  0  0  0
 49 50  1  0  0  0
 49 53  1  0  0  0
 49 64  1  0  0  0
 49118  1  0  0  0
 50 51  1  0  0  0
 50119  1  0  0  0
 50120  1  0  0  0
 51 52  1  0  0  0
 51121  1  0  0  0
 51122  1  0  0  0
 52123  1  0  0  0
 52124  1  0  0  0
 53 54  1  0  0  0
 54 55  2  0  0  0
 54125  1  0  0  0
 55 57  1  0  0  0
 55126  1  0  0  0
 56 69  2  0  0  0
 57 58  2  0  0  0
 57127  1  0  0  0
 58128  1  0  0  0
 59 60  1  0  0  0
 59 61  1  0  0  0
 59 62  1  0  0  0
 60129  1  0  0  0
 60130  1  0  0  0
 60131  1  0  0  0
 61132  1  0  0  0
 61133  1  0  0  0
 61134  1  0  0  0
 62135  1  0  0  0
 62136  1  0  0  0
 62137  1  0  0  0
 63 65  1  0  0  0
 63138  1  0  0  0
 63139  1  0  0  0
 63140  1  0  0  0
 64141  1  0  0  0
 65142  1  0  0  0
 68 79  1  0  0  0
 71 72  2  0  0  0
 71 74  1  0  0  0
 71143  1  0  0  0
 72 75  1  0  0  0
 72144  1  0  0  0
 73 75  2  0  0  0
 73 76  1  0  0  0
 73145  1  0  0  0
 74 76  2  0  0  0
 74 77  1  0  0  0
 75 80  1  0  0  0
 76 83  1  0  0  0
 77 81  1  0  0  0
 77 82  2  0  0  0
 78 79  1  0  0  0
 78 81  1  0  0  0
 78146  1  0  0  0
 78147  1  0  0  0
 79148  1  0  0  0
 79149  1  0  0  0
 80150  1  0  0  0
 81151  1  0  0  0
M  ISO  4   1 100  68 101  79 101  80 100
M  END
> <chiral flag>
0

> <version>
0

> <s_m_source_file>
/data/baiqing/PycharmProjects/Reinvent-master-3.2/result/LINK_invent/BTK/process_docking_weight1_custom_product_contain_oxygen_bond_distance_aromatic_linkinvent_7_9_3/rearranged_h_0099.sdf

> <i_m_source_file_index>
77

> <r_mmod_Potential_Energy-OPLS-2005>
16.510835647583

> <r_mmod_Stretch_Energy-OPLS-2005>
80.9093017578125

> <r_mmod_Bend_Energy-OPLS-2005>
141.168273925781

> <r_mmod_Torsional_Energy-OPLS-2005>
217.246307373047

> <r_mmod_Improper_Torsional_Energy-OPLS-2005>
4.68743324279785

> <r_mmod_Van_der_Waal_Energy-OPLS-2005>
149.326095581055

> <r_mmod_Electrostatic_Energy-OPLS-2005>
-399.823760986328

> <r_mmod_Solvation_Energy-OPLS-2005>
-226.79606628418

> <b_mmod_Minimization_Converged-OPLS-2005>
0

> <r_mmod_RMS_Derivative-OPLS-2005>
0.423974633216858

$$$$
77
                    3D
 Structure written by MMmdl.
163172  0  0  1  0            999 V2000
  -30.6764  -14.4749   20.6142 C   0  0  0  0  0  0
  -30.4391  -12.3267   19.4066 C   0  0  0  0  0  0
  -29.4938  -12.5218   18.2014 C   0  0  0  0  0  0
  -28.0156  -12.3734   18.6165 C   0  0  0  0  0  0
  -27.6655  -13.2002   19.8814 C   0  0  2  0  0  0
  -28.7080  -12.9413   20.9916 C   0  0  0  0  0  0
  -25.2592  -13.8141   20.5677 C   0  0  0  0  0  0
  -24.1831  -13.0426   20.9159 C   0  0  0  0  0  0
  -24.6389  -11.6896   20.8732 C   0  0  0  0  0  0
  -23.9055  -10.4285   21.0408 C   0  0  0  0  0  0
  -24.3608   -9.4204   21.9188 C   0  0  0  0  0  0
  -23.6290   -8.2238   22.0755 C   0  0  0  0  0  0
  -22.4276   -8.0279   21.3545 C   0  0  0  0  0  0
  -21.9908   -9.0249   20.4648 C   0  0  0  0  0  0
  -22.7232  -10.2131   20.3055 C   0  0  0  0  0  0
  -21.6852   -6.0740   22.5283 C   0  0  0  0  0  0
  -21.4011   -6.5643   23.8218 C   0  0  0  0  0  0
  -21.3655   -5.6796   24.9180 C   0  0  0  0  0  0
  -21.6047   -4.3059   24.7233 C   0  0  0  0  0  0
  -21.8819   -3.8151   23.4353 C   0  0  0  0  0  0
  -21.9189   -4.6965   22.3408 C   0  0  0  0  0  0
  -22.7855  -13.5227   21.1839 C   0  0  0  0  0  0
  -22.1660   -4.2151   21.0985 F   0  0  0  0  0  0
  -21.5633   -3.4543   25.7744 F   0  0  0  0  0  0
  -30.0412  -13.2800   20.4531 N   0  0  0  0  0  0
  -26.3041  -12.9304   20.3407 N   0  0  0  0  0  0
  -25.9319  -11.6468   20.5778 N   0  0  0  0  0  0
  -22.0496  -12.8217   22.0401 N   0  0  0  0  0  0
  -25.4318  -15.1850   20.4110 N   0  0  0  0  0  0
  -31.7754  -14.7265   20.1099 O   0  0  0  0  0  0
  -21.6636   -6.8882   21.4246 O   0  0  0  0  0  0
  -22.3536  -14.5534   20.6700 O   0  0  0  0  0  0
  -24.6156  -31.8660   23.2083 C   0  0  0  0  0  0
  -25.9045  -32.4817   23.8386 C   0  0  1  0  0  0
  -27.2403  -27.4336   20.1028 C   0  0  0  0  0  0
  -25.5895  -33.8619   24.2318 N   0  0  0  0  0  0
  -23.4048  -30.4871   21.5477 C   0  0  2  0  0  0
  -24.8546  -28.9487   20.1175 C   0  0  0  0  0  0
  -22.7408  -29.4655   22.4984 C   0  0  0  0  0  0
  -18.0267  -28.1386   22.8499 C   0  0  0  0  0  0
  -24.1481  -36.7328   23.2642 C   0  0  0  0  0  0
  -25.9317  -30.8331   21.3592 C   0  0  0  0  0  0
  -26.0131  -29.4632   20.7152 C   0  0  0  0  0  0
  -27.2119  -28.7124   20.7062 C   0  0  0  0  0  0
  -26.0700  -26.9308   19.5009 C   0  0  0  0  0  0
  -24.8773  -27.6807   19.5079 C   0  0  0  0  0  0
  -23.6142  -29.8133   20.1644 C   0  0  0  0  0  0
  -25.4102  -36.3113   24.0333 C   0  0  1  0  0  0
  -20.5855  -28.3679   23.1317 C   0  0  2  0  0  0
  -20.6760  -26.9420   22.5418 C   0  0  0  0  0  0
  -19.5738  -26.6393   21.5222 C   0  0  0  0  0  0
  -18.1910  -26.7936   22.1626 C   0  0  0  0  0  0
  -19.1514  -28.8850   23.2905 C   0  0  0  0  0  0
  -18.9445  -30.1461   23.8911 C   0  0  0  0  0  0
  -17.6446  -30.6597   24.0568 C   0  0  0  0  0  0
  -25.9029  -34.9477   23.5121 C   0  0  0  0  0  0
  -16.5337  -29.9098   23.6331 C   0  0  0  0  0  0
  -16.7258  -28.6513   23.0355 C   0  0  0  0  0  0
  -26.4485  -31.6599   25.0712 C   0  0  0  0  0  0
  -25.3769  -31.3680   26.1465 C   0  0  0  0  0  0
  -27.0334  -30.3053   24.6076 C   0  0  0  0  0  0
  -27.6044  -32.4329   25.7482 C   0  0  0  0  0  0
  -27.5572  -37.1808   24.8465 C   0  0  0  0  0  0
  -21.4135  -29.3041   22.3722 N   0  0  0  0  0  0
  -26.4289  -37.3790   23.9404 N   0  0  0  0  0  0
  -24.6688  -31.0768   22.0972 N   0  0  0  0  0  0
  -23.4174  -28.8206   23.3039 O   0  0  0  0  0  0
  -28.3913  -26.6806   20.0549 O   0  0  0  0  0  0
  -26.5594  -34.8930   22.4684 O   0  0  0  0  0  0
  -23.5351  -32.1397   23.7485 O   0  0  0  0  0  0
  -31.0806  -19.0064   21.3778 C   0  0  0  0  0  0
  -31.1357  -17.6088   21.1383 C   0  0  0  0  0  0
  -28.7737  -18.7996   22.1034 C   0  0  0  0  0  0
  -29.9067  -19.6171   21.8903 C   0  0  0  0  0  0
  -30.0090  -16.7948   21.4095 C   0  0  0  0  0  0
  -28.8287  -17.4110   21.8719 C   0  0  0  0  0  0
  -28.1333  -23.3885   20.0480 C   0  0  0  0  0  0
  -28.7302  -21.9832   20.2897 C   0  0  0  0  0  0
  -29.7683  -23.5316   21.7658 C   0  0  0  0  0  0
  -29.1410  -24.3774   20.6440 C   0  0  2  0  0  0
  -31.0335  -21.3368   23.3567 C   0  0  0  0  0  0
  -28.5422  -25.7327   21.1217 C   0  0  0  0  0  0
  -29.8778  -21.0875   22.3639 C   0  0  1  0  0  0
  -29.9538  -15.3721   21.3099 N   0  0  0  0  0  0
  -29.8262  -22.1240   21.2810 N   0  3  1  0  0  0
  -27.7398  -16.6454   22.1257 F   0  0  0  0  0  0
  -31.4766  -12.4637   19.0964 H   0  0  0  0  0  0
  -30.3738  -11.3064   19.7867 H   0  0  0  0  0  0
  -29.7323  -11.8041   17.4151 H   0  0  0  0  0  0
  -29.6520  -13.5110   17.7688 H   0  0  0  0  0  0
  -27.8270  -11.3156   18.8040 H   0  0  0  0  0  0
  -27.3633  -12.6568   17.7899 H   0  0  0  0  0  0
  -27.7181  -14.2537   19.6046 H   0  0  0  0  0  0
  -28.6917  -11.8901   21.2832 H   0  0  0  0  0  0
  -28.4522  -13.4855   21.9015 H   0  0  0  0  0  0
  -25.2755   -9.5679   22.4760 H   0  0  0  0  0  0
  -24.0003   -7.4626   22.7466 H   0  0  0  0  0  0
  -21.0849   -8.8770   19.8945 H   0  0  0  0  0  0
  -22.3701  -10.9671   19.6163 H   0  0  0  0  0  0
  -21.2003   -7.6151   23.9720 H   0  0  0  0  0  0
  -21.1481   -6.0532   25.9083 H   0  0  0  0  0  0
  -22.0604   -2.7615   23.2859 H   0  0  0  0  0  0
  -22.4115  -11.9880   22.4791 H   0  0  0  0  0  0
  -21.1111  -13.1237   22.2604 H   0  0  0  0  0  0
  -24.6817  -15.8487   20.5683 H   0  0  0  0  0  0
  -26.3195  -15.6315   20.2182 H   0  0  0  0  0  0
  -26.7129  -32.5533   23.1167 H   0  0  0  0  0  0
  -25.0057  -33.9792   25.0471 H   0  0  0  0  0  0
  -22.6938  -31.3029   21.4041 H   0  0  0  0  0  0
  -23.3736  -35.9667   23.3306 H   0  0  0  0  0  0
  -24.3580  -36.8951   22.2058 H   0  0  0  0  0  0
  -23.7242  -37.6534   23.6667 H   0  0  0  0  0  0
  -26.0343  -31.5926   20.5829 H   0  0  0  0  0  0
  -26.8233  -30.8966   21.9712 H   0  0  0  0  0  0
  -28.1103  -29.1083   21.1587 H   0  0  0  0  0  0
  -26.0855  -25.9603   19.0238 H   0  0  0  0  0  0
  -23.9883  -27.2794   19.0411 H   0  0  0  0  0  0
  -23.7169  -30.5841   19.3998 H   0  0  0  0  0  0
  -22.7396  -29.2272   19.8754 H   0  0  0  0  0  0
  -25.1273  -36.1975   25.0825 H   0  0  0  0  0  0
  -20.9944  -28.3260   24.1438 H   0  0  0  0  0  0
  -20.5688  -26.2295   23.3605 H   0  0  0  0  0  0
  -21.6626  -26.7470   22.1199 H   0  0  0  0  0  0
  -19.6903  -25.6306   21.1248 H   0  0  0  0  0  0
  -19.6684  -27.3209   20.6756 H   0  0  0  0  0  0
  -17.4184  -26.6710   21.4018 H   0  0  0  0  0  0
  -18.0296  -26.0075   22.9015 H   0  0  0  0  0  0
  -19.7922  -30.7275   24.2285 H   0  0  0  0  0  0
  -17.5001  -31.6278   24.5171 H   0  0  0  0  0  0
  -15.5338  -30.3002   23.7650 H   0  0  0  0  0  0
  -15.8656  -28.0839   22.7059 H   0  0  0  0  0  0
  -24.5964  -30.6994   25.7811 H   0  0  0  0  0  0
  -24.8938  -32.2825   26.4914 H   0  0  0  0  0  0
  -25.8150  -30.8868   27.0220 H   0  0  0  0  0  0
  -26.2873  -29.6784   24.1179 H   0  0  0  0  0  0
  -27.4178  -29.7309   25.4514 H   0  0  0  0  0  0
  -27.8667  -30.4390   23.9171 H   0  0  0  0  0  0
  -27.2650  -33.3618   26.2072 H   0  0  0  0  0  0
  -28.3854  -32.6903   25.0319 H   0  0  0  0  0  0
  -28.0719  -31.8452   26.5396 H   0  0  0  0  0  0
  -28.2582  -38.0112   24.7516 H   0  0  0  0  0  0
  -28.1071  -36.2639   24.6282 H   0  0  0  0  0  0
  -27.2292  -37.1447   25.8871 H   0  0  0  0  0  0
  -20.9295  -29.8771   21.6949 H   0  0  0  0  0  0
  -26.0180  -38.2867   24.1407 H   0  0  0  0  0  0
  -31.9709  -19.5969   21.2121 H   0  0  0  0  0  0
  -32.0609  -17.1744   20.7881 H   0  0  0  0  0  0
  -27.8609  -19.2181   22.5018 H   0  0  0  0  0  0
  -27.1776  -23.4638   20.5686 H   0  0  0  0  0  0
  -27.9404  -23.5828   18.9928 H   0  0  0  0  0  0
  -29.1441  -21.5697   19.3698 H   0  0  0  0  0  0
  -27.9524  -21.2982   20.6302 H   0  0  0  0  0  0
  -29.1374  -23.5874   22.6547 H   0  0  0  0  0  0
  -30.7566  -23.9006   22.0436 H   0  0  0  0  0  0
  -29.9206  -24.5753   19.9072 H   0  0  0  0  0  0
  -31.0203  -20.5910   24.1520 H   0  0  0  0  0  0
  -30.9578  -22.3086   23.8430 H   0  0  0  0  0  0
  -32.0091  -21.2809   22.8743 H   0  0  0  0  0  0
  -29.2157  -26.1873   21.8494 H   0  0  0  0  0  0
  -27.6030  -25.5600   21.6523 H   0  0  0  0  0  0
  -28.9558  -21.2087   22.9360 H   0  0  0  0  0  0
  -29.0942  -14.9870   21.6727 H   0  0  0  0  0  0
  -30.6820  -22.0381   20.7535 H   0  0  0  0  0  0
  1 25  1  0  0  0
  1 30  2  0  0  0
  1 84  1  0  0  0
  2  3  1  0  0  0
  2 25  1  0  0  0
  2 87  1  0  0  0
  2 88  1  0  0  0
  3  4  1  0  0  0
  3 89  1  0  0  0
  3 90  1  0  0  0
  4  5  1  0  0  0
  4 91  1  0  0  0
  4 92  1  0  0  0
  5  6  1  0  0  0
  5 26  1  0  0  0
  5 93  1  0  0  0
  6 25  1  0  0  0
  6 94  1  0  0  0
  6 95  1  0  0  0
  7  8  2  0  0  0
  7 26  1  0  0  0
  7 29  1  0  0  0
  8  9  1  0  0  0
  8 22  1  0  0  0
  9 10  1  0  0  0
  9 27  2  0  0  0
 10 11  2  0  0  0
 10 15  1  0  0  0
 11 12  1  0  0  0
 11 96  1  0  0  0
 12 13  2  0  0  0
 12 97  1  0  0  0
 13 14  1  0  0  0
 13 31  1  0  0  0
 14 15  2  0  0  0
 14 98  1  0  0  0
 15 99  1  0  0  0
 16 17  2  0  0  0
 16 21  1  0  0  0
 16 31  1  0  0  0
 17 18  1  0  0  0
 17100  1  0  0  0
 18 19  2  0  0  0
 18101  1  0  0  0
 19 20  1  0  0  0
 19 24  1  0  0  0
 20 21  2  0  0  0
 20102  1  0  0  0
 21 23  1  0  0  0
 22 28  1  0  0  0
 22 32  2  0  0  0
 26 27  1  0  0  0
 28103  1  0  0  0
 28104  1  0  0  0
 29105  1  0  0  0
 29106  1  0  0  0
 33 34  1  0  0  0
 33 66  1  0  0  0
 33 70  2  0  0  0
 34 36  1  0  0  0
 34 59  1  0  0  0
 34107  1  0  0  0
 35 44  2  0  0  0
 35 45  1  0  0  0
 35 68  1  0  0  0
 36 56  1  0  0  0
 36108  1  0  0  0
 37 39  1  0  0  0
 37 47  1  0  0  0
 37 66  1  0  0  0
 37109  1  0  0  0
 38 43  2  0  0  0
 38 46  1  0  0  0
 38 47  1  0  0  0
 39 64  1  0  0  0
 39 67  2  0  0  0
 40 52  1  0  0  0
 40 53  2  0  0  0
 40 58  1  0  0  0
 41110  1  0  0  0
 41111  1  0  0  0
 41112  1  0  0  0
 41 48  1  0  0  0
 42 43  1  0  0  0
 42 66  1  0  0  0
 42113  1  0  0  0
 42114  1  0  0  0
 43 44  1  0  0  0
 44115  1  0  0  0
 45 46  2  0  0  0
 45116  1  0  0  0
 46117  1  0  0  0
 47118  1  0  0  0
 47119  1  0  0  0
 48 56  1  0  0  0
 48 65  1  0  0  0
 48120  1  0  0  0
 49 50  1  0  0  0
 49 53  1  0  0  0
 49 64  1  0  0  0
 49121  1  0  0  0
 50 51  1  0  0  0
 50122  1  0  0  0
 50123  1  0  0  0
 51 52  1  0  0  0
 51124  1  0  0  0
 51125  1  0  0  0
 52126  1  0  0  0
 52127  1  0  0  0
 53 54  1  0  0  0
 54 55  2  0  0  0
 54128  1  0  0  0
 55 57  1  0  0  0
 55129  1  0  0  0
 56 69  2  0  0  0
 57 58  2  0  0  0
 57130  1  0  0  0
 58131  1  0  0  0
 59 60  1  0  0  0
 59 61  1  0  0  0
 59 62  1  0  0  0
 60132  1  0  0  0
 60133  1  0  0  0
 60134  1  0  0  0
 61135  1  0  0  0
 61136  1  0  0  0
 61137  1  0  0  0
 62138  1  0  0  0
 62139  1  0  0  0
 62140  1  0  0  0
 63 65  1  0  0  0
 63141  1  0  0  0
 63142  1  0  0  0
 63143  1  0  0  0
 64144  1  0  0  0
 65145  1  0  0  0
 68 82  1  0  0  0
 71 72  2  0  0  0
 71 74  1  0  0  0
 71146  1  0  0  0
 72 75  1  0  0  0
 72147  1  0  0  0
 73 74  2  0  0  0
 73 76  1  0  0  0
 73148  1  0  0  0
 74 83  1  0  0  0
 75 76  2  0  0  0
 75 84  1  0  0  0
 76 86  1  0  0  0
 77 78  1  0  0  0
 77 80  1  0  0  0
 77149  1  0  0  0
 77150  1  0  0  0
 78151  1  0  0  0
 78152  1  0  0  0
 78 85  1  0  0  0
 79 80  1  0  0  0
 79 85  1  0  0  0
 79153  1  0  0  0
 79154  1  0  0  0
 80 82  1  0  0  0
 80155  1  0  0  0
 81156  1  0  0  0
 81157  1  0  0  0
 81158  1  0  0  0
 81 83  1  0  0  0
 82159  1  0  0  0
 82160  1  0  0  0
 83 85  1  0  0  0
 83161  1  0  0  0
 84162  1  0  0  0
 85163  1  0  0  0
M  CHG  1  85   1
M  ISO  4   1 100  68 101  82 101  84 100
M  END
> <chiral flag>
0

> <version>
0

> <s_m_source_file>
/data/baiqing/PycharmProjects/Reinvent-master-3.2/result/LINK_invent/BTK/process_docking_weight1_custom_product_contain_oxygen_bond_distance_aromatic_linkinvent_7_9_3/rearranged_h_0099.sdf

> <i_m_source_file_index>
78

> <r_mmod_Potential_Energy-OPLS-2005>
-129.222366333008

> <r_mmod_Stretch_Energy-OPLS-2005>
39.7653999328613

> <r_mmod_Bend_Energy-OPLS-2005>
130.833618164062

> <r_mmod_Torsional_Energy-OPLS-2005>
298.948211669922

> <r_mmod_Improper_Torsional_Energy-OPLS-2005>
3.54399752616882

> <r_mmod_Van_der_Waal_Energy-OPLS-2005>
143.684417724609

> <r_mmod_Electrostatic_Energy-OPLS-2005>
-315.346832275391

> <r_mmod_Solvation_Energy-OPLS-2005>
-442.216247558594

> <b_mmod_Minimization_Converged-OPLS-2005>
0

> <r_mmod_RMS_Derivative-OPLS-2005>
1.17970776557922

$$$$
78
                    3D
 Structure written by MMmdl.
160168  0  0  1  0            999 V2000
  -30.7333  -14.4612   20.5677 C   0  0  0  0  0  0
  -30.4196  -12.3031   19.4185 C   0  0  0  0  0  0
  -29.4950  -12.5032   18.2021 C   0  0  0  0  0  0
  -28.0159  -12.3466   18.6105 C   0  0  0  0  0  0
  -27.6556  -13.1850   19.8645 C   0  0  2  0  0  0
  -28.7031  -13.0015   20.9890 C   0  0  0  0  0  0
  -25.2405  -13.7952   20.5508 C   0  0  0  0  0  0
  -24.1752  -13.0262   20.9201 C   0  0  0  0  0  0
  -24.6366  -11.6774   20.8761 C   0  0  0  0  0  0
  -23.9055  -10.4193   21.0409 C   0  0  0  0  0  0
  -24.3614   -9.4125   21.9189 C   0  0  0  0  0  0
  -23.6273   -8.2174   22.0760 C   0  0  0  0  0  0
  -22.4255   -8.0234   21.3544 C   0  0  0  0  0  0
  -21.9895   -9.0208   20.4647 C   0  0  0  0  0  0
  -22.7230  -10.2074   20.3056 C   0  0  0  0  0  0
  -21.6836   -6.0716   22.5287 C   0  0  0  0  0  0
  -21.3993   -6.5626   23.8219 C   0  0  0  0  0  0
  -21.3657   -5.6787   24.9187 C   0  0  0  0  0  0
  -21.6049   -4.3052   24.7237 C   0  0  0  0  0  0
  -21.8818   -3.8136   23.4360 C   0  0  0  0  0  0
  -21.9183   -4.6946   22.3410 C   0  0  0  0  0  0
  -22.7787  -13.5093   21.1857 C   0  0  0  0  0  0
  -22.1654   -4.2133   21.0986 F   0  0  0  0  0  0
  -21.5647   -3.4536   25.7752 F   0  0  0  0  0  0
  -30.0413  -13.2928   20.4397 N   0  0  0  0  0  0
  -26.2955  -12.9192   20.3295 N   0  0  0  0  0  0
  -25.9298  -11.6371   20.5798 N   0  0  0  0  0  0
  -22.0425  -12.8148   22.0454 N   0  0  0  0  0  0
  -25.3639  -15.1613   20.3587 N   0  0  0  0  0  0
  -31.8369  -14.6389   20.0469 O   0  0  0  0  0  0
  -21.6609   -6.8847   21.4246 O   0  0  0  0  0  0
  -22.3499  -14.5401   20.6685 O   0  0  0  0  0  0
  -24.6108  -31.8692   23.2098 C   0  0  0  0  0  0
  -25.9013  -32.4834   23.8385 C   0  0  1  0  0  0
  -27.2517  -27.4656   20.0879 C   0  0  0  0  0  0
  -25.5892  -33.8633   24.2310 N   0  0  0  0  0  0
  -23.3974  -30.4901   21.5473 C   0  0  2  0  0  0
  -24.8439  -28.9501   20.1162 C   0  0  0  0  0  0
  -22.7380  -29.4675   22.4983 C   0  0  0  0  0  0
  -18.0270  -28.1383   22.8494 C   0  0  0  0  0  0
  -24.1491  -36.7314   23.2641 C   0  0  0  0  0  0
  -25.9217  -30.8382   21.3603 C   0  0  0  0  0  0
  -25.9969  -29.4729   20.7119 C   0  0  0  0  0  0
  -27.1949  -28.7330   20.7025 C   0  0  0  0  0  0
  -26.0758  -26.9363   19.5030 C   0  0  0  0  0  0
  -24.8757  -27.6782   19.5145 C   0  0  0  0  0  0
  -23.6022  -29.8123   20.1640 C   0  0  0  0  0  0
  -25.4116  -36.3119   24.0332 C   0  0  1  0  0  0
  -20.5856  -28.3682   23.1303 C   0  0  2  0  0  0
  -20.6767  -26.9423   22.5407 C   0  0  0  0  0  0
  -19.5751  -26.6392   21.5202 C   0  0  0  0  0  0
  -18.1925  -26.7933   22.1609 C   0  0  0  0  0  0
  -19.1520  -28.8845   23.2903 C   0  0  0  0  0  0
  -18.9455  -30.1451   23.8917 C   0  0  0  0  0  0
  -17.6462  -30.6595   24.0565 C   0  0  0  0  0  0
  -25.9036  -34.9487   23.5112 C   0  0  0  0  0  0
  -16.5350  -29.9098   23.6325 C   0  0  0  0  0  0
  -16.7262  -28.6507   23.0353 C   0  0  0  0  0  0
  -26.4464  -31.6633   25.0719 C   0  0  0  0  0  0
  -25.3725  -31.3746   26.1468 C   0  0  0  0  0  0
  -27.0311  -30.3079   24.6116 C   0  0  0  0  0  0
  -27.6046  -32.4365   25.7457 C   0  0  0  0  0  0
  -27.5591  -37.1813   24.8463 C   0  0  0  0  0  0
  -21.4111  -29.3045   22.3703 N   0  0  0  0  0  0
  -26.4310  -37.3794   23.9405 N   0  0  0  0  0  0
  -24.6608  -31.0807   22.0976 N   0  0  0  0  0  0
  -23.4152  -28.8216   23.3024 O   0  0  0  0  0  0
  -28.4740  -26.8327   20.1053 O   0  0  0  0  0  0
  -26.5601  -34.8936   22.4672 O   0  0  0  0  0  0
  -23.5316  -32.1444   23.7520 O   0  0  0  0  0  0
  -31.4229  -19.0020   21.1002 C   0  0  0  0  0  0
  -29.2004  -18.9081   20.1412 C   0  0  0  0  0  0
  -31.3804  -17.6060   21.3549 C   0  0  0  0  0  0
  -29.1505  -17.5277   20.3792 C   0  0  0  0  0  0
  -30.3228  -19.6664   20.5138 C   0  0  0  0  0  0
  -30.2371  -16.8466   20.9785 C   0  0  0  0  0  0
  -29.3147  -21.9100   20.2521 C   0  0  0  0  0  0
  -32.5684  -16.9607   22.0480 C   0  0  0  0  0  0
  -27.8972  -16.8111   19.9659 C   0  0  0  0  0  0
  -29.4982  -23.2613   19.5575 C   0  0  0  0  0  0
  -28.7113  -24.4204   20.2069 C   0  0  0  0  0  0
  -28.7323  -25.6740   19.3236 C   0  0  0  0  0  0
  -30.3658  -21.0646   20.2450 N   0  0  0  0  0  0
  -30.1052  -15.4436   21.2386 N   0  0  0  0  0  0
  -28.2373  -21.6485   20.7926 O   0  0  0  0  0  0
  -31.4645  -12.3891   19.1162 H   0  0  0  0  0  0
  -30.3120  -11.2954   19.8198 H   0  0  0  0  0  0
  -29.7474  -11.7859   17.4195 H   0  0  0  0  0  0
  -29.6596  -13.4942   17.7741 H   0  0  0  0  0  0
  -27.8317  -11.2888   18.8025 H   0  0  0  0  0  0
  -27.3675  -12.6145   17.7754 H   0  0  0  0  0  0
  -27.6875  -14.2163   19.5388 H   0  0  0  0  0  0
  -28.6827  -11.9745   21.3561 H   0  0  0  0  0  0
  -28.4551  -13.6226   21.8504 H   0  0  0  0  0  0
  -25.2756   -9.5605   22.4778 H   0  0  0  0  0  0
  -23.9968   -7.4562   22.7487 H   0  0  0  0  0  0
  -21.0821   -8.8738   19.8959 H   0  0  0  0  0  0
  -22.3684  -10.9628   19.6184 H   0  0  0  0  0  0
  -21.1964   -7.6134   23.9721 H   0  0  0  0  0  0
  -21.1495   -6.0515   25.9094 H   0  0  0  0  0  0
  -22.0596   -2.7596   23.2862 H   0  0  0  0  0  0
  -22.4009  -11.9811   22.4870 H   0  0  0  0  0  0
  -21.1049  -13.1202   22.2650 H   0  0  0  0  0  0
  -24.5554  -15.7701   20.4195 H   0  0  0  0  0  0
  -26.1641  -15.6046   19.9298 H   0  0  0  0  0  0
  -26.7074  -32.5555   23.1139 H   0  0  0  0  0  0
  -25.0099  -33.9814   25.0497 H   0  0  0  0  0  0
  -22.6871  -31.3074   21.4057 H   0  0  0  0  0  0
  -23.3762  -35.9639   23.3317 H   0  0  0  0  0  0
  -24.3586  -36.8919   22.2054 H   0  0  0  0  0  0
  -23.7234  -37.6519   23.6647 H   0  0  0  0  0  0
  -26.0364  -31.6019   20.5911 H   0  0  0  0  0  0
  -26.8091  -30.8925   21.9787 H   0  0  0  0  0  0
  -28.0867  -29.1416   21.1575 H   0  0  0  0  0  0
  -26.0644  -25.9581   19.0457 H   0  0  0  0  0  0
  -23.9866  -27.2637   19.0598 H   0  0  0  0  0  0
  -23.7019  -30.5822   19.3981 H   0  0  0  0  0  0
  -22.7291  -29.2220   19.8768 H   0  0  0  0  0  0
  -25.1294  -36.1983   25.0826 H   0  0  0  0  0  0
  -20.9977  -28.3261   24.1411 H   0  0  0  0  0  0
  -20.5674  -26.2302   23.3601 H   0  0  0  0  0  0
  -21.6641  -26.7477   22.1198 H   0  0  0  0  0  0
  -19.6926  -25.6298   21.1243 H   0  0  0  0  0  0
  -19.6692  -27.3197   20.6724 H   0  0  0  0  0  0
  -17.4205  -26.6697   21.3999 H   0  0  0  0  0  0
  -18.0332  -26.0060   22.8990 H   0  0  0  0  0  0
  -19.7936  -30.7255   24.2299 H   0  0  0  0  0  0
  -17.5019  -31.6273   24.5173 H   0  0  0  0  0  0
  -15.5354  -30.3005   23.7640 H   0  0  0  0  0  0
  -15.8657  -28.0821   22.7070 H   0  0  0  0  0  0
  -24.5855  -30.7160   25.7778 H   0  0  0  0  0  0
  -24.8978  -32.2922   26.4954 H   0  0  0  0  0  0
  -25.8054  -30.8852   27.0202 H   0  0  0  0  0  0
  -26.2868  -29.6813   24.1192 H   0  0  0  0  0  0
  -27.4111  -29.7345   25.4587 H   0  0  0  0  0  0
  -27.8681  -30.4405   23.9254 H   0  0  0  0  0  0
  -27.2660  -33.3638   26.2083 H   0  0  0  0  0  0
  -28.3799  -32.6981   25.0242 H   0  0  0  0  0  0
  -28.0784  -31.8481   26.5324 H   0  0  0  0  0  0
  -28.2612  -38.0110   24.7518 H   0  0  0  0  0  0
  -28.1087  -36.2645   24.6272 H   0  0  0  0  0  0
  -27.2318  -37.1434   25.8871 H   0  0  0  0  0  0
  -20.9279  -29.8731   21.6892 H   0  0  0  0  0  0
  -26.0203  -38.2877   24.1400 H   0  0  0  0  0  0
  -32.3002  -19.5697   21.3782 H   0  0  0  0  0  0
  -28.3574  -19.3829   19.6588 H   0  0  0  0  0  0
  -33.1123  -17.6871   22.6514 H   0  0  0  0  0  0
  -33.2588  -16.5493   21.3107 H   0  0  0  0  0  0
  -32.2580  -16.1583   22.7155 H   0  0  0  0  0  0
  -27.0576  -17.4984   19.8508 H   0  0  0  0  0  0
  -27.6421  -16.1026   20.7491 H   0  0  0  0  0  0
  -28.0493  -16.3022   19.0138 H   0  0  0  0  0  0
  -29.1682  -23.1329   18.5257 H   0  0  0  0  0  0
  -30.5580  -23.5126   19.5131 H   0  0  0  0  0  0
  -29.1680  -24.6492   21.1705 H   0  0  0  0  0  0
  -27.6770  -24.1446   20.4179 H   0  0  0  0  0  0
  -28.0930  -25.5672   18.4482 H   0  0  0  0  0  0
  -29.7422  -25.8071   18.9338 H   0  0  0  0  0  0
  -31.2569  -21.4472   19.9597 H   0  0  0  0  0  0
  -29.2150  -15.1534   21.6141 H   0  0  0  0  0  0
  1 25  1  0  0  0
  1 30  2  0  0  0
  1 84  1  0  0  0
  2  3  1  0  0  0
  2 25  1  0  0  0
  2 86  1  0  0  0
  2 87  1  0  0  0
  3  4  1  0  0  0
  3 88  1  0  0  0
  3 89  1  0  0  0
  4  5  1  0  0  0
  4 90  1  0  0  0
  4 91  1  0  0  0
  5  6  1  0  0  0
  5 26  1  0  0  0
  5 92  1  0  0  0
  6 25  1  0  0  0
  6 93  1  0  0  0
  6 94  1  0  0  0
  7  8  2  0  0  0
  7 26  1  0  0  0
  7 29  1  0  0  0
  8  9  1  0  0  0
  8 22  1  0  0  0
  9 10  1  0  0  0
  9 27  2  0  0  0
 10 11  2  0  0  0
 10 15  1  0  0  0
 11 12  1  0  0  0
 11 95  1  0  0  0
 12 13  2  0  0  0
 12 96  1  0  0  0
 13 14  1  0  0  0
 13 31  1  0  0  0
 14 15  2  0  0  0
 14 97  1  0  0  0
 15 98  1  0  0  0
 16 17  2  0  0  0
 16 21  1  0  0  0
 16 31  1  0  0  0
 17 18  1  0  0  0
 17 99  1  0  0  0
 18 19  2  0  0  0
 18100  1  0  0  0
 19 20  1  0  0  0
 19 24  1  0  0  0
 20 21  2  0  0  0
 20101  1  0  0  0
 21 23  1  0  0  0
 22 28  1  0  0  0
 22 32  2  0  0  0
 26 27  1  0  0  0
 28102  1  0  0  0
 28103  1  0  0  0
 29104  1  0  0  0
 29105  1  0  0  0
 33 34  1  0  0  0
 33 66  1  0  0  0
 33 70  2  0  0  0
 34 36  1  0  0  0
 34 59  1  0  0  0
 34106  1  0  0  0
 35 44  2  0  0  0
 35 45  1  0  0  0
 35 68  1  0  0  0
 36 56  1  0  0  0
 36107  1  0  0  0
 37 39  1  0  0  0
 37 47  1  0  0  0
 37 66  1  0  0  0
 37108  1  0  0  0
 38 43  2  0  0  0
 38 46  1  0  0  0
 38 47  1  0  0  0
 39 64  1  0  0  0
 39 67  2  0  0  0
 40 52  1  0  0  0
 40 53  2  0  0  0
 40 58  1  0  0  0
 41109  1  0  0  0
 41110  1  0  0  0
 41111  1  0  0  0
 41 48  1  0  0  0
 42 43  1  0  0  0
 42 66  1  0  0  0
 42112  1  0  0  0
 42113  1  0  0  0
 43 44  1  0  0  0
 44114  1  0  0  0
 45 46  2  0  0  0
 45115  1  0  0  0
 46116  1  0  0  0
 47117  1  0  0  0
 47118  1  0  0  0
 48 56  1  0  0  0
 48 65  1  0  0  0
 48119  1  0  0  0
 49 50  1  0  0  0
 49 53  1  0  0  0
 49 64  1  0  0  0
 49120  1  0  0  0
 50 51  1  0  0  0
 50121  1  0  0  0
 50122  1  0  0  0
 51 52  1  0  0  0
 51123  1  0  0  0
 51124  1  0  0  0
 52125  1  0  0  0
 52126  1  0  0  0
 53 54  1  0  0  0
 54 55  2  0  0  0
 54127  1  0  0  0
 55 57  1  0  0  0
 55128  1  0  0  0
 56 69  2  0  0  0
 57 58  2  0  0  0
 57129  1  0  0  0
 58130  1  0  0  0
 59 60  1  0  0  0
 59 61  1  0  0  0
 59 62  1  0  0  0
 60131  1  0  0  0
 60132  1  0  0  0
 60133  1  0  0  0
 61134  1  0  0  0
 61135  1  0  0  0
 61136  1  0  0  0
 62137  1  0  0  0
 62138  1  0  0  0
 62139  1  0  0  0
 63 65  1  0  0  0
 63140  1  0  0  0
 63141  1  0  0  0
 63142  1  0  0  0
 64143  1  0  0  0
 65144  1  0  0  0
 68 82  1  0  0  0
 71 73  2  0  0  0
 71 75  1  0  0  0
 71145  1  0  0  0
 72 74  1  0  0  0
 72 75  2  0  0  0
 72146  1  0  0  0
 73 76  1  0  0  0
 73 78  1  0  0  0
 74 76  2  0  0  0
 74 79  1  0  0  0
 75 83  1  0  0  0
 76 84  1  0  0  0
 77 80  1  0  0  0
 77 83  1  0  0  0
 77 85  2  0  0  0
 78147  1  0  0  0
 78148  1  0  0  0
 78149  1  0  0  0
 79150  1  0  0  0
 79151  1  0  0  0
 79152  1  0  0  0
 80 81  1  0  0  0
 80153  1  0  0  0
 80154  1  0  0  0
 81 82  1  0  0  0
 81155  1  0  0  0
 81156  1  0  0  0
 82157  1  0  0  0
 82158  1  0  0  0
 83159  1  0  0  0
 84160  1  0  0  0
M  ISO  4   1 100  68 101  82 101  84 100
M  END
> <chiral flag>
0

> <version>
0

> <s_m_source_file>
/data/baiqing/PycharmProjects/Reinvent-master-3.2/result/LINK_invent/BTK/process_docking_weight1_custom_product_contain_oxygen_bond_distance_aromatic_linkinvent_7_9_3/rearranged_h_0099.sdf

> <i_m_source_file_index>
79

> <r_mmod_Potential_Energy-OPLS-2005>
-116.607536315918

> <r_mmod_Stretch_Energy-OPLS-2005>
35.5195121765137

> <r_mmod_Bend_Energy-OPLS-2005>
107.384719848633

> <r_mmod_Torsional_Energy-OPLS-2005>
246.322738647461

> <r_mmod_Improper_Torsional_Energy-OPLS-2005>
5.19671869277954

> <r_mmod_Van_der_Waal_Energy-OPLS-2005>
167.76904296875

> <r_mmod_Electrostatic_Energy-OPLS-2005>
-466.866058349609

> <r_mmod_Solvation_Energy-OPLS-2005>
-225.718658447266

> <b_mmod_Minimization_Converged-OPLS-2005>
0

> <r_mmod_RMS_Derivative-OPLS-2005>
2.42348408699036

$$$$
79
                    3D
 Structure written by MMmdl.
158166  0  0  1  0            999 V2000
  -30.7285  -14.5467   20.4713 C   0  0  0  0  0  0
  -30.4035  -12.3252   19.4649 C   0  0  0  0  0  0
  -29.5016  -12.4823   18.2258 C   0  0  0  0  0  0
  -28.0227  -12.3424   18.6315 C   0  0  0  0  0  0
  -27.6505  -13.2243   19.8551 C   0  0  2  0  0  0
  -28.6919  -13.1149   20.9920 C   0  0  0  0  0  0
  -25.2573  -13.8194   20.5683 C   0  0  0  0  0  0
  -24.1847  -13.0465   20.9197 C   0  0  0  0  0  0
  -24.6419  -11.6931   20.8749 C   0  0  0  0  0  0
  -23.9081  -10.4311   21.0396 C   0  0  0  0  0  0
  -24.3627   -9.4227   21.9177 C   0  0  0  0  0  0
  -23.6306   -8.2264   22.0746 C   0  0  0  0  0  0
  -22.4286   -8.0292   21.3537 C   0  0  0  0  0  0
  -21.9923   -9.0272   20.4644 C   0  0  0  0  0  0
  -22.7249  -10.2152   20.3052 C   0  0  0  0  0  0
  -21.6860   -6.0744   22.5285 C   0  0  0  0  0  0
  -21.4009   -6.5646   23.8220 C   0  0  0  0  0  0
  -21.3658   -5.6795   24.9183 C   0  0  0  0  0  0
  -21.6048   -4.3060   24.7227 C   0  0  0  0  0  0
  -21.8823   -3.8153   23.4353 C   0  0  0  0  0  0
  -21.9200   -4.6972   22.3407 C   0  0  0  0  0  0
  -22.7869  -13.5256   21.1862 C   0  0  0  0  0  0
  -22.1664   -4.2165   21.0983 F   0  0  0  0  0  0
  -21.5637   -3.4537   25.7736 F   0  0  0  0  0  0
  -30.0162  -13.3814   20.4212 N   0  0  0  0  0  0
  -26.2988  -12.9391   20.3289 N   0  0  0  0  0  0
  -25.9351  -11.6545   20.5771 N   0  0  0  0  0  0
  -22.0493  -12.8257   22.0400 N   0  0  0  0  0  0
  -25.4326  -15.1905   20.4062 N   0  0  0  0  0  0
  -31.9170  -14.5427   20.1418 O   0  0  0  0  0  0
  -21.6654   -6.8885   21.4244 O   0  0  0  0  0  0
  -22.3573  -14.5575   20.6721 O   0  0  0  0  0  0
  -24.6195  -31.8645   23.2084 C   0  0  0  0  0  0
  -25.9069  -32.4810   23.8393 C   0  0  1  0  0  0
  -27.2204  -27.3908   20.1032 C   0  0  0  0  0  0
  -25.5918  -33.8617   24.2315 N   0  0  0  0  0  0
  -23.4099  -30.4908   21.5493 C   0  0  2  0  0  0
  -24.8571  -28.9569   20.1092 C   0  0  0  0  0  0
  -22.7440  -29.4649   22.4959 C   0  0  0  0  0  0
  -18.0287  -28.1378   22.8494 C   0  0  0  0  0  0
  -24.1489  -36.7312   23.2641 C   0  0  0  0  0  0
  -25.9447  -30.8154   21.3714 C   0  0  0  0  0  0
  -26.0205  -29.4488   20.7157 C   0  0  0  0  0  0
  -27.2085  -28.6728   20.7131 C   0  0  0  0  0  0
  -26.0482  -26.9381   19.4676 C   0  0  0  0  0  0
  -24.8679  -27.7024   19.4798 C   0  0  0  0  0  0
  -23.6194  -29.8257   20.1640 C   0  0  0  0  0  0
  -25.4115  -36.3108   24.0330 C   0  0  1  0  0  0
  -20.5881  -28.3674   23.1302 C   0  0  2  0  0  0
  -20.6780  -26.9403   22.5406 C   0  0  0  0  0  0
  -19.5751  -26.6372   21.5215 C   0  0  0  0  0  0
  -18.1929  -26.7927   22.1625 C   0  0  0  0  0  0
  -19.1537  -28.8844   23.2898 C   0  0  0  0  0  0
  -18.9454  -30.1451   23.8908 C   0  0  0  0  0  0
  -17.6452  -30.6577   24.0577 C   0  0  0  0  0  0
  -25.9035  -34.9473   23.5113 C   0  0  0  0  0  0
  -16.5348  -29.9074   23.6333 C   0  0  0  0  0  0
  -16.7276  -28.6500   23.0345 C   0  0  0  0  0  0
  -26.4483  -31.6605   25.0739 C   0  0  0  0  0  0
  -25.3734  -31.3714   26.1476 C   0  0  0  0  0  0
  -27.0330  -30.3046   24.6145 C   0  0  0  0  0  0
  -27.6065  -32.4330   25.7489 C   0  0  0  0  0  0
  -27.5575  -37.1809   24.8463 C   0  0  0  0  0  0
  -21.4160  -29.3041   22.3699 N   0  0  0  0  0  0
  -26.4296  -37.3787   23.9397 N   0  0  0  0  0  0
  -24.6765  -31.0709   22.1013 N   0  0  0  0  0  0
  -23.4196  -28.8179   23.3011 O   0  0  0  0  0  0
  -28.3193  -26.5462   20.1344 O   0  0  0  0  0  0
  -26.5603  -34.8922   22.4678 O   0  0  0  0  0  0
  -23.5377  -32.1425   23.7446 O   0  0  0  0  0  0
  -29.3142  -18.3512   22.1100 C   0  0  0  0  0  0
  -28.7998  -19.5710   22.6022 C   0  0  0  0  0  0
  -29.0368  -20.5945   20.4262 C   0  0  0  0  0  0
  -29.7324  -18.2197   20.7690 C   0  0  0  0  0  0
  -28.6679  -20.7181   21.7843 C   0  0  0  0  0  0
  -29.5741  -19.3731   19.9207 C   0  0  0  0  0  0
  -30.4981  -16.9617   20.3495 C   0  0  0  0  0  0
  -27.8729  -23.1871   22.1844 C   0  0  0  0  0  0
  -27.1058  -23.6847   19.8370 C   0  0  0  0  0  0
  -28.2721  -25.5555   21.2026 C   0  0  0  0  0  0
  -28.1904  -23.9969   20.8844 C   0  0  1  0  0  0
  -29.9510  -19.3734   18.5724 N   0  0  0  0  0  0
  -28.1404  -21.8816   22.4416 N   0  0  0  0  0  0
  -30.0497  -15.7120   20.6932 N   0  0  0  0  0  0
  -31.5192  -17.1527   19.6757 O   0  0  0  0  0  0
  -27.3038  -23.7832   23.0999 O   0  0  0  0  0  0
  -31.4522  -12.3778   19.1696 H   0  0  0  0  0  0
  -30.2746  -11.3402   19.9157 H   0  0  0  0  0  0
  -29.7536  -11.7322   17.4748 H   0  0  0  0  0  0
  -29.6756  -13.4538   17.7605 H   0  0  0  0  0  0
  -27.8474  -11.2901   18.8613 H   0  0  0  0  0  0
  -27.3751  -12.5774   17.7856 H   0  0  0  0  0  0
  -27.6668  -14.2542   19.4987 H   0  0  0  0  0  0
  -28.6738  -12.1208   21.4410 H   0  0  0  0  0  0
  -28.4620  -13.8181   21.7933 H   0  0  0  0  0  0
  -25.2762   -9.5729   22.4762 H   0  0  0  0  0  0
  -24.0026   -7.4663   22.7467 H   0  0  0  0  0  0
  -21.0858   -8.8788   19.8951 H   0  0  0  0  0  0
  -22.3690  -10.9697   19.6174 H   0  0  0  0  0  0
  -21.1979   -7.6151   23.9731 H   0  0  0  0  0  0
  -21.1476   -6.0518   25.9088 H   0  0  0  0  0  0
  -22.0601   -2.7619   23.2849 H   0  0  0  0  0  0
  -22.4068  -11.9893   22.4781 H   0  0  0  0  0  0
  -21.1114  -13.1316   22.2584 H   0  0  0  0  0  0
  -24.6698  -15.8498   20.5081 H   0  0  0  0  0  0
  -26.2869  -15.6237   20.0800 H   0  0  0  0  0  0
  -26.7144  -32.5494   23.1156 H   0  0  0  0  0  0
  -25.0101  -33.9783   25.0482 H   0  0  0  0  0  0
  -22.7006  -31.3092   21.4080 H   0  0  0  0  0  0
  -23.3736  -35.9651   23.3319 H   0  0  0  0  0  0
  -24.3589  -36.8909   22.2048 H   0  0  0  0  0  0
  -23.7236  -37.6521   23.6653 H   0  0  0  0  0  0
  -26.0650  -31.5762   20.5994 H   0  0  0  0  0  0
  -26.8317  -30.8682   21.9916 H   0  0  0  0  0  0
  -28.1013  -29.0428   21.1976 H   0  0  0  0  0  0
  -26.0350  -25.9864   18.9623 H   0  0  0  0  0  0
  -23.9772  -27.3216   19.0002 H   0  0  0  0  0  0
  -23.7248  -30.6002   19.4037 H   0  0  0  0  0  0
  -22.7432  -29.2436   19.8718 H   0  0  0  0  0  0
  -25.1277  -36.1994   25.0817 H   0  0  0  0  0  0
  -20.9987  -28.3255   24.1421 H   0  0  0  0  0  0
  -20.5697  -26.2276   23.3598 H   0  0  0  0  0  0
  -21.6644  -26.7449   22.1179 H   0  0  0  0  0  0
  -19.6910  -25.6278   21.1258 H   0  0  0  0  0  0
  -19.6679  -27.3177   20.6742 H   0  0  0  0  0  0
  -17.4195  -26.6690   21.4022 H   0  0  0  0  0  0
  -18.0304  -26.0055   22.9009 H   0  0  0  0  0  0
  -19.7920  -30.7279   24.2273 H   0  0  0  0  0  0
  -17.4996  -31.6255   24.5183 H   0  0  0  0  0  0
  -15.5349  -30.2973   23.7631 H   0  0  0  0  0  0
  -15.8679  -28.0828   22.7040 H   0  0  0  0  0  0
  -24.5912  -30.7066   25.7790 H   0  0  0  0  0  0
  -24.8926  -32.2871   26.4930 H   0  0  0  0  0  0
  -25.8073  -30.8865   27.0229 H   0  0  0  0  0  0
  -26.2891  -29.6796   24.1196 H   0  0  0  0  0  0
  -27.4079  -29.7306   25.4626 H   0  0  0  0  0  0
  -27.8732  -30.4346   23.9322 H   0  0  0  0  0  0
  -27.2699  -33.3626   26.2087 H   0  0  0  0  0  0
  -28.3864  -32.6897   25.0309 H   0  0  0  0  0  0
  -28.0751  -31.8443   26.5379 H   0  0  0  0  0  0
  -28.2607  -38.0096   24.7511 H   0  0  0  0  0  0
  -28.1061  -36.2627   24.6301 H   0  0  0  0  0  0
  -27.2296  -37.1466   25.8868 H   0  0  0  0  0  0
  -20.9319  -29.8763   21.6920 H   0  0  0  0  0  0
  -26.0190  -38.2863   24.1402 H   0  0  0  0  0  0
  -29.4394  -17.5255   22.7970 H   0  0  0  0  0  0
  -28.5234  -19.6178   23.6472 H   0  0  0  0  0  0
  -28.9236  -21.4421   19.7682 H   0  0  0  0  0  0
  -26.1322  -24.0592   20.1533 H   0  0  0  0  0  0
  -26.9897  -22.6140   19.6710 H   0  0  0  0  0  0
  -27.3510  -24.1329   18.8749 H   0  0  0  0  0  0
  -29.1734  -25.7138   21.7959 H   0  0  0  0  0  0
  -27.4561  -25.8349   21.8721 H   0  0  0  0  0  0
  -29.1598  -23.6666   20.5101 H   0  0  0  0  0  0
  -30.0633  -20.2694   18.1077 H   0  0  0  0  0  0
  -30.6797  -18.7165   18.2999 H   0  0  0  0  0  0
  -27.8432  -21.6765   23.3843 H   0  0  0  0  0  0
  -29.1240  -15.6504   21.0797 H   0  0  0  0  0  0
  1 25  1  0  0  0
  1 30  2  0  0  0
  1 84  1  0  0  0
  2  3  1  0  0  0
  2 25  1  0  0  0
  2 87  1  0  0  0
  2 88  1  0  0  0
  3  4  1  0  0  0
  3 89  1  0  0  0
  3 90  1  0  0  0
  4  5  1  0  0  0
  4 91  1  0  0  0
  4 92  1  0  0  0
  5  6  1  0  0  0
  5 26  1  0  0  0
  5 93  1  0  0  0
  6 25  1  0  0  0
  6 94  1  0  0  0
  6 95  1  0  0  0
  7  8  2  0  0  0
  7 26  1  0  0  0
  7 29  1  0  0  0
  8  9  1  0  0  0
  8 22  1  0  0  0
  9 10  1  0  0  0
  9 27  2  0  0  0
 10 11  2  0  0  0
 10 15  1  0  0  0
 11 12  1  0  0  0
 11 96  1  0  0  0
 12 13  2  0  0  0
 12 97  1  0  0  0
 13 14  1  0  0  0
 13 31  1  0  0  0
 14 15  2  0  0  0
 14 98  1  0  0  0
 15 99  1  0  0  0
 16 17  2  0  0  0
 16 21  1  0  0  0
 16 31  1  0  0  0
 17 18  1  0  0  0
 17100  1  0  0  0
 18 19  2  0  0  0
 18101  1  0  0  0
 19 20  1  0  0  0
 19 24  1  0  0  0
 20 21  2  0  0  0
 20102  1  0  0  0
 21 23  1  0  0  0
 22 28  1  0  0  0
 22 32  2  0  0  0
 26 27  1  0  0  0
 28103  1  0  0  0
 28104  1  0  0  0
 29105  1  0  0  0
 29106  1  0  0  0
 33 34  1  0  0  0
 33 66  1  0  0  0
 33 70  2  0  0  0
 34 36  1  0  0  0
 34 59  1  0  0  0
 34107  1  0  0  0
 35 44  2  0  0  0
 35 45  1  0  0  0
 35 68  1  0  0  0
 36 56  1  0  0  0
 36108  1  0  0  0
 37 39  1  0  0  0
 37 47  1  0  0  0
 37 66  1  0  0  0
 37109  1  0  0  0
 38 43  2  0  0  0
 38 46  1  0  0  0
 38 47  1  0  0  0
 39 64  1  0  0  0
 39 67  2  0  0  0
 40 52  1  0  0  0
 40 53  2  0  0  0
 40 58  1  0  0  0
 41110  1  0  0  0
 41111  1  0  0  0
 41112  1  0  0  0
 41 48  1  0  0  0
 42 43  1  0  0  0
 42 66  1  0  0  0
 42113  1  0  0  0
 42114  1  0  0  0
 43 44  1  0  0  0
 44115  1  0  0  0
 45 46  2  0  0  0
 45116  1  0  0  0
 46117  1  0  0  0
 47118  1  0  0  0
 47119  1  0  0  0
 48 56  1  0  0  0
 48 65  1  0  0  0
 48120  1  0  0  0
 49 50  1  0  0  0
 49 53  1  0  0  0
 49 64  1  0  0  0
 49121  1  0  0  0
 50 51  1  0  0  0
 50122  1  0  0  0
 50123  1  0  0  0
 51 52  1  0  0  0
 51124  1  0  0  0
 51125  1  0  0  0
 52126  1  0  0  0
 52127  1  0  0  0
 53 54  1  0  0  0
 54 55  2  0  0  0
 54128  1  0  0  0
 55 57  1  0  0  0
 55129  1  0  0  0
 56 69  2  0  0  0
 57 58  2  0  0  0
 57130  1  0  0  0
 58131  1  0  0  0
 59 60  1  0  0  0
 59 61  1  0  0  0
 59 62  1  0  0  0
 60132  1  0  0  0
 60133  1  0  0  0
 60134  1  0  0  0
 61135  1  0  0  0
 61136  1  0  0  0
 61137  1  0  0  0
 62138  1  0  0  0
 62139  1  0  0  0
 62140  1  0  0  0
 63 65  1  0  0  0
 63141  1  0  0  0
 63142  1  0  0  0
 63143  1  0  0  0
 64144  1  0  0  0
 65145  1  0  0  0
 68 80  1  0  0  0
 71 72  2  0  0  0
 71 74  1  0  0  0
 71146  1  0  0  0
 72 75  1  0  0  0
 72147  1  0  0  0
 73 75  2  0  0  0
 73 76  1  0  0  0
 73148  1  0  0  0
 74 76  2  0  0  0
 74 77  1  0  0  0
 75 83  1  0  0  0
 76 82  1  0  0  0
 77 84  1  0  0  0
 77 85  2  0  0  0
 78 81  1  0  0  0
 78 83  1  0  0  0
 78 86  2  0  0  0
 79149  1  0  0  0
 79150  1  0  0  0
 79151  1  0  0  0
 79 81  1  0  0  0
 80 81  1  0  0  0
 80152  1  0  0  0
 80153  1  0  0  0
 81154  1  0  0  0
 82155  1  0  0  0
 82156  1  0  0  0
 83157  1  0  0  0
 84158  1  0  0  0
M  ISO  4   1 100  68 101  80 101  84 100
M  END
> <chiral flag>
0

> <version>
0

> <s_m_source_file>
/data/baiqing/PycharmProjects/Reinvent-master-3.2/result/LINK_invent/BTK/process_docking_weight1_custom_product_contain_oxygen_bond_distance_aromatic_linkinvent_7_9_3/rearranged_h_0099.sdf

> <i_m_source_file_index>
80

> <r_mmod_Potential_Energy-OPLS-2005>
120.535140991211

> <r_mmod_Stretch_Energy-OPLS-2005>
58.3680458068848

> <r_mmod_Bend_Energy-OPLS-2005>
174.605285644531

> <r_mmod_Torsional_Energy-OPLS-2005>
283.979888916016

> <r_mmod_Improper_Torsional_Energy-OPLS-2005>
9.27230834960938

> <r_mmod_Van_der_Waal_Energy-OPLS-2005>
161.324630737305

> <r_mmod_Electrostatic_Energy-OPLS-2005>
-356.995758056641

> <r_mmod_Solvation_Energy-OPLS-2005>
-244.841262817383

> <b_mmod_Minimization_Converged-OPLS-2005>
0

> <r_mmod_RMS_Derivative-OPLS-2005>
2.43349075317383

$$$$
80
                    3D
 Structure written by MMmdl.
160169  0  0  1  0            999 V2000
  -30.6242  -14.6317   20.4617 C   0  0  0  0  0  0
  -30.4374  -12.3788   19.4392 C   0  0  0  0  0  0
  -29.5018  -12.4924   18.2151 C   0  0  0  0  0  0
  -28.0256  -12.3361   18.6341 C   0  0  0  0  0  0
  -27.6505  -13.2135   19.8591 C   0  0  2  0  0  0
  -28.7031  -13.0755   20.9827 C   0  0  0  0  0  0
  -25.2546  -13.8143   20.5731 C   0  0  0  0  0  0
  -24.1799  -13.0402   20.9163 C   0  0  0  0  0  0
  -24.6382  -11.6883   20.8718 C   0  0  0  0  0  0
  -23.9055  -10.4277   21.0384 C   0  0  0  0  0  0
  -24.3611   -9.4203   21.9171 C   0  0  0  0  0  0
  -23.6287   -8.2238   22.0750 C   0  0  0  0  0  0
  -22.4272   -8.0271   21.3535 C   0  0  0  0  0  0
  -21.9901   -9.0238   20.4633 C   0  0  0  0  0  0
  -22.7225  -10.2118   20.3035 C   0  0  0  0  0  0
  -21.6850   -6.0734   22.5281 C   0  0  0  0  0  0
  -21.4009   -6.5640   23.8213 C   0  0  0  0  0  0
  -21.3659   -5.6794   24.9176 C   0  0  0  0  0  0
  -21.6047   -4.3056   24.7225 C   0  0  0  0  0  0
  -21.8817   -3.8145   23.4346 C   0  0  0  0  0  0
  -21.9191   -4.6963   22.3404 C   0  0  0  0  0  0
  -22.7831  -13.5210   21.1854 C   0  0  0  0  0  0
  -22.1660   -4.2152   21.0978 F   0  0  0  0  0  0
  -21.5636   -3.4539   25.7737 F   0  0  0  0  0  0
  -30.0151  -13.4073   20.4068 N   0  0  0  0  0  0
  -26.2990  -12.9335   20.3352 N   0  0  0  0  0  0
  -25.9318  -11.6488   20.5756 N   0  0  0  0  0  0
  -22.0481  -12.8196   22.0402 N   0  0  0  0  0  0
  -25.4134  -15.1891   20.4349 N   0  0  0  0  0  0
  -31.8101  -14.7795   20.1548 O   0  0  0  0  0  0
  -21.6631   -6.8870   21.4239 O   0  0  0  0  0  0
  -22.3522  -14.5543   20.6742 O   0  0  0  0  0  0
  -24.6244  -31.8610   23.2041 C   0  0  0  0  0  0
  -25.9097  -32.4794   23.8360 C   0  0  1  0  0  0
  -27.2270  -27.3350   20.1105 C   0  0  0  0  0  0
  -25.5926  -33.8594   24.2296 N   0  0  0  0  0  0
  -23.4178  -30.4881   21.5427 C   0  0  2  0  0  0
  -24.8649  -28.9460   20.1094 C   0  0  0  0  0  0
  -22.7458  -29.4654   22.4891 C   0  0  0  0  0  0
  -18.0279  -28.1417   22.8483 C   0  0  0  0  0  0
  -24.1492  -36.7279   23.2640 C   0  0  0  0  0  0
  -25.9582  -30.7991   21.3709 C   0  0  0  0  0  0
  -26.0330  -29.4278   20.7125 C   0  0  0  0  0  0
  -27.2176  -28.6344   20.7025 C   0  0  0  0  0  0
  -26.0329  -26.9029   19.4873 C   0  0  0  0  0  0
  -24.8659  -27.6880   19.4890 C   0  0  0  0  0  0
  -23.6331  -29.8254   20.1575 C   0  0  0  0  0  0
  -25.4113  -36.3089   24.0343 C   0  0  1  0  0  0
  -20.5884  -28.3716   23.1265 C   0  0  2  0  0  0
  -20.6779  -26.9439   22.5392 C   0  0  0  0  0  0
  -19.5754  -26.6394   21.5207 C   0  0  0  0  0  0
  -18.1929  -26.7963   22.1615 C   0  0  0  0  0  0
  -19.1536  -28.8869   23.2890 C   0  0  0  0  0  0
  -18.9476  -30.1470   23.8919 C   0  0  0  0  0  0
  -17.6484  -30.6621   24.0568 C   0  0  0  0  0  0
  -25.9040  -34.9463   23.5116 C   0  0  0  0  0  0
  -16.5364  -29.9129   23.6343 C   0  0  0  0  0  0
  -16.7268  -28.6545   23.0355 C   0  0  0  0  0  0
  -26.4479  -31.6599   25.0722 C   0  0  0  0  0  0
  -25.3713  -31.3744   26.1445 C   0  0  0  0  0  0
  -27.0319  -30.3035   24.6155 C   0  0  0  0  0  0
  -27.6061  -32.4304   25.7483 C   0  0  0  0  0  0
  -27.5588  -37.1788   24.8470 C   0  0  0  0  0  0
  -21.4168  -29.3090   22.3662 N   0  0  0  0  0  0
  -26.4288  -37.3790   23.9431 N   0  0  0  0  0  0
  -24.6854  -31.0647   22.0968 N   0  0  0  0  0  0
  -23.4196  -28.8167   23.2940 O   0  0  0  0  0  0
  -28.3525  -26.4982   20.1581 O   0  0  0  0  0  0
  -26.5597  -34.8935   22.4670 O   0  0  0  0  0  0
  -23.5415  -32.1368   23.7397 O   0  0  0  0  0  0
  -31.1621  -19.2556   20.9027 C   0  0  0  0  0  0
  -31.1414  -17.8333   20.8264 C   0  0  0  0  0  0
  -28.8067  -19.3564   20.4260 C   0  0  0  0  0  0
  -29.9890  -20.0655   20.7693 C   0  0  0  0  0  0
  -29.9382  -17.1346   20.5729 C   0  0  0  0  0  0
  -28.7870  -17.9315   20.3245 C   0  0  0  0  0  0
  -30.7303  -21.9993   22.0810 C   0  0  0  0  0  0
  -30.9907  -23.5036   22.2228 C   0  0  0  0  0  0
  -29.7668  -24.3551   21.8909 C   0  0  0  0  0  0
  -29.0465  -22.4836   20.3405 C   0  0  0  0  0  0
  -29.3134  -24.0590   20.4652 C   0  0  1  0  0  0
  -28.1359  -25.0396   20.0503 C   0  0  0  0  0  0
  -30.0063  -21.5264   21.0220 N   0  0  0  0  0  0
  -27.6061  -17.2869   19.9548 N   0  0  0  0  0  0
  -29.7741  -15.6877   20.6229 N   0  0  0  0  0  0
  -31.2132  -21.2741   22.9580 O   0  0  0  0  0  0
  -31.4785  -12.5032   19.1349 H   0  0  0  0  0  0
  -30.3699  -11.3856   19.8862 H   0  0  0  0  0  0
  -29.7599  -11.7348   17.4740 H   0  0  0  0  0  0
  -29.6456  -13.4581   17.7267 H   0  0  0  0  0  0
  -27.8640  -11.2842   18.8724 H   0  0  0  0  0  0
  -27.3672  -12.5593   17.7935 H   0  0  0  0  0  0
  -27.6591  -14.2445   19.5082 H   0  0  0  0  0  0
  -28.7119  -12.0591   21.3792 H   0  0  0  0  0  0
  -28.4610  -13.7233   21.8267 H   0  0  0  0  0  0
  -25.2761   -9.5694   22.4735 H   0  0  0  0  0  0
  -24.0004   -7.4635   22.7470 H   0  0  0  0  0  0
  -21.0836   -8.8743   19.8936 H   0  0  0  0  0  0
  -22.3681  -10.9650   19.6138 H   0  0  0  0  0  0
  -21.1987   -7.6147   23.9718 H   0  0  0  0  0  0
  -21.1487   -6.0523   25.9080 H   0  0  0  0  0  0
  -22.0593   -2.7610   23.2841 H   0  0  0  0  0  0
  -22.4090  -11.9832   22.4750 H   0  0  0  0  0  0
  -21.1109  -13.1226   22.2638 H   0  0  0  0  0  0
  -24.6357  -15.8183   20.5946 H   0  0  0  0  0  0
  -26.2869  -15.6951   20.3056 H   0  0  0  0  0  0
  -26.7165  -32.5466   23.1114 H   0  0  0  0  0  0
  -25.0130  -33.9744   25.0481 H   0  0  0  0  0  0
  -22.7131  -31.3101   21.4008 H   0  0  0  0  0  0
  -23.3784  -35.9581   23.3273 H   0  0  0  0  0  0
  -24.3593  -36.8908   22.2059 H   0  0  0  0  0  0
  -23.7207  -37.6464   23.6655 H   0  0  0  0  0  0
  -26.0843  -31.5649   20.6039 H   0  0  0  0  0  0
  -26.8401  -30.8475   21.9973 H   0  0  0  0  0  0
  -28.1135  -29.0021   21.1827 H   0  0  0  0  0  0
  -25.9722  -25.9425   18.9967 H   0  0  0  0  0  0
  -23.9707  -27.3126   19.0131 H   0  0  0  0  0  0
  -23.7556  -30.6037   19.4036 H   0  0  0  0  0  0
  -22.7542  -29.2552   19.8503 H   0  0  0  0  0  0
  -25.1296  -36.1940   25.0839 H   0  0  0  0  0  0
  -20.9984  -28.3298   24.1381 H   0  0  0  0  0  0
  -20.5672  -26.2338   23.3597 H   0  0  0  0  0  0
  -21.6647  -26.7466   22.1184 H   0  0  0  0  0  0
  -19.6920  -25.6294   21.1260 H   0  0  0  0  0  0
  -19.6714  -27.3178   20.6724 H   0  0  0  0  0  0
  -17.4198  -26.6704   21.4021 H   0  0  0  0  0  0
  -18.0335  -26.0115   22.9020 H   0  0  0  0  0  0
  -19.7959  -30.7270   24.2304 H   0  0  0  0  0  0
  -17.5054  -31.6312   24.5154 H   0  0  0  0  0  0
  -15.5375  -30.3058   23.7670 H   0  0  0  0  0  0
  -15.8656  -28.0877   22.7073 H   0  0  0  0  0  0
  -24.5942  -30.7024   25.7777 H   0  0  0  0  0  0
  -24.8836  -32.2905   26.4785 H   0  0  0  0  0  0
  -25.8032  -30.9001   27.0267 H   0  0  0  0  0  0
  -26.2886  -29.6787   24.1186 H   0  0  0  0  0  0
  -27.4049  -29.7287   25.4643 H   0  0  0  0  0  0
  -27.8737  -30.4348   23.9355 H   0  0  0  0  0  0
  -27.2726  -33.3662   26.1975 H   0  0  0  0  0  0
  -28.3914  -32.6735   25.0312 H   0  0  0  0  0  0
  -28.0656  -31.8450   26.5456 H   0  0  0  0  0  0
  -28.2573  -38.0119   24.7556 H   0  0  0  0  0  0
  -28.1114  -36.2647   24.6235 H   0  0  0  0  0  0
  -27.2310  -37.1351   25.8873 H   0  0  0  0  0  0
  -20.9318  -29.8865   21.6933 H   0  0  0  0  0  0
  -26.0174  -38.2859   24.1467 H   0  0  0  0  0  0
  -32.1117  -19.7233   21.1245 H   0  0  0  0  0  0
  -32.0569  -17.2873   21.0017 H   0  0  0  0  0  0
  -27.8907  -19.9082   20.2718 H   0  0  0  0  0  0
  -31.8207  -23.7654   21.5665 H   0  0  0  0  0  0
  -31.3236  -23.7198   23.2387 H   0  0  0  0  0  0
  -30.0146  -25.4119   21.9993 H   0  0  0  0  0  0
  -28.9592  -24.1491   22.5953 H   0  0  0  0  0  0
  -28.9899  -22.2199   19.2838 H   0  0  0  0  0  0
  -28.0575  -22.2762   20.7513 H   0  0  0  0  0  0
  -30.1491  -24.2923   19.8030 H   0  0  0  0  0  0
  -27.2679  -24.7779   20.6585 H   0  0  0  0  0  0
  -27.8717  -24.8096   19.0172 H   0  0  0  0  0  0
  -26.8693  -17.9175   19.6565 H   0  0  0  0  0  0
  -27.7557  -16.5917   19.2325 H   0  0  0  0  0  0
  -28.8076  -15.4176   20.7168 H   0  0  0  0  0  0
  1 25  1  0  0  0
  1 30  2  0  0  0
  1 85  1  0  0  0
  2  3  1  0  0  0
  2 25  1  0  0  0
  2 87  1  0  0  0
  2 88  1  0  0  0
  3  4  1  0  0  0
  3 89  1  0  0  0
  3 90  1  0  0  0
  4  5  1  0  0  0
  4 91  1  0  0  0
  4 92  1  0  0  0
  5  6  1  0  0  0
  5 26  1  0  0  0
  5 93  1  0  0  0
  6 25  1  0  0  0
  6 94  1  0  0  0
  6 95  1  0  0  0
  7  8  2  0  0  0
  7 26  1  0  0  0
  7 29  1  0  0  0
  8  9  1  0  0  0
  8 22  1  0  0  0
  9 10  1  0  0  0
  9 27  2  0  0  0
 10 11  2  0  0  0
 10 15  1  0  0  0
 11 12  1  0  0  0
 11 96  1  0  0  0
 12 13  2  0  0  0
 12 97  1  0  0  0
 13 14  1  0  0  0
 13 31  1  0  0  0
 14 15  2  0  0  0
 14 98  1  0  0  0
 15 99  1  0  0  0
 16 17  2  0  0  0
 16 21  1  0  0  0
 16 31  1  0  0  0
 17 18  1  0  0  0
 17100  1  0  0  0
 18 19  2  0  0  0
 18101  1  0  0  0
 19 20  1  0  0  0
 19 24  1  0  0  0
 20 21  2  0  0  0
 20102  1  0  0  0
 21 23  1  0  0  0
 22 28  1  0  0  0
 22 32  2  0  0  0
 26 27  1  0  0  0
 28103  1  0  0  0
 28104  1  0  0  0
 29105  1  0  0  0
 29106  1  0  0  0
 33 34  1  0  0  0
 33 66  1  0  0  0
 33 70  2  0  0  0
 34 36  1  0  0  0
 34 59  1  0  0  0
 34107  1  0  0  0
 35 44  2  0  0  0
 35 45  1  0  0  0
 35 68  1  0  0  0
 36 56  1  0  0  0
 36108  1  0  0  0
 37 39  1  0  0  0
 37 47  1  0  0  0
 37 66  1  0  0  0
 37109  1  0  0  0
 38 43  2  0  0  0
 38 46  1  0  0  0
 38 47  1  0  0  0
 39 64  1  0  0  0
 39 67  2  0  0  0
 40 52  1  0  0  0
 40 53  2  0  0  0
 40 58  1  0  0  0
 41110  1  0  0  0
 41111  1  0  0  0
 41112  1  0  0  0
 41 48  1  0  0  0
 42 43  1  0  0  0
 42 66  1  0  0  0
 42113  1  0  0  0
 42114  1  0  0  0
 43 44  1  0  0  0
 44115  1  0  0  0
 45 46  2  0  0  0
 45116  1  0  0  0
 46117  1  0  0  0
 47118  1  0  0  0
 47119  1  0  0  0
 48 56  1  0  0  0
 48 65  1  0  0  0
 48120  1  0  0  0
 49 50  1  0  0  0
 49 53  1  0  0  0
 49 64  1  0  0  0
 49121  1  0  0  0
 50 51  1  0  0  0
 50122  1  0  0  0
 50123  1  0  0  0
 51 52  1  0  0  0
 51124  1  0  0  0
 51125  1  0  0  0
 52126  1  0  0  0
 52127  1  0  0  0
 53 54  1  0  0  0
 54 55  2  0  0  0
 54128  1  0  0  0
 55 57  1  0  0  0
 55129  1  0  0  0
 56 69  2  0  0  0
 57 58  2  0  0  0
 57130  1  0  0  0
 58131  1  0  0  0
 59 60  1  0  0  0
 59 61  1  0  0  0
 59 62  1  0  0  0
 60132  1  0  0  0
 60133  1  0  0  0
 60134  1  0  0  0
 61135  1  0  0  0
 61136  1  0  0  0
 61137  1  0  0  0
 62138  1  0  0  0
 62139  1  0  0  0
 62140  1  0  0  0
 63 65  1  0  0  0
 63141  1  0  0  0
 63142  1  0  0  0
 63143  1  0  0  0
 64144  1  0  0  0
 65145  1  0  0  0
 68 82  1  0  0  0
 71 72  2  0  0  0
 71 74  1  0  0  0
 71146  1  0  0  0
 72 75  1  0  0  0
 72147  1  0  0  0
 73 74  2  0  0  0
 73 76  1  0  0  0
 73148  1  0  0  0
 74 83  1  0  0  0
 75 76  2  0  0  0
 75 85  1  0  0  0
 76 84  1  0  0  0
 77 78  1  0  0  0
 77 83  1  0  0  0
 77 86  2  0  0  0
 78 79  1  0  0  0
 78149  1  0  0  0
 78150  1  0  0  0
 79 81  1  0  0  0
 79151  1  0  0  0
 79152  1  0  0  0
 80 81  1  0  0  0
 80 83  1  0  0  0
 80153  1  0  0  0
 80154  1  0  0  0
 81 82  1  0  0  0
 81155  1  0  0  0
 82156  1  0  0  0
 82157  1  0  0  0
 84158  1  0  0  0
 84159  1  0  0  0
 85160  1  0  0  0
M  ISO  4   1 100  68 101  82 101  85 100
M  END
> <chiral flag>
0

> <version>
0

> <s_m_source_file>
/data/baiqing/PycharmProjects/Reinvent-master-3.2/result/LINK_invent/BTK/process_docking_weight1_custom_product_contain_oxygen_bond_distance_aromatic_linkinvent_7_9_3/rearranged_h_0099.sdf

> <i_m_source_file_index>
81

> <r_mmod_Potential_Energy-OPLS-2005>
40.9131889343262

> <r_mmod_Stretch_Energy-OPLS-2005>
84.1154174804688

> <r_mmod_Bend_Energy-OPLS-2005>
136.44172668457

> <r_mmod_Torsional_Energy-OPLS-2005>
286.580596923828

> <r_mmod_Improper_Torsional_Energy-OPLS-2005>
12.3378562927246

> <r_mmod_Van_der_Waal_Energy-OPLS-2005>
164.841171264648

> <r_mmod_Electrostatic_Energy-OPLS-2005>
-467.493072509766

> <r_mmod_Solvation_Energy-OPLS-2005>
-222.039672851562

> <b_mmod_Minimization_Converged-OPLS-2005>
0

> <r_mmod_RMS_Derivative-OPLS-2005>
1.71051549911499

$$$$
81
                    3D
 Structure written by MMmdl.
158166  0  0  1  0            999 V2000
  -30.6572  -14.4628   20.6143 C   0  0  0  0  0  0
  -30.4465  -12.3130   19.4147 C   0  0  0  0  0  0
  -29.5094  -12.5308   18.2042 C   0  0  0  0  0  0
  -28.0221  -12.3926   18.6037 C   0  0  0  0  0  0
  -27.6725  -13.1948   19.8858 C   0  0  2  0  0  0
  -28.7110  -12.9095   20.9983 C   0  0  0  0  0  0
  -25.2627  -13.8162   20.5632 C   0  0  0  0  0  0
  -24.1853  -13.0427   20.9103 C   0  0  0  0  0  0
  -24.6411  -11.6905   20.8713 C   0  0  0  0  0  0
  -23.9081  -10.4263   21.0373 C   0  0  0  0  0  0
  -24.3624   -9.4190   21.9163 C   0  0  0  0  0  0
  -23.6273   -8.2244   22.0776 C   0  0  0  0  0  0
  -22.4251   -8.0275   21.3567 C   0  0  0  0  0  0
  -21.9893   -9.0244   20.4678 C   0  0  0  0  0  0
  -22.7241  -10.2104   20.3039 C   0  0  0  0  0  0
  -21.6850   -6.0721   22.5282 C   0  0  0  0  0  0
  -21.4015   -6.5622   23.8215 C   0  0  0  0  0  0
  -21.3629   -5.6761   24.9158 C   0  0  0  0  0  0
  -21.6055   -4.3032   24.7213 C   0  0  0  0  0  0
  -21.8824   -3.8130   23.4334 C   0  0  0  0  0  0
  -21.9166   -4.6949   22.3383 C   0  0  0  0  0  0
  -22.7865  -13.5244   21.1760 C   0  0  0  0  0  0
  -22.1638   -4.2111   21.0975 F   0  0  0  0  0  0
  -21.5633   -3.4538   25.7746 F   0  0  0  0  0  0
  -30.0478  -13.2532   20.4716 N   0  0  0  0  0  0
  -26.3071  -12.9303   20.3365 N   0  0  0  0  0  0
  -25.9327  -11.6468   20.5723 N   0  0  0  0  0  0
  -22.0511  -12.8248   22.0340 N   0  0  0  0  0  0
  -25.4285  -15.1891   20.4135 N   0  0  0  0  0  0
  -31.7514  -14.7322   20.1046 O   0  0  0  0  0  0
  -21.6611   -6.8869   21.4246 O   0  0  0  0  0  0
  -22.3550  -14.5557   20.6618 O   0  0  0  0  0  0
  -24.6174  -31.8658   23.2097 C   0  0  0  0  0  0
  -25.9068  -32.4811   23.8395 C   0  0  1  0  0  0
  -27.2316  -27.4212   20.0843 C   0  0  0  0  0  0
  -25.5927  -33.8609   24.2336 N   0  0  0  0  0  0
  -23.4041  -30.4933   21.5468 C   0  0  2  0  0  0
  -24.8460  -28.9533   20.1149 C   0  0  0  0  0  0
  -22.7402  -29.4676   22.4945 C   0  0  0  0  0  0
  -18.0281  -28.1395   22.8480 C   0  0  0  0  0  0
  -24.1481  -36.7278   23.2636 C   0  0  0  0  0  0
  -25.9357  -30.8249   21.3656 C   0  0  0  0  0  0
  -26.0071  -29.4572   20.7131 C   0  0  0  0  0  0
  -27.1982  -28.6938   20.7035 C   0  0  0  0  0  0
  -26.0378  -26.9211   19.5127 C   0  0  0  0  0  0
  -24.8558  -27.6831   19.5171 C   0  0  0  0  0  0
  -23.6134  -29.8271   20.1609 C   0  0  0  0  0  0
  -25.4106  -36.3095   24.0344 C   0  0  1  0  0  0
  -20.5876  -28.3681   23.1290 C   0  0  2  0  0  0
  -20.6769  -26.9418   22.5397 C   0  0  0  0  0  0
  -19.5756  -26.6411   21.5190 C   0  0  0  0  0  0
  -18.1936  -26.7942   22.1616 C   0  0  0  0  0  0
  -19.1531  -28.8855   23.2890 C   0  0  0  0  0  0
  -18.9455  -30.1455   23.8917 C   0  0  0  0  0  0
  -17.6453  -30.6594   24.0574 C   0  0  0  0  0  0
  -25.9029  -34.9467   23.5127 C   0  0  0  0  0  0
  -16.5348  -29.9099   23.6327 C   0  0  0  0  0  0
  -16.7268  -28.6519   23.0352 C   0  0  0  0  0  0
  -26.4501  -31.6598   25.0725 C   0  0  0  0  0  0
  -25.3771  -31.3737   26.1479 C   0  0  0  0  0  0
  -27.0310  -30.3029   24.6125 C   0  0  0  0  0  0
  -27.6092  -32.4301   25.7481 C   0  0  0  0  0  0
  -27.5576  -37.1798   24.8471 C   0  0  0  0  0  0
  -21.4131  -29.3057   22.3686 N   0  0  0  0  0  0
  -26.4286  -37.3787   23.9419 N   0  0  0  0  0  0
  -24.6701  -31.0766   22.0990 N   0  0  0  0  0  0
  -23.4176  -28.8204   23.2979 O   0  0  0  0  0  0
  -28.4219  -26.7144   20.0725 O   0  0  0  0  0  0
  -26.5566  -34.8917   22.4674 O   0  0  0  0  0  0
  -23.5362  -32.1425   23.7488 O   0  0  0  0  0  0
  -31.7463  -17.4985   22.0156 C   0  0  0  0  0  0
  -30.2325  -19.0579   20.9062 C   0  0  0  0  0  0
  -32.2063  -19.8987   22.0496 C   0  0  0  0  0  0
  -30.5773  -17.7258   21.2519 C   0  0  0  0  0  0
  -32.5482  -18.5826   22.4259 C   0  0  0  0  0  0
  -31.0345  -20.1527   21.3048 C   0  0  0  0  0  0
  -29.6438  -16.6030   20.8691 C   0  0  0  0  0  0
  -29.5758  -22.1087   20.6785 C   0  0  0  0  0  0
  -29.6778  -23.5952   20.2926 C   0  0  0  0  0  0
  -28.3829  -24.2269   19.7182 C   0  0  0  0  0  0
  -28.5983  -25.6449   19.1301 C   0  0  0  0  0  0
  -33.6655  -18.3494   23.2260 N   0  0  0  0  0  0
  -30.7482  -21.5082   20.9630 N   0  0  0  0  0  0
  -29.8839  -15.3463   21.2651 N   0  0  0  0  0  0
  -28.5735  -16.8634   20.3078 O   0  0  0  0  0  0
  -28.4783  -21.5466   20.7321 O   0  0  0  0  0  0
  -31.4900  -12.4434   19.1215 H   0  0  0  0  0  0
  -30.3693  -11.2889   19.7843 H   0  0  0  0  0  0
  -29.7556  -11.8263   17.4086 H   0  0  0  0  0  0
  -29.6744  -13.5255   17.7854 H   0  0  0  0  0  0
  -27.8067  -11.3345   18.7557 H   0  0  0  0  0  0
  -27.3856  -12.7145   17.7774 H   0  0  0  0  0  0
  -27.7356  -14.2515   19.6242 H   0  0  0  0  0  0
  -28.6940  -11.8518   21.2668 H   0  0  0  0  0  0
  -28.4556  -13.4289   21.9243 H   0  0  0  0  0  0
  -25.2768   -9.5650   22.4758 H   0  0  0  0  0  0
  -23.9968   -7.4637   22.7515 H   0  0  0  0  0  0
  -21.0816   -8.8767   19.9016 H   0  0  0  0  0  0
  -22.3695  -10.9639   19.6147 H   0  0  0  0  0  0
  -21.2058   -7.6132   23.9732 H   0  0  0  0  0  0
  -21.1443   -6.0477   25.9070 H   0  0  0  0  0  0
  -22.0644   -2.7604   23.2847 H   0  0  0  0  0  0
  -22.4074  -11.9824   22.4607 H   0  0  0  0  0  0
  -21.1202  -13.1405   22.2715 H   0  0  0  0  0  0
  -24.6516  -15.8276   20.5512 H   0  0  0  0  0  0
  -26.2912  -15.6643   20.1696 H   0  0  0  0  0  0
  -26.7131  -32.5514   23.1146 H   0  0  0  0  0  0
  -25.0172  -33.9768   25.0549 H   0  0  0  0  0  0
  -22.6952  -31.3124   21.4083 H   0  0  0  0  0  0
  -23.3751  -35.9599   23.3319 H   0  0  0  0  0  0
  -24.3576  -36.8865   22.2045 H   0  0  0  0  0  0
  -23.7225  -37.6490   23.6623 H   0  0  0  0  0  0
  -26.0541  -31.5924   20.5983 H   0  0  0  0  0  0
  -26.8218  -30.8756   21.9875 H   0  0  0  0  0  0
  -28.0955  -29.0791   21.1685 H   0  0  0  0  0  0
  -25.9910  -25.9365   19.0712 H   0  0  0  0  0  0
  -23.9576  -27.2826   19.0683 H   0  0  0  0  0  0
  -23.7289  -30.6017   19.4020 H   0  0  0  0  0  0
  -22.7367  -29.2500   19.8626 H   0  0  0  0  0  0
  -25.1288  -36.1955   25.0838 H   0  0  0  0  0  0
  -20.9983  -28.3260   24.1410 H   0  0  0  0  0  0
  -20.5665  -26.2291   23.3584 H   0  0  0  0  0  0
  -21.6634  -26.7462   22.1200 H   0  0  0  0  0  0
  -19.6907  -25.6327   21.1216 H   0  0  0  0  0  0
  -19.6700  -27.3214   20.6717 H   0  0  0  0  0  0
  -17.4198  -26.6679   21.4028 H   0  0  0  0  0  0
  -18.0359  -26.0092   22.9027 H   0  0  0  0  0  0
  -19.7936  -30.7263   24.2299 H   0  0  0  0  0  0
  -17.5024  -31.6273   24.5184 H   0  0  0  0  0  0
  -15.5361  -30.3021   23.7639 H   0  0  0  0  0  0
  -15.8670  -28.0848   22.7064 H   0  0  0  0  0  0
  -24.5917  -30.7112   25.7831 H   0  0  0  0  0  0
  -24.8992  -32.2904   26.4942 H   0  0  0  0  0  0
  -25.8125  -30.8898   27.0229 H   0  0  0  0  0  0
  -26.2845  -29.6800   24.1176 H   0  0  0  0  0  0
  -27.4060  -29.7280   25.4604 H   0  0  0  0  0  0
  -27.8700  -30.4337   23.9286 H   0  0  0  0  0  0
  -27.2742  -33.3608   26.2076 H   0  0  0  0  0  0
  -28.3895  -32.6847   25.0294 H   0  0  0  0  0  0
  -28.0753  -31.8401   26.5385 H   0  0  0  0  0  0
  -28.2611  -38.0078   24.7504 H   0  0  0  0  0  0
  -28.1059  -36.2615   24.6316 H   0  0  0  0  0  0
  -27.2290  -37.1466   25.8873 H   0  0  0  0  0  0
  -20.9277  -29.8794   21.6922 H   0  0  0  0  0  0
  -26.0174  -38.2860   24.1440 H   0  0  0  0  0  0
  -32.0118  -16.4940   22.3158 H   0  0  0  0  0  0
  -29.3328  -19.2340   20.3329 H   0  0  0  0  0  0
  -32.8332  -20.7270   22.3534 H   0  0  0  0  0  0
  -30.4705  -23.6716   19.5443 H   0  0  0  0  0  0
  -30.0106  -24.1611   21.1635 H   0  0  0  0  0  0
  -27.5933  -24.2407   20.4711 H   0  0  0  0  0  0
  -28.0201  -23.5803   18.9152 H   0  0  0  0  0  0
  -27.9833  -25.7807   18.2414 H   0  0  0  0  0  0
  -29.6160  -25.7217   18.7482 H   0  0  0  0  0  0
  -33.7360  -17.4489   23.6900 H   0  0  0  0  0  0
  -33.9842  -19.1069   23.8255 H   0  0  0  0  0  0
  -31.5400  -22.1359   20.9827 H   0  0  0  0  0  0
  -29.0330  -14.8740   21.5089 H   0  0  0  0  0  0
  1 25  1  0  0  0
  1 30  2  0  0  0
  1 84  1  0  0  0
  2  3  1  0  0  0
  2 25  1  0  0  0
  2 87  1  0  0  0
  2 88  1  0  0  0
  3  4  1  0  0  0
  3 89  1  0  0  0
  3 90  1  0  0  0
  4  5  1  0  0  0
  4 91  1  0  0  0
  4 92  1  0  0  0
  5  6  1  0  0  0
  5 26  1  0  0  0
  5 93  1  0  0  0
  6 25  1  0  0  0
  6 94  1  0  0  0
  6 95  1  0  0  0
  7  8  2  0  0  0
  7 26  1  0  0  0
  7 29  1  0  0  0
  8  9  1  0  0  0
  8 22  1  0  0  0
  9 10  1  0  0  0
  9 27  2  0  0  0
 10 11  2  0  0  0
 10 15  1  0  0  0
 11 12  1  0  0  0
 11 96  1  0  0  0
 12 13  2  0  0  0
 12 97  1  0  0  0
 13 14  1  0  0  0
 13 31  1  0  0  0
 14 15  2  0  0  0
 14 98  1  0  0  0
 15 99  1  0  0  0
 16 17  2  0  0  0
 16 21  1  0  0  0
 16 31  1  0  0  0
 17 18  1  0  0  0
 17100  1  0  0  0
 18 19  2  0  0  0
 18101  1  0  0  0
 19 20  1  0  0  0
 19 24  1  0  0  0
 20 21  2  0  0  0
 20102  1  0  0  0
 21 23  1  0  0  0
 22 28  1  0  0  0
 22 32  2  0  0  0
 26 27  1  0  0  0
 28103  1  0  0  0
 28104  1  0  0  0
 29105  1  0  0  0
 29106  1  0  0  0
 33 34  1  0  0  0
 33 66  1  0  0  0
 33 70  2  0  0  0
 34 36  1  0  0  0
 34 59  1  0  0  0
 34107  1  0  0  0
 35 44  2  0  0  0
 35 45  1  0  0  0
 35 68  1  0  0  0
 36 56  1  0  0  0
 36108  1  0  0  0
 37 39  1  0  0  0
 37 47  1  0  0  0
 37 66  1  0  0  0
 37109  1  0  0  0
 38 43  2  0  0  0
 38 46  1  0  0  0
 38 47  1  0  0  0
 39 64  1  0  0  0
 39 67  2  0  0  0
 40 52  1  0  0  0
 40 53  2  0  0  0
 40 58  1  0  0  0
 41110  1  0  0  0
 41111  1  0  0  0
 41112  1  0  0  0
 41 48  1  0  0  0
 42 43  1  0  0  0
 42 66  1  0  0  0
 42113  1  0  0  0
 42114  1  0  0  0
 43 44  1  0  0  0
 44115  1  0  0  0
 45 46  2  0  0  0
 45116  1  0  0  0
 46117  1  0  0  0
 47118  1  0  0  0
 47119  1  0  0  0
 48 56  1  0  0  0
 48 65  1  0  0  0
 48120  1  0  0  0
 49 50  1  0  0  0
 49 53  1  0  0  0
 49 64  1  0  0  0
 49121  1  0  0  0
 50 51  1  0  0  0
 50122  1  0  0  0
 50123  1  0  0  0
 51 52  1  0  0  0
 51124  1  0  0  0
 51125  1  0  0  0
 52126  1  0  0  0
 52127  1  0  0  0
 53 54  1  0  0  0
 54 55  2  0  0  0
 54128  1  0  0  0
 55 57  1  0  0  0
 55129  1  0  0  0
 56 69  2  0  0  0
 57 58  2  0  0  0
 57130  1  0  0  0
 58131  1  0  0  0
 59 60  1  0  0  0
 59 61  1  0  0  0
 59 62  1  0  0  0
 60132  1  0  0  0
 60133  1  0  0  0
 60134  1  0  0  0
 61135  1  0  0  0
 61136  1  0  0  0
 61137  1  0  0  0
 62138  1  0  0  0
 62139  1  0  0  0
 62140  1  0  0  0
 63 65  1  0  0  0
 63141  1  0  0  0
 63142  1  0  0  0
 63143  1  0  0  0
 64144  1  0  0  0
 65145  1  0  0  0
 68 81  1  0  0  0
 71 74  2  0  0  0
 71 75  1  0  0  0
 71146  1  0  0  0
 72 74  1  0  0  0
 72 76  2  0  0  0
 72147  1  0  0  0
 73 75  2  0  0  0
 73 76  1  0  0  0
 73148  1  0  0  0
 74 77  1  0  0  0
 75 82  1  0  0  0
 76 83  1  0  0  0
 77 84  1  0  0  0
 77 85  2  0  0  0
 78 79  1  0  0  0
 78 83  1  0  0  0
 78 86  2  0  0  0
 79 80  1  0  0  0
 79149  1  0  0  0
 79150  1  0  0  0
 80 81  1  0  0  0
 80151  1  0  0  0
 80152  1  0  0  0
 81153  1  0  0  0
 81154  1  0  0  0
 82155  1  0  0  0
 82156  1  0  0  0
 83157  1  0  0  0
 84158  1  0  0  0
M  ISO  4   1 100  68 101  81 101  84 100
M  END
> <chiral flag>
0

> <version>
0

> <s_m_source_file>
/data/baiqing/PycharmProjects/Reinvent-master-3.2/result/LINK_invent/BTK/process_docking_weight1_custom_product_contain_oxygen_bond_distance_aromatic_linkinvent_7_9_3/rearranged_h_0099.sdf

> <i_m_source_file_index>
82

> <r_mmod_Potential_Energy-OPLS-2005>
-175.387542724609

> <r_mmod_Stretch_Energy-OPLS-2005>
38.4385795593262

> <r_mmod_Bend_Energy-OPLS-2005>
120.18824005127

> <r_mmod_Torsional_Energy-OPLS-2005>
296.274627685547

> <r_mmod_Improper_Torsional_Energy-OPLS-2005>
12.9635629653931

> <r_mmod_Van_der_Waal_Energy-OPLS-2005>
161.260635375977

> <r_mmod_Electrostatic_Energy-OPLS-2005>
-579.078796386719

> <r_mmod_Solvation_Energy-OPLS-2005>
-238.438690185547

> <b_mmod_Minimization_Converged-OPLS-2005>
0

> <r_mmod_RMS_Derivative-OPLS-2005>
3.80200624465942

$$$$
82
                    3D
 Structure written by MMmdl.
155164  0  0  1  0            999 V2000
  -30.5192  -14.8993   20.4608 C   0  0  0  0  0  0
  -30.4483  -12.5596   19.4940 C   0  0  0  0  0  0
  -29.5211  -12.5327   18.2543 C   0  0  0  0  0  0
  -28.0575  -12.3068   18.6770 C   0  0  0  0  0  0
  -27.6391  -13.2328   19.8488 C   0  0  2  0  0  0
  -28.6768  -13.2166   20.9917 C   0  0  0  0  0  0
  -25.2524  -13.8186   20.5738 C   0  0  0  0  0  0
  -24.1818  -13.0435   20.9230 C   0  0  0  0  0  0
  -24.6394  -11.6905   20.8726 C   0  0  0  0  0  0
  -23.9082  -10.4273   21.0380 C   0  0  0  0  0  0
  -24.3640   -9.4183   21.9153 C   0  0  0  0  0  0
  -23.6313   -8.2216   22.0722 C   0  0  0  0  0  0
  -22.4296   -8.0266   21.3523 C   0  0  0  0  0  0
  -21.9927   -9.0231   20.4626 C   0  0  0  0  0  0
  -22.7253  -10.2112   20.3027 C   0  0  0  0  0  0
  -21.6846   -6.0740   22.5271 C   0  0  0  0  0  0
  -21.4012   -6.5639   23.8213 C   0  0  0  0  0  0
  -21.3659   -5.6789   24.9171 C   0  0  0  0  0  0
  -21.6041   -4.3049   24.7221 C   0  0  0  0  0  0
  -21.8828   -3.8152   23.4336 C   0  0  0  0  0  0
  -21.9200   -4.6967   22.3401 C   0  0  0  0  0  0
  -22.7833  -13.5201   21.1904 C   0  0  0  0  0  0
  -22.1668   -4.2161   21.0974 F   0  0  0  0  0  0
  -21.5636   -3.4531   25.7729 F   0  0  0  0  0  0
  -29.9647  -13.6269   20.4142 N   0  0  0  0  0  0
  -26.2927  -12.9386   20.3254 N   0  0  0  0  0  0
  -25.9317  -11.6527   20.5707 N   0  0  0  0  0  0
  -22.0522  -12.8127   22.0434 N   0  0  0  0  0  0
  -25.4257  -15.1919   20.4228 N   0  0  0  0  0  0
  -31.6987  -15.0343   20.1180 O   0  0  0  0  0  0
  -21.6643   -6.8874   21.4235 O   0  0  0  0  0  0
  -22.3492  -14.5503   20.6758 O   0  0  0  0  0  0
  -24.6398  -31.8457   23.1874 C   0  0  0  0  0  0
  -25.9181  -32.4703   23.8243 C   0  0  1  0  0  0
  -27.2131  -27.1515   20.1682 C   0  0  0  0  0  0
  -25.5947  -33.8516   24.2179 N   0  0  0  0  0  0
  -23.4430  -30.4663   21.5278 C   0  0  2  0  0  0
  -24.8922  -28.8881   20.1164 C   0  0  0  0  0  0
  -22.7533  -29.4567   22.4815 C   0  0  0  0  0  0
  -18.0307  -28.1336   22.8469 C   0  0  0  0  0  0
  -24.1490  -36.7267   23.2652 C   0  0  0  0  0  0
  -25.9962  -30.7243   21.3852 C   0  0  0  0  0  0
  -26.0675  -29.3361   20.7314 C   0  0  0  0  0  0
  -27.2316  -28.4852   20.7361 C   0  0  0  0  0  0
  -26.0167  -26.7939   19.5159 C   0  0  0  0  0  0
  -24.8787  -27.6301   19.4932 C   0  0  0  0  0  0
  -23.6686  -29.7914   20.1500 C   0  0  0  0  0  0
  -25.4135  -36.3053   24.0319 C   0  0  1  0  0  0
  -20.5913  -28.3678   23.1212 C   0  0  2  0  0  0
  -20.6769  -26.9383   22.5383 C   0  0  0  0  0  0
  -19.5712  -26.6299   21.5190 C   0  0  0  0  0  0
  -18.1921  -26.7878   22.1631 C   0  0  0  0  0  0
  -19.1561  -28.8820   23.2859 C   0  0  0  0  0  0
  -18.9467  -30.1428   23.8891 C   0  0  0  0  0  0
  -17.6440  -30.6511   24.0558 C   0  0  0  0  0  0
  -25.9078  -34.9426   23.5065 C   0  0  0  0  0  0
  -16.5355  -29.8986   23.6318 C   0  0  0  0  0  0
  -16.7292  -28.6426   23.0335 C   0  0  0  0  0  0
  -26.4509  -31.6568   25.0685 C   0  0  0  0  0  0
  -25.3683  -31.3758   26.1363 C   0  0  0  0  0  0
  -27.0380  -30.2959   24.6312 C   0  0  0  0  0  0
  -27.6031  -32.4355   25.7471 C   0  0  0  0  0  0
  -27.5584  -37.1792   24.8473 C   0  0  0  0  0  0
  -21.4204  -29.3052   22.3582 N   0  0  0  0  0  0
  -26.4303  -37.3758   23.9411 N   0  0  0  0  0  0
  -24.7123  -31.0353   22.0877 N   0  0  0  0  0  0
  -23.4201  -28.8118   23.2952 O   0  0  0  0  0  0
  -28.2856  -26.1972   20.1807 O   0  0  0  0  0  0
  -26.5653  -34.8919   22.4641 O   0  0  0  0  0  0
  -23.5523  -32.1310   23.7128 O   0  0  0  0  0  0
  -29.6845  -19.9110   21.4445 C   0  0  0  0  0  0
  -30.0503  -18.4970   21.5093 C   0  0  0  0  0  0
  -28.5077  -19.4868   19.4422 C   0  0  0  0  0  0
  -28.8559  -20.4926   20.4162 C   0  0  0  0  0  0
  -29.6319  -17.4952   20.5622 C   0  0  0  0  0  0
  -28.8500  -18.0794   19.5143 C   0  0  0  0  0  0
  -26.8292  -21.8061   20.3013 C   0  0  0  0  0  0
  -26.3383  -22.7008   19.1718 C   0  0  0  0  0  0
  -27.6453  -23.2922   18.6348 C   0  0  0  0  0  0
  -28.5281  -23.3006   19.8850 C   0  0  2  0  0  0
  -28.0968  -24.7357   20.6672 C   0  0  0  0  0  0
  -28.1696  -21.8777   20.4701 N   0  0  0  0  0  0
  -29.6774  -15.9859   20.7768 N   0  0  0  0  0  0
  -26.0566  -21.0751   20.9291 O   0  0  0  0  0  0
  -28.3374  -17.2530   18.5703 F   0  0  0  0  0  0
  -31.4792  -12.7289   19.1799 H   0  0  0  0  0  0
  -30.4472  -11.5926   19.9990 H   0  0  0  0  0  0
  -29.8367  -11.7536   17.5599 H   0  0  0  0  0  0
  -29.6056  -13.4772   17.7120 H   0  0  0  0  0  0
  -27.9593  -11.2632   18.9778 H   0  0  0  0  0  0
  -27.3897  -12.4401   17.8255 H   0  0  0  0  0  0
  -27.6196  -14.2424   19.4365 H   0  0  0  0  0  0
  -28.7497  -12.2253   21.4408 H   0  0  0  0  0  0
  -28.3706  -13.8903   21.7943 H   0  0  0  0  0  0
  -25.2797   -9.5644   22.4722 H   0  0  0  0  0  0
  -24.0037   -7.4580   22.7389 H   0  0  0  0  0  0
  -21.0884   -8.8743   19.8896 H   0  0  0  0  0  0
  -22.3721  -10.9654   19.6133 H   0  0  0  0  0  0
  -21.1991   -7.6147   23.9717 H   0  0  0  0  0  0
  -21.1481   -6.0518   25.9076 H   0  0  0  0  0  0
  -22.0615   -2.7615   23.2837 H   0  0  0  0  0  0
  -22.4223  -11.9790   22.4771 H   0  0  0  0  0  0
  -21.1115  -13.1041   22.2684 H   0  0  0  0  0  0
  -24.6628  -15.8484   20.5480 H   0  0  0  0  0  0
  -26.2654  -15.6283   20.0669 H   0  0  0  0  0  0
  -26.7230  -32.5300   23.0947 H   0  0  0  0  0  0
  -25.0058  -33.9617   25.0303 H   0  0  0  0  0  0
  -22.7437  -31.2910   21.3736 H   0  0  0  0  0  0
  -23.3755  -35.9592   23.3320 H   0  0  0  0  0  0
  -24.3583  -36.8897   22.2064 H   0  0  0  0  0  0
  -23.7222  -37.6469   23.6674 H   0  0  0  0  0  0
  -26.1541  -31.4787   20.6134 H   0  0  0  0  0  0
  -26.8685  -30.7725   22.0269 H   0  0  0  0  0  0
  -28.1333  -28.8280   21.2207 H   0  0  0  0  0  0
  -25.9502  -25.8340   19.0232 H   0  0  0  0  0  0
  -23.9806  -27.2849   19.0001 H   0  0  0  0  0  0
  -23.8018  -30.5629   19.3901 H   0  0  0  0  0  0
  -22.7831  -29.2317   19.8426 H   0  0  0  0  0  0
  -25.1308  -36.1900   25.0806 H   0  0  0  0  0  0
  -21.0055  -28.3211   24.1321 H   0  0  0  0  0  0
  -20.5559  -26.2303   23.3590 H   0  0  0  0  0  0
  -21.6648  -26.7305   22.1233 H   0  0  0  0  0  0
  -19.6829  -25.6171   21.1294 H   0  0  0  0  0  0
  -19.6608  -27.3057   20.6673 H   0  0  0  0  0  0
  -17.4116  -26.6615   21.4121 H   0  0  0  0  0  0
  -18.0346  -26.0022   22.9040 H   0  0  0  0  0  0
  -19.7901  -30.7308   24.2241 H   0  0  0  0  0  0
  -17.4957  -31.6166   24.5201 H   0  0  0  0  0  0
  -15.5324  -30.2823   23.7692 H   0  0  0  0  0  0
  -15.8710  -28.0722   22.7052 H   0  0  0  0  0  0
  -24.5845  -30.7148   25.7644 H   0  0  0  0  0  0
  -24.8876  -32.2930   26.4769 H   0  0  0  0  0  0
  -25.7942  -30.8898   27.0146 H   0  0  0  0  0  0
  -26.2970  -29.6658   24.1377 H   0  0  0  0  0  0
  -27.4010  -29.7322   25.4920 H   0  0  0  0  0  0
  -27.8885  -30.4185   23.9613 H   0  0  0  0  0  0
  -27.2598  -33.3664   26.2007 H   0  0  0  0  0  0
  -28.3844  -32.6917   25.0299 H   0  0  0  0  0  0
  -28.0681  -31.8503   26.5410 H   0  0  0  0  0  0
  -28.2592  -38.0088   24.7497 H   0  0  0  0  0  0
  -28.1067  -36.2616   24.6311 H   0  0  0  0  0  0
  -27.2300  -37.1463   25.8873 H   0  0  0  0  0  0
  -20.9354  -29.8833   21.6861 H   0  0  0  0  0  0
  -26.0179  -38.2840   24.1396 H   0  0  0  0  0  0
  -29.9961  -20.5405   22.2685 H   0  0  0  0  0  0
  -30.6063  -18.1691   22.3775 H   0  0  0  0  0  0
  -27.8618  -19.7733   18.6234 H   0  0  0  0  0  0
  -25.6662  -23.4600   19.5710 H   0  0  0  0  0  0
  -25.8026  -22.1215   18.4184 H   0  0  0  0  0  0
  -27.5236  -24.2763   18.1834 H   0  0  0  0  0  0
  -28.0752  -22.6402   17.8726 H   0  0  0  0  0  0
  -29.5852  -23.3335   19.6185 H   0  0  0  0  0  0
  -28.6358  -24.7044   21.6144 H   0  0  0  0  0  0
  -27.0558  -24.6548   20.9820 H   0  0  0  0  0  0
  -28.7702  -15.6266   21.0272 H   0  0  0  0  0  0
  1 25  1  0  0  0
  1 30  2  0  0  0
  1 83  1  0  0  0
  2  3  1  0  0  0
  2 25  1  0  0  0
  2 86  1  0  0  0
  2 87  1  0  0  0
  3  4  1  0  0  0
  3 88  1  0  0  0
  3 89  1  0  0  0
  4  5  1  0  0  0
  4 90  1  0  0  0
  4 91  1  0  0  0
  5  6  1  0  0  0
  5 26  1  0  0  0
  5 92  1  0  0  0
  6 25  1  0  0  0
  6 93  1  0  0  0
  6 94  1  0  0  0
  7  8  2  0  0  0
  7 26  1  0  0  0
  7 29  1  0  0  0
  8  9  1  0  0  0
  8 22  1  0  0  0
  9 10  1  0  0  0
  9 27  2  0  0  0
 10 11  2  0  0  0
 10 15  1  0  0  0
 11 12  1  0  0  0
 11 95  1  0  0  0
 12 13  2  0  0  0
 12 96  1  0  0  0
 13 14  1  0  0  0
 13 31  1  0  0  0
 14 15  2  0  0  0
 14 97  1  0  0  0
 15 98  1  0  0  0
 16 17  2  0  0  0
 16 21  1  0  0  0
 16 31  1  0  0  0
 17 18  1  0  0  0
 17 99  1  0  0  0
 18 19  2  0  0  0
 18100  1  0  0  0
 19 20  1  0  0  0
 19 24  1  0  0  0
 20 21  2  0  0  0
 20101  1  0  0  0
 21 23  1  0  0  0
 22 28  1  0  0  0
 22 32  2  0  0  0
 26 27  1  0  0  0
 28102  1  0  0  0
 28103  1  0  0  0
 29104  1  0  0  0
 29105  1  0  0  0
 33 34  1  0  0  0
 33 66  1  0  0  0
 33 70  2  0  0  0
 34 36  1  0  0  0
 34 59  1  0  0  0
 34106  1  0  0  0
 35 44  2  0  0  0
 35 45  1  0  0  0
 35 68  1  0  0  0
 36 56  1  0  0  0
 36107  1  0  0  0
 37 39  1  0  0  0
 37 47  1  0  0  0
 37 66  1  0  0  0
 37108  1  0  0  0
 38 43  2  0  0  0
 38 46  1  0  0  0
 38 47  1  0  0  0
 39 64  1  0  0  0
 39 67  2  0  0  0
 40 52  1  0  0  0
 40 53  2  0  0  0
 40 58  1  0  0  0
 41109  1  0  0  0
 41110  1  0  0  0
 41111  1  0  0  0
 41 48  1  0  0  0
 42 43  1  0  0  0
 42 66  1  0  0  0
 42112  1  0  0  0
 42113  1  0  0  0
 43 44  1  0  0  0
 44114  1  0  0  0
 45 46  2  0  0  0
 45115  1  0  0  0
 46116  1  0  0  0
 47117  1  0  0  0
 47118  1  0  0  0
 48 56  1  0  0  0
 48 65  1  0  0  0
 48119  1  0  0  0
 49 50  1  0  0  0
 49 53  1  0  0  0
 49 64  1  0  0  0
 49120  1  0  0  0
 50 51  1  0  0  0
 50121  1  0  0  0
 50122  1  0  0  0
 51 52  1  0  0  0
 51123  1  0  0  0
 51124  1  0  0  0
 52125  1  0  0  0
 52126  1  0  0  0
 53 54  1  0  0  0
 54 55  2  0  0  0
 54127  1  0  0  0
 55 57  1  0  0  0
 55128  1  0  0  0
 56 69  2  0  0  0
 57 58  2  0  0  0
 57129  1  0  0  0
 58130  1  0  0  0
 59 60  1  0  0  0
 59 61  1  0  0  0
 59 62  1  0  0  0
 60131  1  0  0  0
 60132  1  0  0  0
 60133  1  0  0  0
 61134  1  0  0  0
 61135  1  0  0  0
 61136  1  0  0  0
 62137  1  0  0  0
 62138  1  0  0  0
 62139  1  0  0  0
 63 65  1  0  0  0
 63140  1  0  0  0
 63141  1  0  0  0
 63142  1  0  0  0
 64143  1  0  0  0
 65144  1  0  0  0
 68 81  1  0  0  0
 71 72  2  0  0  0
 71 74  1  0  0  0
 71145  1  0  0  0
 72 75  1  0  0  0
 72146  1  0  0  0
 73 74  2  0  0  0
 73 76  1  0  0  0
 73147  1  0  0  0
 74 82  1  0  0  0
 75 76  2  0  0  0
 75 83  1  0  0  0
 76 85  1  0  0  0
 77 78  1  0  0  0
 77 82  1  0  0  0
 77 84  2  0  0  0
 78 79  1  0  0  0
 78148  1  0  0  0
 78149  1  0  0  0
 79 80  1  0  0  0
 79150  1  0  0  0
 79151  1  0  0  0
 80 81  1  0  0  0
 80 82  1  0  0  0
 80152  1  0  0  0
 81153  1  0  0  0
 81154  1  0  0  0
 83155  1  0  0  0
M  ISO  4   1 100  68 101  81 101  83 100
M  END
> <chiral flag>
0

> <version>
0

> <s_m_source_file>
/data/baiqing/PycharmProjects/Reinvent-master-3.2/result/LINK_invent/BTK/process_docking_weight1_custom_product_contain_oxygen_bond_distance_aromatic_linkinvent_7_9_3/rearranged_h_0099.sdf

> <i_m_source_file_index>
83

> <r_mmod_Potential_Energy-OPLS-2005>
586.570617675781

> <r_mmod_Stretch_Energy-OPLS-2005>
226.942153930664

> <r_mmod_Bend_Energy-OPLS-2005>
293.849548339844

> <r_mmod_Torsional_Energy-OPLS-2005>
371.574401855469

> <r_mmod_Improper_Torsional_Energy-OPLS-2005>
10.7009887695312

> <r_mmod_Van_der_Waal_Energy-OPLS-2005>
126.147827148438

> <r_mmod_Electrostatic_Energy-OPLS-2005>
-388.400024414062

> <r_mmod_Solvation_Energy-OPLS-2005>
-220.303466796875

> <b_mmod_Minimization_Converged-OPLS-2005>
0

> <r_mmod_RMS_Derivative-OPLS-2005>
3.77866530418396

$$$$
84
                    3D
 Structure written by MMmdl.
160169  0  0  1  0            999 V2000
  -30.6654  -14.6304   20.6188 C   0  0  0  0  0  0
  -30.4312  -12.4222   19.4601 C   0  0  0  0  0  0
  -29.5100  -12.5361   18.2282 C   0  0  0  0  0  0
  -28.0340  -12.3505   18.6307 C   0  0  0  0  0  0
  -27.6490  -13.2206   19.8545 C   0  0  2  0  0  0
  -28.6777  -13.0716   20.9889 C   0  0  0  0  0  0
  -25.2537  -13.8172   20.5651 C   0  0  0  0  0  0
  -24.1817  -13.0438   20.9179 C   0  0  0  0  0  0
  -24.6389  -11.6909   20.8724 C   0  0  0  0  0  0
  -23.9061  -10.4297   21.0414 C   0  0  0  0  0  0
  -24.3614   -9.4209   21.9187 C   0  0  0  0  0  0
  -23.6294   -8.2240   22.0760 C   0  0  0  0  0  0
  -22.4272   -8.0290   21.3556 C   0  0  0  0  0  0
  -21.9903   -9.0261   20.4653 C   0  0  0  0  0  0
  -22.7234  -10.2136   20.3063 C   0  0  0  0  0  0
  -21.6844   -6.0738   22.5283 C   0  0  0  0  0  0
  -21.4017   -6.5637   23.8219 C   0  0  0  0  0  0
  -21.3658   -5.6790   24.9182 C   0  0  0  0  0  0
  -21.6064   -4.3058   24.7232 C   0  0  0  0  0  0
  -21.8826   -3.8146   23.4349 C   0  0  0  0  0  0
  -21.9183   -4.6963   22.3408 C   0  0  0  0  0  0
  -22.7839  -13.5237   21.1842 C   0  0  0  0  0  0
  -22.1635   -4.2149   21.0985 F   0  0  0  0  0  0
  -21.5635   -3.4539   25.7739 F   0  0  0  0  0  0
  -30.0041  -13.4314   20.4565 N   0  0  0  0  0  0
  -26.2954  -12.9360   20.3222 N   0  0  0  0  0  0
  -25.9307  -11.6512   20.5688 N   0  0  0  0  0  0
  -22.0491  -12.8231   22.0403 N   0  0  0  0  0  0
  -25.4255  -15.1892   20.4093 N   0  0  0  0  0  0
  -31.7529  -14.8221   20.0635 O   0  0  0  0  0  0
  -21.6642   -6.8883   21.4246 O   0  0  0  0  0  0
  -22.3508  -14.5524   20.6669 O   0  0  0  0  0  0
  -24.6268  -31.8587   23.2032 C   0  0  0  0  0  0
  -25.9115  -32.4773   23.8353 C   0  0  1  0  0  0
  -27.2154  -27.3057   20.1261 C   0  0  0  0  0  0
  -25.5923  -33.8575   24.2277 N   0  0  0  0  0  0
  -23.4198  -30.4836   21.5458 C   0  0  2  0  0  0
  -24.8661  -28.9383   20.1121 C   0  0  0  0  0  0
  -22.7477  -29.4619   22.4937 C   0  0  0  0  0  0
  -18.0285  -28.1385   22.8486 C   0  0  0  0  0  0
  -24.1486  -36.7293   23.2639 C   0  0  0  0  0  0
  -25.9624  -30.7860   21.3766 C   0  0  0  0  0  0
  -26.0359  -29.4124   20.7200 C   0  0  0  0  0  0
  -27.2163  -28.6090   20.7159 C   0  0  0  0  0  0
  -26.0299  -26.8973   19.4761 C   0  0  0  0  0  0
  -24.8666  -27.6879   19.4776 C   0  0  0  0  0  0
  -23.6351  -29.8204   20.1606 C   0  0  0  0  0  0
  -25.4113  -36.3081   24.0327 C   0  0  1  0  0  0
  -20.5887  -28.3690   23.1278 C   0  0  2  0  0  0
  -20.6774  -26.9410   22.5411 C   0  0  0  0  0  0
  -19.5751  -26.6380   21.5211 C   0  0  0  0  0  0
  -18.1932  -26.7926   22.1625 C   0  0  0  0  0  0
  -19.1539  -28.8854   23.2877 C   0  0  0  0  0  0
  -18.9465  -30.1457   23.8892 C   0  0  0  0  0  0
  -17.6465  -30.6586   24.0566 C   0  0  0  0  0  0
  -25.9056  -34.9448   23.5106 C   0  0  0  0  0  0
  -16.5356  -29.9088   23.6328 C   0  0  0  0  0  0
  -16.7273  -28.6506   23.0350 C   0  0  0  0  0  0
  -26.4499  -31.6585   25.0724 C   0  0  0  0  0  0
  -25.3737  -31.3719   26.1456 C   0  0  0  0  0  0
  -27.0348  -30.3008   24.6185 C   0  0  0  0  0  0
  -27.6052  -32.4329   25.7498 C   0  0  0  0  0  0
  -27.5579  -37.1802   24.8466 C   0  0  0  0  0  0
  -21.4194  -29.3037   22.3672 N   0  0  0  0  0  0
  -26.4291  -37.3776   23.9410 N   0  0  0  0  0  0
  -24.6883  -31.0598   22.0983 N   0  0  0  0  0  0
  -23.4201  -28.8147   23.3005 O   0  0  0  0  0  0
  -28.3200  -26.4390   20.1557 O   0  0  0  0  0  0
  -26.5633  -34.8914   22.4678 O   0  0  0  0  0  0
  -23.5434  -32.1391   23.7358 O   0  0  0  0  0  0
  -29.7627  -19.4134   21.9649 C   0  0  0  0  0  0
  -29.8700  -18.0114   22.1894 C   0  0  0  0  0  0
  -29.7240  -19.0079   19.6023 C   0  0  0  0  0  0
  -29.7232  -19.9672   20.6608 C   0  0  0  0  0  0
  -29.9448  -17.0422   21.1388 C   0  0  0  0  0  0
  -29.8224  -17.5934   19.8276 C   0  0  0  0  0  0
  -31.2171  -21.8241   20.3488 C   0  0  0  0  0  0
  -28.8874  -22.3663   20.4121 C   0  0  0  0  0  0
  -31.6046  -23.3084   20.2385 C   0  0  0  0  0  0
  -30.5277  -24.2634   20.7564 C   0  0  0  0  0  0
  -29.1789  -23.9142   20.1313 C   0  0  2  0  0  0
  -30.1373  -15.2271   22.8714 C   0  0  0  0  0  0
  -28.0774  -25.0088   20.5101 C   0  0  0  0  0  0
  -29.9120  -21.4240   20.4469 N   0  0  0  0  0  0
  -30.1113  -15.5939   21.4432 N   0  0  0  0  0  0
  -32.1578  -21.0191   20.3328 O   0  0  0  0  0  0
  -27.7105  -22.0249   20.5781 O   0  0  0  0  0  0
  -29.8015  -16.7677   18.7535 F   0  0  0  0  0  0
  -31.4735  -12.5480   19.1644 H   0  0  0  0  0  0
  -30.3699  -11.4207   19.8890 H   0  0  0  0  0  0
  -29.7951  -11.7982   17.4757 H   0  0  0  0  0  0
  -29.6429  -13.5147   17.7642 H   0  0  0  0  0  0
  -27.8831  -11.2966   18.8673 H   0  0  0  0  0  0
  -27.3797  -12.5696   17.7863 H   0  0  0  0  0  0
  -27.6740  -14.2597   19.5243 H   0  0  0  0  0  0
  -28.6898  -12.0485   21.3670 H   0  0  0  0  0  0
  -28.3610  -13.6911   21.8254 H   0  0  0  0  0  0
  -25.2763   -9.5672   22.4750 H   0  0  0  0  0  0
  -24.0014   -7.4619   22.7455 H   0  0  0  0  0  0
  -21.0846   -8.8780   19.8935 H   0  0  0  0  0  0
  -22.3721  -10.9673   19.6164 H   0  0  0  0  0  0
  -21.2022   -7.6147   23.9730 H   0  0  0  0  0  0
  -21.1459   -6.0511   25.9084 H   0  0  0  0  0  0
  -22.0604   -2.7607   23.2846 H   0  0  0  0  0  0
  -22.4127  -11.9904   22.4800 H   0  0  0  0  0  0
  -21.1109  -13.1257   22.2611 H   0  0  0  0  0  0
  -24.6585  -15.8427   20.5221 H   0  0  0  0  0  0
  -26.2847  -15.6292   20.1047 H   0  0  0  0  0  0
  -26.7173  -32.5437   23.1090 H   0  0  0  0  0  0
  -25.0049  -33.9723   25.0406 H   0  0  0  0  0  0
  -22.7136  -31.3044   21.4039 H   0  0  0  0  0  0
  -23.3748  -35.9627   23.3303 H   0  0  0  0  0  0
  -24.3572  -36.8920   22.2054 H   0  0  0  0  0  0
  -23.7245  -37.6493   23.6667 H   0  0  0  0  0  0
  -26.0978  -31.5472   20.6073 H   0  0  0  0  0  0
  -26.8412  -30.8317   22.0080 H   0  0  0  0  0  0
  -28.1136  -28.9694   21.1999 H   0  0  0  0  0  0
  -25.9816  -25.9550   18.9524 H   0  0  0  0  0  0
  -23.9762  -27.3268   18.9819 H   0  0  0  0  0  0
  -23.7551  -30.5979   19.4050 H   0  0  0  0  0  0
  -22.7543  -29.2520   19.8568 H   0  0  0  0  0  0
  -25.1293  -36.1931   25.0819 H   0  0  0  0  0  0
  -20.9975  -28.3266   24.1401 H   0  0  0  0  0  0
  -20.5672  -26.2300   23.3616 H   0  0  0  0  0  0
  -21.6644  -26.7436   22.1207 H   0  0  0  0  0  0
  -19.6915  -25.6291   21.1244 H   0  0  0  0  0  0
  -19.6689  -27.3190   20.6742 H   0  0  0  0  0  0
  -17.4202  -26.6674   21.4029 H   0  0  0  0  0  0
  -18.0333  -26.0069   22.9023 H   0  0  0  0  0  0
  -19.7944  -30.7273   24.2258 H   0  0  0  0  0  0
  -17.5024  -31.6265   24.5173 H   0  0  0  0  0  0
  -15.5360  -30.2994   23.7649 H   0  0  0  0  0  0
  -15.8676  -28.0826   22.7063 H   0  0  0  0  0  0
  -24.5907  -30.7074   25.7789 H   0  0  0  0  0  0
  -24.8935  -32.2882   26.4897 H   0  0  0  0  0  0
  -25.8067  -30.8887   27.0225 H   0  0  0  0  0  0
  -26.2922  -29.6753   24.1220 H   0  0  0  0  0  0
  -27.4053  -29.7270   25.4690 H   0  0  0  0  0  0
  -27.8785  -30.4290   23.9402 H   0  0  0  0  0  0
  -27.2649  -33.3625   26.2074 H   0  0  0  0  0  0
  -28.3861  -32.6907   25.0330 H   0  0  0  0  0  0
  -28.0723  -31.8464   26.5422 H   0  0  0  0  0  0
  -28.2599  -38.0098   24.7515 H   0  0  0  0  0  0
  -28.1073  -36.2631   24.6289 H   0  0  0  0  0  0
  -27.2297  -37.1445   25.8870 H   0  0  0  0  0  0
  -20.9383  -29.8761   21.6880 H   0  0  0  0  0  0
  -26.0171  -38.2849   24.1417 H   0  0  0  0  0  0
  -29.7752  -20.0737   22.8220 H   0  0  0  0  0  0
  -29.9313  -17.7092   23.2229 H   0  0  0  0  0  0
  -29.6996  -19.3556   18.5800 H   0  0  0  0  0  0
  -31.8169  -23.5199   19.1901 H   0  0  0  0  0  0
  -32.5358  -23.4748   20.7809 H   0  0  0  0  0  0
  -30.8052  -25.2885   20.5100 H   0  0  0  0  0  0
  -30.4648  -24.2137   21.8448 H   0  0  0  0  0  0
  -29.2906  -23.9803   19.0484 H   0  0  0  0  0  0
  -30.2467  -14.1566   23.0594 H   0  0  0  0  0  0
  -29.2147  -15.5376   23.3627 H   0  0  0  0  0  0
  -30.9800  -15.7056   23.3728 H   0  0  0  0  0  0
  -27.9267  -24.9815   21.5900 H   0  0  0  0  0  0
  -27.1384  -24.6509   20.0945 H   0  0  0  0  0  0
  1 25  1  0  0  0
  1 30  2  0  0  0
  1 85  1  0  0  0
  2  3  1  0  0  0
  2 25  1  0  0  0
  2 89  1  0  0  0
  2 90  1  0  0  0
  3  4  1  0  0  0
  3 91  1  0  0  0
  3 92  1  0  0  0
  4  5  1  0  0  0
  4 93  1  0  0  0
  4 94  1  0  0  0
  5  6  1  0  0  0
  5 26  1  0  0  0
  5 95  1  0  0  0
  6 25  1  0  0  0
  6 96  1  0  0  0
  6 97  1  0  0  0
  7  8  2  0  0  0
  7 26  1  0  0  0
  7 29  1  0  0  0
  8  9  1  0  0  0
  8 22  1  0  0  0
  9 10  1  0  0  0
  9 27  2  0  0  0
 10 11  2  0  0  0
 10 15  1  0  0  0
 11 12  1  0  0  0
 11 98  1  0  0  0
 12 13  2  0  0  0
 12 99  1  0  0  0
 13 14  1  0  0  0
 13 31  1  0  0  0
 14 15  2  0  0  0
 14100  1  0  0  0
 15101  1  0  0  0
 16 17  2  0  0  0
 16 21  1  0  0  0
 16 31  1  0  0  0
 17 18  1  0  0  0
 17102  1  0  0  0
 18 19  2  0  0  0
 18103  1  0  0  0
 19 20  1  0  0  0
 19 24  1  0  0  0
 20 21  2  0  0  0
 20104  1  0  0  0
 21 23  1  0  0  0
 22 28  1  0  0  0
 22 32  2  0  0  0
 26 27  1  0  0  0
 28105  1  0  0  0
 28106  1  0  0  0
 29107  1  0  0  0
 29108  1  0  0  0
 33 34  1  0  0  0
 33 66  1  0  0  0
 33 70  2  0  0  0
 34 36  1  0  0  0
 34 59  1  0  0  0
 34109  1  0  0  0
 35 44  2  0  0  0
 35 45  1  0  0  0
 35 68  1  0  0  0
 36 56  1  0  0  0
 36110  1  0  0  0
 37 39  1  0  0  0
 37 47  1  0  0  0
 37 66  1  0  0  0
 37111  1  0  0  0
 38 43  2  0  0  0
 38 46  1  0  0  0
 38 47  1  0  0  0
 39 64  1  0  0  0
 39 67  2  0  0  0
 40 52  1  0  0  0
 40 53  2  0  0  0
 40 58  1  0  0  0
 41112  1  0  0  0
 41113  1  0  0  0
 41114  1  0  0  0
 41 48  1  0  0  0
 42 43  1  0  0  0
 42 66  1  0  0  0
 42115  1  0  0  0
 42116  1  0  0  0
 43 44  1  0  0  0
 44117  1  0  0  0
 45 46  2  0  0  0
 45118  1  0  0  0
 46119  1  0  0  0
 47120  1  0  0  0
 47121  1  0  0  0
 48 56  1  0  0  0
 48 65  1  0  0  0
 48122  1  0  0  0
 49 50  1  0  0  0
 49 53  1  0  0  0
 49 64  1  0  0  0
 49123  1  0  0  0
 50 51  1  0  0  0
 50124  1  0  0  0
 50125  1  0  0  0
 51 52  1  0  0  0
 51126  1  0  0  0
 51127  1  0  0  0
 52128  1  0  0  0
 52129  1  0  0  0
 53 54  1  0  0  0
 54 55  2  0  0  0
 54130  1  0  0  0
 55 57  1  0  0  0
 55131  1  0  0  0
 56 69  2  0  0  0
 57 58  2  0  0  0
 57132  1  0  0  0
 58133  1  0  0  0
 59 60  1  0  0  0
 59 61  1  0  0  0
 59 62  1  0  0  0
 60134  1  0  0  0
 60135  1  0  0  0
 60136  1  0  0  0
 61137  1  0  0  0
 61138  1  0  0  0
 61139  1  0  0  0
 62140  1  0  0  0
 62141  1  0  0  0
 62142  1  0  0  0
 63 65  1  0  0  0
 63143  1  0  0  0
 63144  1  0  0  0
 63145  1  0  0  0
 64146  1  0  0  0
 65147  1  0  0  0
 68 83  1  0  0  0
 71 72  2  0  0  0
 71 74  1  0  0  0
 71148  1  0  0  0
 72 75  1  0  0  0
 72149  1  0  0  0
 73 74  2  0  0  0
 73 76  1  0  0  0
 73150  1  0  0  0
 74 84  1  0  0  0
 75 76  2  0  0  0
 75 85  1  0  0  0
 76 88  1  0  0  0
 77 79  1  0  0  0
 77 84  1  0  0  0
 77 86  2  0  0  0
 78 81  1  0  0  0
 78 84  1  0  0  0
 78 87  2  0  0  0
 79 80  1  0  0  0
 79151  1  0  0  0
 79152  1  0  0  0
 80 81  1  0  0  0
 80153  1  0  0  0
 80154  1  0  0  0
 81 83  1  0  0  0
 81155  1  0  0  0
 82 85  1  0  0  0
 82156  1  0  0  0
 82157  1  0  0  0
 82158  1  0  0  0
 83159  1  0  0  0
 83160  1  0  0  0
M  ISO  4   1 100  68 101  83 101  85 100
M  END
> <chiral flag>
0

> <version>
0

> <s_m_source_file>
/data/baiqing/PycharmProjects/Reinvent-master-3.2/result/LINK_invent/BTK/process_docking_weight1_custom_product_contain_oxygen_bond_distance_aromatic_linkinvent_7_9_3/rearranged_h_0099.sdf

> <i_m_source_file_index>
84

> <r_mmod_Potential_Energy-OPLS-2005>
301.292327880859

> <r_mmod_Stretch_Energy-OPLS-2005>
107.427543640137

> <r_mmod_Bend_Energy-OPLS-2005>
148.309448242188

> <r_mmod_Torsional_Energy-OPLS-2005>
338.691680908203

> <r_mmod_Improper_Torsional_Energy-OPLS-2005>
4.34201717376709

> <r_mmod_Van_der_Waal_Energy-OPLS-2005>
171.801040649414

> <r_mmod_Electrostatic_Energy-OPLS-2005>
-297.755737304688

> <r_mmod_Solvation_Energy-OPLS-2005>
-221.224685668945

> <b_mmod_Minimization_Converged-OPLS-2005>
0

> <r_mmod_RMS_Derivative-OPLS-2005>
1.53622829914093

$$$$
85
                    3D
 Structure written by MMmdl.
158167  0  0  1  0            999 V2000
  -30.6228  -14.5787   20.4695 C   0  0  0  0  0  0
  -30.4322  -12.3487   19.4364 C   0  0  0  0  0  0
  -29.4946  -12.4850   18.2174 C   0  0  0  0  0  0
  -28.0193  -12.3378   18.6404 C   0  0  0  0  0  0
  -27.6558  -13.2085   19.8707 C   0  0  2  0  0  0
  -28.7026  -13.0373   20.9980 C   0  0  0  0  0  0
  -25.2592  -13.8207   20.5705 C   0  0  0  0  0  0
  -24.1833  -13.0456   20.9217 C   0  0  0  0  0  0
  -24.6401  -11.6929   20.8771 C   0  0  0  0  0  0
  -23.9083  -10.4312   21.0410 C   0  0  0  0  0  0
  -24.3634   -9.4215   21.9174 C   0  0  0  0  0  0
  -23.6299   -8.2259   22.0760 C   0  0  0  0  0  0
  -22.4276   -8.0300   21.3563 C   0  0  0  0  0  0
  -21.9917   -9.0276   20.4665 C   0  0  0  0  0  0
  -22.7265  -10.2141   20.3054 C   0  0  0  0  0  0
  -21.6856   -6.0746   22.5294 C   0  0  0  0  0  0
  -21.4017   -6.5655   23.8229 C   0  0  0  0  0  0
  -21.3636   -5.6801   24.9185 C   0  0  0  0  0  0
  -21.6043   -4.3073   24.7232 C   0  0  0  0  0  0
  -21.8810   -3.8152   23.4354 C   0  0  0  0  0  0
  -21.9202   -4.6980   22.3412 C   0  0  0  0  0  0
  -22.7873  -13.5251   21.1867 C   0  0  0  0  0  0
  -22.1663   -4.2165   21.0991 F   0  0  0  0  0  0
  -21.5622   -3.4553   25.7739 F   0  0  0  0  0  0
  -30.0252  -13.3529   20.4337 N   0  0  0  0  0  0
  -26.3001  -12.9337   20.3367 N   0  0  0  0  0  0
  -25.9317  -11.6507   20.5808 N   0  0  0  0  0  0
  -22.0506  -12.8229   22.0411 N   0  0  0  0  0  0
  -25.4355  -15.1924   20.4121 N   0  0  0  0  0  0
  -31.7728  -14.7640   20.0592 O   0  0  0  0  0  0
  -21.6641   -6.8898   21.4254 O   0  0  0  0  0  0
  -22.3559  -14.5537   20.6710 O   0  0  0  0  0  0
  -24.6228  -31.8637   23.2076 C   0  0  0  0  0  0
  -25.9100  -32.4784   23.8362 C   0  0  1  0  0  0
  -27.2234  -27.3726   20.0966 C   0  0  0  0  0  0
  -25.5932  -33.8571   24.2323 N   0  0  0  0  0  0
  -23.4113  -30.4959   21.5451 C   0  0  2  0  0  0
  -24.8536  -28.9498   20.1117 C   0  0  0  0  0  0
  -22.7395  -29.4685   22.4888 C   0  0  0  0  0  0
  -18.0245  -28.1353   22.8565 C   0  0  0  0  0  0
  -24.1513  -36.7298   23.2624 C   0  0  0  0  0  0
  -25.9453  -30.8117   21.3694 C   0  0  0  0  0  0
  -26.0170  -29.4409   20.7130 C   0  0  0  0  0  0
  -27.2025  -28.6607   20.7013 C   0  0  0  0  0  0
  -26.0305  -26.9039   19.4987 C   0  0  0  0  0  0
  -24.8584  -27.6860   19.4983 C   0  0  0  0  0  0
  -23.6248  -29.8292   20.1608 C   0  0  0  0  0  0
  -25.4121  -36.3082   24.0337 C   0  0  1  0  0  0
  -20.5882  -28.3636   23.1111 C   0  0  2  0  0  0
  -20.6759  -26.9457   22.4986 C   0  0  0  0  0  0
  -19.5485  -26.6421   21.5057 C   0  0  0  0  0  0
  -18.1849  -26.7845   22.1813 C   0  0  0  0  0  0
  -19.1543  -28.8818   23.2855 C   0  0  0  0  0  0
  -18.9532  -30.1433   23.8850 C   0  0  0  0  0  0
  -17.6570  -30.6575   24.0629 C   0  0  0  0  0  0
  -25.9044  -34.9427   23.5124 C   0  0  0  0  0  0
  -16.5424  -29.9091   23.6467 C   0  0  0  0  0  0
  -16.7255  -28.6496   23.0507 C   0  0  0  0  0  0
  -26.4518  -31.6542   25.0676 C   0  0  0  0  0  0
  -25.3778  -31.3632   26.1420 C   0  0  0  0  0  0
  -27.0368  -30.2971   24.6086 C   0  0  0  0  0  0
  -27.6082  -32.4265   25.7444 C   0  0  0  0  0  0
  -27.5588  -37.1800   24.8460 C   0  0  0  0  0  0
  -21.4134  -29.3040   22.3549 N   0  0  0  0  0  0
  -26.4294  -37.3772   23.9407 N   0  0  0  0  0  0
  -24.6774  -31.0697   22.1001 N   0  0  0  0  0  0
  -23.4137  -28.8242   23.2969 O   0  0  0  0  0  0
  -28.3921  -26.6170   20.1250 O   0  0  0  0  0  0
  -26.5595  -34.8869   22.4683 O   0  0  0  0  0  0
  -23.5413  -32.1386   23.7494 O   0  0  0  0  0  0
  -29.4434  -18.4824   18.4442 C   0  0  0  0  0  0
  -29.2031  -19.5600   19.3243 C   0  0  0  0  0  0
  -29.6753  -17.1783   18.9317 C   0  0  0  0  0  0
  -29.1650  -19.3626   20.7265 C   0  0  0  0  0  0
  -29.6877  -16.9325   20.3217 C   0  0  0  0  0  0
  -29.4120  -18.0203   21.1980 C   0  0  0  0  0  0
  -28.8649  -20.4984   21.7245 C   0  0  0  0  0  0
  -28.7714  -24.2021   21.9334 C   0  0  0  0  0  0
  -28.6263  -22.8038   22.5317 C   0  0  0  0  0  0
  -28.4669  -22.6185   20.1733 C   0  0  0  0  0  0
  -28.0842  -24.0912   20.5848 C   0  0  2  0  0  0
  -28.4547  -25.2569   19.5959 C   0  0  0  0  0  0
  -28.6720  -21.8356   21.4222 N   0  0  0  0  0  0
  -29.8233  -15.5988   20.8676 N   0  0  0  0  0  0
  -28.8367  -20.1804   22.9166 O   0  0  0  0  0  0
  -29.3856  -17.7184   22.5191 F   0  0  0  0  0  0
  -31.4676  -12.4667   19.1162 H   0  0  0  0  0  0
  -30.3586  -11.3486   19.8643 H   0  0  0  0  0  0
  -29.7462  -11.7326   17.4705 H   0  0  0  0  0  0
  -29.6427  -13.4509   17.7334 H   0  0  0  0  0  0
  -27.8563  -11.2881   18.8826 H   0  0  0  0  0  0
  -27.3568  -12.5648   17.8034 H   0  0  0  0  0  0
  -27.6818  -14.2448   19.5344 H   0  0  0  0  0  0
  -28.6987  -12.0166   21.3861 H   0  0  0  0  0  0
  -28.4605  -13.6799   21.8472 H   0  0  0  0  0  0
  -25.2764   -9.5690   22.4768 H   0  0  0  0  0  0
  -24.0011   -7.4646   22.7460 H   0  0  0  0  0  0
  -21.0862   -8.8815   19.8955 H   0  0  0  0  0  0
  -22.3743  -10.9691   19.6187 H   0  0  0  0  0  0
  -21.1998   -7.6165   23.9738 H   0  0  0  0  0  0
  -21.1463   -6.0536   25.9100 H   0  0  0  0  0  0
  -22.0600   -2.7622   23.2857 H   0  0  0  0  0  0
  -22.4111  -11.9859   22.4753 H   0  0  0  0  0  0
  -21.1145  -13.1284   22.2627 H   0  0  0  0  0  0
  -24.6726  -15.8526   20.5211 H   0  0  0  0  0  0
  -26.2937  -15.6244   20.0949 H   0  0  0  0  0  0
  -26.7132  -32.5503   23.1073 H   0  0  0  0  0  0
  -25.0108  -33.9721   25.0482 H   0  0  0  0  0  0
  -22.7085  -31.3220   21.4080 H   0  0  0  0  0  0
  -23.3770  -35.9651   23.3299 H   0  0  0  0  0  0
  -24.3582  -36.8905   22.2039 H   0  0  0  0  0  0
  -23.7291  -37.6498   23.6650 H   0  0  0  0  0  0
  -26.0644  -31.5817   20.6064 H   0  0  0  0  0  0
  -26.8261  -30.8548   21.9982 H   0  0  0  0  0  0
  -28.0995  -29.0401   21.1722 H   0  0  0  0  0  0
  -25.9696  -25.9294   19.0427 H   0  0  0  0  0  0
  -23.9562  -27.3140   19.0323 H   0  0  0  0  0  0
  -23.7429  -30.6065   19.4038 H   0  0  0  0  0  0
  -22.7459  -29.2591   19.8579 H   0  0  0  0  0  0
  -25.1317  -36.1923   25.0839 H   0  0  0  0  0  0
  -21.0037  -28.3064   24.1195 H   0  0  0  0  0  0
  -20.6055  -26.2217   23.3076 H   0  0  0  0  0  0
  -21.6494  -26.7640   22.0401 H   0  0  0  0  0  0
  -19.6574  -25.6336   21.1023 H   0  0  0  0  0  0
  -19.6075  -27.3288   20.6584 H   0  0  0  0  0  0
  -17.3944  -26.6320   21.4426 H   0  0  0  0  0  0
  -18.0568  -26.0078   22.9351 H   0  0  0  0  0  0
  -19.8041  -30.7303   24.2051 H   0  0  0  0  0  0
  -17.5203  -31.6265   24.5244 H   0  0  0  0  0  0
  -15.5459  -30.3037   23.7870 H   0  0  0  0  0  0
  -15.8616  -28.0836   22.7296 H   0  0  0  0  0  0
  -24.5926  -30.7029   25.7711 H   0  0  0  0  0  0
  -24.9004  -32.2804   26.4890 H   0  0  0  0  0  0
  -25.8096  -30.8727   27.0152 H   0  0  0  0  0  0
  -26.2918  -29.6641   24.1246 H   0  0  0  0  0  0
  -27.4243  -29.7269   25.4529 H   0  0  0  0  0  0
  -27.8704  -30.4247   23.9166 H   0  0  0  0  0  0
  -27.2677  -33.3532   26.2067 H   0  0  0  0  0  0
  -28.3855  -32.6877   25.0248 H   0  0  0  0  0  0
  -28.0808  -31.8367   26.5312 H   0  0  0  0  0  0
  -28.2614  -38.0089   24.7504 H   0  0  0  0  0  0
  -28.1077  -36.2611   24.6320 H   0  0  0  0  0  0
  -27.2273  -37.1484   25.8848 H   0  0  0  0  0  0
  -20.9319  -29.8660   21.6665 H   0  0  0  0  0  0
  -26.0187  -38.2850   24.1401 H   0  0  0  0  0  0
  -29.4295  -18.6558   17.3754 H   0  0  0  0  0  0
  -29.0415  -20.5312   18.8884 H   0  0  0  0  0  0
  -29.8068  -16.3723   18.2235 H   0  0  0  0  0  0
  -29.8341  -24.4245   21.7951 H   0  0  0  0  0  0
  -28.3487  -24.9882   22.5624 H   0  0  0  0  0  0
  -27.6697  -22.7021   23.0462 H   0  0  0  0  0  0
  -29.4178  -22.6338   23.2679 H   0  0  0  0  0  0
  -29.4039  -22.6180   19.6145 H   0  0  0  0  0  0
  -27.6911  -22.1785   19.5435 H   0  0  0  0  0  0
  -27.0067  -24.1320   20.7633 H   0  0  0  0  0  0
  -27.9047  -25.1731   18.6602 H   0  0  0  0  0  0
  -29.4884  -25.0993   19.2880 H   0  0  0  0  0  0
  -29.0736  -15.3210   21.4786 H   0  0  0  0  0  0
  1 25  1  0  0  0
  1 30  2  0  0  0
  1 84  1  0  0  0
  2  3  1  0  0  0
  2 25  1  0  0  0
  2 87  1  0  0  0
  2 88  1  0  0  0
  3  4  1  0  0  0
  3 89  1  0  0  0
  3 90  1  0  0  0
  4  5  1  0  0  0
  4 91  1  0  0  0
  4 92  1  0  0  0
  5  6  1  0  0  0
  5 26  1  0  0  0
  5 93  1  0  0  0
  6 25  1  0  0  0
  6 94  1  0  0  0
  6 95  1  0  0  0
  7  8  2  0  0  0
  7 26  1  0  0  0
  7 29  1  0  0  0
  8  9  1  0  0  0
  8 22  1  0  0  0
  9 10  1  0  0  0
  9 27  2  0  0  0
 10 11  2  0  0  0
 10 15  1  0  0  0
 11 12  1  0  0  0
 11 96  1  0  0  0
 12 13  2  0  0  0
 12 97  1  0  0  0
 13 14  1  0  0  0
 13 31  1  0  0  0
 14 15  2  0  0  0
 14 98  1  0  0  0
 15 99  1  0  0  0
 16 17  2  0  0  0
 16 21  1  0  0  0
 16 31  1  0  0  0
 17 18  1  0  0  0
 17100  1  0  0  0
 18 19  2  0  0  0
 18101  1  0  0  0
 19 20  1  0  0  0
 19 24  1  0  0  0
 20 21  2  0  0  0
 20102  1  0  0  0
 21 23  1  0  0  0
 22 28  1  0  0  0
 22 32  2  0  0  0
 26 27  1  0  0  0
 28103  1  0  0  0
 28104  1  0  0  0
 29105  1  0  0  0
 29106  1  0  0  0
 33 34  1  0  0  0
 33 66  1  0  0  0
 33 70  2  0  0  0
 34 36  1  0  0  0
 34 59  1  0  0  0
 34107  1  0  0  0
 35 44  2  0  0  0
 35 45  1  0  0  0
 35 68  1  0  0  0
 36 56  1  0  0  0
 36108  1  0  0  0
 37 39  1  0  0  0
 37 47  1  0  0  0
 37 66  1  0  0  0
 37109  1  0  0  0
 38 43  2  0  0  0
 38 46  1  0  0  0
 38 47  1  0  0  0
 39 64  1  0  0  0
 39 67  2  0  0  0
 40 52  1  0  0  0
 40 53  2  0  0  0
 40 58  1  0  0  0
 41110  1  0  0  0
 41111  1  0  0  0
 41112  1  0  0  0
 41 48  1  0  0  0
 42 43  1  0  0  0
 42 66  1  0  0  0
 42113  1  0  0  0
 42114  1  0  0  0
 43 44  1  0  0  0
 44115  1  0  0  0
 45 46  2  0  0  0
 45116  1  0  0  0
 46117  1  0  0  0
 47118  1  0  0  0
 47119  1  0  0  0
 48 56  1  0  0  0
 48 65  1  0  0  0
 48120  1  0  0  0
 49 50  1  0  0  0
 49 53  1  0  0  0
 49 64  1  0  0  0
 49121  1  0  0  0
 50 51  1  0  0  0
 50122  1  0  0  0
 50123  1  0  0  0
 51 52  1  0  0  0
 51124  1  0  0  0
 51125  1  0  0  0
 52126  1  0  0  0
 52127  1  0  0  0
 53 54  1  0  0  0
 54 55  2  0  0  0
 54128  1  0  0  0
 55 57  1  0  0  0
 55129  1  0  0  0
 56 69  2  0  0  0
 57 58  2  0  0  0
 57130  1  0  0  0
 58131  1  0  0  0
 59 60  1  0  0  0
 59 61  1  0  0  0
 59 62  1  0  0  0
 60132  1  0  0  0
 60133  1  0  0  0
 60134  1  0  0  0
 61135  1  0  0  0
 61136  1  0  0  0
 61137  1  0  0  0
 62138  1  0  0  0
 62139  1  0  0  0
 62140  1  0  0  0
 63 65  1  0  0  0
 63141  1  0  0  0
 63142  1  0  0  0
 63143  1  0  0  0
 64144  1  0  0  0
 65145  1  0  0  0
 68 82  1  0  0  0
 71 72  2  0  0  0
 71 73  1  0  0  0
 71146  1  0  0  0
 72 74  1  0  0  0
 72147  1  0  0  0
 73 75  2  0  0  0
 73148  1  0  0  0
 74 76  2  0  0  0
 74 77  1  0  0  0
 75 76  1  0  0  0
 75 84  1  0  0  0
 76 86  1  0  0  0
 77 83  1  0  0  0
 77 85  2  0  0  0
 78 79  1  0  0  0
 78 81  1  0  0  0
 78149  1  0  0  0
 78150  1  0  0  0
 79 83  1  0  0  0
 79151  1  0  0  0
 79152  1  0  0  0
 80 81  1  0  0  0
 80 83  1  0  0  0
 80153  1  0  0  0
 80154  1  0  0  0
 81 82  1  0  0  0
 81155  1  0  0  0
 82156  1  0  0  0
 82157  1  0  0  0
 84158  1  0  0  0
M  ISO  4   1 100  68 101  82 101  84 100
M  END
> <chiral flag>
0

> <version>
0

> <s_m_source_file>
/data/baiqing/PycharmProjects/Reinvent-master-3.2/result/LINK_invent/BTK/process_docking_weight1_custom_product_contain_oxygen_bond_distance_aromatic_linkinvent_7_9_3/rearranged_h_0099.sdf

> <i_m_source_file_index>
85

> <r_mmod_Potential_Energy-OPLS-2005>
148.634094238281

> <r_mmod_Stretch_Energy-OPLS-2005>
63.2760772705078

> <r_mmod_Bend_Energy-OPLS-2005>
172.045959472656

> <r_mmod_Torsional_Energy-OPLS-2005>
314.650299072266

> <r_mmod_Improper_Torsional_Energy-OPLS-2005>
4.55262279510498

> <r_mmod_Van_der_Waal_Energy-OPLS-2005>
157.329193115234

> <r_mmod_Electrostatic_Energy-OPLS-2005>
-358.464111328125

> <r_mmod_Solvation_Energy-OPLS-2005>
-234.866287231445

> <b_mmod_Minimization_Converged-OPLS-2005>
0

> <r_mmod_RMS_Derivative-OPLS-2005>
5.42256736755371

$$$$
86
                    3D
 Structure written by MMmdl.
150158  0  0  1  0            999 V2000
  -30.6073  -14.6759   20.4867 C   0  0  0  0  0  0
  -30.4404  -12.4121   19.4590 C   0  0  0  0  0  0
  -29.5105  -12.5076   18.2283 C   0  0  0  0  0  0
  -28.0337  -12.3402   18.6395 C   0  0  0  0  0  0
  -27.6509  -13.2181   19.8604 C   0  0  2  0  0  0
  -28.6959  -13.0919   20.9921 C   0  0  0  0  0  0
  -25.2554  -13.8172   20.5681 C   0  0  0  0  0  0
  -24.1826  -13.0437   20.9199 C   0  0  0  0  0  0
  -24.6395  -11.6908   20.8745 C   0  0  0  0  0  0
  -23.9063  -10.4291   21.0408 C   0  0  0  0  0  0
  -24.3615   -9.4206   21.9185 C   0  0  0  0  0  0
  -23.6290   -8.2242   22.0754 C   0  0  0  0  0  0
  -22.4273   -8.0281   21.3543 C   0  0  0  0  0  0
  -21.9907   -9.0255   20.4647 C   0  0  0  0  0  0
  -22.7236  -10.2135   20.3058 C   0  0  0  0  0  0
  -21.6853   -6.0735   22.5278 C   0  0  0  0  0  0
  -21.4015   -6.5639   23.8211 C   0  0  0  0  0  0
  -21.3659   -5.6791   24.9173 C   0  0  0  0  0  0
  -21.6043   -4.3053   24.7224 C   0  0  0  0  0  0
  -21.8820   -3.8145   23.4345 C   0  0  0  0  0  0
  -21.9193   -4.6962   22.3401 C   0  0  0  0  0  0
  -22.7849  -13.5230   21.1857 C   0  0  0  0  0  0
  -22.1661   -4.2148   21.0979 F   0  0  0  0  0  0
  -21.5627   -3.4538   25.7737 F   0  0  0  0  0  0
  -30.0073  -13.4424   20.4256 N   0  0  0  0  0  0
  -26.2977  -12.9352   20.3302 N   0  0  0  0  0  0
  -25.9324  -11.6509   20.5756 N   0  0  0  0  0  0
  -22.0488  -12.8226   22.0414 N   0  0  0  0  0  0
  -25.4263  -15.1894   20.4076 N   0  0  0  0  0  0
  -31.7782  -14.8259   20.1250 O   0  0  0  0  0  0
  -21.6639   -6.8878   21.4240 O   0  0  0  0  0  0
  -22.3536  -14.5535   20.6701 O   0  0  0  0  0  0
  -24.6278  -31.8584   23.2013 C   0  0  0  0  0  0
  -25.9118  -32.4771   23.8346 C   0  0  1  0  0  0
  -27.2231  -27.3016   20.1185 C   0  0  0  0  0  0
  -25.5926  -33.8572   24.2272 N   0  0  0  0  0  0
  -23.4223  -30.4822   21.5443 C   0  0  2  0  0  0
  -24.8687  -28.9356   20.1108 C   0  0  0  0  0  0
  -22.7483  -29.4618   22.4928 C   0  0  0  0  0  0
  -18.0288  -28.1385   22.8487 C   0  0  0  0  0  0
  -24.1489  -36.7292   23.2639 C   0  0  0  0  0  0
  -25.9654  -30.7840   21.3750 C   0  0  0  0  0  0
  -26.0392  -29.4105   20.7158 C   0  0  0  0  0  0
  -27.2195  -28.6060   20.7082 C   0  0  0  0  0  0
  -26.0274  -26.8846   19.4887 C   0  0  0  0  0  0
  -24.8660  -27.6790   19.4878 C   0  0  0  0  0  0
  -23.6378  -29.8177   20.1597 C   0  0  0  0  0  0
  -25.4114  -36.3079   24.0328 C   0  0  1  0  0  0
  -20.5890  -28.3691   23.1278 C   0  0  2  0  0  0
  -20.6777  -26.9413   22.5408 C   0  0  0  0  0  0
  -19.5750  -26.6383   21.5212 C   0  0  0  0  0  0
  -18.1932  -26.7926   22.1627 C   0  0  0  0  0  0
  -19.1541  -28.8855   23.2878 C   0  0  0  0  0  0
  -18.9463  -30.1456   23.8895 C   0  0  0  0  0  0
  -17.6462  -30.6587   24.0563 C   0  0  0  0  0  0
  -25.9052  -34.9448   23.5101 C   0  0  0  0  0  0
  -16.5354  -29.9085   23.6329 C   0  0  0  0  0  0
  -16.7275  -28.6502   23.0352 C   0  0  0  0  0  0
  -26.4496  -31.6586   25.0724 C   0  0  0  0  0  0
  -25.3725  -31.3732   26.1449 C   0  0  0  0  0  0
  -27.0342  -30.3007   24.6191 C   0  0  0  0  0  0
  -27.6050  -32.4327   25.7496 C   0  0  0  0  0  0
  -27.5580  -37.1800   24.8464 C   0  0  0  0  0  0
  -21.4194  -29.3044   22.3671 N   0  0  0  0  0  0
  -26.4291  -37.3774   23.9409 N   0  0  0  0  0  0
  -24.6908  -31.0583   22.0970 N   0  0  0  0  0  0
  -23.4200  -28.8156   23.3011 O   0  0  0  0  0  0
  -28.3348  -26.4395   20.1725 O   0  0  0  0  0  0
  -26.5623  -34.8918   22.4669 O   0  0  0  0  0  0
  -23.5437  -32.1389   23.7332 O   0  0  0  0  0  0
  -31.1099  -19.3271   20.2361 C   0  0  0  0  0  0
  -31.0704  -17.9001   20.2919 C   0  0  0  0  0  0
  -28.7697  -18.0345   20.9505 C   0  0  0  0  0  0
  -29.9949  -20.1667   20.5435 C   0  0  0  0  0  0
  -29.8960  -17.2003   20.6702 C   0  0  0  0  0  0
  -28.8079  -19.4686   20.8935 C   0  0  0  0  0  0
  -30.1958  -21.7061   20.6431 C   0  0  0  0  0  0
  -29.3162  -24.0311   20.4225 C   0  0  0  0  0  0
  -28.1042  -24.9693   20.0272 C   0  0  0  0  0  0
  -29.7797  -15.7339   20.7933 N   0  0  0  0  0  0
  -29.2164  -22.6442   20.3736 N   0  0  0  0  0  0
  -31.3438  -22.0519   20.9504 O   0  0  0  0  0  0
  -30.3494  -24.6164   20.7710 O   0  0  0  0  0  0
  -27.6910  -20.1689   21.2097 F   0  0  0  0  0  0
  -31.4808  -12.5426   19.1564 H   0  0  0  0  0  0
  -30.3827  -11.4208   19.9113 H   0  0  0  0  0  0
  -29.7808  -11.7502   17.4914 H   0  0  0  0  0  0
  -29.6471  -13.4731   17.7383 H   0  0  0  0  0  0
  -27.8761  -11.2879   18.8788 H   0  0  0  0  0  0
  -27.3790  -12.5603   17.7955 H   0  0  0  0  0  0
  -27.6625  -14.2496   19.5082 H   0  0  0  0  0  0
  -28.7156  -12.0745   21.3858 H   0  0  0  0  0  0
  -28.4373  -13.7328   21.8364 H   0  0  0  0  0  0
  -25.2763   -9.5681   22.4758 H   0  0  0  0  0  0
  -23.9999   -7.4634   22.7474 H   0  0  0  0  0  0
  -21.0837   -8.8776   19.8955 H   0  0  0  0  0  0
  -22.3695  -10.9675   19.6167 H   0  0  0  0  0  0
  -21.2011   -7.6148   23.9714 H   0  0  0  0  0  0
  -21.1479   -6.0522   25.9075 H   0  0  0  0  0  0
  -22.0600   -2.7608   23.2847 H   0  0  0  0  0  0
  -22.4102  -11.9889   22.4806 H   0  0  0  0  0  0
  -21.1107  -13.1258   22.2618 H   0  0  0  0  0  0
  -24.6530  -15.8386   20.5038 H   0  0  0  0  0  0
  -26.2597  -15.6224   20.0316 H   0  0  0  0  0  0
  -26.7186  -32.5435   23.1094 H   0  0  0  0  0  0
  -25.0067  -33.9712   25.0411 H   0  0  0  0  0  0
  -22.7169  -31.3033   21.4010 H   0  0  0  0  0  0
  -23.3749  -35.9626   23.3300 H   0  0  0  0  0  0
  -24.3580  -36.8916   22.2054 H   0  0  0  0  0  0
  -23.7244  -37.6494   23.6663 H   0  0  0  0  0  0
  -26.0999  -31.5475   20.6075 H   0  0  0  0  0  0
  -26.8447  -30.8316   22.0059 H   0  0  0  0  0  0
  -28.1168  -28.9655   21.1922 H   0  0  0  0  0  0
  -25.9582  -25.9260   18.9974 H   0  0  0  0  0  0
  -23.9692  -27.3102   19.0088 H   0  0  0  0  0  0
  -23.7586  -30.5946   19.4038 H   0  0  0  0  0  0
  -22.7570  -29.2489   19.8562 H   0  0  0  0  0  0
  -25.1294  -36.1930   25.0820 H   0  0  0  0  0  0
  -20.9983  -28.3267   24.1398 H   0  0  0  0  0  0
  -20.5679  -26.2301   23.3608 H   0  0  0  0  0  0
  -21.6645  -26.7440   22.1200 H   0  0  0  0  0  0
  -19.6911  -25.6294   21.1242 H   0  0  0  0  0  0
  -19.6685  -27.3193   20.6742 H   0  0  0  0  0  0
  -17.4198  -26.6670   21.4034 H   0  0  0  0  0  0
  -18.0337  -26.0071   22.9027 H   0  0  0  0  0  0
  -19.7938  -30.7274   24.2263 H   0  0  0  0  0  0
  -17.5016  -31.6266   24.5165 H   0  0  0  0  0  0
  -15.5354  -30.2987   23.7653 H   0  0  0  0  0  0
  -15.8676  -28.0820   22.7069 H   0  0  0  0  0  0
  -24.5891  -30.7092   25.7776 H   0  0  0  0  0  0
  -24.8930  -32.2904   26.4878 H   0  0  0  0  0  0
  -25.8044  -30.8900   27.0222 H   0  0  0  0  0  0
  -26.2922  -29.6756   24.1210 H   0  0  0  0  0  0
  -27.4029  -29.7266   25.4701 H   0  0  0  0  0  0
  -27.8795  -30.4289   23.9426 H   0  0  0  0  0  0
  -27.2653  -33.3625   26.2072 H   0  0  0  0  0  0
  -28.3861  -32.6892   25.0326 H   0  0  0  0  0  0
  -28.0718  -31.8457   26.5416 H   0  0  0  0  0  0
  -28.2592  -38.0102   24.7515 H   0  0  0  0  0  0
  -28.1081  -36.2634   24.6281 H   0  0  0  0  0  0
  -27.2298  -37.1439   25.8867 H   0  0  0  0  0  0
  -20.9373  -29.8771   21.6885 H   0  0  0  0  0  0
  -26.0171  -38.2848   24.1412 H   0  0  0  0  0  0
  -32.0518  -19.7909   19.9783 H   0  0  0  0  0  0
  -31.9744  -17.3550   20.0595 H   0  0  0  0  0  0
  -27.8370  -17.5735   21.2409 H   0  0  0  0  0  0
  -27.2515  -24.6708   20.6384 H   0  0  0  0  0  0
  -27.8559  -24.7465   18.9893 H   0  0  0  0  0  0
  -28.8671  -15.4162   21.0815 H   0  0  0  0  0  0
  -28.3198  -22.2658   20.1088 H   0  0  0  0  0  0
  1 25  1  0  0  0
  1 30  2  0  0  0
  1 80  1  0  0  0
  2  3  1  0  0  0
  2 25  1  0  0  0
  2 85  1  0  0  0
  2 86  1  0  0  0
  3  4  1  0  0  0
  3 87  1  0  0  0
  3 88  1  0  0  0
  4  5  1  0  0  0
  4 89  1  0  0  0
  4 90  1  0  0  0
  5  6  1  0  0  0
  5 26  1  0  0  0
  5 91  1  0  0  0
  6 25  1  0  0  0
  6 92  1  0  0  0
  6 93  1  0  0  0
  7  8  2  0  0  0
  7 26  1  0  0  0
  7 29  1  0  0  0
  8  9  1  0  0  0
  8 22  1  0  0  0
  9 10  1  0  0  0
  9 27  2  0  0  0
 10 11  2  0  0  0
 10 15  1  0  0  0
 11 12  1  0  0  0
 11 94  1  0  0  0
 12 13  2  0  0  0
 12 95  1  0  0  0
 13 14  1  0  0  0
 13 31  1  0  0  0
 14 15  2  0  0  0
 14 96  1  0  0  0
 15 97  1  0  0  0
 16 17  2  0  0  0
 16 21  1  0  0  0
 16 31  1  0  0  0
 17 18  1  0  0  0
 17 98  1  0  0  0
 18 19  2  0  0  0
 18 99  1  0  0  0
 19 20  1  0  0  0
 19 24  1  0  0  0
 20 21  2  0  0  0
 20100  1  0  0  0
 21 23  1  0  0  0
 22 28  1  0  0  0
 22 32  2  0  0  0
 26 27  1  0  0  0
 28101  1  0  0  0
 28102  1  0  0  0
 29103  1  0  0  0
 29104  1  0  0  0
 33 34  1  0  0  0
 33 66  1  0  0  0
 33 70  2  0  0  0
 34 36  1  0  0  0
 34 59  1  0  0  0
 34105  1  0  0  0
 35 44  2  0  0  0
 35 45  1  0  0  0
 35 68  1  0  0  0
 36 56  1  0  0  0
 36106  1  0  0  0
 37 39  1  0  0  0
 37 47  1  0  0  0
 37 66  1  0  0  0
 37107  1  0  0  0
 38 43  2  0  0  0
 38 46  1  0  0  0
 38 47  1  0  0  0
 39 64  1  0  0  0
 39 67  2  0  0  0
 40 52  1  0  0  0
 40 53  2  0  0  0
 40 58  1  0  0  0
 41108  1  0  0  0
 41109  1  0  0  0
 41110  1  0  0  0
 41 48  1  0  0  0
 42 43  1  0  0  0
 42 66  1  0  0  0
 42111  1  0  0  0
 42112  1  0  0  0
 43 44  1  0  0  0
 44113  1  0  0  0
 45 46  2  0  0  0
 45114  1  0  0  0
 46115  1  0  0  0
 47116  1  0  0  0
 47117  1  0  0  0
 48 56  1  0  0  0
 48 65  1  0  0  0
 48118  1  0  0  0
 49 50  1  0  0  0
 49 53  1  0  0  0
 49 64  1  0  0  0
 49119  1  0  0  0
 50 51  1  0  0  0
 50120  1  0  0  0
 50121  1  0  0  0
 51 52  1  0  0  0
 51122  1  0  0  0
 51123  1  0  0  0
 52124  1  0  0  0
 52125  1  0  0  0
 53 54  1  0  0  0
 54 55  2  0  0  0
 54126  1  0  0  0
 55 57  1  0  0  0
 55127  1  0  0  0
 56 69  2  0  0  0
 57 58  2  0  0  0
 57128  1  0  0  0
 58129  1  0  0  0
 59 60  1  0  0  0
 59 61  1  0  0  0
 59 62  1  0  0  0
 60130  1  0  0  0
 60131  1  0  0  0
 60132  1  0  0  0
 61133  1  0  0  0
 61134  1  0  0  0
 61135  1  0  0  0
 62136  1  0  0  0
 62137  1  0  0  0
 62138  1  0  0  0
 63 65  1  0  0  0
 63139  1  0  0  0
 63140  1  0  0  0
 63141  1  0  0  0
 64142  1  0  0  0
 65143  1  0  0  0
 68 79  1  0  0  0
 71 72  2  0  0  0
 71 74  1  0  0  0
 71144  1  0  0  0
 72 75  1  0  0  0
 72145  1  0  0  0
 73 75  2  0  0  0
 73 76  1  0  0  0
 73146  1  0  0  0
 74 76  2  0  0  0
 74 77  1  0  0  0
 75 80  1  0  0  0
 76 84  1  0  0  0
 77 81  1  0  0  0
 77 82  2  0  0  0
 78 79  1  0  0  0
 78 81  1  0  0  0
 78 83  2  0  0  0
 79147  1  0  0  0
 79148  1  0  0  0
 80149  1  0  0  0
 81150  1  0  0  0
M  ISO  4   1 100  68 101  79 101  80 100
M  END
> <chiral flag>
0

> <version>
0

> <s_m_source_file>
/data/baiqing/PycharmProjects/Reinvent-master-3.2/result/LINK_invent/BTK/process_docking_weight1_custom_product_contain_oxygen_bond_distance_aromatic_linkinvent_7_9_3/rearranged_h_0099.sdf

> <i_m_source_file_index>
86

> <r_mmod_Potential_Energy-OPLS-2005>
-25.2279872894287

> <r_mmod_Stretch_Energy-OPLS-2005>
93.0222396850586

> <r_mmod_Bend_Energy-OPLS-2005>
149.318771362305

> <r_mmod_Torsional_Energy-OPLS-2005>
218.844543457031

> <r_mmod_Improper_Torsional_Energy-OPLS-2005>
5.19262266159058

> <r_mmod_Van_der_Waal_Energy-OPLS-2005>
153.32763671875

> <r_mmod_Electrostatic_Energy-OPLS-2005>
-423.644866943359

> <r_mmod_Solvation_Energy-OPLS-2005>
-280.388793945312

> <b_mmod_Minimization_Converged-OPLS-2005>
0

> <r_mmod_RMS_Derivative-OPLS-2005>
0.22262866795063

$$$$
87
                    3D
 Structure written by MMmdl.
155163  0  0  1  0            999 V2000
  -30.6121  -14.6521   20.4928 C   0  0  0  0  0  0
  -30.4394  -12.3980   19.4553 C   0  0  0  0  0  0
  -29.5100  -12.5121   18.2258 C   0  0  0  0  0  0
  -28.0317  -12.3495   18.6352 C   0  0  0  0  0  0
  -27.6539  -13.2184   19.8643 C   0  0  2  0  0  0
  -28.6978  -13.0711   20.9941 C   0  0  0  0  0  0
  -25.2563  -13.8179   20.5697 C   0  0  0  0  0  0
  -24.1828  -13.0443   20.9199 C   0  0  0  0  0  0
  -24.6396  -11.6911   20.8738 C   0  0  0  0  0  0
  -23.9065  -10.4295   21.0405 C   0  0  0  0  0  0
  -24.3617   -9.4208   21.9182 C   0  0  0  0  0  0
  -23.6294   -8.2242   22.0751 C   0  0  0  0  0  0
  -22.4274   -8.0283   21.3543 C   0  0  0  0  0  0
  -21.9910   -9.0258   20.4646 C   0  0  0  0  0  0
  -22.7236  -10.2138   20.3054 C   0  0  0  0  0  0
  -21.6854   -6.0738   22.5281 C   0  0  0  0  0  0
  -21.4014   -6.5638   23.8215 C   0  0  0  0  0  0
  -21.3657   -5.6790   24.9174 C   0  0  0  0  0  0
  -21.6042   -4.3053   24.7224 C   0  0  0  0  0  0
  -21.8816   -3.8148   23.4343 C   0  0  0  0  0  0
  -21.9193   -4.6966   22.3402 C   0  0  0  0  0  0
  -22.7850  -13.5237   21.1856 C   0  0  0  0  0  0
  -22.1661   -4.2152   21.0980 F   0  0  0  0  0  0
  -21.5628   -3.4533   25.7734 F   0  0  0  0  0  0
  -30.0131  -13.4195   20.4334 N   0  0  0  0  0  0
  -26.2989  -12.9363   20.3318 N   0  0  0  0  0  0
  -25.9325  -11.6515   20.5749 N   0  0  0  0  0  0
  -22.0486  -12.8232   22.0409 N   0  0  0  0  0  0
  -25.4274  -15.1901   20.4116 N   0  0  0  0  0  0
  -31.7751  -14.8102   20.1123 O   0  0  0  0  0  0
  -21.6636   -6.8881   21.4244 O   0  0  0  0  0  0
  -22.3536  -14.5541   20.6700 O   0  0  0  0  0  0
  -24.6263  -31.8601   23.2019 C   0  0  0  0  0  0
  -25.9111  -32.4780   23.8352 C   0  0  1  0  0  0
  -27.2231  -27.3175   20.1263 C   0  0  0  0  0  0
  -25.5932  -33.8581   24.2278 N   0  0  0  0  0  0
  -23.4206  -30.4823   21.5444 C   0  0  2  0  0  0
  -24.8683  -28.9358   20.1124 C   0  0  0  0  0  0
  -22.7480  -29.4620   22.4936 C   0  0  0  0  0  0
  -18.0288  -28.1385   22.8486 C   0  0  0  0  0  0
  -24.1489  -36.7285   23.2632 C   0  0  0  0  0  0
  -25.9616  -30.7913   21.3732 C   0  0  0  0  0  0
  -26.0368  -29.4173   20.7171 C   0  0  0  0  0  0
  -27.2203  -28.6207   20.7115 C   0  0  0  0  0  0
  -26.0373  -26.8902   19.4911 C   0  0  0  0  0  0
  -24.8706  -27.6780   19.4887 C   0  0  0  0  0  0
  -23.6359  -29.8159   20.1602 C   0  0  0  0  0  0
  -25.4109  -36.3082   24.0331 C   0  0  1  0  0  0
  -20.5889  -28.3688   23.1286 C   0  0  2  0  0  0
  -20.6773  -26.9411   22.5415 C   0  0  0  0  0  0
  -19.5751  -26.6388   21.5212 C   0  0  0  0  0  0
  -18.1930  -26.7929   22.1623 C   0  0  0  0  0  0
  -19.1540  -28.8854   23.2878 C   0  0  0  0  0  0
  -18.9462  -30.1458   23.8893 C   0  0  0  0  0  0
  -17.6460  -30.6586   24.0563 C   0  0  0  0  0  0
  -25.9056  -34.9453   23.5103 C   0  0  0  0  0  0
  -16.5352  -29.9082   23.6332 C   0  0  0  0  0  0
  -16.7278  -28.6502   23.0350 C   0  0  0  0  0  0
  -26.4493  -31.6587   25.0720 C   0  0  0  0  0  0
  -25.3728  -31.3736   26.1451 C   0  0  0  0  0  0
  -27.0324  -30.3008   24.6174 C   0  0  0  0  0  0
  -27.6064  -32.4315   25.7484 C   0  0  0  0  0  0
  -27.5596  -37.1773   24.8444 C   0  0  0  0  0  0
  -21.4193  -29.3037   22.3678 N   0  0  0  0  0  0
  -26.4276  -37.3790   23.9438 N   0  0  0  0  0  0
  -24.6882  -31.0614   22.0967 N   0  0  0  0  0  0
  -23.4204  -28.8165   23.3019 O   0  0  0  0  0  0
  -28.3269  -26.4548   20.1509 O   0  0  0  0  0  0
  -26.5621  -34.8926   22.4670 O   0  0  0  0  0  0
  -23.5426  -32.1394   23.7349 O   0  0  0  0  0  0
  -28.9715  -19.4203   21.2756 C   0  0  0  0  0  0
  -29.0628  -18.0071   21.5048 C   0  0  0  0  0  0
  -29.8280  -17.1416   20.6605 C   0  0  0  0  0  0
  -30.3778  -19.1874   19.3437 C   0  0  0  0  0  0
  -29.6272  -20.0540   20.1873 C   0  0  0  0  0  0
  -30.4784  -17.7761   19.5643 C   0  0  0  0  0  0
  -28.9602  -23.9116   20.0578 C   0  0  0  0  0  0
  -28.3078  -17.4182   22.6855 C   0  0  0  0  0  0
  -28.0728  -25.0771   20.6523 C   0  0  0  0  0  0
  -28.8104  -22.4308   20.6181 C   0  0  0  0  0  0
  -31.0320  -19.7460   18.2433 N   0  0  0  0  0  0
  -29.8107  -15.6885   20.9004 N   0  0  0  0  0  0
  -29.7702  -24.1538   19.1548 O   0  0  0  0  0  0
  -29.5954  -21.4356   19.8760 O   0  0  0  0  0  0
  -31.1764  -17.0388   18.6661 F   0  0  0  0  0  0
  -31.4806  -12.5252   19.1532 H   0  0  0  0  0  0
  -30.3760  -11.4019   19.8960 H   0  0  0  0  0  0
  -29.7764  -11.7620   17.4796 H   0  0  0  0  0  0
  -29.6528  -13.4824   17.7471 H   0  0  0  0  0  0
  -27.8666  -11.2962   18.8642 H   0  0  0  0  0  0
  -27.3793  -12.5834   17.7931 H   0  0  0  0  0  0
  -27.6725  -14.2543   19.5254 H   0  0  0  0  0  0
  -28.7120  -12.0474   21.3714 H   0  0  0  0  0  0
  -28.4400  -13.6983   21.8489 H   0  0  0  0  0  0
  -25.2764   -9.5686   22.4751 H   0  0  0  0  0  0
  -24.0007   -7.4634   22.7463 H   0  0  0  0  0  0
  -21.0843   -8.8773   19.8955 H   0  0  0  0  0  0
  -22.3693  -10.9674   19.6158 H   0  0  0  0  0  0
  -21.2004   -7.6147   23.9719 H   0  0  0  0  0  0
  -21.1481   -6.0518   25.9078 H   0  0  0  0  0  0
  -22.0596   -2.7612   23.2838 H   0  0  0  0  0  0
  -22.4087  -11.9892   22.4809 H   0  0  0  0  0  0
  -21.1102  -13.1266   22.2603 H   0  0  0  0  0  0
  -24.6569  -15.8414   20.5141 H   0  0  0  0  0  0
  -26.2704  -15.6289   20.0648 H   0  0  0  0  0  0
  -26.7181  -32.5452   23.1101 H   0  0  0  0  0  0
  -25.0093  -33.9729   25.0433 H   0  0  0  0  0  0
  -22.7138  -31.3023   21.4012 H   0  0  0  0  0  0
  -23.3775  -35.9590   23.3245 H   0  0  0  0  0  0
  -24.3602  -36.8952   22.2058 H   0  0  0  0  0  0
  -23.7206  -37.6458   23.6678 H   0  0  0  0  0  0
  -26.0936  -31.5552   20.6055 H   0  0  0  0  0  0
  -26.8410  -30.8399   22.0035 H   0  0  0  0  0  0
  -28.1179  -28.9853   21.1909 H   0  0  0  0  0  0
  -26.0027  -25.9302   18.9965 H   0  0  0  0  0  0
  -23.9772  -27.3066   19.0056 H   0  0  0  0  0  0
  -23.7544  -30.5914   19.4025 H   0  0  0  0  0  0
  -22.7563  -29.2440   19.8591 H   0  0  0  0  0  0
  -25.1279  -36.1918   25.0819 H   0  0  0  0  0  0
  -20.9980  -28.3263   24.1408 H   0  0  0  0  0  0
  -20.5676  -26.2298   23.3615 H   0  0  0  0  0  0
  -21.6643  -26.7443   22.1215 H   0  0  0  0  0  0
  -19.6914  -25.6299   21.1245 H   0  0  0  0  0  0
  -19.6694  -27.3195   20.6739 H   0  0  0  0  0  0
  -17.4208  -26.6688   21.4014 H   0  0  0  0  0  0
  -18.0321  -26.0069   22.9017 H   0  0  0  0  0  0
  -19.7937  -30.7274   24.2258 H   0  0  0  0  0  0
  -17.5016  -31.6265   24.5167 H   0  0  0  0  0  0
  -15.5349  -30.2981   23.7660 H   0  0  0  0  0  0
  -15.8679  -28.0822   22.7059 H   0  0  0  0  0  0
  -24.5905  -30.7074   25.7789 H   0  0  0  0  0  0
  -24.8909  -32.2905   26.4856 H   0  0  0  0  0  0
  -25.8055  -30.8939   27.0239 H   0  0  0  0  0  0
  -26.2889  -29.6769   24.1196 H   0  0  0  0  0  0
  -27.4011  -29.7254   25.4676 H   0  0  0  0  0  0
  -27.8769  -30.4286   23.9397 H   0  0  0  0  0  0
  -27.2684  -33.3617   26.2063 H   0  0  0  0  0  0
  -28.3866  -32.6870   25.0301 H   0  0  0  0  0  0
  -28.0737  -31.8436   26.5394 H   0  0  0  0  0  0
  -28.2535  -38.0150   24.7617 H   0  0  0  0  0  0
  -28.1169  -36.2690   24.6094 H   0  0  0  0  0  0
  -27.2347  -37.1213   25.8849 H   0  0  0  0  0  0
  -20.9369  -29.8754   21.6885 H   0  0  0  0  0  0
  -26.0149  -38.2846   24.1516 H   0  0  0  0  0  0
  -28.3788  -20.0222   21.9493 H   0  0  0  0  0  0
  -27.8550  -18.1943   23.3031 H   0  0  0  0  0  0
  -28.9803  -16.8413   23.3211 H   0  0  0  0  0  0
  -27.5105  -16.7589   22.3407 H   0  0  0  0  0  0
  -28.2298  -25.0897   21.7310 H   0  0  0  0  0  0
  -27.0326  -24.7873   20.5115 H   0  0  0  0  0  0
  -27.7572  -22.1502   20.5954 H   0  0  0  0  0  0
  -29.1233  -22.4241   21.6624 H   0  0  0  0  0  0
  -31.2162  -20.7422   18.2938 H   0  0  0  0  0  0
  -31.7998  -19.2064   17.8581 H   0  0  0  0  0  0
  -28.9762  -15.3623   21.3598 H   0  0  0  0  0  0
  1 25  1  0  0  0
  1 30  2  0  0  0
  1 82  1  0  0  0
  2  3  1  0  0  0
  2 25  1  0  0  0
  2 86  1  0  0  0
  2 87  1  0  0  0
  3  4  1  0  0  0
  3 88  1  0  0  0
  3 89  1  0  0  0
  4  5  1  0  0  0
  4 90  1  0  0  0
  4 91  1  0  0  0
  5  6  1  0  0  0
  5 26  1  0  0  0
  5 92  1  0  0  0
  6 25  1  0  0  0
  6 93  1  0  0  0
  6 94  1  0  0  0
  7  8  2  0  0  0
  7 26  1  0  0  0
  7 29  1  0  0  0
  8  9  1  0  0  0
  8 22  1  0  0  0
  9 10  1  0  0  0
  9 27  2  0  0  0
 10 11  2  0  0  0
 10 15  1  0  0  0
 11 12  1  0  0  0
 11 95  1  0  0  0
 12 13  2  0  0  0
 12 96  1  0  0  0
 13 14  1  0  0  0
 13 31  1  0  0  0
 14 15  2  0  0  0
 14 97  1  0  0  0
 15 98  1  0  0  0
 16 17  2  0  0  0
 16 21  1  0  0  0
 16 31  1  0  0  0
 17 18  1  0  0  0
 17 99  1  0  0  0
 18 19  2  0  0  0
 18100  1  0  0  0
 19 20  1  0  0  0
 19 24  1  0  0  0
 20 21  2  0  0  0
 20101  1  0  0  0
 21 23  1  0  0  0
 22 28  1  0  0  0
 22 32  2  0  0  0
 26 27  1  0  0  0
 28102  1  0  0  0
 28103  1  0  0  0
 29104  1  0  0  0
 29105  1  0  0  0
 33 34  1  0  0  0
 33 66  1  0  0  0
 33 70  2  0  0  0
 34 36  1  0  0  0
 34 59  1  0  0  0
 34106  1  0  0  0
 35 44  2  0  0  0
 35 45  1  0  0  0
 35 68  1  0  0  0
 36 56  1  0  0  0
 36107  1  0  0  0
 37 39  1  0  0  0
 37 47  1  0  0  0
 37 66  1  0  0  0
 37108  1  0  0  0
 38 43  2  0  0  0
 38 46  1  0  0  0
 38 47  1  0  0  0
 39 64  1  0  0  0
 39 67  2  0  0  0
 40 52  1  0  0  0
 40 53  2  0  0  0
 40 58  1  0  0  0
 41109  1  0  0  0
 41110  1  0  0  0
 41111  1  0  0  0
 41 48  1  0  0  0
 42 43  1  0  0  0
 42 66  1  0  0  0
 42112  1  0  0  0
 42113  1  0  0  0
 43 44  1  0  0  0
 44114  1  0  0  0
 45 46  2  0  0  0
 45115  1  0  0  0
 46116  1  0  0  0
 47117  1  0  0  0
 47118  1  0  0  0
 48 56  1  0  0  0
 48 65  1  0  0  0
 48119  1  0  0  0
 49 50  1  0  0  0
 49 53  1  0  0  0
 49 64  1  0  0  0
 49120  1  0  0  0
 50 51  1  0  0  0
 50121  1  0  0  0
 50122  1  0  0  0
 51 52  1  0  0  0
 51123  1  0  0  0
 51124  1  0  0  0
 52125  1  0  0  0
 52126  1  0  0  0
 53 54  1  0  0  0
 54 55  2  0  0  0
 54127  1  0  0  0
 55 57  1  0  0  0
 55128  1  0  0  0
 56 69  2  0  0  0
 57 58  2  0  0  0
 57129  1  0  0  0
 58130  1  0  0  0
 59 60  1  0  0  0
 59 61  1  0  0  0
 59 62  1  0  0  0
 60131  1  0  0  0
 60132  1  0  0  0
 60133  1  0  0  0
 61134  1  0  0  0
 61135  1  0  0  0
 61136  1  0  0  0
 62137  1  0  0  0
 62138  1  0  0  0
 62139  1  0  0  0
 63 65  1  0  0  0
 63140  1  0  0  0
 63141  1  0  0  0
 63142  1  0  0  0
 64143  1  0  0  0
 65144  1  0  0  0
 68 79  1  0  0  0
 71 72  2  0  0  0
 71 75  1  0  0  0
 71145  1  0  0  0
 72 73  1  0  0  0
 72 78  1  0  0  0
 73 76  2  0  0  0
 73 82  1  0  0  0
 74 75  2  0  0  0
 74 76  1  0  0  0
 74 81  1  0  0  0
 75 84  1  0  0  0
 76 85  1  0  0  0
 77 79  1  0  0  0
 77 80  1  0  0  0
 77 83  2  0  0  0
 78146  1  0  0  0
 78147  1  0  0  0
 78148  1  0  0  0
 79149  1  0  0  0
 79150  1  0  0  0
 80 84  1  0  0  0
 80151  1  0  0  0
 80152  1  0  0  0
 81153  1  0  0  0
 81154  1  0  0  0
 82155  1  0  0  0
M  ISO  4   1 100  68 101  79 101  82 100
M  END
> <chiral flag>
0

> <version>
0

> <s_m_source_file>
/data/baiqing/PycharmProjects/Reinvent-master-3.2/result/LINK_invent/BTK/process_docking_weight1_custom_product_contain_oxygen_bond_distance_aromatic_linkinvent_7_9_3/rearranged_h_0099.sdf

> <i_m_source_file_index>
87

> <r_mmod_Potential_Energy-OPLS-2005>
72.6682739257812

> <r_mmod_Stretch_Energy-OPLS-2005>
85.4037704467773

> <r_mmod_Bend_Energy-OPLS-2005>
143.458602905273

> <r_mmod_Torsional_Energy-OPLS-2005>
234.804931640625

> <r_mmod_Improper_Torsional_Energy-OPLS-2005>
7.07655906677246

> <r_mmod_Van_der_Waal_Energy-OPLS-2005>
141.839309692383

> <r_mmod_Electrostatic_Energy-OPLS-2005>
-333.733856201172

> <r_mmod_Solvation_Energy-OPLS-2005>
-257.344451904297

> <b_mmod_Minimization_Converged-OPLS-2005>
0

> <r_mmod_RMS_Derivative-OPLS-2005>
0.777551352977753

$$$$
88
                    3D
 Structure written by MMmdl.
154162  0  0  1  0            999 V2000
  -30.7075  -14.6322   20.5251 C   0  0  0  0  0  0
  -30.4173  -12.4141   19.4362 C   0  0  0  0  0  0
  -29.4875  -12.5072   18.2098 C   0  0  0  0  0  0
  -28.0194  -12.3331   18.6407 C   0  0  0  0  0  0
  -27.6434  -13.2299   19.8522 C   0  0  2  0  0  0
  -28.6972  -13.1462   20.9789 C   0  0  0  0  0  0
  -25.2534  -13.8217   20.5715 C   0  0  0  0  0  0
  -24.1815  -13.0446   20.9228 C   0  0  0  0  0  0
  -24.6409  -11.6932   20.8767 C   0  0  0  0  0  0
  -23.9091  -10.4298   21.0414 C   0  0  0  0  0  0
  -24.3630   -9.4212   21.9191 C   0  0  0  0  0  0
  -23.6301   -8.2255   22.0765 C   0  0  0  0  0  0
  -22.4284   -8.0297   21.3558 C   0  0  0  0  0  0
  -21.9923   -9.0272   20.4657 C   0  0  0  0  0  0
  -22.7266  -10.2147   20.3069 C   0  0  0  0  0  0
  -21.6845   -6.0745   22.5282 C   0  0  0  0  0  0
  -21.4005   -6.5646   23.8214 C   0  0  0  0  0  0
  -21.3660   -5.6803   24.9173 C   0  0  0  0  0  0
  -21.6037   -4.3062   24.7226 C   0  0  0  0  0  0
  -21.8820   -3.8156   23.4343 C   0  0  0  0  0  0
  -21.9193   -4.6973   22.3400 C   0  0  0  0  0  0
  -22.7838  -13.5227   21.1873 C   0  0  0  0  0  0
  -22.1665   -4.2160   21.0980 F   0  0  0  0  0  0
  -21.5629   -3.4549   25.7740 F   0  0  0  0  0  0
  -29.9982  -13.4675   20.3831 N   0  0  0  0  0  0
  -26.2955  -12.9416   20.3323 N   0  0  0  0  0  0
  -25.9341  -11.6556   20.5778 N   0  0  0  0  0  0
  -22.0499  -12.8194   22.0436 N   0  0  0  0  0  0
  -25.4225  -15.1934   20.4145 N   0  0  0  0  0  0
  -31.9009  -14.6573   20.2174 O   0  0  0  0  0  0
  -21.6645   -6.8900   21.4250 O   0  0  0  0  0  0
  -22.3521  -14.5535   20.6749 O   0  0  0  0  0  0
  -24.6289  -31.8553   23.1989 C   0  0  0  0  0  0
  -25.9108  -32.4766   23.8331 C   0  0  1  0  0  0
  -27.2348  -27.2916   20.1029 C   0  0  0  0  0  0
  -25.5883  -33.8565   24.2237 N   0  0  0  0  0  0
  -23.4260  -30.4766   21.5426 C   0  0  2  0  0  0
  -24.8775  -28.9289   20.1095 C   0  0  0  0  0  0
  -22.7495  -29.4610   22.4944 C   0  0  0  0  0  0
  -18.0274  -28.1409   22.8476 C   0  0  0  0  0  0
  -24.1474  -36.7301   23.2640 C   0  0  0  0  0  0
  -25.9697  -30.7702   21.3825 C   0  0  0  0  0  0
  -26.0457  -29.3945   20.7268 C   0  0  0  0  0  0
  -27.2241  -28.5826   20.7238 C   0  0  0  0  0  0
  -26.0440  -26.8986   19.4466 C   0  0  0  0  0  0
  -24.8787  -27.6873   19.4615 C   0  0  0  0  0  0
  -23.6423  -29.8081   20.1599 C   0  0  0  0  0  0
  -25.4099  -36.3075   24.0321 C   0  0  1  0  0  0
  -20.5882  -28.3716   23.1283 C   0  0  2  0  0  0
  -20.6783  -26.9449   22.5411 C   0  0  0  0  0  0
  -19.5750  -26.6403   21.5225 C   0  0  0  0  0  0
  -18.1911  -26.7943   22.1629 C   0  0  0  0  0  0
  -19.1537  -28.8882   23.2859 C   0  0  0  0  0  0
  -18.9460  -30.1463   23.8900 C   0  0  0  0  0  0
  -17.6470  -30.6617   24.0569 C   0  0  0  0  0  0
  -25.9046  -34.9448   23.5085 C   0  0  0  0  0  0
  -16.5350  -29.9125   23.6340 C   0  0  0  0  0  0
  -16.7268  -28.6538   23.0375 C   0  0  0  0  0  0
  -26.4487  -31.6601   25.0719 C   0  0  0  0  0  0
  -25.3709  -31.3737   26.1438 C   0  0  0  0  0  0
  -27.0350  -30.3011   24.6228 C   0  0  0  0  0  0
  -27.6033  -32.4357   25.7489 C   0  0  0  0  0  0
  -27.5570  -37.1787   24.8445 C   0  0  0  0  0  0
  -21.4211  -29.3043   22.3678 N   0  0  0  0  0  0
  -26.4266  -37.3776   23.9414 N   0  0  0  0  0  0
  -24.6922  -31.0507   22.0987 N   0  0  0  0  0  0
  -23.4190  -28.8166   23.3055 O   0  0  0  0  0  0
  -28.3517  -26.4269   20.1541 O   0  0  0  0  0  0
  -26.5659  -34.8925   22.4683 O   0  0  0  0  0  0
  -23.5428  -32.1382   23.7282 O   0  0  0  0  0  0
  -29.2323  -20.0915   19.0822 C   0  0  0  0  0  0
  -29.6792  -20.8115   21.3219 C   0  0  0  0  0  0
  -29.9728  -18.3819   20.7399 C   0  0  0  0  0  0
  -29.5648  -18.7367   19.4158 C   0  0  0  0  0  0
  -29.2907  -21.1726   20.0076 C   0  0  0  0  0  0
  -29.9986  -19.4639   21.6786 C   0  0  0  0  0  0
  -30.5813  -17.0057   21.1168 C   0  0  0  0  0  0
  -29.5119  -17.6935   18.3021 C   0  0  0  0  0  0
  -29.2060  -23.8435   20.1873 C   0  0  0  0  0  0
  -28.2042  -25.0075   19.7225 C   0  0  0  0  0  0
  -28.9348  -22.4984   19.5682 N   0  0  0  0  0  0
  -30.0219  -15.8035   20.7484 N   0  0  0  0  0  0
  -31.6176  -17.0309   21.7944 O   0  0  0  0  0  0
  -30.3542  -19.2289   22.9658 F   0  0  0  0  0  0
  -31.4553  -12.5194   19.1169 H   0  0  0  0  0  0
  -30.3463  -11.4317   19.9045 H   0  0  0  0  0  0
  -29.7540  -11.7482   17.4730 H   0  0  0  0  0  0
  -29.6148  -13.4709   17.7164 H   0  0  0  0  0  0
  -27.8789  -11.2849   18.9001 H   0  0  0  0  0  0
  -27.3500  -12.5280   17.8019 H   0  0  0  0  0  0
  -27.6442  -14.2547   19.4835 H   0  0  0  0  0  0
  -28.7198  -12.1473   21.4165 H   0  0  0  0  0  0
  -28.4527  -13.8339   21.7908 H   0  0  0  0  0  0
  -25.2765   -9.5674   22.4776 H   0  0  0  0  0  0
  -24.0001   -7.4638   22.7486 H   0  0  0  0  0  0
  -21.0851   -8.8803   19.8957 H   0  0  0  0  0  0
  -22.3729  -10.9699   19.6188 H   0  0  0  0  0  0
  -21.2001   -7.6154   23.9716 H   0  0  0  0  0  0
  -21.1475   -6.0534   25.9079 H   0  0  0  0  0  0
  -22.0596   -2.7618   23.2844 H   0  0  0  0  0  0
  -22.4123  -11.9817   22.4733 H   0  0  0  0  0  0
  -21.1148  -13.1234   22.2731 H   0  0  0  0  0  0
  -24.6531  -15.8460   20.5216 H   0  0  0  0  0  0
  -26.2712  -15.6343   20.0834 H   0  0  0  0  0  0
  -26.7197  -32.5431   23.1103 H   0  0  0  0  0  0
  -24.9940  -33.9679   25.0323 H   0  0  0  0  0  0
  -22.7205  -31.2970   21.3971 H   0  0  0  0  0  0
  -23.3732  -35.9633   23.3272 H   0  0  0  0  0  0
  -24.3541  -36.8974   22.2058 H   0  0  0  0  0  0
  -23.7237  -37.6476   23.6729 H   0  0  0  0  0  0
  -26.0971  -31.5257   20.6062 H   0  0  0  0  0  0
  -26.8497  -30.8226   22.0123 H   0  0  0  0  0  0
  -28.1143  -28.9219   21.2329 H   0  0  0  0  0  0
  -25.9757  -25.9668   18.9069 H   0  0  0  0  0  0
  -23.9920  -27.3290   18.9567 H   0  0  0  0  0  0
  -23.7520  -30.5784   19.3950 H   0  0  0  0  0  0
  -22.7633  -29.2304   19.8680 H   0  0  0  0  0  0
  -25.1283  -36.1894   25.0809 H   0  0  0  0  0  0
  -20.9960  -28.3345   24.1427 H   0  0  0  0  0  0
  -20.5735  -26.2338   23.3614 H   0  0  0  0  0  0
  -21.6642  -26.7524   22.1185 H   0  0  0  0  0  0
  -19.6922  -25.6310   21.1273 H   0  0  0  0  0  0
  -19.6681  -27.3205   20.6746 H   0  0  0  0  0  0
  -17.4182  -26.6661   21.4040 H   0  0  0  0  0  0
  -18.0308  -26.0093   22.9038 H   0  0  0  0  0  0
  -19.7942  -30.7243   24.2314 H   0  0  0  0  0  0
  -17.5040  -31.6319   24.5149 H   0  0  0  0  0  0
  -15.5363  -30.3053   23.7675 H   0  0  0  0  0  0
  -15.8645  -28.0875   22.7135 H   0  0  0  0  0  0
  -24.5899  -30.7084   25.7745 H   0  0  0  0  0  0
  -24.8883  -32.2887   26.4882 H   0  0  0  0  0  0
  -25.8003  -30.8895   27.0219 H   0  0  0  0  0  0
  -26.2941  -29.6726   24.1278 H   0  0  0  0  0  0
  -27.4029  -29.7308   25.4763 H   0  0  0  0  0  0
  -27.8826  -30.4247   23.9484 H   0  0  0  0  0  0
  -27.2678  -33.3724   26.1973 H   0  0  0  0  0  0
  -28.3919  -32.6815   25.0360 H   0  0  0  0  0  0
  -28.0631  -31.8529   26.5483 H   0  0  0  0  0  0
  -28.2556  -38.0117   24.7557 H   0  0  0  0  0  0
  -28.1108  -36.2643   24.6223 H   0  0  0  0  0  0
  -27.2275  -37.1393   25.8841 H   0  0  0  0  0  0
  -20.9420  -29.8712   21.6837 H   0  0  0  0  0  0
  -26.0137  -38.2841   24.1447 H   0  0  0  0  0  0
  -28.9467  -20.3013   18.0615 H   0  0  0  0  0  0
  -29.7422  -21.5698   22.0876 H   0  0  0  0  0  0
  -29.2242  -18.1355   17.3481 H   0  0  0  0  0  0
  -28.7725  -16.9271   18.5379 H   0  0  0  0  0  0
  -30.4788  -17.2055   18.1604 H   0  0  0  0  0  0
  -29.2142  -23.7642   21.2759 H   0  0  0  0  0  0
  -30.2186  -24.1321   19.8935 H   0  0  0  0  0  0
  -27.2153  -24.6442   20.0066 H   0  0  0  0  0  0
  -28.2294  -25.0297   18.6309 H   0  0  0  0  0  0
  -28.6368  -22.5587   18.5961 H   0  0  0  0  0  0
  -29.0390  -15.7995   20.5433 H   0  0  0  0  0  0
  1 25  1  0  0  0
  1 30  2  0  0  0
  1 82  1  0  0  0
  2  3  1  0  0  0
  2 25  1  0  0  0
  2 85  1  0  0  0
  2 86  1  0  0  0
  3  4  1  0  0  0
  3 87  1  0  0  0
  3 88  1  0  0  0
  4  5  1  0  0  0
  4 89  1  0  0  0
  4 90  1  0  0  0
  5  6  1  0  0  0
  5 26  1  0  0  0
  5 91  1  0  0  0
  6 25  1  0  0  0
  6 92  1  0  0  0
  6 93  1  0  0  0
  7  8  2  0  0  0
  7 26  1  0  0  0
  7 29  1  0  0  0
  8  9  1  0  0  0
  8 22  1  0  0  0
  9 10  1  0  0  0
  9 27  2  0  0  0
 10 11  2  0  0  0
 10 15  1  0  0  0
 11 12  1  0  0  0
 11 94  1  0  0  0
 12 13  2  0  0  0
 12 95  1  0  0  0
 13 14  1  0  0  0
 13 31  1  0  0  0
 14 15  2  0  0  0
 14 96  1  0  0  0
 15 97  1  0  0  0
 16 17  2  0  0  0
 16 21  1  0  0  0
 16 31  1  0  0  0
 17 18  1  0  0  0
 17 98  1  0  0  0
 18 19  2  0  0  0
 18 99  1  0  0  0
 19 20  1  0  0  0
 19 24  1  0  0  0
 20 21  2  0  0  0
 20100  1  0  0  0
 21 23  1  0  0  0
 22 28  1  0  0  0
 22 32  2  0  0  0
 26 27  1  0  0  0
 28101  1  0  0  0
 28102  1  0  0  0
 29103  1  0  0  0
 29104  1  0  0  0
 33 34  1  0  0  0
 33 66  1  0  0  0
 33 70  2  0  0  0
 34 36  1  0  0  0
 34 59  1  0  0  0
 34105  1  0  0  0
 35 44  2  0  0  0
 35 45  1  0  0  0
 35 68  1  0  0  0
 36 56  1  0  0  0
 36106  1  0  0  0
 37 39  1  0  0  0
 37 47  1  0  0  0
 37 66  1  0  0  0
 37107  1  0  0  0
 38 43  2  0  0  0
 38 46  1  0  0  0
 38 47  1  0  0  0
 39 64  1  0  0  0
 39 67  2  0  0  0
 40 52  1  0  0  0
 40 53  2  0  0  0
 40 58  1  0  0  0
 41108  1  0  0  0
 41109  1  0  0  0
 41110  1  0  0  0
 41 48  1  0  0  0
 42 43  1  0  0  0
 42 66  1  0  0  0
 42111  1  0  0  0
 42112  1  0  0  0
 43 44  1  0  0  0
 44113  1  0  0  0
 45 46  2  0  0  0
 45114  1  0  0  0
 46115  1  0  0  0
 47116  1  0  0  0
 47117  1  0  0  0
 48 56  1  0  0  0
 48 65  1  0  0  0
 48118  1  0  0  0
 49 50  1  0  0  0
 49 53  1  0  0  0
 49 64  1  0  0  0
 49119  1  0  0  0
 50 51  1  0  0  0
 50120  1  0  0  0
 50121  1  0  0  0
 51 52  1  0  0  0
 51122  1  0  0  0
 51123  1  0  0  0
 52124  1  0  0  0
 52125  1  0  0  0
 53 54  1  0  0  0
 54 55  2  0  0  0
 54126  1  0  0  0
 55 57  1  0  0  0
 55127  1  0  0  0
 56 69  2  0  0  0
 57 58  2  0  0  0
 57128  1  0  0  0
 58129  1  0  0  0
 59 60  1  0  0  0
 59 61  1  0  0  0
 59 62  1  0  0  0
 60130  1  0  0  0
 60131  1  0  0  0
 60132  1  0  0  0
 61133  1  0  0  0
 61134  1  0  0  0
 61135  1  0  0  0
 62136  1  0  0  0
 62137  1  0  0  0
 62138  1  0  0  0
 63 65  1  0  0  0
 63139  1  0  0  0
 63140  1  0  0  0
 63141  1  0  0  0
 64142  1  0  0  0
 65143  1  0  0  0
 68 80  1  0  0  0
 71 74  2  0  0  0
 71 75  1  0  0  0
 71144  1  0  0  0
 72 75  2  0  0  0
 72 76  1  0  0  0
 72145  1  0  0  0
 73 74  1  0  0  0
 73 76  2  0  0  0
 73 77  1  0  0  0
 74 78  1  0  0  0
 75 81  1  0  0  0
 76 84  1  0  0  0
 77 82  1  0  0  0
 77 83  2  0  0  0
 78146  1  0  0  0
 78147  1  0  0  0
 78148  1  0  0  0
 79 80  1  0  0  0
 79 81  1  0  0  0
 79149  1  0  0  0
 79150  1  0  0  0
 80151  1  0  0  0
 80152  1  0  0  0
 81153  1  0  0  0
 82154  1  0  0  0
M  ISO  4   1 100  68 101  80 101  82 100
M  END
> <chiral flag>
0

> <version>
0

> <s_m_source_file>
/data/baiqing/PycharmProjects/Reinvent-master-3.2/result/LINK_invent/BTK/process_docking_weight1_custom_product_contain_oxygen_bond_distance_aromatic_linkinvent_7_9_3/rearranged_h_0099.sdf

> <i_m_source_file_index>
88

> <r_mmod_Potential_Energy-OPLS-2005>
125.962707519531

> <r_mmod_Stretch_Energy-OPLS-2005>
88.2909393310547

> <r_mmod_Bend_Energy-OPLS-2005>
164.829193115234

> <r_mmod_Torsional_Energy-OPLS-2005>
232.445175170898

> <r_mmod_Improper_Torsional_Energy-OPLS-2005>
7.8315486907959

> <r_mmod_Van_der_Waal_Energy-OPLS-2005>
153.54670715332

> <r_mmod_Electrostatic_Energy-OPLS-2005>
-343.754821777344

> <r_mmod_Solvation_Energy-OPLS-2005>
-237.204284667969

> <b_mmod_Minimization_Converged-OPLS-2005>
0

> <r_mmod_RMS_Derivative-OPLS-2005>
4.08067464828491

$$$$
89
                    3D
 Structure written by MMmdl.
157166  0  0  1  0            999 V2000
  -30.6283  -14.5639   20.5424 C   0  0  0  0  0  0
  -30.4439  -12.3544   19.4282 C   0  0  0  0  0  0
  -29.5046  -12.5127   18.2118 C   0  0  0  0  0  0
  -28.0250  -12.3616   18.6235 C   0  0  0  0  0  0
  -27.6628  -13.2043   19.8750 C   0  0  2  0  0  0
  -28.7077  -12.9885   20.9932 C   0  0  0  0  0  0
  -25.2606  -13.8147   20.5692 C   0  0  0  0  0  0
  -24.1850  -13.0429   20.9171 C   0  0  0  0  0  0
  -24.6398  -11.6894   20.8729 C   0  0  0  0  0  0
  -23.9056  -10.4290   21.0397 C   0  0  0  0  0  0
  -24.3608   -9.4207   21.9176 C   0  0  0  0  0  0
  -23.6286   -8.2244   22.0753 C   0  0  0  0  0  0
  -22.4267   -8.0281   21.3544 C   0  0  0  0  0  0
  -21.9895   -9.0251   20.4645 C   0  0  0  0  0  0
  -22.7226  -10.2129   20.3050 C   0  0  0  0  0  0
  -21.6849   -6.0727   22.5277 C   0  0  0  0  0  0
  -21.4008   -6.5631   23.8210 C   0  0  0  0  0  0
  -21.3661   -5.6785   24.9170 C   0  0  0  0  0  0
  -21.6050   -4.3052   24.7223 C   0  0  0  0  0  0
  -21.8820   -3.8138   23.4346 C   0  0  0  0  0  0
  -21.9194   -4.6956   22.3402 C   0  0  0  0  0  0
  -22.7876  -13.5235   21.1834 C   0  0  0  0  0  0
  -22.1668   -4.2143   21.0979 F   0  0  0  0  0  0
  -21.5629   -3.4539   25.7740 F   0  0  0  0  0  0
  -30.0310  -13.3376   20.4445 N   0  0  0  0  0  0
  -26.3036  -12.9306   20.3356 N   0  0  0  0  0  0
  -25.9321  -11.6473   20.5743 N   0  0  0  0  0  0
  -22.0507  -12.8237   22.0393 N   0  0  0  0  0  0
  -25.4322  -15.1867   20.4130 N   0  0  0  0  0  0
  -31.7591  -14.7845   20.0970 O   0  0  0  0  0  0
  -21.6638   -6.8873   21.4244 O   0  0  0  0  0  0
  -22.3577  -14.5552   20.6692 O   0  0  0  0  0  0
  -24.6197  -31.8645   23.2046 C   0  0  0  0  0  0
  -25.9061  -32.4804   23.8383 C   0  0  1  0  0  0
  -27.2346  -27.3834   20.1083 C   0  0  0  0  0  0
  -25.5887  -33.8599   24.2307 N   0  0  0  0  0  0
  -23.4137  -30.4852   21.5462 C   0  0  2  0  0  0
  -24.8635  -28.9464   20.1133 C   0  0  0  0  0  0
  -22.7460  -29.4634   22.4956 C   0  0  0  0  0  0
  -18.0286  -28.1392   22.8504 C   0  0  0  0  0  0
  -24.1476  -36.7301   23.2639 C   0  0  0  0  0  0
  -25.9480  -30.8151   21.3674 C   0  0  0  0  0  0
  -26.0279  -29.4450   20.7138 C   0  0  0  0  0  0
  -27.2203  -28.6721   20.7058 C   0  0  0  0  0  0
  -26.0541  -26.9134   19.4993 C   0  0  0  0  0  0
  -24.8743  -27.6812   19.5012 C   0  0  0  0  0  0
  -23.6267  -29.8180   20.1620 C   0  0  0  0  0  0
  -25.4096  -36.3097   24.0340 C   0  0  1  0  0  0
  -20.5885  -28.3683   23.1305 C   0  0  2  0  0  0
  -20.6759  -26.9409   22.5415 C   0  0  0  0  0  0
  -19.5728  -26.6396   21.5218 C   0  0  0  0  0  0
  -18.1916  -26.7938   22.1641 C   0  0  0  0  0  0
  -19.1539  -28.8857   23.2899 C   0  0  0  0  0  0
  -18.9461  -30.1465   23.8909 C   0  0  0  0  0  0
  -17.6456  -30.6589   24.0573 C   0  0  0  0  0  0
  -25.9041  -34.9464   23.5128 C   0  0  0  0  0  0
  -16.5347  -29.9091   23.6334 C   0  0  0  0  0  0
  -16.7271  -28.6509   23.0355 C   0  0  0  0  0  0
  -26.4458  -31.6596   25.0737 C   0  0  0  0  0  0
  -25.3717  -31.3750   26.1496 C   0  0  0  0  0  0
  -27.0267  -30.3013   24.6163 C   0  0  0  0  0  0
  -27.6069  -32.4298   25.7471 C   0  0  0  0  0  0
  -27.5575  -37.1800   24.8465 C   0  0  0  0  0  0
  -21.4175  -29.3031   22.3696 N   0  0  0  0  0  0
  -26.4277  -37.3789   23.9424 N   0  0  0  0  0  0
  -24.6787  -31.0707   22.0972 N   0  0  0  0  0  0
  -23.4208  -28.8176   23.3018 O   0  0  0  0  0  0
  -28.3387  -26.5439   20.1170 O   0  0  0  0  0  0
  -26.5616  -34.8918   22.4700 O   0  0  0  0  0  0
  -23.5369  -32.1418   23.7394 O   0  0  0  0  0  0
  -28.5128  -19.0365   21.4445 C   0  0  0  0  0  0
  -28.6626  -17.6296   21.4911 C   0  0  0  0  0  0
  -30.7522  -17.8002   20.3039 C   0  0  0  0  0  0
  -29.4818  -19.8807   20.8410 C   0  0  0  0  0  0
  -29.7856  -16.9748   20.9373 C   0  0  0  0  0  0
  -30.6028  -19.2189   20.2532 C   0  0  0  0  0  0
  -28.8342  -24.2674   20.9934 C   0  0  0  0  0  0
  -28.3047  -25.5257   21.0617 C   0  0  0  0  0  0
  -29.5780  -23.6306   19.8143 C   0  0  0  0  0  0
  -28.8196  -23.3605   22.2202 C   0  0  0  0  0  0
  -29.3423  -22.0864   19.6261 C   0  0  0  0  0  0
  -28.4820  -21.8844   21.9157 C   0  0  0  0  0  0
  -29.3507  -21.3130   20.8823 N   0  0  0  0  0  0
  -29.8272  -15.5309   21.0625 N   0  0  0  0  0  0
  -31.5799  -19.9487   19.6585 F   0  0  0  0  0  0
  -31.4833  -12.4875   19.1223 H   0  0  0  0  0  0
  -30.3797  -11.3443   19.8353 H   0  0  0  0  0  0
  -29.7545  -11.7783   17.4447 H   0  0  0  0  0  0
  -29.6586  -13.4924   17.7579 H   0  0  0  0  0  0
  -27.8417  -11.3053   18.8227 H   0  0  0  0  0  0
  -27.3753  -12.6301   17.7898 H   0  0  0  0  0  0
  -27.7006  -14.2507   19.5719 H   0  0  0  0  0  0
  -28.7067  -11.9447   21.3129 H   0  0  0  0  0  0
  -28.4563  -13.5617   21.8864 H   0  0  0  0  0  0
  -25.2748   -9.5687   22.4755 H   0  0  0  0  0  0
  -23.9993   -7.4635   22.7471 H   0  0  0  0  0  0
  -21.0822   -8.8764   19.8955 H   0  0  0  0  0  0
  -22.3676  -10.9665   19.6166 H   0  0  0  0  0  0
  -21.1999   -7.6138   23.9707 H   0  0  0  0  0  0
  -21.1486   -6.0517   25.9071 H   0  0  0  0  0  0
  -22.0601   -2.7600   23.2849 H   0  0  0  0  0  0
  -22.4113  -11.9895   22.4781 H   0  0  0  0  0  0
  -21.1131  -13.1281   22.2595 H   0  0  0  0  0  0
  -24.6609  -15.8362   20.5201 H   0  0  0  0  0  0
  -26.2750  -15.6278   20.0674 H   0  0  0  0  0  0
  -26.7141  -32.5502   23.1157 H   0  0  0  0  0  0
  -24.9983  -33.9750   25.0413 H   0  0  0  0  0  0
  -22.7052  -31.3030   21.4036 H   0  0  0  0  0  0
  -23.3748  -35.9626   23.3276 H   0  0  0  0  0  0
  -24.3570  -36.8942   22.2060 H   0  0  0  0  0  0
  -23.7214  -37.6486   23.6676 H   0  0  0  0  0  0
  -26.0688  -31.5801   20.5987 H   0  0  0  0  0  0
  -26.8315  -30.8687   21.9922 H   0  0  0  0  0  0
  -28.1185  -29.0468   21.1761 H   0  0  0  0  0  0
  -26.0472  -25.9361   19.0382 H   0  0  0  0  0  0
  -23.9800  -27.2903   19.0361 H   0  0  0  0  0  0
  -23.7410  -30.5934   19.4036 H   0  0  0  0  0  0
  -22.7494  -29.2419   19.8621 H   0  0  0  0  0  0
  -25.1264  -36.1961   25.0832 H   0  0  0  0  0  0
  -20.9988  -28.3250   24.1422 H   0  0  0  0  0  0
  -20.5659  -26.2283   23.3601 H   0  0  0  0  0  0
  -21.6624  -26.7437   22.1204 H   0  0  0  0  0  0
  -19.6869  -25.6314   21.1224 H   0  0  0  0  0  0
  -19.6641  -27.3222   20.6757 H   0  0  0  0  0  0
  -17.4168  -26.6691   21.4055 H   0  0  0  0  0  0
  -18.0316  -26.0088   22.9042 H   0  0  0  0  0  0
  -19.7932  -30.7292   24.2264 H   0  0  0  0  0  0
  -17.5002  -31.6266   24.5178 H   0  0  0  0  0  0
  -15.5345  -30.2982   23.7655 H   0  0  0  0  0  0
  -15.8674  -28.0822   22.7068 H   0  0  0  0  0  0
  -24.5799  -30.7215   25.7815 H   0  0  0  0  0  0
  -24.9022  -32.2928   26.5044 H   0  0  0  0  0  0
  -25.8028  -30.8794   27.0204 H   0  0  0  0  0  0
  -26.2810  -29.6789   24.1201 H   0  0  0  0  0  0
  -27.3968  -29.7255   25.4657 H   0  0  0  0  0  0
  -27.8685  -30.4275   23.9355 H   0  0  0  0  0  0
  -27.2757  -33.3647   26.2002 H   0  0  0  0  0  0
  -28.3898  -32.6760   25.0285 H   0  0  0  0  0  0
  -28.0702  -31.8434   26.5415 H   0  0  0  0  0  0
  -28.2601  -38.0094   24.7532 H   0  0  0  0  0  0
  -28.1061  -36.2630   24.6258 H   0  0  0  0  0  0
  -27.2301  -37.1435   25.8871 H   0  0  0  0  0  0
  -20.9353  -29.8747   21.6897 H   0  0  0  0  0  0
  -26.0160  -38.2859   24.1443 H   0  0  0  0  0  0
  -27.6225  -19.4491   21.8956 H   0  0  0  0  0  0
  -27.8879  -17.0514   21.9750 H   0  0  0  0  0  0
  -31.6319  -17.3616   19.8578 H   0  0  0  0  0  0
  -27.8273  -25.8681   21.9709 H   0  0  0  0  0  0
  -30.6415  -23.7975   19.9911 H   0  0  0  0  0  0
  -29.3384  -24.1662   18.8944 H   0  0  0  0  0  0
  -28.1270  -23.7507   22.9671 H   0  0  0  0  0  0
  -29.8106  -23.4072   22.6739 H   0  0  0  0  0  0
  -30.0794  -21.6931   18.9255 H   0  0  0  0  0  0
  -28.3717  -21.9327   19.1514 H   0  0  0  0  0  0
  -27.4412  -21.8048   21.5944 H   0  0  0  0  0  0
  -28.5728  -21.3148   22.8420 H   0  0  0  0  0  0
  -28.9981  -15.1318   21.4757 H   0  0  0  0  0  0
  1 25  1  0  0  0
  1 30  2  0  0  0
  1 84  1  0  0  0
  2  3  1  0  0  0
  2 25  1  0  0  0
  2 86  1  0  0  0
  2 87  1  0  0  0
  3  4  1  0  0  0
  3 88  1  0  0  0
  3 89  1  0  0  0
  4  5  1  0  0  0
  4 90  1  0  0  0
  4 91  1  0  0  0
  5  6  1  0  0  0
  5 26  1  0  0  0
  5 92  1  0  0  0
  6 25  1  0  0  0
  6 93  1  0  0  0
  6 94  1  0  0  0
  7  8  2  0  0  0
  7 26  1  0  0  0
  7 29  1  0  0  0
  8  9  1  0  0  0
  8 22  1  0  0  0
  9 10  1  0  0  0
  9 27  2  0  0  0
 10 11  2  0  0  0
 10 15  1  0  0  0
 11 12  1  0  0  0
 11 95  1  0  0  0
 12 13  2  0  0  0
 12 96  1  0  0  0
 13 14  1  0  0  0
 13 31  1  0  0  0
 14 15  2  0  0  0
 14 97  1  0  0  0
 15 98  1  0  0  0
 16 17  2  0  0  0
 16 21  1  0  0  0
 16 31  1  0  0  0
 17 18  1  0  0  0
 17 99  1  0  0  0
 18 19  2  0  0  0
 18100  1  0  0  0
 19 20  1  0  0  0
 19 24  1  0  0  0
 20 21  2  0  0  0
 20101  1  0  0  0
 21 23  1  0  0  0
 22 28  1  0  0  0
 22 32  2  0  0  0
 26 27  1  0  0  0
 28102  1  0  0  0
 28103  1  0  0  0
 29104  1  0  0  0
 29105  1  0  0  0
 33 34  1  0  0  0
 33 66  1  0  0  0
 33 70  2  0  0  0
 34 36  1  0  0  0
 34 59  1  0  0  0
 34106  1  0  0  0
 35 44  2  0  0  0
 35 45  1  0  0  0
 35 68  1  0  0  0
 36 56  1  0  0  0
 36107  1  0  0  0
 37 39  1  0  0  0
 37 47  1  0  0  0
 37 66  1  0  0  0
 37108  1  0  0  0
 38 43  2  0  0  0
 38 46  1  0  0  0
 38 47  1  0  0  0
 39 64  1  0  0  0
 39 67  2  0  0  0
 40 52  1  0  0  0
 40 53  2  0  0  0
 40 58  1  0  0  0
 41109  1  0  0  0
 41110  1  0  0  0
 41111  1  0  0  0
 41 48  1  0  0  0
 42 43  1  0  0  0
 42 66  1  0  0  0
 42112  1  0  0  0
 42113  1  0  0  0
 43 44  1  0  0  0
 44114  1  0  0  0
 45 46  2  0  0  0
 45115  1  0  0  0
 46116  1  0  0  0
 47117  1  0  0  0
 47118  1  0  0  0
 48 56  1  0  0  0
 48 65  1  0  0  0
 48119  1  0  0  0
 49 50  1  0  0  0
 49 53  1  0  0  0
 49 64  1  0  0  0
 49120  1  0  0  0
 50 51  1  0  0  0
 50121  1  0  0  0
 50122  1  0  0  0
 51 52  1  0  0  0
 51123  1  0  0  0
 51124  1  0  0  0
 52125  1  0  0  0
 52126  1  0  0  0
 53 54  1  0  0  0
 54 55  2  0  0  0
 54127  1  0  0  0
 55 57  1  0  0  0
 55128  1  0  0  0
 56 69  2  0  0  0
 57 58  2  0  0  0
 57129  1  0  0  0
 58130  1  0  0  0
 59 60  1  0  0  0
 59 61  1  0  0  0
 59 62  1  0  0  0
 60131  1  0  0  0
 60132  1  0  0  0
 60133  1  0  0  0
 61134  1  0  0  0
 61135  1  0  0  0
 61136  1  0  0  0
 62137  1  0  0  0
 62138  1  0  0  0
 62139  1  0  0  0
 63 65  1  0  0  0
 63140  1  0  0  0
 63141  1  0  0  0
 63142  1  0  0  0
 64143  1  0  0  0
 65144  1  0  0  0
 68 78  1  0  0  0
 71 72  2  0  0  0
 71 74  1  0  0  0
 71145  1  0  0  0
 72 75  1  0  0  0
 72146  1  0  0  0
 73 75  2  0  0  0
 73 76  1  0  0  0
 73147  1  0  0  0
 74 76  2  0  0  0
 74 83  1  0  0  0
 75 84  1  0  0  0
 76 85  1  0  0  0
 77 78  2  0  0  0
 77 79  1  0  0  0
 77 80  1  0  0  0
 78148  1  0  0  0
 79 81  1  0  0  0
 79149  1  0  0  0
 79150  1  0  0  0
 80 82  1  0  0  0
 80151  1  0  0  0
 80152  1  0  0  0
 81 83  1  0  0  0
 81153  1  0  0  0
 81154  1  0  0  0
 82 83  1  0  0  0
 82155  1  0  0  0
 82156  1  0  0  0
 84157  1  0  0  0
M  ISO  4   1 100  68 101  78 101  84 100
M  END
> <chiral flag>
0

> <version>
0

> <s_m_source_file>
/data/baiqing/PycharmProjects/Reinvent-master-3.2/result/LINK_invent/BTK/process_docking_weight1_custom_product_contain_oxygen_bond_distance_aromatic_linkinvent_7_9_3/rearranged_h_0099.sdf

> <i_m_source_file_index>
89

> <r_mmod_Potential_Energy-OPLS-2005>
62.9040565490723

> <r_mmod_Stretch_Energy-OPLS-2005>
55.2041625976562

> <r_mmod_Bend_Energy-OPLS-2005>
132.968444824219

> <r_mmod_Torsional_Energy-OPLS-2005>
244.494415283203

> <r_mmod_Improper_Torsional_Energy-OPLS-2005>
6.58099126815796

> <r_mmod_Van_der_Waal_Energy-OPLS-2005>
151.609573364258

> <r_mmod_Electrostatic_Energy-OPLS-2005>
-340.788818359375

> <r_mmod_Solvation_Energy-OPLS-2005>
-214.811569213867

> <b_mmod_Minimization_Converged-OPLS-2005>
0

> <r_mmod_RMS_Derivative-OPLS-2005>
1.50652980804443

$$$$
90
                    3D
 Structure written by MMmdl.
157165  0  0  1  0            999 V2000
  -30.6611  -14.6327   20.6008 C   0  0  0  0  0  0
  -30.4328  -12.4188   19.4528 C   0  0  0  0  0  0
  -29.5049  -12.5291   18.2232 C   0  0  0  0  0  0
  -28.0297  -12.3518   18.6305 C   0  0  0  0  0  0
  -27.6508  -13.2189   19.8585 C   0  0  2  0  0  0
  -28.6867  -13.0605   20.9867 C   0  0  0  0  0  0
  -25.2545  -13.8183   20.5663 C   0  0  0  0  0  0
  -24.1814  -13.0441   20.9167 C   0  0  0  0  0  0
  -24.6388  -11.6916   20.8712 C   0  0  0  0  0  0
  -23.9061  -10.4298   21.0385 C   0  0  0  0  0  0
  -24.3612   -9.4221   21.9174 C   0  0  0  0  0  0
  -23.6290   -8.2254   22.0753 C   0  0  0  0  0  0
  -22.4276   -8.0285   21.3540 C   0  0  0  0  0  0
  -21.9915   -9.0247   20.4625 C   0  0  0  0  0  0
  -22.7239  -10.2128   20.3024 C   0  0  0  0  0  0
  -21.6858   -6.0739   22.5274 C   0  0  0  0  0  0
  -21.4018   -6.5648   23.8206 C   0  0  0  0  0  0
  -21.3668   -5.6804   24.9169 C   0  0  0  0  0  0
  -21.6047   -4.3063   24.7223 C   0  0  0  0  0  0
  -21.8821   -3.8149   23.4348 C   0  0  0  0  0  0
  -21.9190   -4.6964   22.3403 C   0  0  0  0  0  0
  -22.7838  -13.5236   21.1845 C   0  0  0  0  0  0
  -22.1653   -4.2146   21.0980 F   0  0  0  0  0  0
  -21.5637   -3.4548   25.7737 F   0  0  0  0  0  0
  -30.0068  -13.4288   20.4496 N   0  0  0  0  0  0
  -26.2965  -12.9364   20.3267 N   0  0  0  0  0  0
  -25.9314  -11.6515   20.5710 N   0  0  0  0  0  0
  -22.0497  -12.8233   22.0424 N   0  0  0  0  0  0
  -25.4269  -15.1910   20.4121 N   0  0  0  0  0  0
  -31.7498  -14.8196   20.0463 O   0  0  0  0  0  0
  -21.6642   -6.8881   21.4237 O   0  0  0  0  0  0
  -22.3515  -14.5542   20.6703 O   0  0  0  0  0  0
  -24.6266  -31.8590   23.2008 C   0  0  0  0  0  0
  -25.9110  -32.4779   23.8339 C   0  0  1  0  0  0
  -27.2242  -27.3142   20.1256 C   0  0  0  0  0  0
  -25.5926  -33.8578   24.2274 N   0  0  0  0  0  0
  -23.4206  -30.4811   21.5441 C   0  0  2  0  0  0
  -24.8680  -28.9303   20.1146 C   0  0  0  0  0  0
  -22.7479  -29.4618   22.4939 C   0  0  0  0  0  0
  -18.0288  -28.1386   22.8495 C   0  0  0  0  0  0
  -24.1487  -36.7288   23.2636 C   0  0  0  0  0  0
  -25.9612  -30.7893   21.3707 C   0  0  0  0  0  0
  -26.0370  -29.4145   20.7162 C   0  0  0  0  0  0
  -27.2219  -28.6198   20.7059 C   0  0  0  0  0  0
  -26.0367  -26.8799   19.5008 C   0  0  0  0  0  0
  -24.8697  -27.6689   19.4965 C   0  0  0  0  0  0
  -23.6360  -29.8120   20.1607 C   0  0  0  0  0  0
  -25.4113  -36.3084   24.0328 C   0  0  1  0  0  0
  -20.5890  -28.3688   23.1288 C   0  0  2  0  0  0
  -20.6774  -26.9412   22.5413 C   0  0  0  0  0  0
  -19.5746  -26.6388   21.5216 C   0  0  0  0  0  0
  -18.1931  -26.7932   22.1633 C   0  0  0  0  0  0
  -19.1541  -28.8853   23.2887 C   0  0  0  0  0  0
  -18.9458  -30.1459   23.8901 C   0  0  0  0  0  0
  -17.6456  -30.6585   24.0568 C   0  0  0  0  0  0
  -25.9047  -34.9454   23.5100 C   0  0  0  0  0  0
  -16.5349  -29.9085   23.6335 C   0  0  0  0  0  0
  -16.7276  -28.6505   23.0355 C   0  0  0  0  0  0
  -26.4496  -31.6585   25.0707 C   0  0  0  0  0  0
  -25.3727  -31.3725   26.1429 C   0  0  0  0  0  0
  -27.0336  -30.3013   24.6151 C   0  0  0  0  0  0
  -27.6059  -32.4312   25.7481 C   0  0  0  0  0  0
  -27.5580  -37.1801   24.8467 C   0  0  0  0  0  0
  -21.4192  -29.3036   22.3678 N   0  0  0  0  0  0
  -26.4293  -37.3777   23.9407 N   0  0  0  0  0  0
  -24.6886  -31.0594   22.0961 N   0  0  0  0  0  0
  -23.4197  -28.8173   23.3030 O   0  0  0  0  0  0
  -28.3392  -26.4655   20.1299 O   0  0  0  0  0  0
  -26.5617  -34.8923   22.4667 O   0  0  0  0  0  0
  -23.5428  -32.1392   23.7335 O   0  0  0  0  0  0
  -30.2611  -18.1329   21.8361 C   0  0  0  0  0  0
  -29.9963  -19.5017   21.5309 C   0  0  0  0  0  0
  -29.3219  -17.4505   19.7409 C   0  0  0  0  0  0
  -29.9180  -17.0485   20.9688 C   0  0  0  0  0  0
  -29.3754  -19.8912   20.3165 C   0  0  0  0  0  0
  -29.0643  -18.8244   19.4254 C   0  0  0  0  0  0
  -28.9616  -22.4443   20.6297 C   0  0  0  0  0  0
  -28.8522  -15.8031   23.5816 C   0  0  0  0  0  0
  -28.8288  -23.8410   19.8817 C   0  0  0  0  0  0
  -30.1261  -15.3529   22.8324 C   0  0  0  0  0  0
  -28.1672  -25.0812   20.6477 C   0  0  0  0  0  0
  -29.1170  -21.2826   19.9111 N   0  0  0  0  0  0
  -30.0879  -15.6293   21.3769 N   0  0  0  0  0  0
  -28.9237  -22.4311   21.8617 O   0  0  0  0  0  0
  -28.4896  -19.1233   18.2349 F   0  0  0  0  0  0
  -31.4730  -12.5469   19.1491 H   0  0  0  0  0  0
  -30.3766  -11.4189   19.8857 H   0  0  0  0  0  0
  -29.7776  -11.7841   17.4747 H   0  0  0  0  0  0
  -29.6399  -13.5028   17.7502 H   0  0  0  0  0  0
  -27.8725  -11.2971   18.8603 H   0  0  0  0  0  0
  -27.3742  -12.5809   17.7900 H   0  0  0  0  0  0
  -27.6765  -14.2580   19.5313 H   0  0  0  0  0  0
  -28.7054  -12.0329   21.3514 H   0  0  0  0  0  0
  -28.3872  -13.6630   21.8376 H   0  0  0  0  0  0
  -25.2757   -9.5705   22.4748 H   0  0  0  0  0  0
  -24.0000   -7.4649   22.7479 H   0  0  0  0  0  0
  -21.0854   -8.8757   19.8923 H   0  0  0  0  0  0
  -22.3699  -10.9657   19.6118 H   0  0  0  0  0  0
  -21.2011   -7.6156   23.9701 H   0  0  0  0  0  0
  -21.1494   -6.0540   25.9074 H   0  0  0  0  0  0
  -22.0601   -2.7611   23.2849 H   0  0  0  0  0  0
  -22.4114  -11.9888   22.4795 H   0  0  0  0  0  0
  -21.1135  -13.1277   22.2680 H   0  0  0  0  0  0
  -24.6652  -15.8495   20.5348 H   0  0  0  0  0  0
  -26.2894  -15.6332   20.1214 H   0  0  0  0  0  0
  -26.7185  -32.5456   23.1092 H   0  0  0  0  0  0
  -25.0083  -33.9720   25.0427 H   0  0  0  0  0  0
  -22.7147  -31.3013   21.3991 H   0  0  0  0  0  0
  -23.3752  -35.9617   23.3307 H   0  0  0  0  0  0
  -24.3579  -36.8900   22.2050 H   0  0  0  0  0  0
  -23.7241  -37.6494   23.6651 H   0  0  0  0  0  0
  -26.0883  -31.5512   20.6004 H   0  0  0  0  0  0
  -26.8432  -30.8425   21.9981 H   0  0  0  0  0  0
  -28.1229  -28.9893   21.1754 H   0  0  0  0  0  0
  -26.0066  -25.9137   19.0179 H   0  0  0  0  0  0
  -23.9751  -27.2933   19.0193 H   0  0  0  0  0  0
  -23.7566  -30.5866   19.4023 H   0  0  0  0  0  0
  -22.7558  -29.2410   19.8596 H   0  0  0  0  0  0
  -25.1299  -36.1937   25.0824 H   0  0  0  0  0  0
  -20.9985  -28.3260   24.1405 H   0  0  0  0  0  0
  -20.5675  -26.2298   23.3610 H   0  0  0  0  0  0
  -21.6643  -26.7440   22.1206 H   0  0  0  0  0  0
  -19.6902  -25.6298   21.1244 H   0  0  0  0  0  0
  -19.6681  -27.3199   20.6745 H   0  0  0  0  0  0
  -17.4201  -26.6689   21.4034 H   0  0  0  0  0  0
  -18.0330  -26.0066   22.9021 H   0  0  0  0  0  0
  -19.7929  -30.7284   24.2267 H   0  0  0  0  0  0
  -17.5004  -31.6268   24.5166 H   0  0  0  0  0  0
  -15.5348  -30.2985   23.7644 H   0  0  0  0  0  0
  -15.8683  -28.0823   22.7058 H   0  0  0  0  0  0
  -24.5907  -30.7072   25.7753 H   0  0  0  0  0  0
  -24.8909  -32.2890   26.4844 H   0  0  0  0  0  0
  -25.8040  -30.8911   27.0213 H   0  0  0  0  0  0
  -26.2914  -29.6777   24.1153 H   0  0  0  0  0  0
  -27.4023  -29.7255   25.4649 H   0  0  0  0  0  0
  -27.8788  -30.4310   23.9384 H   0  0  0  0  0  0
  -27.2675  -33.3602   26.2081 H   0  0  0  0  0  0
  -28.3858  -32.6886   25.0302 H   0  0  0  0  0  0
  -28.0743  -31.8423   26.5378 H   0  0  0  0  0  0
  -28.2607  -38.0090   24.7507 H   0  0  0  0  0  0
  -28.1068  -36.2620   24.6306 H   0  0  0  0  0  0
  -27.2294  -37.1471   25.8870 H   0  0  0  0  0  0
  -20.9368  -29.8751   21.6886 H   0  0  0  0  0  0
  -26.0177  -38.2855   24.1401 H   0  0  0  0  0  0
  -30.7351  -17.9354   22.7863 H   0  0  0  0  0  0
  -30.2918  -20.2540   22.2476 H   0  0  0  0  0  0
  -29.0223  -16.6996   19.0252 H   0  0  0  0  0  0
  -28.8881  -15.4778   24.6214 H   0  0  0  0  0  0
  -27.9464  -15.3853   23.1434 H   0  0  0  0  0  0
  -28.7308  -16.8857   23.5967 H   0  0  0  0  0  0
  -28.2978  -23.6827   18.9436 H   0  0  0  0  0  0
  -29.8427  -24.1251   19.6018 H   0  0  0  0  0  0
  -30.2682  -14.2889   23.0366 H   0  0  0  0  0  0
  -31.0087  -15.8221   23.2688 H   0  0  0  0  0  0
  -28.5782  -25.1037   21.6575 H   0  0  0  0  0  0
  -27.1109  -24.8531   20.7939 H   0  0  0  0  0  0
  -29.0078  -21.3937   18.9113 H   0  0  0  0  0  0
  1 25  1  0  0  0
  1 30  2  0  0  0
  1 83  1  0  0  0
  2  3  1  0  0  0
  2 25  1  0  0  0
  2 86  1  0  0  0
  2 87  1  0  0  0
  3  4  1  0  0  0
  3 88  1  0  0  0
  3 89  1  0  0  0
  4  5  1  0  0  0
  4 90  1  0  0  0
  4 91  1  0  0  0
  5  6  1  0  0  0
  5 26  1  0  0  0
  5 92  1  0  0  0
  6 25  1  0  0  0
  6 93  1  0  0  0
  6 94  1  0  0  0
  7  8  2  0  0  0
  7 26  1  0  0  0
  7 29  1  0  0  0
  8  9  1  0  0  0
  8 22  1  0  0  0
  9 10  1  0  0  0
  9 27  2  0  0  0
 10 11  2  0  0  0
 10 15  1  0  0  0
 11 12  1  0  0  0
 11 95  1  0  0  0
 12 13  2  0  0  0
 12 96  1  0  0  0
 13 14  1  0  0  0
 13 31  1  0  0  0
 14 15  2  0  0  0
 14 97  1  0  0  0
 15 98  1  0  0  0
 16 17  2  0  0  0
 16 21  1  0  0  0
 16 31  1  0  0  0
 17 18  1  0  0  0
 17 99  1  0  0  0
 18 19  2  0  0  0
 18100  1  0  0  0
 19 20  1  0  0  0
 19 24  1  0  0  0
 20 21  2  0  0  0
 20101  1  0  0  0
 21 23  1  0  0  0
 22 28  1  0  0  0
 22 32  2  0  0  0
 26 27  1  0  0  0
 28102  1  0  0  0
 28103  1  0  0  0
 29104  1  0  0  0
 29105  1  0  0  0
 33 34  1  0  0  0
 33 66  1  0  0  0
 33 70  2  0  0  0
 34 36  1  0  0  0
 34 59  1  0  0  0
 34106  1  0  0  0
 35 44  2  0  0  0
 35 45  1  0  0  0
 35 68  1  0  0  0
 36 56  1  0  0  0
 36107  1  0  0  0
 37 39  1  0  0  0
 37 47  1  0  0  0
 37 66  1  0  0  0
 37108  1  0  0  0
 38 43  2  0  0  0
 38 46  1  0  0  0
 38 47  1  0  0  0
 39 64  1  0  0  0
 39 67  2  0  0  0
 40 52  1  0  0  0
 40 53  2  0  0  0
 40 58  1  0  0  0
 41109  1  0  0  0
 41110  1  0  0  0
 41111  1  0  0  0
 41 48  1  0  0  0
 42 43  1  0  0  0
 42 66  1  0  0  0
 42112  1  0  0  0
 42113  1  0  0  0
 43 44  1  0  0  0
 44114  1  0  0  0
 45 46  2  0  0  0
 45115  1  0  0  0
 46116  1  0  0  0
 47117  1  0  0  0
 47118  1  0  0  0
 48 56  1  0  0  0
 48 65  1  0  0  0
 48119  1  0  0  0
 49 50  1  0  0  0
 49 53  1  0  0  0
 49 64  1  0  0  0
 49120  1  0  0  0
 50 51  1  0  0  0
 50121  1  0  0  0
 50122  1  0  0  0
 51 52  1  0  0  0
 51123  1  0  0  0
 51124  1  0  0  0
 52125  1  0  0  0
 52126  1  0  0  0
 53 54  1  0  0  0
 54 55  2  0  0  0
 54127  1  0  0  0
 55 57  1  0  0  0
 55128  1  0  0  0
 56 69  2  0  0  0
 57 58  2  0  0  0
 57129  1  0  0  0
 58130  1  0  0  0
 59 60  1  0  0  0
 59 61  1  0  0  0
 59 62  1  0  0  0
 60131  1  0  0  0
 60132  1  0  0  0
 60133  1  0  0  0
 61134  1  0  0  0
 61135  1  0  0  0
 61136  1  0  0  0
 62137  1  0  0  0
 62138  1  0  0  0
 62139  1  0  0  0
 63 65  1  0  0  0
 63140  1  0  0  0
 63141  1  0  0  0
 63142  1  0  0  0
 64143  1  0  0  0
 65144  1  0  0  0
 68 81  1  0  0  0
 71 72  2  0  0  0
 71 74  1  0  0  0
 71145  1  0  0  0
 72 75  1  0  0  0
 72146  1  0  0  0
 73 74  2  0  0  0
 73 76  1  0  0  0
 73147  1  0  0  0
 74 83  1  0  0  0
 75 76  2  0  0  0
 75 82  1  0  0  0
 76 85  1  0  0  0
 77 79  1  0  0  0
 77 82  1  0  0  0
 77 84  2  0  0  0
 78 80  1  0  0  0
 78148  1  0  0  0
 78149  1  0  0  0
 78150  1  0  0  0
 79 81  1  0  0  0
 79151  1  0  0  0
 79152  1  0  0  0
 80 83  1  0  0  0
 80153  1  0  0  0
 80154  1  0  0  0
 81155  1  0  0  0
 81156  1  0  0  0
 82157  1  0  0  0
M  ISO  4   1 100  68 101  81 101  83 100
M  END
> <chiral flag>
0

> <version>
0

> <s_m_source_file>
/data/baiqing/PycharmProjects/Reinvent-master-3.2/result/LINK_invent/BTK/process_docking_weight1_custom_product_contain_oxygen_bond_distance_aromatic_linkinvent_7_9_3/rearranged_h_0099.sdf

> <i_m_source_file_index>
90

> <r_mmod_Potential_Energy-OPLS-2005>
200.479476928711

> <r_mmod_Stretch_Energy-OPLS-2005>
94.6767807006836

> <r_mmod_Bend_Energy-OPLS-2005>
145.796646118164

> <r_mmod_Torsional_Energy-OPLS-2005>
310.268890380859

> <r_mmod_Improper_Torsional_Energy-OPLS-2005>
3.28334140777588

> <r_mmod_Van_der_Waal_Energy-OPLS-2005>
145.902786254883

> <r_mmod_Electrostatic_Energy-OPLS-2005>
-338.6005859375

> <r_mmod_Solvation_Energy-OPLS-2005>
-207.015899658203

> <b_mmod_Minimization_Converged-OPLS-2005>
0

> <r_mmod_RMS_Derivative-OPLS-2005>
1.14169812202454

$$$$
91
                    3D
 Structure written by MMmdl.
155163  0  0  1  0            999 V2000
  -30.7479  -14.4836   20.5472 C   0  0  0  0  0  0
  -30.4017  -12.3124   19.4293 C   0  0  0  0  0  0
  -29.4864  -12.4874   18.2039 C   0  0  0  0  0  0
  -28.0104  -12.3507   18.6215 C   0  0  0  0  0  0
  -27.6507  -13.2177   19.8591 C   0  0  2  0  0  0
  -28.6967  -13.0670   20.9865 C   0  0  0  0  0  0
  -25.2556  -13.8187   20.5695 C   0  0  0  0  0  0
  -24.1829  -13.0448   20.9207 C   0  0  0  0  0  0
  -24.6395  -11.6918   20.8748 C   0  0  0  0  0  0
  -23.9062  -10.4297   21.0409 C   0  0  0  0  0  0
  -24.3621   -9.4214   21.9184 C   0  0  0  0  0  0
  -23.6301   -8.2245   22.0752 C   0  0  0  0  0  0
  -22.4279   -8.0285   21.3547 C   0  0  0  0  0  0
  -21.9913   -9.0256   20.4648 C   0  0  0  0  0  0
  -22.7237  -10.2136   20.3059 C   0  0  0  0  0  0
  -21.6856   -6.0737   22.5281 C   0  0  0  0  0  0
  -21.4013   -6.5640   23.8214 C   0  0  0  0  0  0
  -21.3661   -5.6794   24.9177 C   0  0  0  0  0  0
  -21.6049   -4.3056   24.7228 C   0  0  0  0  0  0
  -21.8819   -3.8149   23.4348 C   0  0  0  0  0  0
  -21.9195   -4.6965   22.3405 C   0  0  0  0  0  0
  -22.7850  -13.5239   21.1863 C   0  0  0  0  0  0
  -22.1663   -4.2151   21.0982 F   0  0  0  0  0  0
  -21.5630   -3.4541   25.7741 F   0  0  0  0  0  0
  -30.0164  -13.3434   20.4072 N   0  0  0  0  0  0
  -26.2981  -12.9377   20.3323 N   0  0  0  0  0  0
  -25.9323  -11.6527   20.5770 N   0  0  0  0  0  0
  -22.0489  -12.8222   22.0410 N   0  0  0  0  0  0
  -25.4259  -15.1908   20.4092 N   0  0  0  0  0  0
  -31.9157  -14.5329   20.1515 O   0  0  0  0  0  0
  -21.6647   -6.8880   21.4243 O   0  0  0  0  0  0
  -22.3537  -14.5548   20.6716 O   0  0  0  0  0  0
  -24.6152  -31.8673   23.2092 C   0  0  0  0  0  0
  -25.9046  -32.4818   23.8386 C   0  0  1  0  0  0
  -27.2239  -27.4239   20.1050 C   0  0  0  0  0  0
  -25.5899  -33.8617   24.2316 N   0  0  0  0  0  0
  -23.4018  -30.4923   21.5497 C   0  0  2  0  0  0
  -24.8455  -28.9545   20.1156 C   0  0  0  0  0  0
  -22.7405  -29.4666   22.4985 C   0  0  0  0  0  0
  -18.0269  -28.1370   22.8495 C   0  0  0  0  0  0
  -24.1485  -36.7317   23.2636 C   0  0  0  0  0  0
  -25.9310  -30.8327   21.3604 C   0  0  0  0  0  0
  -26.0074  -29.4668   20.7065 C   0  0  0  0  0  0
  -27.2028  -28.7120   20.6896 C   0  0  0  0  0  0
  -26.0454  -26.9248   19.5117 C   0  0  0  0  0  0
  -24.8599  -27.6837   19.5142 C   0  0  0  0  0  0
  -23.6092  -29.8241   20.1642 C   0  0  0  0  0  0
  -25.4105  -36.3109   24.0333 C   0  0  1  0  0  0
  -20.5861  -28.3657   23.1311 C   0  0  2  0  0  0
  -20.6759  -26.9395   22.5411 C   0  0  0  0  0  0
  -19.5739  -26.6380   21.5208 C   0  0  0  0  0  0
  -18.1918  -26.7915   22.1622 C   0  0  0  0  0  0
  -19.1520  -28.8831   23.2901 C   0  0  0  0  0  0
  -18.9454  -30.1439   23.8909 C   0  0  0  0  0  0
  -17.6459  -30.6580   24.0565 C   0  0  0  0  0  0
  -25.9034  -34.9473   23.5121 C   0  0  0  0  0  0
  -16.5348  -29.9083   23.6326 C   0  0  0  0  0  0
  -16.7261  -28.6498   23.0352 C   0  0  0  0  0  0
  -26.4469  -31.6604   25.0722 C   0  0  0  0  0  0
  -25.3739  -31.3720   26.1477 C   0  0  0  0  0  0
  -27.0300  -30.3045   24.6105 C   0  0  0  0  0  0
  -27.6038  -32.4328   25.7492 C   0  0  0  0  0  0
  -27.5579  -37.1809   24.8462 C   0  0  0  0  0  0
  -21.4134  -29.3033   22.3724 N   0  0  0  0  0  0
  -26.4288  -37.3796   23.9411 N   0  0  0  0  0  0
  -24.6679  -31.0776   22.0987 N   0  0  0  0  0  0
  -23.4181  -28.8209   23.3026 O   0  0  0  0  0  0
  -28.3884  -26.6868   20.1083 O   0  0  0  0  0  0
  -26.5600  -34.8930   22.4686 O   0  0  0  0  0  0
  -23.5346  -32.1428   23.7489 O   0  0  0  0  0  0
  -30.7722  -19.1213   20.3157 C   0  0  0  0  0  0
  -30.2321  -20.3983   20.0707 C   0  0  0  0  0  0
  -28.6439  -18.3537   21.1863 C   0  0  0  0  0  0
  -29.9966  -18.0839   20.8811 C   0  0  0  0  0  0
  -28.1023  -19.6450   20.9507 C   0  0  0  0  0  0
  -28.8855  -20.6929   20.3971 C   0  0  0  0  0  0
  -30.6874  -16.7810   21.2160 C   0  0  0  0  0  0
  -28.4005  -24.3193   19.3128 C   0  0  0  0  0  0
  -28.2979  -25.3023   20.5039 C   0  0  0  0  0  0
  -29.1140  -22.9698   19.5961 C   0  0  0  0  0  0
  -26.7746  -19.9025   21.2814 N   0  0  0  0  0  0
  -30.0837  -15.6068   20.9161 N   0  0  0  0  0  0
  -31.8262  -16.8564   21.6950 O   0  0  0  0  0  0
  -28.3087  -21.9490   20.2090 O   0  0  0  0  0  0
  -31.4485  -12.3741   19.1279 H   0  0  0  0  0  0
  -30.2790  -11.3193   19.8642 H   0  0  0  0  0  0
  -29.7293  -11.7444   17.4430 H   0  0  0  0  0  0
  -29.6573  -13.4633   17.7463 H   0  0  0  0  0  0
  -27.8292  -11.2980   18.8421 H   0  0  0  0  0  0
  -27.3578  -12.5996   17.7842 H   0  0  0  0  0  0
  -27.6745  -14.2547   19.5245 H   0  0  0  0  0  0
  -28.6783  -12.0572   21.3989 H   0  0  0  0  0  0
  -28.4706  -13.7371   21.8175 H   0  0  0  0  0  0
  -25.2763   -9.5694   22.4762 H   0  0  0  0  0  0
  -24.0015   -7.4635   22.7467 H   0  0  0  0  0  0
  -21.0845   -8.8778   19.8949 H   0  0  0  0  0  0
  -22.3697  -10.9682   19.6175 H   0  0  0  0  0  0
  -21.1999   -7.6148   23.9720 H   0  0  0  0  0  0
  -21.1485   -6.0522   25.9080 H   0  0  0  0  0  0
  -22.0595   -2.7612   23.2852 H   0  0  0  0  0  0
  -22.4108  -11.9884   22.4800 H   0  0  0  0  0  0
  -21.1107  -13.1253   22.2617 H   0  0  0  0  0  0
  -24.6546  -15.8404   20.5152 H   0  0  0  0  0  0
  -26.2651  -15.6286   20.0523 H   0  0  0  0  0  0
  -26.7117  -32.5522   23.1148 H   0  0  0  0  0  0
  -25.0062  -33.9782   25.0469 H   0  0  0  0  0  0
  -22.6910  -31.3099   21.4112 H   0  0  0  0  0  0
  -23.3746  -35.9651   23.3297 H   0  0  0  0  0  0
  -24.3583  -36.8937   22.2052 H   0  0  0  0  0  0
  -23.7236  -37.6519   23.6658 H   0  0  0  0  0  0
  -26.0449  -31.6002   20.5929 H   0  0  0  0  0  0
  -26.8182  -30.8841   21.9802 H   0  0  0  0  0  0
  -28.1029  -29.1061   21.1409 H   0  0  0  0  0  0
  -26.0357  -25.9529   19.0416 H   0  0  0  0  0  0
  -23.9653  -27.2833   19.0572 H   0  0  0  0  0  0
  -23.7190  -30.5995   19.4052 H   0  0  0  0  0  0
  -22.7322  -29.2461   19.8665 H   0  0  0  0  0  0
  -25.1280  -36.1968   25.0825 H   0  0  0  0  0  0
  -20.9957  -28.3221   24.1429 H   0  0  0  0  0  0
  -20.5653  -26.2272   23.3601 H   0  0  0  0  0  0
  -21.6631  -26.7432   22.1212 H   0  0  0  0  0  0
  -19.6899  -25.6296   21.1225 H   0  0  0  0  0  0
  -19.6669  -27.3200   20.6747 H   0  0  0  0  0  0
  -17.4187  -26.6665   21.4025 H   0  0  0  0  0  0
  -18.0325  -26.0047   22.9012 H   0  0  0  0  0  0
  -19.7936  -30.7247   24.2280 H   0  0  0  0  0  0
  -17.5019  -31.6262   24.5164 H   0  0  0  0  0  0
  -15.5352  -30.2994   23.7638 H   0  0  0  0  0  0
  -15.8661  -28.0820   22.7062 H   0  0  0  0  0  0
  -24.5921  -30.7044   25.7837 H   0  0  0  0  0  0
  -24.8923  -32.2880   26.4910 H   0  0  0  0  0  0
  -25.8103  -30.8919   27.0246 H   0  0  0  0  0  0
  -26.2845  -29.6813   24.1153 H   0  0  0  0  0  0
  -27.4060  -29.7274   25.4564 H   0  0  0  0  0  0
  -27.8683  -30.4361   23.9259 H   0  0  0  0  0  0
  -27.2650  -33.3629   26.2068 H   0  0  0  0  0  0
  -28.3854  -32.6886   25.0326 H   0  0  0  0  0  0
  -28.0697  -31.8455   26.5414 H   0  0  0  0  0  0
  -28.2592  -38.0113   24.7526 H   0  0  0  0  0  0
  -28.1078  -36.2645   24.6261 H   0  0  0  0  0  0
  -27.2303  -37.1429   25.8867 H   0  0  0  0  0  0
  -20.9292  -29.8770   21.6960 H   0  0  0  0  0  0
  -26.0175  -38.2871   24.1426 H   0  0  0  0  0  0
  -31.8116  -18.9425   20.0747 H   0  0  0  0  0  0
  -30.8913  -21.1386   19.6430 H   0  0  0  0  0  0
  -28.0375  -17.5811   21.6384 H   0  0  0  0  0  0
  -28.9868  -24.8214   18.5428 H   0  0  0  0  0  0
  -27.4233  -24.1435   18.8656 H   0  0  0  0  0  0
  -29.1352  -25.1321   21.1807 H   0  0  0  0  0  0
  -27.4034  -25.0970   21.0952 H   0  0  0  0  0  0
  -30.0065  -23.1557   20.1955 H   0  0  0  0  0  0
  -29.4545  -22.5854   18.6332 H   0  0  0  0  0  0
  -26.1273  -19.1225   21.3278 H   0  0  0  0  0  0
  -26.3677  -20.7341   20.8634 H   0  0  0  0  0  0
  -29.0836  -15.6024   20.8299 H   0  0  0  0  0  0
  1 25  1  0  0  0
  1 30  2  0  0  0
  1 82  1  0  0  0
  2  3  1  0  0  0
  2 25  1  0  0  0
  2 85  1  0  0  0
  2 86  1  0  0  0
  3  4  1  0  0  0
  3 87  1  0  0  0
  3 88  1  0  0  0
  4  5  1  0  0  0
  4 89  1  0  0  0
  4 90  1  0  0  0
  5  6  1  0  0  0
  5 26  1  0  0  0
  5 91  1  0  0  0
  6 25  1  0  0  0
  6 92  1  0  0  0
  6 93  1  0  0  0
  7  8  2  0  0  0
  7 26  1  0  0  0
  7 29  1  0  0  0
  8  9  1  0  0  0
  8 22  1  0  0  0
  9 10  1  0  0  0
  9 27  2  0  0  0
 10 11  2  0  0  0
 10 15  1  0  0  0
 11 12  1  0  0  0
 11 94  1  0  0  0
 12 13  2  0  0  0
 12 95  1  0  0  0
 13 14  1  0  0  0
 13 31  1  0  0  0
 14 15  2  0  0  0
 14 96  1  0  0  0
 15 97  1  0  0  0
 16 17  2  0  0  0
 16 21  1  0  0  0
 16 31  1  0  0  0
 17 18  1  0  0  0
 17 98  1  0  0  0
 18 19  2  0  0  0
 18 99  1  0  0  0
 19 20  1  0  0  0
 19 24  1  0  0  0
 20 21  2  0  0  0
 20100  1  0  0  0
 21 23  1  0  0  0
 22 28  1  0  0  0
 22 32  2  0  0  0
 26 27  1  0  0  0
 28101  1  0  0  0
 28102  1  0  0  0
 29103  1  0  0  0
 29104  1  0  0  0
 33 34  1  0  0  0
 33 66  1  0  0  0
 33 70  2  0  0  0
 34 36  1  0  0  0
 34 59  1  0  0  0
 34105  1  0  0  0
 35 44  2  0  0  0
 35 45  1  0  0  0
 35 68  1  0  0  0
 36 56  1  0  0  0
 36106  1  0  0  0
 37 39  1  0  0  0
 37 47  1  0  0  0
 37 66  1  0  0  0
 37107  1  0  0  0
 38 43  2  0  0  0
 38 46  1  0  0  0
 38 47  1  0  0  0
 39 64  1  0  0  0
 39 67  2  0  0  0
 40 52  1  0  0  0
 40 53  2  0  0  0
 40 58  1  0  0  0
 41108  1  0  0  0
 41109  1  0  0  0
 41110  1  0  0  0
 41 48  1  0  0  0
 42 43  1  0  0  0
 42 66  1  0  0  0
 42111  1  0  0  0
 42112  1  0  0  0
 43 44  1  0  0  0
 44113  1  0  0  0
 45 46  2  0  0  0
 45114  1  0  0  0
 46115  1  0  0  0
 47116  1  0  0  0
 47117  1  0  0  0
 48 56  1  0  0  0
 48 65  1  0  0  0
 48118  1  0  0  0
 49 50  1  0  0  0
 49 53  1  0  0  0
 49 64  1  0  0  0
 49119  1  0  0  0
 50 51  1  0  0  0
 50120  1  0  0  0
 50121  1  0  0  0
 51 52  1  0  0  0
 51122  1  0  0  0
 51123  1  0  0  0
 52124  1  0  0  0
 52125  1  0  0  0
 53 54  1  0  0  0
 54 55  2  0  0  0
 54126  1  0  0  0
 55 57  1  0  0  0
 55127  1  0  0  0
 56 69  2  0  0  0
 57 58  2  0  0  0
 57128  1  0  0  0
 58129  1  0  0  0
 59 60  1  0  0  0
 59 61  1  0  0  0
 59 62  1  0  0  0
 60130  1  0  0  0
 60131  1  0  0  0
 60132  1  0  0  0
 61133  1  0  0  0
 61134  1  0  0  0
 61135  1  0  0  0
 62136  1  0  0  0
 62137  1  0  0  0
 62138  1  0  0  0
 63 65  1  0  0  0
 63139  1  0  0  0
 63140  1  0  0  0
 63141  1  0  0  0
 64142  1  0  0  0
 65143  1  0  0  0
 68 79  1  0  0  0
 71 72  2  0  0  0
 71 74  1  0  0  0
 71144  1  0  0  0
 72 76  1  0  0  0
 72145  1  0  0  0
 73 74  2  0  0  0
 73 75  1  0  0  0
 73146  1  0  0  0
 74 77  1  0  0  0
 75 76  2  0  0  0
 75 81  1  0  0  0
 76 84  1  0  0  0
 77 82  1  0  0  0
 77 83  2  0  0  0
 78 79  1  0  0  0
 78 80  1  0  0  0
 78147  1  0  0  0
 78148  1  0  0  0
 79149  1  0  0  0
 79150  1  0  0  0
 80 84  1  0  0  0
 80151  1  0  0  0
 80152  1  0  0  0
 81153  1  0  0  0
 81154  1  0  0  0
 82155  1  0  0  0
M  ISO  4   1 100  68 101  79 101  82 100
M  END
> <chiral flag>
0

> <version>
0

> <s_m_source_file>
/data/baiqing/PycharmProjects/Reinvent-master-3.2/result/LINK_invent/BTK/process_docking_weight1_custom_product_contain_oxygen_bond_distance_aromatic_linkinvent_7_9_3/rearranged_h_0099.sdf

> <i_m_source_file_index>
91

> <r_mmod_Potential_Energy-OPLS-2005>
-138.470733642578

> <r_mmod_Stretch_Energy-OPLS-2005>
40.3692016601562

> <r_mmod_Bend_Energy-OPLS-2005>
109.025825500488

> <r_mmod_Torsional_Energy-OPLS-2005>
257.484405517578

> <r_mmod_Improper_Torsional_Energy-OPLS-2005>
9.35019874572754

> <r_mmod_Van_der_Waal_Energy-OPLS-2005>
166.104782104492

> <r_mmod_Electrostatic_Energy-OPLS-2005>
-506.610992431641

> <r_mmod_Solvation_Energy-OPLS-2005>
-235.024475097656

> <b_mmod_Minimization_Converged-OPLS-2005>
0

> <r_mmod_RMS_Derivative-OPLS-2005>
1.03845739364624

$$$$
92
                    3D
 Structure written by MMmdl.
158167  0  0  1  0            999 V2000
  -30.6923  -14.4673   20.5865 C   0  0  0  0  0  0
  -30.4282  -12.3087   19.4184 C   0  0  0  0  0  0
  -29.4942  -12.5110   18.2063 C   0  0  0  0  0  0
  -28.0149  -12.3702   18.6173 C   0  0  0  0  0  0
  -27.6632  -13.2031   19.8787 C   0  0  2  0  0  0
  -28.7042  -12.9667   20.9967 C   0  0  0  0  0  0
  -25.2598  -13.8151   20.5687 C   0  0  0  0  0  0
  -24.1838  -13.0441   20.9166 C   0  0  0  0  0  0
  -24.6374  -11.6904   20.8716 C   0  0  0  0  0  0
  -23.9039  -10.4299   21.0393 C   0  0  0  0  0  0
  -24.3598   -9.4221   21.9168 C   0  0  0  0  0  0
  -23.6283   -8.2249   22.0744 C   0  0  0  0  0  0
  -22.4264   -8.0281   21.3540 C   0  0  0  0  0  0
  -21.9891   -9.0245   20.4641 C   0  0  0  0  0  0
  -22.7210  -10.2129   20.3051 C   0  0  0  0  0  0
  -21.6857   -6.0736   22.5273 C   0  0  0  0  0  0
  -21.4012   -6.5631   23.8213 C   0  0  0  0  0  0
  -21.3663   -5.6786   24.9169 C   0  0  0  0  0  0
  -21.6050   -4.3052   24.7224 C   0  0  0  0  0  0
  -21.8821   -3.8147   23.4344 C   0  0  0  0  0  0
  -21.9190   -4.6961   22.3400 C   0  0  0  0  0  0
  -22.7856  -13.5240   21.1840 C   0  0  0  0  0  0
  -22.1661   -4.2154   21.0973 F   0  0  0  0  0  0
  -21.5636   -3.4535   25.7730 F   0  0  0  0  0  0
  -30.0385  -13.2800   20.4528 N   0  0  0  0  0  0
  -26.3027  -12.9302   20.3376 N   0  0  0  0  0  0
  -25.9292  -11.6469   20.5738 N   0  0  0  0  0  0
  -22.0506  -12.8225   22.0396 N   0  0  0  0  0  0
  -25.4362  -15.1859   20.4112 N   0  0  0  0  0  0
  -31.8090  -14.6808   20.1048 O   0  0  0  0  0  0
  -21.6645   -6.8872   21.4232 O   0  0  0  0  0  0
  -22.3536  -14.5536   20.6682 O   0  0  0  0  0  0
  -24.6168  -31.8671   23.2117 C   0  0  0  0  0  0
  -25.9059  -32.4818   23.8404 C   0  0  1  0  0  0
  -27.2264  -27.4232   20.0975 C   0  0  0  0  0  0
  -25.5913  -33.8617   24.2328 N   0  0  0  0  0  0
  -23.4046  -30.4952   21.5512 C   0  0  2  0  0  0
  -24.8492  -28.9692   20.1080 C   0  0  0  0  0  0
  -22.7427  -29.4664   22.4964 C   0  0  0  0  0  0
  -18.0273  -28.1384   22.8490 C   0  0  0  0  0  0
  -24.1482  -36.7315   23.2637 C   0  0  0  0  0  0
  -25.9371  -30.8293   21.3702 C   0  0  0  0  0  0
  -26.0117  -29.4679   20.7093 C   0  0  0  0  0  0
  -27.2032  -28.7037   20.6988 C   0  0  0  0  0  0
  -26.0466  -26.9573   19.4660 C   0  0  0  0  0  0
  -24.8634  -27.7157   19.4785 C   0  0  0  0  0  0
  -23.6126  -29.8363   20.1627 C   0  0  0  0  0  0
  -25.4100  -36.3102   24.0334 C   0  0  1  0  0  0
  -20.5870  -28.3679   23.1300 C   0  0  2  0  0  0
  -20.6764  -26.9409   22.5410 C   0  0  0  0  0  0
  -19.5738  -26.6390   21.5213 C   0  0  0  0  0  0
  -18.1920  -26.7926   22.1632 C   0  0  0  0  0  0
  -19.1527  -28.8846   23.2895 C   0  0  0  0  0  0
  -18.9455  -30.1452   23.8908 C   0  0  0  0  0  0
  -17.6459  -30.6590   24.0568 C   0  0  0  0  0  0
  -25.9033  -34.9474   23.5127 C   0  0  0  0  0  0
  -16.5348  -29.9097   23.6324 C   0  0  0  0  0  0
  -16.7265  -28.6514   23.0340 C   0  0  0  0  0  0
  -26.4484  -31.6601   25.0743 C   0  0  0  0  0  0
  -25.3760  -31.3732   26.1509 C   0  0  0  0  0  0
  -27.0310  -30.3026   24.6159 C   0  0  0  0  0  0
  -27.6056  -32.4334   25.7500 C   0  0  0  0  0  0
  -27.5579  -37.1801   24.8456 C   0  0  0  0  0  0
  -21.4149  -29.3050   22.3712 N   0  0  0  0  0  0
  -26.4281  -37.3795   23.9417 N   0  0  0  0  0  0
  -24.6706  -31.0777   22.1020 N   0  0  0  0  0  0
  -23.4186  -28.8192   23.3003 O   0  0  0  0  0  0
  -28.3759  -26.6508   20.1583 O   0  0  0  0  0  0
  -26.5594  -34.8924   22.4689 O   0  0  0  0  0  0
  -23.5362  -32.1432   23.7510 O   0  0  0  0  0  0
  -29.0386  -18.6982   19.6307 C   0  0  0  0  0  0
  -29.0494  -17.3305   19.9725 C   0  0  0  0  0  0
  -30.9686  -17.7119   21.4144 C   0  0  0  0  0  0
  -29.9749  -19.6008   20.1861 C   0  0  0  0  0  0
  -30.0257  -16.8190   20.8522 C   0  0  0  0  0  0
  -30.9426  -19.0929   21.0903 C   0  0  0  0  0  0
  -29.9658  -21.0376   19.7161 C   0  0  0  0  0  0
  -30.6072  -24.3117   20.1014 C   0  0  0  0  0  0
  -31.1812  -22.9613   20.5453 C   0  0  0  0  0  0
  -28.8522  -22.8615   20.8616 C   0  0  0  0  0  0
  -29.2492  -24.3570   20.7838 C   0  0  2  0  0  0
  -28.1765  -25.2252   20.0809 C   0  0  0  0  0  0
  -30.0508  -22.0301   20.6326 N   0  0  0  0  0  0
  -29.9868  -15.4365   21.1996 N   0  0  0  0  0  0
  -29.7977  -21.2809   18.5148 O   0  0  0  0  0  0
  -31.8766  -19.9122   21.6330 F   0  0  0  0  0  0
  -31.4694  -12.4203   19.1112 H   0  0  0  0  0  0
  -30.3405  -11.2935   19.8077 H   0  0  0  0  0  0
  -29.7330  -11.7904   17.4229 H   0  0  0  0  0  0
  -29.6611  -13.4995   17.7753 H   0  0  0  0  0  0
  -27.8200  -11.3136   18.8030 H   0  0  0  0  0  0
  -27.3681  -12.6568   17.7875 H   0  0  0  0  0  0
  -27.7114  -14.2528   19.5886 H   0  0  0  0  0  0
  -28.6794  -11.9253   21.3194 H   0  0  0  0  0  0
  -28.4595  -13.5463   21.8876 H   0  0  0  0  0  0
  -25.2743   -9.5698   22.4725 H   0  0  0  0  0  0
  -24.0011   -7.4641   22.7438 H   0  0  0  0  0  0
  -21.0834   -8.8736   19.8923 H   0  0  0  0  0  0
  -22.3664  -10.9656   19.6150 H   0  0  0  0  0  0
  -21.1996   -7.6142   23.9709 H   0  0  0  0  0  0
  -21.1484   -6.0521   25.9069 H   0  0  0  0  0  0
  -22.0596   -2.7609   23.2840 H   0  0  0  0  0  0
  -22.4140  -11.9885   22.4769 H   0  0  0  0  0  0
  -21.1110  -13.1223   22.2600 H   0  0  0  0  0  0
  -24.6751  -15.8471   20.5165 H   0  0  0  0  0  0
  -26.2946  -15.6182   20.0958 H   0  0  0  0  0  0
  -26.7133  -32.5514   23.1166 H   0  0  0  0  0  0
  -25.0066  -33.9771   25.0474 H   0  0  0  0  0  0
  -22.6947  -31.3135   21.4157 H   0  0  0  0  0  0
  -23.3741  -35.9651   23.3292 H   0  0  0  0  0  0
  -24.3580  -36.8941   22.2051 H   0  0  0  0  0  0
  -23.7233  -37.6519   23.6658 H   0  0  0  0  0  0
  -26.0613  -31.5997   20.6081 H   0  0  0  0  0  0
  -26.8208  -30.8706   21.9953 H   0  0  0  0  0  0
  -28.0968  -29.0810   21.1762 H   0  0  0  0  0  0
  -26.0146  -26.0037   18.9596 H   0  0  0  0  0  0
  -23.9746  -27.3313   18.9966 H   0  0  0  0  0  0
  -23.7224  -30.6159   19.4077 H   0  0  0  0  0  0
  -22.7353  -29.2596   19.8635 H   0  0  0  0  0  0
  -25.1272  -36.1963   25.0825 H   0  0  0  0  0  0
  -20.9961  -28.3247   24.1420 H   0  0  0  0  0  0
  -20.5667  -26.2287   23.3604 H   0  0  0  0  0  0
  -21.6632  -26.7450   22.1198 H   0  0  0  0  0  0
  -19.6897  -25.6305   21.1231 H   0  0  0  0  0  0
  -19.6668  -27.3211   20.6749 H   0  0  0  0  0  0
  -17.4183  -26.6668   21.4042 H   0  0  0  0  0  0
  -18.0329  -26.0068   22.9032 H   0  0  0  0  0  0
  -19.7933  -30.7265   24.2274 H   0  0  0  0  0  0
  -17.5016  -31.6265   24.5183 H   0  0  0  0  0  0
  -15.5350  -30.3009   23.7640 H   0  0  0  0  0  0
  -15.8662  -28.0848   22.7037 H   0  0  0  0  0  0
  -24.5897  -30.7115   25.7863 H   0  0  0  0  0  0
  -24.9008  -32.2906   26.4992 H   0  0  0  0  0  0
  -25.8122  -30.8873   27.0246 H   0  0  0  0  0  0
  -26.2859  -29.6787   24.1210 H   0  0  0  0  0  0
  -27.4042  -29.7271   25.4640 H   0  0  0  0  0  0
  -27.8717  -30.4312   23.9338 H   0  0  0  0  0  0
  -27.2665  -33.3634   26.2080 H   0  0  0  0  0  0
  -28.3863  -32.6902   25.0325 H   0  0  0  0  0  0
  -28.0730  -31.8465   26.5419 H   0  0  0  0  0  0
  -28.2582  -38.0113   24.7531 H   0  0  0  0  0  0
  -28.1087  -36.2649   24.6239 H   0  0  0  0  0  0
  -27.2305  -37.1402   25.8860 H   0  0  0  0  0  0
  -20.9307  -29.8790   21.6954 H   0  0  0  0  0  0
  -26.0166  -38.2867   24.1447 H   0  0  0  0  0  0
  -28.2992  -19.0608   18.9297 H   0  0  0  0  0  0
  -28.3103  -16.6751   19.5321 H   0  0  0  0  0  0
  -31.7228  -17.3408   22.0936 H   0  0  0  0  0  0
  -30.4853  -24.3203   19.0174 H   0  0  0  0  0  0
  -31.2432  -25.1547   20.3703 H   0  0  0  0  0  0
  -31.6235  -23.0452   21.5401 H   0  0  0  0  0  0
  -31.9722  -22.6219   19.8727 H   0  0  0  0  0  0
  -28.0733  -22.6416   20.1272 H   0  0  0  0  0  0
  -28.4207  -22.6286   21.8362 H   0  0  0  0  0  0
  -29.3863  -24.7211   21.8043 H   0  0  0  0  0  0
  -27.2311  -24.9601   20.5592 H   0  0  0  0  0  0
  -28.0934  -24.9353   19.0325 H   0  0  0  0  0  0
  -29.1038  -15.1053   21.5583 H   0  0  0  0  0  0
  1 25  1  0  0  0
  1 30  2  0  0  0
  1 84  1  0  0  0
  2  3  1  0  0  0
  2 25  1  0  0  0
  2 87  1  0  0  0
  2 88  1  0  0  0
  3  4  1  0  0  0
  3 89  1  0  0  0
  3 90  1  0  0  0
  4  5  1  0  0  0
  4 91  1  0  0  0
  4 92  1  0  0  0
  5  6  1  0  0  0
  5 26  1  0  0  0
  5 93  1  0  0  0
  6 25  1  0  0  0
  6 94  1  0  0  0
  6 95  1  0  0  0
  7  8  2  0  0  0
  7 26  1  0  0  0
  7 29  1  0  0  0
  8  9  1  0  0  0
  8 22  1  0  0  0
  9 10  1  0  0  0
  9 27  2  0  0  0
 10 11  2  0  0  0
 10 15  1  0  0  0
 11 12  1  0  0  0
 11 96  1  0  0  0
 12 13  2  0  0  0
 12 97  1  0  0  0
 13 14  1  0  0  0
 13 31  1  0  0  0
 14 15  2  0  0  0
 14 98  1  0  0  0
 15 99  1  0  0  0
 16 17  2  0  0  0
 16 21  1  0  0  0
 16 31  1  0  0  0
 17 18  1  0  0  0
 17100  1  0  0  0
 18 19  2  0  0  0
 18101  1  0  0  0
 19 20  1  0  0  0
 19 24  1  0  0  0
 20 21  2  0  0  0
 20102  1  0  0  0
 21 23  1  0  0  0
 22 28  1  0  0  0
 22 32  2  0  0  0
 26 27  1  0  0  0
 28103  1  0  0  0
 28104  1  0  0  0
 29105  1  0  0  0
 29106  1  0  0  0
 33 34  1  0  0  0
 33 66  1  0  0  0
 33 70  2  0  0  0
 34 36  1  0  0  0
 34 59  1  0  0  0
 34107  1  0  0  0
 35 44  2  0  0  0
 35 45  1  0  0  0
 35 68  1  0  0  0
 36 56  1  0  0  0
 36108  1  0  0  0
 37 39  1  0  0  0
 37 47  1  0  0  0
 37 66  1  0  0  0
 37109  1  0  0  0
 38 43  2  0  0  0
 38 46  1  0  0  0
 38 47  1  0  0  0
 39 64  1  0  0  0
 39 67  2  0  0  0
 40 52  1  0  0  0
 40 53  2  0  0  0
 40 58  1  0  0  0
 41110  1  0  0  0
 41111  1  0  0  0
 41112  1  0  0  0
 41 48  1  0  0  0
 42 43  1  0  0  0
 42 66  1  0  0  0
 42113  1  0  0  0
 42114  1  0  0  0
 43 44  1  0  0  0
 44115  1  0  0  0
 45 46  2  0  0  0
 45116  1  0  0  0
 46117  1  0  0  0
 47118  1  0  0  0
 47119  1  0  0  0
 48 56  1  0  0  0
 48 65  1  0  0  0
 48120  1  0  0  0
 49 50  1  0  0  0
 49 53  1  0  0  0
 49 64  1  0  0  0
 49121  1  0  0  0
 50 51  1  0  0  0
 50122  1  0  0  0
 50123  1  0  0  0
 51 52  1  0  0  0
 51124  1  0  0  0
 51125  1  0  0  0
 52126  1  0  0  0
 52127  1  0  0  0
 53 54  1  0  0  0
 54 55  2  0  0  0
 54128  1  0  0  0
 55 57  1  0  0  0
 55129  1  0  0  0
 56 69  2  0  0  0
 57 58  2  0  0  0
 57130  1  0  0  0
 58131  1  0  0  0
 59 60  1  0  0  0
 59 61  1  0  0  0
 59 62  1  0  0  0
 60132  1  0  0  0
 60133  1  0  0  0
 60134  1  0  0  0
 61135  1  0  0  0
 61136  1  0  0  0
 61137  1  0  0  0
 62138  1  0  0  0
 62139  1  0  0  0
 62140  1  0  0  0
 63 65  1  0  0  0
 63141  1  0  0  0
 63142  1  0  0  0
 63143  1  0  0  0
 64144  1  0  0  0
 65145  1  0  0  0
 68 82  1  0  0  0
 71 72  2  0  0  0
 71 74  1  0  0  0
 71146  1  0  0  0
 72 75  1  0  0  0
 72147  1  0  0  0
 73 75  2  0  0  0
 73 76  1  0  0  0
 73148  1  0  0  0
 74 76  2  0  0  0
 74 77  1  0  0  0
 75 84  1  0  0  0
 76 86  1  0  0  0
 77 83  1  0  0  0
 77 85  2  0  0  0
 78 79  1  0  0  0
 78 81  1  0  0  0
 78149  1  0  0  0
 78150  1  0  0  0
 79 83  1  0  0  0
 79151  1  0  0  0
 79152  1  0  0  0
 80 81  1  0  0  0
 80 83  1  0  0  0
 80153  1  0  0  0
 80154  1  0  0  0
 81 82  1  0  0  0
 81155  1  0  0  0
 82156  1  0  0  0
 82157  1  0  0  0
 84158  1  0  0  0
M  ISO  4   1 100  68 101  82 101  84 100
M  END
> <chiral flag>
0

> <version>
0

> <s_m_source_file>
/data/baiqing/PycharmProjects/Reinvent-master-3.2/result/LINK_invent/BTK/process_docking_weight1_custom_product_contain_oxygen_bond_distance_aromatic_linkinvent_7_9_3/rearranged_h_0099.sdf

> <i_m_source_file_index>
92

> <r_mmod_Potential_Energy-OPLS-2005>
188.682983398438

> <r_mmod_Stretch_Energy-OPLS-2005>
39.6657981872559

> <r_mmod_Bend_Energy-OPLS-2005>
120.707160949707

> <r_mmod_Torsional_Energy-OPLS-2005>
385.269836425781

> <r_mmod_Improper_Torsional_Energy-OPLS-2005>
10.6854152679443

> <r_mmod_Van_der_Waal_Energy-OPLS-2005>
153.290451049805

> <r_mmod_Electrostatic_Energy-OPLS-2005>
-313.307983398438

> <r_mmod_Solvation_Energy-OPLS-2005>
-222.441513061523

> <b_mmod_Minimization_Converged-OPLS-2005>
0

> <r_mmod_RMS_Derivative-OPLS-2005>
1.88756191730499

$$$$
93
                    3D
 Structure written by MMmdl.
161170  0  0  1  0            999 V2000
  -30.6464  -14.6044   20.5124 C   0  0  0  0  0  0
  -30.4385  -12.3736   19.4431 C   0  0  0  0  0  0
  -29.5077  -12.5147   18.2182 C   0  0  0  0  0  0
  -28.0291  -12.3589   18.6293 C   0  0  0  0  0  0
  -27.6594  -13.2158   19.8695 C   0  0  2  0  0  0
  -28.7067  -13.0481   20.9949 C   0  0  0  0  0  0
  -25.2585  -13.8175   20.5700 C   0  0  0  0  0  0
  -24.1847  -13.0444   20.9196 C   0  0  0  0  0  0
  -24.6410  -11.6915   20.8739 C   0  0  0  0  0  0
  -23.9076  -10.4295   21.0406 C   0  0  0  0  0  0
  -24.3620   -9.4211   21.9185 C   0  0  0  0  0  0
  -23.6289   -8.2254   22.0762 C   0  0  0  0  0  0
  -22.4268   -8.0296   21.3555 C   0  0  0  0  0  0
  -21.9904   -9.0270   20.4656 C   0  0  0  0  0  0
  -22.7243  -10.2143   20.3058 C   0  0  0  0  0  0
  -21.6854   -6.0735   22.5280 C   0  0  0  0  0  0
  -21.4016   -6.5637   23.8212 C   0  0  0  0  0  0
  -21.3655   -5.6791   24.9173 C   0  0  0  0  0  0
  -21.6040   -4.3054   24.7224 C   0  0  0  0  0  0
  -21.8821   -3.8145   23.4346 C   0  0  0  0  0  0
  -21.9192   -4.6963   22.3400 C   0  0  0  0  0  0
  -22.7861  -13.5246   21.1843 C   0  0  0  0  0  0
  -22.1661   -4.2149   21.0978 F   0  0  0  0  0  0
  -21.5622   -3.4537   25.7738 F   0  0  0  0  0  0
  -30.0267  -13.3855   20.4349 N   0  0  0  0  0  0
  -26.3025  -12.9357   20.3351 N   0  0  0  0  0  0
  -25.9340  -11.6509   20.5756 N   0  0  0  0  0  0
  -22.0485  -12.8253   22.0398 N   0  0  0  0  0  0
  -25.4292  -15.1896   20.4109 N   0  0  0  0  0  0
  -31.7985  -14.7706   20.1036 O   0  0  0  0  0  0
  -21.6638   -6.8887   21.4247 O   0  0  0  0  0  0
  -22.3555  -14.5547   20.6680 O   0  0  0  0  0  0
  -24.6241  -31.8629   23.2049 C   0  0  0  0  0  0
  -25.9100  -32.4793   23.8373 C   0  0  1  0  0  0
  -27.2234  -27.3366   20.1100 C   0  0  0  0  0  0
  -25.5919  -33.8590   24.2300 N   0  0  0  0  0  0
  -23.4163  -30.4873   21.5480 C   0  0  2  0  0  0
  -24.8615  -28.9455   20.1143 C   0  0  0  0  0  0
  -22.7464  -29.4638   22.4959 C   0  0  0  0  0  0
  -18.0284  -28.1385   22.8483 C   0  0  0  0  0  0
  -24.1474  -36.7282   23.2640 C   0  0  0  0  0  0
  -25.9571  -30.7967   21.3761 C   0  0  0  0  0  0
  -26.0308  -29.4257   20.7181 C   0  0  0  0  0  0
  -27.2148  -28.6323   20.7083 C   0  0  0  0  0  0
  -26.0337  -26.9146   19.4711 C   0  0  0  0  0  0
  -24.8637  -27.6933   19.4843 C   0  0  0  0  0  0
  -23.6301  -29.8251   20.1624 C   0  0  0  0  0  0
  -25.4099  -36.3085   24.0337 C   0  0  1  0  0  0
  -20.5882  -28.3681   23.1284 C   0  0  2  0  0  0
  -20.6771  -26.9406   22.5404 C   0  0  0  0  0  0
  -19.5745  -26.6381   21.5204 C   0  0  0  0  0  0
  -18.1927  -26.7929   22.1619 C   0  0  0  0  0  0
  -19.1538  -28.8851   23.2878 C   0  0  0  0  0  0
  -18.9469  -30.1452   23.8902 C   0  0  0  0  0  0
  -17.6469  -30.6585   24.0567 C   0  0  0  0  0  0
  -25.9047  -34.9458   23.5118 C   0  0  0  0  0  0
  -16.5358  -29.9088   23.6327 C   0  0  0  0  0  0
  -16.7272  -28.6501   23.0351 C   0  0  0  0  0  0
  -26.4481  -31.6595   25.0739 C   0  0  0  0  0  0
  -25.3716  -31.3737   26.1471 C   0  0  0  0  0  0
  -27.0322  -30.3019   24.6185 C   0  0  0  0  0  0
  -27.6045  -32.4325   25.7504 C   0  0  0  0  0  0
  -27.5570  -37.1795   24.8466 C   0  0  0  0  0  0
  -21.4183  -29.3038   22.3690 N   0  0  0  0  0  0
  -26.4275  -37.3781   23.9419 N   0  0  0  0  0  0
  -24.6843  -31.0655   22.0998 N   0  0  0  0  0  0
  -23.4196  -28.8182   23.3036 O   0  0  0  0  0  0
  -28.3507  -26.5044   20.1324 O   0  0  0  0  0  0
  -26.5618  -34.8926   22.4688 O   0  0  0  0  0  0
  -23.5407  -32.1430   23.7385 O   0  0  0  0  0  0
  -30.9982  -19.2161   20.0978 C   0  0  0  0  0  0
  -31.0588  -17.8084   20.3062 C   0  0  0  0  0  0
  -28.7483  -17.8460   20.9452 C   0  0  0  0  0  0
  -28.6759  -19.2566   20.7279 C   0  0  0  0  0  0
  -29.8114  -19.9951   20.2649 C   0  0  0  0  0  0
  -29.9183  -17.0785   20.7186 C   0  0  0  0  0  0
  -29.5851  -24.0414   18.4873 C   0  0  0  0  0  0
  -29.9067  -22.7193   17.7962 C   0  0  0  0  0  0
  -30.6344  -21.7511   18.7399 C   0  0  0  0  0  0
  -28.9205  -22.4880   20.4209 C   0  0  0  0  0  0
  -29.2591  -23.9932   19.9903 C   0  0  2  0  0  0
  -27.3240  -19.9083   20.9626 C   0  0  0  0  0  0
  -28.1354  -25.0552   20.3594 C   0  0  0  0  0  0
  -29.8247  -21.4010   19.9132 N   0  0  0  0  0  0
  -29.8551  -15.6368   20.9296 N   0  0  0  0  0  0
  -29.6071  -25.0980   17.8485 O   0  0  0  0  0  0
  -31.4812  -12.4862   19.1419 H   0  0  0  0  0  0
  -30.3607  -11.3729   19.8706 H   0  0  0  0  0  0
  -29.7650  -11.7732   17.4604 H   0  0  0  0  0  0
  -29.6587  -13.4896   17.7522 H   0  0  0  0  0  0
  -27.8553  -11.3042   18.8443 H   0  0  0  0  0  0
  -27.3784  -12.6099   17.7908 H   0  0  0  0  0  0
  -27.6850  -14.2556   19.5453 H   0  0  0  0  0  0
  -28.7103  -12.0192   21.3580 H   0  0  0  0  0  0
  -28.4587  -13.6631   21.8612 H   0  0  0  0  0  0
  -25.2763   -9.5678   22.4765 H   0  0  0  0  0  0
  -23.9994   -7.4642   22.7481 H   0  0  0  0  0  0
  -21.0833   -8.8790   19.8962 H   0  0  0  0  0  0
  -22.3706  -10.9680   19.6167 H   0  0  0  0  0  0
  -21.2014   -7.6147   23.9714 H   0  0  0  0  0  0
  -21.1468   -6.0520   25.9073 H   0  0  0  0  0  0
  -22.0603   -2.7609   23.2848 H   0  0  0  0  0  0
  -22.4079  -11.9914   22.4800 H   0  0  0  0  0  0
  -21.1104  -13.1295   22.2584 H   0  0  0  0  0  0
  -24.6593  -15.8406   20.5199 H   0  0  0  0  0  0
  -26.2644  -15.6243   20.0404 H   0  0  0  0  0  0
  -26.7181  -32.5468   23.1135 H   0  0  0  0  0  0
  -25.0050  -33.9736   25.0431 H   0  0  0  0  0  0
  -22.7085  -31.3070   21.4071 H   0  0  0  0  0  0
  -23.3744  -35.9605   23.3299 H   0  0  0  0  0  0
  -24.3564  -36.8902   22.2054 H   0  0  0  0  0  0
  -23.7221  -37.6482   23.6660 H   0  0  0  0  0  0
  -26.0910  -31.5620   20.6105 H   0  0  0  0  0  0
  -26.8370  -30.8428   22.0059 H   0  0  0  0  0  0
  -28.1127  -28.9962   21.1879 H   0  0  0  0  0  0
  -25.9792  -25.9795   18.9363 H   0  0  0  0  0  0
  -23.9713  -27.3234   18.9974 H   0  0  0  0  0  0
  -23.7530  -30.6033   19.4080 H   0  0  0  0  0  0
  -22.7493  -29.2578   19.8566 H   0  0  0  0  0  0
  -25.1276  -36.1938   25.0830 H   0  0  0  0  0  0
  -20.9970  -28.3252   24.1405 H   0  0  0  0  0  0
  -20.5650  -26.2296   23.3602 H   0  0  0  0  0  0
  -21.6647  -26.7428   22.1214 H   0  0  0  0  0  0
  -19.6901  -25.6293   21.1233 H   0  0  0  0  0  0
  -19.6675  -27.3187   20.6729 H   0  0  0  0  0  0
  -17.4190  -26.6666   21.4029 H   0  0  0  0  0  0
  -18.0330  -26.0073   22.9015 H   0  0  0  0  0  0
  -19.7950  -30.7263   24.2269 H   0  0  0  0  0  0
  -17.5030  -31.6263   24.5171 H   0  0  0  0  0  0
  -15.5362  -30.2993   23.7652 H   0  0  0  0  0  0
  -15.8667  -28.0819   22.7075 H   0  0  0  0  0  0
  -24.5872  -30.7109   25.7805 H   0  0  0  0  0  0
  -24.8931  -32.2909   26.4913 H   0  0  0  0  0  0
  -25.8041  -30.8899   27.0237 H   0  0  0  0  0  0
  -26.2897  -29.6778   24.1201 H   0  0  0  0  0  0
  -27.4019  -29.7271   25.4688 H   0  0  0  0  0  0
  -27.8763  -30.4313   23.9409 H   0  0  0  0  0  0
  -27.2660  -33.3624   26.2084 H   0  0  0  0  0  0
  -28.3844  -32.6888   25.0324 H   0  0  0  0  0  0
  -28.0715  -31.8451   26.5418 H   0  0  0  0  0  0
  -28.2593  -38.0087   24.7524 H   0  0  0  0  0  0
  -28.1065  -36.2628   24.6269 H   0  0  0  0  0  0
  -27.2301  -37.1424   25.8872 H   0  0  0  0  0  0
  -20.9363  -29.8769   21.6908 H   0  0  0  0  0  0
  -26.0157  -38.2853   24.1432 H   0  0  0  0  0  0
  -31.9132  -19.6968   19.7830 H   0  0  0  0  0  0
  -31.9984  -17.3034   20.1349 H   0  0  0  0  0  0
  -27.8573  -17.3294   21.2736 H   0  0  0  0  0  0
  -30.5185  -22.9166   16.9154 H   0  0  0  0  0  0
  -28.9751  -22.2768   17.4425 H   0  0  0  0  0  0
  -31.5771  -22.1885   19.0738 H   0  0  0  0  0  0
  -30.8917  -20.8673   18.1552 H   0  0  0  0  0  0
  -27.9129  -22.2869   20.0612 H   0  0  0  0  0  0
  -28.8844  -22.4336   21.5093 H   0  0  0  0  0  0
  -30.1728  -24.2864   20.5064 H   0  0  0  0  0  0
  -26.5734  -19.1797   21.2692 H   0  0  0  0  0  0
  -26.9592  -20.3696   20.0458 H   0  0  0  0  0  0
  -27.3863  -20.6565   21.7522 H   0  0  0  0  0  0
  -27.9291  -24.9521   21.4249 H   0  0  0  0  0  0
  -27.2344  -24.6902   19.8756 H   0  0  0  0  0  0
  -28.9710  -15.3071   21.2840 H   0  0  0  0  0  0
  1 25  1  0  0  0
  1 30  2  0  0  0
  1 85  1  0  0  0
  2  3  1  0  0  0
  2 25  1  0  0  0
  2 87  1  0  0  0
  2 88  1  0  0  0
  3  4  1  0  0  0
  3 89  1  0  0  0
  3 90  1  0  0  0
  4  5  1  0  0  0
  4 91  1  0  0  0
  4 92  1  0  0  0
  5  6  1  0  0  0
  5 26  1  0  0  0
  5 93  1  0  0  0
  6 25  1  0  0  0
  6 94  1  0  0  0
  6 95  1  0  0  0
  7  8  2  0  0  0
  7 26  1  0  0  0
  7 29  1  0  0  0
  8  9  1  0  0  0
  8 22  1  0  0  0
  9 10  1  0  0  0
  9 27  2  0  0  0
 10 11  2  0  0  0
 10 15  1  0  0  0
 11 12  1  0  0  0
 11 96  1  0  0  0
 12 13  2  0  0  0
 12 97  1  0  0  0
 13 14  1  0  0  0
 13 31  1  0  0  0
 14 15  2  0  0  0
 14 98  1  0  0  0
 15 99  1  0  0  0
 16 17  2  0  0  0
 16 21  1  0  0  0
 16 31  1  0  0  0
 17 18  1  0  0  0
 17100  1  0  0  0
 18 19  2  0  0  0
 18101  1  0  0  0
 19 20  1  0  0  0
 19 24  1  0  0  0
 20 21  2  0  0  0
 20102  1  0  0  0
 21 23  1  0  0  0
 22 28  1  0  0  0
 22 32  2  0  0  0
 26 27  1  0  0  0
 28103  1  0  0  0
 28104  1  0  0  0
 29105  1  0  0  0
 29106  1  0  0  0
 33 34  1  0  0  0
 33 66  1  0  0  0
 33 70  2  0  0  0
 34 36  1  0  0  0
 34 59  1  0  0  0
 34107  1  0  0  0
 35 44  2  0  0  0
 35 45  1  0  0  0
 35 68  1  0  0  0
 36 56  1  0  0  0
 36108  1  0  0  0
 37 39  1  0  0  0
 37 47  1  0  0  0
 37 66  1  0  0  0
 37109  1  0  0  0
 38 43  2  0  0  0
 38 46  1  0  0  0
 38 47  1  0  0  0
 39 64  1  0  0  0
 39 67  2  0  0  0
 40 52  1  0  0  0
 40 53  2  0  0  0
 40 58  1  0  0  0
 41110  1  0  0  0
 41111  1  0  0  0
 41112  1  0  0  0
 41 48  1  0  0  0
 42 43  1  0  0  0
 42 66  1  0  0  0
 42113  1  0  0  0
 42114  1  0  0  0
 43 44  1  0  0  0
 44115  1  0  0  0
 45 46  2  0  0  0
 45116  1  0  0  0
 46117  1  0  0  0
 47118  1  0  0  0
 47119  1  0  0  0
 48 56  1  0  0  0
 48 65  1  0  0  0
 48120  1  0  0  0
 49 50  1  0  0  0
 49 53  1  0  0  0
 49 64  1  0  0  0
 49121  1  0  0  0
 50 51  1  0  0  0
 50122  1  0  0  0
 50123  1  0  0  0
 51 52  1  0  0  0
 51124  1  0  0  0
 51125  1  0  0  0
 52126  1  0  0  0
 52127  1  0  0  0
 53 54  1  0  0  0
 54 55  2  0  0  0
 54128  1  0  0  0
 55 57  1  0  0  0
 55129  1  0  0  0
 56 69  2  0  0  0
 57 58  2  0  0  0
 57130  1  0  0  0
 58131  1  0  0  0
 59 60  1  0  0  0
 59 61  1  0  0  0
 59 62  1  0  0  0
 60132  1  0  0  0
 60133  1  0  0  0
 60134  1  0  0  0
 61135  1  0  0  0
 61136  1  0  0  0
 61137  1  0  0  0
 62138  1  0  0  0
 62139  1  0  0  0
 62140  1  0  0  0
 63 65  1  0  0  0
 63141  1  0  0  0
 63142  1  0  0  0
 63143  1  0  0  0
 64144  1  0  0  0
 65145  1  0  0  0
 68 83  1  0  0  0
 71 72  2  0  0  0
 71 75  1  0  0  0
 71146  1  0  0  0
 72 76  1  0  0  0
 72147  1  0  0  0
 73 74  1  0  0  0
 73 76  2  0  0  0
 73148  1  0  0  0
 74 75  2  0  0  0
 74 82  1  0  0  0
 75 84  1  0  0  0
 76 85  1  0  0  0
 77 78  1  0  0  0
 77 81  1  0  0  0
 77 86  2  0  0  0
 78 79  1  0  0  0
 78149  1  0  0  0
 78150  1  0  0  0
 79 84  1  0  0  0
 79151  1  0  0  0
 79152  1  0  0  0
 80 81  1  0  0  0
 80 84  1  0  0  0
 80153  1  0  0  0
 80154  1  0  0  0
 81 83  1  0  0  0
 81155  1  0  0  0
 82156  1  0  0  0
 82157  1  0  0  0
 82158  1  0  0  0
 83159  1  0  0  0
 83160  1  0  0  0
 85161  1  0  0  0
M  ISO  4   1 100  68 101  83 101  85 100
M  END
> <chiral flag>
0

> <version>
0

> <s_m_source_file>
/data/baiqing/PycharmProjects/Reinvent-master-3.2/result/LINK_invent/BTK/process_docking_weight1_custom_product_contain_oxygen_bond_distance_aromatic_linkinvent_7_9_3/rearranged_h_0099.sdf

> <i_m_source_file_index>
93

> <r_mmod_Potential_Energy-OPLS-2005>
13.147777557373

> <r_mmod_Stretch_Energy-OPLS-2005>
79.7929306030273

> <r_mmod_Bend_Energy-OPLS-2005>
155.962478637695

> <r_mmod_Torsional_Energy-OPLS-2005>
208.621322631836

> <r_mmod_Improper_Torsional_Energy-OPLS-2005>
4.61498975753784

> <r_mmod_Van_der_Waal_Energy-OPLS-2005>
165.806945800781

> <r_mmod_Electrostatic_Energy-OPLS-2005>
-400.755462646484

> <r_mmod_Solvation_Energy-OPLS-2005>
-238.98193359375

> <b_mmod_Minimization_Converged-OPLS-2005>
0

> <r_mmod_RMS_Derivative-OPLS-2005>
1.40885484218597

$$$$
94
                    3D
 Structure written by MMmdl.
153161  0  0  1  0            999 V2000
  -30.6982  -14.4295   20.5983 C   0  0  0  0  0  0
  -30.4189  -12.2931   19.4009 C   0  0  0  0  0  0
  -29.4842  -12.5295   18.1953 C   0  0  0  0  0  0
  -28.0033  -12.4021   18.6011 C   0  0  0  0  0  0
  -27.6651  -13.2065   19.8848 C   0  0  2  0  0  0
  -28.7062  -12.9334   20.9938 C   0  0  0  0  0  0
  -25.2586  -13.8180   20.5673 C   0  0  0  0  0  0
  -24.1832  -13.0443   20.9168 C   0  0  0  0  0  0
  -24.6390  -11.6908   20.8738 C   0  0  0  0  0  0
  -23.9038  -10.4301   21.0416 C   0  0  0  0  0  0
  -24.3597   -9.4222   21.9196 C   0  0  0  0  0  0
  -23.6294   -8.2252   22.0761 C   0  0  0  0  0  0
  -22.4277   -8.0294   21.3543 C   0  0  0  0  0  0
  -21.9914   -9.0247   20.4629 C   0  0  0  0  0  0
  -22.7224  -10.2139   20.3051 C   0  0  0  0  0  0
  -21.6867   -6.0731   22.5274 C   0  0  0  0  0  0
  -21.4015   -6.5639   23.8208 C   0  0  0  0  0  0
  -21.3662   -5.6797   24.9175 C   0  0  0  0  0  0
  -21.6050   -4.3058   24.7228 C   0  0  0  0  0  0
  -21.8823   -3.8148   23.4350 C   0  0  0  0  0  0
  -21.9191   -4.6961   22.3400 C   0  0  0  0  0  0
  -22.7855  -13.5237   21.1833 C   0  0  0  0  0  0
  -22.1665   -4.2150   21.0973 F   0  0  0  0  0  0
  -21.5629   -3.4541   25.7736 F   0  0  0  0  0  0
  -30.0427  -13.2462   20.4565 N   0  0  0  0  0  0
  -26.3032  -12.9345   20.3394 N   0  0  0  0  0  0
  -25.9314  -11.6494   20.5749 N   0  0  0  0  0  0
  -22.0469  -12.8209   22.0360 N   0  0  0  0  0  0
  -25.4294  -15.1890   20.4057 N   0  0  0  0  0  0
  -31.8010  -14.6569   20.0902 O   0  0  0  0  0  0
  -21.6650   -6.8885   21.4246 O   0  0  0  0  0  0
  -22.3529  -14.5537   20.6689 O   0  0  0  0  0  0
  -24.6159  -31.8675   23.2101 C   0  0  0  0  0  0
  -25.9051  -32.4813   23.8416 C   0  0  1  0  0  0
  -27.2436  -27.4356   20.0989 C   0  0  0  0  0  0
  -25.5904  -33.8623   24.2339 N   0  0  0  0  0  0
  -23.4059  -30.4866   21.5498 C   0  0  2  0  0  0
  -24.8566  -28.9473   20.1219 C   0  0  0  0  0  0
  -22.7419  -29.4654   22.5010 C   0  0  0  0  0  0
  -18.0262  -28.1402   22.8495 C   0  0  0  0  0  0
  -24.1485  -36.7294   23.2646 C   0  0  0  0  0  0
  -25.9369  -30.8295   21.3686 C   0  0  0  0  0  0
  -26.0177  -29.4658   20.7122 C   0  0  0  0  0  0
  -27.2178  -28.7183   20.6922 C   0  0  0  0  0  0
  -26.0687  -26.9268   19.5108 C   0  0  0  0  0  0
  -24.8757  -27.6755   19.5215 C   0  0  0  0  0  0
  -23.6169  -29.8133   20.1685 C   0  0  0  0  0  0
  -25.4108  -36.3103   24.0345 C   0  0  1  0  0  0
  -20.5857  -28.3680   23.1328 C   0  0  2  0  0  0
  -20.6748  -26.9417   22.5427 C   0  0  0  0  0  0
  -19.5712  -26.6393   21.5231 C   0  0  0  0  0  0
  -18.1893  -26.7953   22.1634 C   0  0  0  0  0  0
  -19.1516  -28.8866   23.2902 C   0  0  0  0  0  0
  -18.9438  -30.1481   23.8892 C   0  0  0  0  0  0
  -17.6440  -30.6612   24.0570 C   0  0  0  0  0  0
  -25.9044  -34.9471   23.5137 C   0  0  0  0  0  0
  -16.5329  -29.9093   23.6362 C   0  0  0  0  0  0
  -16.7254  -28.6520   23.0360 C   0  0  0  0  0  0
  -26.4478  -31.6600   25.0755 C   0  0  0  0  0  0
  -25.3727  -31.3667   26.1481 C   0  0  0  0  0  0
  -27.0368  -30.3057   24.6169 C   0  0  0  0  0  0
  -27.6036  -32.4339   25.7519 C   0  0  0  0  0  0
  -27.5592  -37.1807   24.8472 C   0  0  0  0  0  0
  -21.4149  -29.3033   22.3743 N   0  0  0  0  0  0
  -26.4304  -37.3787   23.9417 N   0  0  0  0  0  0
  -24.6707  -31.0755   22.1000 N   0  0  0  0  0  0
  -23.4186  -28.8185   23.3058 O   0  0  0  0  0  0
  -28.3965  -26.6853   20.0663 O   0  0  0  0  0  0
  -26.5590  -34.8907   22.4693 O   0  0  0  0  0  0
  -23.5351  -32.1439   23.7485 O   0  0  0  0  0  0
  -30.2001  -19.0825   21.8506 C   0  0  0  0  0  0
  -30.1931  -17.6882   22.0948 C   0  0  0  0  0  0
  -29.9412  -18.6667   19.4694 C   0  0  0  0  0  0
  -30.0825  -19.5881   20.5314 C   0  0  0  0  0  0
  -30.0748  -16.7723   21.0259 C   0  0  0  0  0  0
  -29.9217  -17.2768   19.7091 C   0  0  0  0  0  0
  -30.2184  -21.0624   20.2349 C   0  0  0  0  0  0
  -28.8869  -24.2584   20.3089 C   0  0  0  0  0  0
  -29.8370  -23.3674   21.1373 C   0  0  0  0  0  0
  -28.3935  -25.5651   20.9709 C   0  0  0  0  0  0
  -30.0392  -15.3708   21.2949 N   0  0  0  0  0  0
  -29.5768  -21.9170   21.0464 N   0  0  0  0  0  0
  -30.9128  -21.4384   19.2886 O   0  0  0  0  0  0
  -28.5290  -23.9311   19.1721 O   0  0  0  0  0  0
  -29.7309  -16.4300   18.6672 F   0  0  0  0  0  0
  -31.4604  -12.4010   19.0911 H   0  0  0  0  0  0
  -30.3211  -11.2700   19.7656 H   0  0  0  0  0  0
  -29.7086  -11.8255   17.3933 H   0  0  0  0  0  0
  -29.6618  -13.5258   17.7866 H   0  0  0  0  0  0
  -27.7833  -11.3441   18.7468 H   0  0  0  0  0  0
  -27.3633  -12.7340   17.7812 H   0  0  0  0  0  0
  -27.7238  -14.2641   19.6264 H   0  0  0  0  0  0
  -28.6718  -11.8819   21.2819 H   0  0  0  0  0  0
  -28.4649  -13.4860   21.9019 H   0  0  0  0  0  0
  -25.2743   -9.5707   22.4760 H   0  0  0  0  0  0
  -24.0013   -7.4650   22.7487 H   0  0  0  0  0  0
  -21.0862   -8.8742   19.8916 H   0  0  0  0  0  0
  -22.3685  -10.9672   19.6148 H   0  0  0  0  0  0
  -21.2007   -7.6146   23.9711 H   0  0  0  0  0  0
  -21.1488   -6.0530   25.9078 H   0  0  0  0  0  0
  -22.0598   -2.7615   23.2854 H   0  0  0  0  0  0
  -22.4089  -11.9873   22.4746 H   0  0  0  0  0  0
  -21.1055  -13.1204   22.2494 H   0  0  0  0  0  0
  -24.6633  -15.8456   20.5060 H   0  0  0  0  0  0
  -26.2805  -15.6255   20.0745 H   0  0  0  0  0  0
  -26.7124  -32.5523   23.1177 H   0  0  0  0  0  0
  -25.0111  -33.9788   25.0528 H   0  0  0  0  0  0
  -22.6934  -31.3022   21.4061 H   0  0  0  0  0  0
  -23.3771  -35.9607   23.3296 H   0  0  0  0  0  0
  -24.3588  -36.8926   22.2070 H   0  0  0  0  0  0
  -23.7217  -37.6475   23.6678 H   0  0  0  0  0  0
  -26.0644  -31.6019   20.6099 H   0  0  0  0  0  0
  -26.8173  -30.8730   21.9973 H   0  0  0  0  0  0
  -28.1176  -29.1178   21.1383 H   0  0  0  0  0  0
  -26.0805  -25.9510   19.0460 H   0  0  0  0  0  0
  -23.9823  -27.2655   19.0707 H   0  0  0  0  0  0
  -23.7268  -30.5844   19.4060 H   0  0  0  0  0  0
  -22.7424  -29.2306   19.8733 H   0  0  0  0  0  0
  -25.1291  -36.1975   25.0840 H   0  0  0  0  0  0
  -20.9943  -28.3241   24.1449 H   0  0  0  0  0  0
  -20.5672  -26.2278   23.3611 H   0  0  0  0  0  0
  -21.6612  -26.7453   22.1215 H   0  0  0  0  0  0
  -19.6857  -25.6302   21.1251 H   0  0  0  0  0  0
  -19.6648  -27.3204   20.6764 H   0  0  0  0  0  0
  -17.4173  -26.6758   21.4015 H   0  0  0  0  0  0
  -18.0229  -26.0088   22.9014 H   0  0  0  0  0  0
  -19.7907  -30.7322   24.2225 H   0  0  0  0  0  0
  -17.4981  -31.6281   24.5179 H   0  0  0  0  0  0
  -15.5325  -30.2980   23.7690 H   0  0  0  0  0  0
  -15.8659  -28.0840   22.7056 H   0  0  0  0  0  0
  -24.5931  -30.6987   25.7792 H   0  0  0  0  0  0
  -24.8885  -32.2804   26.4933 H   0  0  0  0  0  0
  -25.8086  -30.8833   27.0237 H   0  0  0  0  0  0
  -26.2961  -29.6757   24.1230 H   0  0  0  0  0  0
  -27.4148  -29.7339   25.4655 H   0  0  0  0  0  0
  -27.8772  -30.4386   23.9352 H   0  0  0  0  0  0
  -27.2655  -33.3646   26.2078 H   0  0  0  0  0  0
  -28.3848  -32.6888   25.0347 H   0  0  0  0  0  0
  -28.0702  -31.8488   26.5446 H   0  0  0  0  0  0
  -28.2586  -38.0123   24.7555 H   0  0  0  0  0  0
  -28.1109  -36.2661   24.6265 H   0  0  0  0  0  0
  -27.2315  -37.1424   25.8871 H   0  0  0  0  0  0
  -20.9315  -29.8771   21.6973 H   0  0  0  0  0  0
  -26.0191  -38.2862   24.1411 H   0  0  0  0  0  0
  -30.3361  -19.7570   22.6855 H   0  0  0  0  0  0
  -30.3034  -17.3274   23.1089 H   0  0  0  0  0  0
  -29.8452  -19.0254   18.4531 H   0  0  0  0  0  0
  -29.7750  -23.6576   22.1871 H   0  0  0  0  0  0
  -30.8594  -23.5866   20.8271 H   0  0  0  0  0  0
  -29.0333  -25.8059   21.8200 H   0  0  0  0  0  0
  -27.3945  -25.3783   21.3679 H   0  0  0  0  0  0
  -29.2529  -15.0432   21.8339 H   0  0  0  0  0  0
  -28.9683  -21.5183   21.7467 H   0  0  0  0  0  0
  1 25  1  0  0  0
  1 30  2  0  0  0
  1 81  1  0  0  0
  2  3  1  0  0  0
  2 25  1  0  0  0
  2 86  1  0  0  0
  2 87  1  0  0  0
  3  4  1  0  0  0
  3 88  1  0  0  0
  3 89  1  0  0  0
  4  5  1  0  0  0
  4 90  1  0  0  0
  4 91  1  0  0  0
  5  6  1  0  0  0
  5 26  1  0  0  0
  5 92  1  0  0  0
  6 25  1  0  0  0
  6 93  1  0  0  0
  6 94  1  0  0  0
  7  8  2  0  0  0
  7 26  1  0  0  0
  7 29  1  0  0  0
  8  9  1  0  0  0
  8 22  1  0  0  0
  9 10  1  0  0  0
  9 27  2  0  0  0
 10 11  2  0  0  0
 10 15  1  0  0  0
 11 12  1  0  0  0
 11 95  1  0  0  0
 12 13  2  0  0  0
 12 96  1  0  0  0
 13 14  1  0  0  0
 13 31  1  0  0  0
 14 15  2  0  0  0
 14 97  1  0  0  0
 15 98  1  0  0  0
 16 17  2  0  0  0
 16 21  1  0  0  0
 16 31  1  0  0  0
 17 18  1  0  0  0
 17 99  1  0  0  0
 18 19  2  0  0  0
 18100  1  0  0  0
 19 20  1  0  0  0
 19 24  1  0  0  0
 20 21  2  0  0  0
 20101  1  0  0  0
 21 23  1  0  0  0
 22 28  1  0  0  0
 22 32  2  0  0  0
 26 27  1  0  0  0
 28102  1  0  0  0
 28103  1  0  0  0
 29104  1  0  0  0
 29105  1  0  0  0
 33 34  1  0  0  0
 33 66  1  0  0  0
 33 70  2  0  0  0
 34 36  1  0  0  0
 34 59  1  0  0  0
 34106  1  0  0  0
 35 44  2  0  0  0
 35 45  1  0  0  0
 35 68  1  0  0  0
 36 56  1  0  0  0
 36107  1  0  0  0
 37 39  1  0  0  0
 37 47  1  0  0  0
 37 66  1  0  0  0
 37108  1  0  0  0
 38 43  2  0  0  0
 38 46  1  0  0  0
 38 47  1  0  0  0
 39 64  1  0  0  0
 39 67  2  0  0  0
 40 52  1  0  0  0
 40 53  2  0  0  0
 40 58  1  0  0  0
 41109  1  0  0  0
 41110  1  0  0  0
 41111  1  0  0  0
 41 48  1  0  0  0
 42 43  1  0  0  0
 42 66  1  0  0  0
 42112  1  0  0  0
 42113  1  0  0  0
 43 44  1  0  0  0
 44114  1  0  0  0
 45 46  2  0  0  0
 45115  1  0  0  0
 46116  1  0  0  0
 47117  1  0  0  0
 47118  1  0  0  0
 48 56  1  0  0  0
 48 65  1  0  0  0
 48119  1  0  0  0
 49 50  1  0  0  0
 49 53  1  0  0  0
 49 64  1  0  0  0
 49120  1  0  0  0
 50 51  1  0  0  0
 50121  1  0  0  0
 50122  1  0  0  0
 51 52  1  0  0  0
 51123  1  0  0  0
 51124  1  0  0  0
 52125  1  0  0  0
 52126  1  0  0  0
 53 54  1  0  0  0
 54 55  2  0  0  0
 54127  1  0  0  0
 55 57  1  0  0  0
 55128  1  0  0  0
 56 69  2  0  0  0
 57 58  2  0  0  0
 57129  1  0  0  0
 58130  1  0  0  0
 59 60  1  0  0  0
 59 61  1  0  0  0
 59 62  1  0  0  0
 60131  1  0  0  0
 60132  1  0  0  0
 60133  1  0  0  0
 61134  1  0  0  0
 61135  1  0  0  0
 61136  1  0  0  0
 62137  1  0  0  0
 62138  1  0  0  0
 62139  1  0  0  0
 63 65  1  0  0  0
 63140  1  0  0  0
 63141  1  0  0  0
 63142  1  0  0  0
 64143  1  0  0  0
 65144  1  0  0  0
 68 80  1  0  0  0
 71 72  2  0  0  0
 71 74  1  0  0  0
 71145  1  0  0  0
 72 75  1  0  0  0
 72146  1  0  0  0
 73 74  2  0  0  0
 73 76  1  0  0  0
 73147  1  0  0  0
 74 77  1  0  0  0
 75 76  2  0  0  0
 75 81  1  0  0  0
 76 85  1  0  0  0
 77 82  1  0  0  0
 77 83  2  0  0  0
 78 79  1  0  0  0
 78 80  1  0  0  0
 78 84  2  0  0  0
 79 82  1  0  0  0
 79148  1  0  0  0
 79149  1  0  0  0
 80150  1  0  0  0
 80151  1  0  0  0
 81152  1  0  0  0
 82153  1  0  0  0
M  ISO  4   1 100  68 101  80 101  81 100
M  END
> <chiral flag>
0

> <version>
0

> <s_m_source_file>
/data/baiqing/PycharmProjects/Reinvent-master-3.2/result/LINK_invent/BTK/process_docking_weight1_custom_product_contain_oxygen_bond_distance_aromatic_linkinvent_7_9_3/rearranged_h_0099.sdf

> <i_m_source_file_index>
94

> <r_mmod_Potential_Energy-OPLS-2005>
-180.982635498047

> <r_mmod_Stretch_Energy-OPLS-2005>
37.8941955566406

> <r_mmod_Bend_Energy-OPLS-2005>
89.3335952758789

> <r_mmod_Torsional_Energy-OPLS-2005>
278.525085449219

> <r_mmod_Improper_Torsional_Energy-OPLS-2005>
4.01763677597046

> <r_mmod_Van_der_Waal_Energy-OPLS-2005>
146.777969360352

> <r_mmod_Electrostatic_Energy-OPLS-2005>
-477.649383544922

> <r_mmod_Solvation_Energy-OPLS-2005>
-269.360473632812

> <b_mmod_Minimization_Converged-OPLS-2005>
0

> <r_mmod_RMS_Derivative-OPLS-2005>
2.70674061775208

$$$$
