0
                    3D
 Structure written by MMmdl.
164173  0  0  1  0            999 V2000
  -30.6899  -14.7225   20.3963 C   0  0  0  0  0  0
  -30.4148  -12.4258   19.4795 C   0  0  0  0  0  0
  -29.5139  -12.5261   18.2299 C   0  0  0  0  0  0
  -28.0294  -12.4016   18.6216 C   0  0  0  0  0  0
  -27.6463  -13.2642   19.8537 C   0  0  2  0  0  0
  -28.7035  -13.2075   20.9778 C   0  0  0  0  0  0
  -25.2503  -13.8261   20.5786 C   0  0  0  0  0  0
  -24.1849  -13.0487   20.9245 C   0  0  0  0  0  0
  -24.6474  -11.6951   20.8738 C   0  0  0  0  0  0
  -23.9158  -10.4344   21.0382 C   0  0  0  0  0  0
  -24.3707   -9.4230   21.9163 C   0  0  0  0  0  0
  -23.6387   -8.2261   22.0726 C   0  0  0  0  0  0
  -22.4344   -8.0310   21.3546 C   0  0  0  0  0  0
  -21.9992   -9.0284   20.4630 C   0  0  0  0  0  0
  -22.7310  -10.2157   20.3048 C   0  0  0  0  0  0
  -21.6902   -6.0732   22.5277 C   0  0  0  0  0  0
  -21.4016   -6.5629   23.8195 C   0  0  0  0  0  0
  -21.3700   -5.6769   24.9169 C   0  0  0  0  0  0
  -21.6065   -4.3035   24.7203 C   0  0  0  0  0  0
  -21.8824   -3.8133   23.4332 C   0  0  0  0  0  0
  -21.9207   -4.6973   22.3377 C   0  0  0  0  0  0
  -22.7857  -13.5202   21.1903 C   0  0  0  0  0  0
  -22.1689   -4.2155   21.0965 F   0  0  0  0  0  0
  -21.5667   -3.4516   25.7724 F   0  0  0  0  0  0
  -30.0100  -13.5236   20.3856 N   0  0  0  0  0  0
  -26.3008  -12.9539   20.3320 N   0  0  0  0  0  0
  -25.9416  -11.6644   20.5740 N   0  0  0  0  0  0
  -22.0530  -12.8166   22.0427 N   0  0  0  0  0  0
  -25.4083  -15.2043   20.4352 N   0  0  0  0  0  0
  -31.8849  -14.7285   20.1051 O   0  0  0  0  0  0
  -21.6703   -6.8899   21.4240 O   0  0  0  0  0  0
  -22.3476  -14.5458   20.6661 O   0  0  0  0  0  0
  -24.6440  -31.8484   23.1898 C   0  0  0  0  0  0
  -25.9258  -32.4652   23.8289 C   0  0  1  0  0  0
  -27.2816  -27.2529   20.1148 C   0  0  0  0  0  0
  -25.6026  -33.8469   24.2250 N   0  0  0  0  0  0
  -23.4389  -30.4710   21.5409 C   0  0  2  0  0  0
  -24.8787  -28.8803   20.1249 C   0  0  0  0  0  0
  -22.7572  -29.4633   22.4992 C   0  0  0  0  0  0
  -18.0308  -28.1351   22.8547 C   0  0  0  0  0  0
  -24.1493  -36.7290   23.2679 C   0  0  0  0  0  0
  -25.9867  -30.7419   21.3706 C   0  0  0  0  0  0
  -26.0533  -29.3610   20.7155 C   0  0  0  0  0  0
  -27.2467  -28.5701   20.6933 C   0  0  0  0  0  0
  -26.0726  -26.8184   19.5159 C   0  0  0  0  0  0
  -24.8934  -27.6060   19.5226 C   0  0  0  0  0  0
  -23.6536  -29.7862   20.1636 C   0  0  0  0  0  0
  -25.4109  -36.3051   24.0399 C   0  0  1  0  0  0
  -20.5906  -28.3718   23.1301 C   0  0  2  0  0  0
  -20.6796  -26.9469   22.5400 C   0  0  0  0  0  0
  -19.5774  -26.6381   21.5223 C   0  0  0  0  0  0
  -18.1945  -26.7889   22.1624 C   0  0  0  0  0  0
  -19.1559  -28.8859   23.2885 C   0  0  0  0  0  0
  -18.9475  -30.1430   23.8938 C   0  0  0  0  0  0
  -17.6475  -30.6575   24.0598 C   0  0  0  0  0  0
  -25.9089  -34.9402   23.5142 C   0  0  0  0  0  0
  -16.5366  -29.9092   23.6315 C   0  0  0  0  0  0
  -16.7285  -28.6464   23.0420 C   0  0  0  0  0  0
  -26.4474  -31.6516   25.0767 C   0  0  0  0  0  0
  -25.3628  -31.3776   26.1484 C   0  0  0  0  0  0
  -27.0361  -30.2948   24.6270 C   0  0  0  0  0  0
  -27.5989  -32.4289   25.7521 C   0  0  0  0  0  0
  -27.5600  -37.1811   24.8488 C   0  0  0  0  0  0
  -21.4287  -29.3021   22.3669 N   0  0  0  0  0  0
  -26.4292  -37.3750   23.9421 N   0  0  0  0  0  0
  -24.7103  -31.0411   22.0873 N   0  0  0  0  0  0
  -23.4228  -28.8268   23.3195 O   0  0  0  0  0  0
  -28.4701  -26.4800   20.0055 O   0  0  0  0  0  0
  -26.5681  -34.8913   22.4722 O   0  0  0  0  0  0
  -23.5604  -32.1327   23.7222 O   0  0  0  0  0  0
  -29.4039  -18.4491   20.2434 C   0  0  0  0  0  0
  -31.3847  -17.5478   19.1843 C   0  0  0  0  0  0
  -29.5671  -19.7471   19.5882 C   0  0  0  0  0  0
  -30.6215  -19.8291   18.6323 C   0  0  0  0  0  0
  -30.2606  -17.2888   20.0117 C   0  0  0  0  0  0
  -31.5597  -18.7720   18.5021 C   0  0  0  0  0  0
  -30.3370  -22.4853   20.9952 C   0  0  0  0  0  0
  -30.8316  -21.4979   21.7629 C   0  0  0  0  0  0
  -31.0152  -23.8249   20.7158 C   0  0  0  0  0  0
  -30.1717  -25.0614   21.1242 C   0  0  0  0  0  0
  -28.4689  -23.7190   19.7381 C   0  0  0  0  0  0
  -28.7069  -25.0949   20.5777 C   0  0  2  0  0  0
  -30.7585  -21.0239   17.6858 C   0  0  0  0  0  0
  -28.5652  -21.0024   19.7913 C   0  0  0  0  0  0
  -29.9836  -15.9154   20.5450 N   0  0  0  0  0  0
  -28.9737  -22.3868   20.3784 N   0  3  1  0  0  0
  -32.9524  -18.9530   17.4832 Cl  0  0  0  0  0  0
  -31.4707  -12.4656   19.2089 H   0  0  0  0  0  0
  -30.2676  -11.4649   19.9761 H   0  0  0  0  0  0
  -29.7778  -11.7578   17.5017 H   0  0  0  0  0  0
  -29.6806  -13.4881   17.7430 H   0  0  0  0  0  0
  -27.8163  -11.3506   18.8114 H   0  0  0  0  0  0
  -27.4080  -12.6892   17.7728 H   0  0  0  0  0  0
  -27.6317  -14.2912   19.4891 H   0  0  0  0  0  0
  -28.7280  -12.2204   21.4388 H   0  0  0  0  0  0
  -28.4610  -13.9124   21.7739 H   0  0  0  0  0  0
  -25.2895   -9.5703   22.4674 H   0  0  0  0  0  0
  -24.0140   -7.4645   22.7400 H   0  0  0  0  0  0
  -21.0930   -8.8832   19.8916 H   0  0  0  0  0  0
  -22.3833  -10.9715   19.6140 H   0  0  0  0  0  0
  -21.1973   -7.6128   23.9718 H   0  0  0  0  0  0
  -21.1546   -6.0481   25.9066 H   0  0  0  0  0  0
  -22.0558   -2.7593   23.2823 H   0  0  0  0  0  0
  -22.4248  -11.9946   22.4964 H   0  0  0  0  0  0
  -21.1089  -13.1028   22.2508 H   0  0  0  0  0  0
  -24.6342  -15.8457   20.5804 H   0  0  0  0  0  0
  -26.2465  -15.6709   20.1148 H   0  0  0  0  0  0
  -26.7403  -32.5190   23.1081 H   0  0  0  0  0  0
  -25.0152  -33.9502   25.0390 H   0  0  0  0  0  0
  -22.7488  -31.3063   21.3976 H   0  0  0  0  0  0
  -23.3720  -35.9653   23.3317 H   0  0  0  0  0  0
  -24.3620  -36.8903   22.2101 H   0  0  0  0  0  0
  -23.7234  -37.6525   23.6625 H   0  0  0  0  0  0
  -26.1656  -31.4960   20.6028 H   0  0  0  0  0  0
  -26.8573  -30.7680   22.0148 H   0  0  0  0  0  0
  -28.1492  -28.9819   21.1240 H   0  0  0  0  0  0
  -26.0429  -25.8591   19.0118 H   0  0  0  0  0  0
  -23.9964  -27.2266   19.0539 H   0  0  0  0  0  0
  -23.7963  -30.5616   19.4116 H   0  0  0  0  0  0
  -22.7539  -29.2522   19.8505 H   0  0  0  0  0  0
  -25.1233  -36.1969   25.0894 H   0  0  0  0  0  0
  -20.9942  -28.3254   24.1455 H   0  0  0  0  0  0
  -20.5722  -26.2396   23.3625 H   0  0  0  0  0  0
  -21.6694  -26.7515   22.1229 H   0  0  0  0  0  0
  -19.6981  -25.6268   21.1330 H   0  0  0  0  0  0
  -19.6650  -27.3144   20.6710 H   0  0  0  0  0  0
  -17.4255  -26.6756   21.3956 H   0  0  0  0  0  0
  -18.0307  -25.9885   22.8883 H   0  0  0  0  0  0
  -19.7936  -30.7241   24.2333 H   0  0  0  0  0  0
  -17.5017  -31.6262   24.5203 H   0  0  0  0  0  0
  -15.5359  -30.3048   23.7524 H   0  0  0  0  0  0
  -15.8684  -28.0742   22.7188 H   0  0  0  0  0  0
  -24.5728  -30.7182   25.7851 H   0  0  0  0  0  0
  -24.8893  -32.3005   26.4851 H   0  0  0  0  0  0
  -25.7902  -30.8981   27.0305 H   0  0  0  0  0  0
  -26.3015  -29.6674   24.1209 H   0  0  0  0  0  0
  -27.4032  -29.7214   25.4784 H   0  0  0  0  0  0
  -27.8846  -30.4326   23.9569 H   0  0  0  0  0  0
  -27.2548  -33.3597   26.2039 H   0  0  0  0  0  0
  -28.3758  -32.6867   25.0302 H   0  0  0  0  0  0
  -28.0627  -31.8465   26.5488 H   0  0  0  0  0  0
  -28.2650  -38.0082   24.7485 H   0  0  0  0  0  0
  -28.1087  -36.2633   24.6306 H   0  0  0  0  0  0
  -27.2383  -37.1475   25.8922 H   0  0  0  0  0  0
  -20.9607  -29.8623   21.6690 H   0  0  0  0  0  0
  -26.0225  -38.2895   24.1208 H   0  0  0  0  0  0
  -28.5735  -18.3234   20.9233 H   0  0  0  0  0  0
  -32.1331  -16.7903   18.9963 H   0  0  0  0  0  0
  -31.8017  -21.5740   22.2259 H   0  0  0  0  0  0
  -30.2988  -20.5720   21.9327 H   0  0  0  0  0  0
  -31.2555  -23.8602   19.6525 H   0  0  0  0  0  0
  -31.9791  -23.8497   21.2269 H   0  0  0  0  0  0
  -30.7298  -25.9457   20.8050 H   0  0  0  0  0  0
  -30.1481  -25.1049   22.2168 H   0  0  0  0  0  0
  -28.9385  -23.8303   18.7584 H   0  0  0  0  0  0
  -27.4011  -23.6533   19.5421 H   0  0  0  0  0  0
  -28.0766  -25.0559   21.4662 H   0  0  0  0  0  0
  -29.8422  -21.5986   17.5744 H   0  0  0  0  0  0
  -30.9927  -20.6866   16.6732 H   0  0  0  0  0  0
  -31.5541  -21.6971   18.0057 H   0  0  0  0  0  0
  -27.7815  -20.6514   20.4674 H   0  0  0  0  0  0
  -28.0335  -21.1524   18.8530 H   0  0  0  0  0  0
  -29.0647  -15.7854   20.9334 H   0  0  0  0  0  0
  -28.3731  -22.3227   21.1836 H   0  0  0  0  0  0
  1 25  1  0  0  0
  1 30  2  0  0  0
  1 85  1  0  0  0
  2  3  1  0  0  0
  2 25  1  0  0  0
  2 88  1  0  0  0
  2 89  1  0  0  0
  3  4  1  0  0  0
  3 90  1  0  0  0
  3 91  1  0  0  0
  4  5  1  0  0  0
  4 92  1  0  0  0
  4 93  1  0  0  0
  5  6  1  0  0  0
  5 26  1  0  0  0
  5 94  1  0  0  0
  6 25  1  0  0  0
  6 95  1  0  0  0
  6 96  1  0  0  0
  7  8  2  0  0  0
  7 26  1  0  0  0
  7 29  1  0  0  0
  8  9  1  0  0  0
  8 22  1  0  0  0
  9 10  1  0  0  0
  9 27  2  0  0  0
 10 11  2  0  0  0
 10 15  1  0  0  0
 11 12  1  0  0  0
 11 97  1  0  0  0
 12 13  2  0  0  0
 12 98  1  0  0  0
 13 14  1  0  0  0
 13 31  1  0  0  0
 14 15  2  0  0  0
 14 99  1  0  0  0
 15100  1  0  0  0
 16 17  2  0  0  0
 16 21  1  0  0  0
 16 31  1  0  0  0
 17 18  1  0  0  0
 17101  1  0  0  0
 18 19  2  0  0  0
 18102  1  0  0  0
 19 20  1  0  0  0
 19 24  1  0  0  0
 20 21  2  0  0  0
 20103  1  0  0  0
 21 23  1  0  0  0
 22 28  1  0  0  0
 22 32  2  0  0  0
 26 27  1  0  0  0
 28104  1  0  0  0
 28105  1  0  0  0
 29106  1  0  0  0
 29107  1  0  0  0
 33 34  1  0  0  0
 33 66  1  0  0  0
 33 70  2  0  0  0
 34 36  1  0  0  0
 34 59  1  0  0  0
 34108  1  0  0  0
 35 44  2  0  0  0
 35 45  1  0  0  0
 35 68  1  0  0  0
 36 56  1  0  0  0
 36109  1  0  0  0
 37 39  1  0  0  0
 37 47  1  0  0  0
 37 66  1  0  0  0
 37110  1  0  0  0
 38 43  2  0  0  0
 38 46  1  0  0  0
 38 47  1  0  0  0
 39 64  1  0  0  0
 39 67  2  0  0  0
 40 52  1  0  0  0
 40 53  2  0  0  0
 40 58  1  0  0  0
 41111  1  0  0  0
 41112  1  0  0  0
 41113  1  0  0  0
 41 48  1  0  0  0
 42 43  1  0  0  0
 42 66  1  0  0  0
 42114  1  0  0  0
 42115  1  0  0  0
 43 44  1  0  0  0
 44116  1  0  0  0
 45 46  2  0  0  0
 45117  1  0  0  0
 46118  1  0  0  0
 47119  1  0  0  0
 47120  1  0  0  0
 48 56  1  0  0  0
 48 65  1  0  0  0
 48121  1  0  0  0
 49 50  1  0  0  0
 49 53  1  0  0  0
 49 64  1  0  0  0
 49122  1  0  0  0
 50 51  1  0  0  0
 50123  1  0  0  0
 50124  1  0  0  0
 51 52  1  0  0  0
 51125  1  0  0  0
 51126  1  0  0  0
 52127  1  0  0  0
 52128  1  0  0  0
 53 54  1  0  0  0
 54 55  2  0  0  0
 54129  1  0  0  0
 55 57  1  0  0  0
 55130  1  0  0  0
 56 69  2  0  0  0
 57 58  2  0  0  0
 57131  1  0  0  0
 58132  1  0  0  0
 59 60  1  0  0  0
 59 61  1  0  0  0
 59 62  1  0  0  0
 60133  1  0  0  0
 60134  1  0  0  0
 60135  1  0  0  0
 61136  1  0  0  0
 61137  1  0  0  0
 61138  1  0  0  0
 62139  1  0  0  0
 62140  1  0  0  0
 62141  1  0  0  0
 63 65  1  0  0  0
 63142  1  0  0  0
 63143  1  0  0  0
 63144  1  0  0  0
 64145  1  0  0  0
 65146  1  0  0  0
 68 82  1  0  0  0
 71 73  2  0  0  0
 71 75  1  0  0  0
 71147  1  0  0  0
 72 75  2  0  0  0
 72 76  1  0  0  0
 72148  1  0  0  0
 73 74  1  0  0  0
 73 84  1  0  0  0
 74 76  2  0  0  0
 74 83  1  0  0  0
 75 85  1  0  0  0
 76 87  1  0  0  0
 77 78  2  0  0  0
 77 79  1  0  0  0
 77 86  1  0  0  0
 78149  1  0  0  0
 78150  1  0  0  0
 79 80  1  0  0  0
 79151  1  0  0  0
 79152  1  0  0  0
 80 82  1  0  0  0
 80153  1  0  0  0
 80154  1  0  0  0
 81 82  1  0  0  0
 81 86  1  0  0  0
 81155  1  0  0  0
 81156  1  0  0  0
 82157  1  0  0  0
 83158  1  0  0  0
 83159  1  0  0  0
 83160  1  0  0  0
 84161  1  0  0  0
 84162  1  0  0  0
 84 86  1  0  0  0
 85163  1  0  0  0
 86164  1  0  0  0
M  CHG  1  86   1
M  ISO  4   1 100  68 101  82 101  85 100
M  END
> <chiral flag>
0

> <version>
0

> <s_m_source_file>
/data/baiqing/PycharmProjects/Reinvent-master-3.2/result/LINK_invent/BTK/process_docking_weight1_custom_product_contain_oxygen_bond_distance_aromatic_linkinvent_7_9_3/rearranged_h_0039.sdf

> <i_m_source_file_index>
1

> <r_mmod_Potential_Energy-OPLS-2005>
186.766464233398

> <r_mmod_Stretch_Energy-OPLS-2005>
157.337677001953

> <r_mmod_Bend_Energy-OPLS-2005>
217.97721862793

> <r_mmod_Torsional_Energy-OPLS-2005>
282.913879394531

> <r_mmod_Improper_Torsional_Energy-OPLS-2005>
5.28712511062622

> <r_mmod_Van_der_Waal_Energy-OPLS-2005>
144.392318725586

> <r_mmod_Electrostatic_Energy-OPLS-2005>
-252.391052246094

> <r_mmod_Solvation_Energy-OPLS-2005>
-447.769958496094

> <b_mmod_Minimization_Converged-OPLS-2005>
0

> <r_mmod_RMS_Derivative-OPLS-2005>
10.2675914764404

$$$$
1
                    3D
 Structure written by MMmdl.
171180  0  0  1  0            999 V2000
  -30.6516  -14.6486   20.5600 C   0  0  0  0  0  0
  -30.4316  -12.4162   19.4561 C   0  0  0  0  0  0
  -29.5071  -12.5256   18.2244 C   0  0  0  0  0  0
  -28.0308  -12.3582   18.6337 C   0  0  0  0  0  0
  -27.6518  -13.2267   19.8621 C   0  0  2  0  0  0
  -28.6917  -13.0827   20.9922 C   0  0  0  0  0  0
  -25.2547  -13.8194   20.5656 C   0  0  0  0  0  0
  -24.1827  -13.0449   20.9184 C   0  0  0  0  0  0
  -24.6409  -11.6925   20.8739 C   0  0  0  0  0  0
  -23.9072  -10.4304   21.0404 C   0  0  0  0  0  0
  -24.3624   -9.4221   21.9176 C   0  0  0  0  0  0
  -23.6298   -8.2263   22.0750 C   0  0  0  0  0  0
  -22.4281   -8.0285   21.3544 C   0  0  0  0  0  0
  -21.9913   -9.0259   20.4648 C   0  0  0  0  0  0
  -22.7248  -10.2140   20.3057 C   0  0  0  0  0  0
  -21.6866   -6.0734   22.5274 C   0  0  0  0  0  0
  -21.4028   -6.5640   23.8202 C   0  0  0  0  0  0
  -21.3664   -5.6787   24.9161 C   0  0  0  0  0  0
  -21.6050   -4.3050   24.7217 C   0  0  0  0  0  0
  -21.8818   -3.8140   23.4336 C   0  0  0  0  0  0
  -21.9197   -4.6961   22.3389 C   0  0  0  0  0  0
  -22.7836  -13.5229   21.1840 C   0  0  0  0  0  0
  -22.1664   -4.2142   21.0970 F   0  0  0  0  0  0
  -21.5628   -3.4535   25.7734 F   0  0  0  0  0  0
  -30.0064  -13.4387   20.4382 N   0  0  0  0  0  0
  -26.2986  -12.9405   20.3304 N   0  0  0  0  0  0
  -25.9349  -11.6539   20.5751 N   0  0  0  0  0  0
  -22.0492  -12.8229   22.0403 N   0  0  0  0  0  0
  -25.4196  -15.1907   20.4050 N   0  0  0  0  0  0
  -31.7560  -14.8217   20.0335 O   0  0  0  0  0  0
  -21.6651   -6.8884   21.4236 O   0  0  0  0  0  0
  -22.3510  -14.5516   20.6659 O   0  0  0  0  0  0
  -24.6249  -31.8566   23.1969 C   0  0  0  0  0  0
  -25.9094  -32.4763   23.8310 C   0  0  1  0  0  0
  -27.2298  -27.3117   20.1145 C   0  0  0  0  0  0
  -25.5902  -33.8567   24.2246 N   0  0  0  0  0  0
  -23.4190  -30.4756   21.5403 C   0  0  2  0  0  0
  -24.8635  -28.9181   20.1095 C   0  0  0  0  0  0
  -22.7467  -29.4603   22.4950 C   0  0  0  0  0  0
  -18.0284  -28.1382   22.8494 C   0  0  0  0  0  0
  -24.1497  -36.7303   23.2639 C   0  0  0  0  0  0
  -25.9557  -30.7882   21.3609 C   0  0  0  0  0  0
  -26.0283  -29.4110   20.7079 C   0  0  0  0  0  0
  -27.2095  -28.6174   20.6968 C   0  0  0  0  0  0
  -26.0395  -26.8531   19.5143 C   0  0  0  0  0  0
  -24.8714  -27.6462   19.5067 C   0  0  0  0  0  0
  -23.6307  -29.7977   20.1577 C   0  0  0  0  0  0
  -25.4121  -36.3084   24.0324 C   0  0  1  0  0  0
  -20.5886  -28.3680   23.1294 C   0  0  2  0  0  0
  -20.6770  -26.9404   22.5421 C   0  0  0  0  0  0
  -19.5748  -26.6383   21.5219 C   0  0  0  0  0  0
  -18.1929  -26.7928   22.1630 C   0  0  0  0  0  0
  -19.1536  -28.8850   23.2887 C   0  0  0  0  0  0
  -18.9461  -30.1449   23.8905 C   0  0  0  0  0  0
  -17.6462  -30.6583   24.0567 C   0  0  0  0  0  0
  -25.9052  -34.9454   23.5105 C   0  0  0  0  0  0
  -16.5352  -29.9091   23.6325 C   0  0  0  0  0  0
  -16.7273  -28.6504   23.0348 C   0  0  0  0  0  0
  -26.4472  -31.6563   25.0683 C   0  0  0  0  0  0
  -25.3708  -31.3708   26.1415 C   0  0  0  0  0  0
  -27.0283  -30.2982   24.6115 C   0  0  0  0  0  0
  -27.6048  -32.4276   25.7459 C   0  0  0  0  0  0
  -27.5589  -37.1803   24.8464 C   0  0  0  0  0  0
  -21.4185  -29.3024   22.3687 N   0  0  0  0  0  0
  -26.4296  -37.3779   23.9410 N   0  0  0  0  0  0
  -24.6862  -31.0579   22.0905 N   0  0  0  0  0  0
  -23.4196  -28.8160   23.3041 O   0  0  0  0  0  0
  -28.3944  -26.5377   20.1949 O   0  0  0  0  0  0
  -26.5640  -34.8921   22.4687 O   0  0  0  0  0  0
  -23.5417  -32.1372   23.7298 O   0  0  0  0  0  0
  -29.8334  -19.1519   19.6588 C   0  0  0  0  0  0
  -30.2470  -17.8058   19.9472 C   0  0  0  0  0  0
  -28.1224  -18.9728   21.3121 C   0  0  0  0  0  0
  -28.7683  -19.7975   20.3525 C   0  0  0  0  0  0
  -28.4927  -17.6171   21.5762 C   0  0  0  0  0  0
  -29.6002  -16.9871   20.9214 C   0  0  0  0  0  0
  -29.7362  -22.7752   18.7807 C   0  0  0  0  0  0
  -33.1167  -21.4864   19.5540 C   0  0  0  0  0  0
  -31.0405  -22.4515   18.6852 C   0  0  0  0  0  0
  -31.8285  -21.8198   19.7280 C   0  0  0  0  0  0
  -28.9427  -23.5539   17.7264 C   0  0  0  0  0  0
  -28.6207  -25.0059   18.1721 C   0  0  0  0  0  0
  -28.1030  -23.8074   20.3838 C   0  0  0  0  0  0
  -28.6340  -25.1546   19.7053 C   0  0  2  0  0  0
  -27.6248  -16.8516   22.5650 C   0  0  0  0  0  0
  -30.3985  -15.5007   22.7612 C   0  0  0  0  0  0
  -28.1419  -21.2219   19.9937 C   0  0  0  0  0  0
  -30.0721  -15.6385   21.3321 N   0  0  0  0  0  0
  -28.9111  -22.5441   20.0183 N   0  3  1  0  0  0
  -31.4753  -12.5338   19.1581 H   0  0  0  0  0  0
  -30.3654  -11.4202   19.8999 H   0  0  0  0  0  0
  -29.7784  -11.7741   17.4816 H   0  0  0  0  0  0
  -29.6466  -13.4956   17.7454 H   0  0  0  0  0  0
  -27.8728  -11.3038   18.8638 H   0  0  0  0  0  0
  -27.3754  -12.5909   17.7934 H   0  0  0  0  0  0
  -27.6718  -14.2655   19.5307 H   0  0  0  0  0  0
  -28.7092  -12.0620   21.3765 H   0  0  0  0  0  0
  -28.4120  -13.7084   21.8356 H   0  0  0  0  0  0
  -25.2777   -9.5700   22.4732 H   0  0  0  0  0  0
  -24.0011   -7.4660   22.7472 H   0  0  0  0  0  0
  -21.0846   -8.8789   19.8955 H   0  0  0  0  0  0
  -22.3714  -10.9675   19.6150 H   0  0  0  0  0  0
  -21.2031   -7.6151   23.9709 H   0  0  0  0  0  0
  -21.1485   -6.0517   25.9066 H   0  0  0  0  0  0
  -22.0593   -2.7608   23.2835 H   0  0  0  0  0  0
  -22.4128  -11.9917   22.4821 H   0  0  0  0  0  0
  -21.1107  -13.1236   22.2590 H   0  0  0  0  0  0
  -24.6472  -15.8378   20.5147 H   0  0  0  0  0  0
  -26.2698  -15.6367   20.0832 H   0  0  0  0  0  0
  -26.7169  -32.5430   23.1063 H   0  0  0  0  0  0
  -24.9994  -33.9693   25.0350 H   0  0  0  0  0  0
  -22.7127  -31.2942   21.3923 H   0  0  0  0  0  0
  -23.3749  -35.9645   23.3296 H   0  0  0  0  0  0
  -24.3575  -36.8930   22.2051 H   0  0  0  0  0  0
  -23.7248  -37.6505   23.6665 H   0  0  0  0  0  0
  -26.0752  -31.5453   20.5855 H   0  0  0  0  0  0
  -26.8423  -30.8459   21.9830 H   0  0  0  0  0  0
  -28.1079  -28.9953   21.1640 H   0  0  0  0  0  0
  -25.9877  -25.8683   19.0761 H   0  0  0  0  0  0
  -23.9718  -27.2577   19.0497 H   0  0  0  0  0  0
  -23.7475  -30.5677   19.3942 H   0  0  0  0  0  0
  -22.7524  -29.2205   19.8638 H   0  0  0  0  0  0
  -25.1300  -36.1943   25.0812 H   0  0  0  0  0  0
  -20.9970  -28.3254   24.1420 H   0  0  0  0  0  0
  -20.5660  -26.2297   23.3616 H   0  0  0  0  0  0
  -21.6638  -26.7429   22.1219 H   0  0  0  0  0  0
  -19.6903  -25.6298   21.1237 H   0  0  0  0  0  0
  -19.6680  -27.3204   20.6757 H   0  0  0  0  0  0
  -17.4198  -26.6676   21.4030 H   0  0  0  0  0  0
  -18.0323  -26.0063   22.9021 H   0  0  0  0  0  0
  -19.7930  -30.7264   24.2274 H   0  0  0  0  0  0
  -17.5011  -31.6259   24.5176 H   0  0  0  0  0  0
  -15.5348  -30.2995   23.7634 H   0  0  0  0  0  0
  -15.8672  -28.0821   22.7059 H   0  0  0  0  0  0
  -24.5910  -30.7015   25.7755 H   0  0  0  0  0  0
  -24.8858  -32.2868   26.4805 H   0  0  0  0  0  0
  -25.8037  -30.8925   27.0211 H   0  0  0  0  0  0
  -26.2832  -29.6757   24.1148 H   0  0  0  0  0  0
  -27.3978  -29.7215   25.4601 H   0  0  0  0  0  0
  -27.8711  -30.4251   23.9316 H   0  0  0  0  0  0
  -27.2687  -33.3601   26.2011 H   0  0  0  0  0  0
  -28.3887  -32.6781   25.0299 H   0  0  0  0  0  0
  -28.0681  -31.8396   26.5390 H   0  0  0  0  0  0
  -28.2604  -38.0103   24.7512 H   0  0  0  0  0  0
  -28.1080  -36.2629   24.6295 H   0  0  0  0  0  0
  -27.2298  -37.1471   25.8862 H   0  0  0  0  0  0
  -20.9371  -29.8745   21.6887 H   0  0  0  0  0  0
  -26.0180  -38.2861   24.1388 H   0  0  0  0  0  0
  -30.3541  -19.6849   18.8762 H   0  0  0  0  0  0
  -31.0984  -17.4125   19.4104 H   0  0  0  0  0  0
  -27.2652  -19.3732   21.8390 H   0  0  0  0  0  0
  -33.6812  -21.0158   20.3477 H   0  0  0  0  0  0
  -33.6300  -21.6752   18.6206 H   0  0  0  0  0  0
  -31.5450  -22.7172   17.7657 H   0  0  0  0  0  0
  -31.3831  -21.6003   20.6888 H   0  0  0  0  0  0
  -28.0146  -23.0149   17.5294 H   0  0  0  0  0  0
  -29.4806  -23.5648   16.7777 H   0  0  0  0  0  0
  -27.6666  -25.3098   17.7452 H   0  0  0  0  0  0
  -29.3610  -25.6884   17.7548 H   0  0  0  0  0  0
  -27.0577  -23.6690   20.1066 H   0  0  0  0  0  0
  -28.1181  -23.9144   21.4685 H   0  0  0  0  0  0
  -29.6949  -25.1198   19.9565 H   0  0  0  0  0  0
  -26.6089  -17.2473   22.5846 H   0  0  0  0  0  0
  -28.0312  -16.9184   23.5726 H   0  0  0  0  0  0
  -27.5428  -15.8002   22.2940 H   0  0  0  0  0  0
  -30.4837  -16.4735   23.2462 H   0  0  0  0  0  0
  -31.3506  -14.9933   22.9314 H   0  0  0  0  0  0
  -29.6332  -14.9323   23.2875 H   0  0  0  0  0  0
  -27.3059  -21.3536   20.6821 H   0  0  0  0  0  0
  -27.6706  -21.1245   19.0149 H   0  0  0  0  0  0
  -29.5555  -22.4375   20.7867 H   0  0  0  0  0  0
  1 25  1  0  0  0
  1 30  2  0  0  0
  1 88  1  0  0  0
  2  3  1  0  0  0
  2 25  1  0  0  0
  2 90  1  0  0  0
  2 91  1  0  0  0
  3  4  1  0  0  0
  3 92  1  0  0  0
  3 93  1  0  0  0
  4  5  1  0  0  0
  4 94  1  0  0  0
  4 95  1  0  0  0
  5  6  1  0  0  0
  5 26  1  0  0  0
  5 96  1  0  0  0
  6 25  1  0  0  0
  6 97  1  0  0  0
  6 98  1  0  0  0
  7  8  2  0  0  0
  7 26  1  0  0  0
  7 29  1  0  0  0
  8  9  1  0  0  0
  8 22  1  0  0  0
  9 10  1  0  0  0
  9 27  2  0  0  0
 10 11  2  0  0  0
 10 15  1  0  0  0
 11 12  1  0  0  0
 11 99  1  0  0  0
 12 13  2  0  0  0
 12100  1  0  0  0
 13 14  1  0  0  0
 13 31  1  0  0  0
 14 15  2  0  0  0
 14101  1  0  0  0
 15102  1  0  0  0
 16 17  2  0  0  0
 16 21  1  0  0  0
 16 31  1  0  0  0
 17 18  1  0  0  0
 17103  1  0  0  0
 18 19  2  0  0  0
 18104  1  0  0  0
 19 20  1  0  0  0
 19 24  1  0  0  0
 20 21  2  0  0  0
 20105  1  0  0  0
 21 23  1  0  0  0
 22 28  1  0  0  0
 22 32  2  0  0  0
 26 27  1  0  0  0
 28106  1  0  0  0
 28107  1  0  0  0
 29108  1  0  0  0
 29109  1  0  0  0
 33 34  1  0  0  0
 33 66  1  0  0  0
 33 70  2  0  0  0
 34 36  1  0  0  0
 34 59  1  0  0  0
 34110  1  0  0  0
 35 44  2  0  0  0
 35 45  1  0  0  0
 35 68  1  0  0  0
 36 56  1  0  0  0
 36111  1  0  0  0
 37 39  1  0  0  0
 37 47  1  0  0  0
 37 66  1  0  0  0
 37112  1  0  0  0
 38 43  2  0  0  0
 38 46  1  0  0  0
 38 47  1  0  0  0
 39 64  1  0  0  0
 39 67  2  0  0  0
 40 52  1  0  0  0
 40 53  2  0  0  0
 40 58  1  0  0  0
 41113  1  0  0  0
 41114  1  0  0  0
 41115  1  0  0  0
 41 48  1  0  0  0
 42 43  1  0  0  0
 42 66  1  0  0  0
 42116  1  0  0  0
 42117  1  0  0  0
 43 44  1  0  0  0
 44118  1  0  0  0
 45 46  2  0  0  0
 45119  1  0  0  0
 46120  1  0  0  0
 47121  1  0  0  0
 47122  1  0  0  0
 48 56  1  0  0  0
 48 65  1  0  0  0
 48123  1  0  0  0
 49 50  1  0  0  0
 49 53  1  0  0  0
 49 64  1  0  0  0
 49124  1  0  0  0
 50 51  1  0  0  0
 50125  1  0  0  0
 50126  1  0  0  0
 51 52  1  0  0  0
 51127  1  0  0  0
 51128  1  0  0  0
 52129  1  0  0  0
 52130  1  0  0  0
 53 54  1  0  0  0
 54 55  2  0  0  0
 54131  1  0  0  0
 55 57  1  0  0  0
 55132  1  0  0  0
 56 69  2  0  0  0
 57 58  2  0  0  0
 57133  1  0  0  0
 58134  1  0  0  0
 59 60  1  0  0  0
 59 61  1  0  0  0
 59 62  1  0  0  0
 60135  1  0  0  0
 60136  1  0  0  0
 60137  1  0  0  0
 61138  1  0  0  0
 61139  1  0  0  0
 61140  1  0  0  0
 62141  1  0  0  0
 62142  1  0  0  0
 62143  1  0  0  0
 63 65  1  0  0  0
 63144  1  0  0  0
 63145  1  0  0  0
 63146  1  0  0  0
 64147  1  0  0  0
 65148  1  0  0  0
 68 84  1  0  0  0
 71 72  2  0  0  0
 71 74  1  0  0  0
 71149  1  0  0  0
 72 76  1  0  0  0
 72150  1  0  0  0
 73 74  2  0  0  0
 73 75  1  0  0  0
 73151  1  0  0  0
 74 87  1  0  0  0
 75 76  2  0  0  0
 75 85  1  0  0  0
 76 88  1  0  0  0
 77 79  2  0  0  0
 77 81  1  0  0  0
 77 89  1  0  0  0
 78 80  2  0  0  0
 78152  1  0  0  0
 78153  1  0  0  0
 79 80  1  0  0  0
 79154  1  0  0  0
 80155  1  0  0  0
 81 82  1  0  0  0
 81156  1  0  0  0
 81157  1  0  0  0
 82 84  1  0  0  0
 82158  1  0  0  0
 82159  1  0  0  0
 83 84  1  0  0  0
 83 89  1  0  0  0
 83160  1  0  0  0
 83161  1  0  0  0
 84162  1  0  0  0
 85163  1  0  0  0
 85164  1  0  0  0
 85165  1  0  0  0
 86 88  1  0  0  0
 86166  1  0  0  0
 86167  1  0  0  0
 86168  1  0  0  0
 87169  1  0  0  0
 87170  1  0  0  0
 87 89  1  0  0  0
 89171  1  0  0  0
M  CHG  1  89   1
M  ISO  4   1 100  68 101  84 101  88 100
M  END
> <chiral flag>
0

> <version>
0

> <s_m_source_file>
/data/baiqing/PycharmProjects/Reinvent-master-3.2/result/LINK_invent/BTK/process_docking_weight1_custom_product_contain_oxygen_bond_distance_aromatic_linkinvent_7_9_3/rearranged_h_0039.sdf

> <i_m_source_file_index>
2

> <r_mmod_Potential_Energy-OPLS-2005>
221.617218017578

> <r_mmod_Stretch_Energy-OPLS-2005>
104.009315490723

> <r_mmod_Bend_Energy-OPLS-2005>
216.664306640625

> <r_mmod_Torsional_Energy-OPLS-2005>
311.410675048828

> <r_mmod_Improper_Torsional_Energy-OPLS-2005>
4.75324249267578

> <r_mmod_Van_der_Waal_Energy-OPLS-2005>
143.558959960938

> <r_mmod_Electrostatic_Energy-OPLS-2005>
-205.273208618164

> <r_mmod_Solvation_Energy-OPLS-2005>
-401.434112548828

> <b_mmod_Minimization_Converged-OPLS-2005>
0

> <r_mmod_RMS_Derivative-OPLS-2005>
2.38291907310486

$$$$
2
                    3D
 Structure written by MMmdl.
167176  0  0  1  0            999 V2000
  -30.6158  -14.6600   20.5089 C   0  0  0  0  0  0
  -30.4386  -12.4084   19.4597 C   0  0  0  0  0  0
  -29.5102  -12.5163   18.2289 C   0  0  0  0  0  0
  -28.0325  -12.3492   18.6358 C   0  0  0  0  0  0
  -27.6510  -13.2205   19.8620 C   0  0  2  0  0  0
  -28.6939  -13.0810   20.9939 C   0  0  0  0  0  0
  -25.2533  -13.8176   20.5688 C   0  0  0  0  0  0
  -24.1810  -13.0427   20.9183 C   0  0  0  0  0  0
  -24.6391  -11.6905   20.8726 C   0  0  0  0  0  0
  -23.9066  -10.4284   21.0394 C   0  0  0  0  0  0
  -24.3616   -9.4206   21.9175 C   0  0  0  0  0  0
  -23.6296   -8.2242   22.0750 C   0  0  0  0  0  0
  -22.4276   -8.0277   21.3542 C   0  0  0  0  0  0
  -21.9911   -9.0247   20.4642 C   0  0  0  0  0  0
  -22.7236  -10.2129   20.3047 C   0  0  0  0  0  0
  -21.6856   -6.0734   22.5280 C   0  0  0  0  0  0
  -21.4015   -6.5638   23.8212 C   0  0  0  0  0  0
  -21.3662   -5.6791   24.9175 C   0  0  0  0  0  0
  -21.6046   -4.3055   24.7227 C   0  0  0  0  0  0
  -21.8817   -3.8147   23.4348 C   0  0  0  0  0  0
  -21.9192   -4.6961   22.3403 C   0  0  0  0  0  0
  -22.7834  -13.5208   21.1863 C   0  0  0  0  0  0
  -22.1659   -4.2149   21.0980 F   0  0  0  0  0  0
  -21.5630   -3.4538   25.7739 F   0  0  0  0  0  0
  -30.0087  -13.4312   20.4340 N   0  0  0  0  0  0
  -26.2969  -12.9371   20.3307 N   0  0  0  0  0  0
  -25.9319  -11.6519   20.5739 N   0  0  0  0  0  0
  -22.0492  -12.8197   22.0423 N   0  0  0  0  0  0
  -25.4215  -15.1903   20.4127 N   0  0  0  0  0  0
  -31.7765  -14.8229   20.1253 O   0  0  0  0  0  0
  -21.6638   -6.8880   21.4240 O   0  0  0  0  0  0
  -22.3515  -14.5520   20.6722 O   0  0  0  0  0  0
  -24.6250  -31.8615   23.2059 C   0  0  0  0  0  0
  -25.9114  -32.4778   23.8365 C   0  0  1  0  0  0
  -27.2174  -27.3185   20.1157 C   0  0  0  0  0  0
  -25.5952  -33.8582   24.2303 N   0  0  0  0  0  0
  -23.4167  -30.4869   21.5525 C   0  0  2  0  0  0
  -24.8593  -28.9477   20.1166 C   0  0  0  0  0  0
  -22.7453  -29.4642   22.4989 C   0  0  0  0  0  0
  -18.0285  -28.1371   22.8494 C   0  0  0  0  0  0
  -24.1521  -36.7262   23.2637 C   0  0  0  0  0  0
  -25.9612  -30.7891   21.3832 C   0  0  0  0  0  0
  -26.0321  -29.4210   20.7185 C   0  0  0  0  0  0
  -27.2117  -28.6176   20.7118 C   0  0  0  0  0  0
  -26.0137  -26.9047   19.4939 C   0  0  0  0  0  0
  -24.8513  -27.6911   19.4995 C   0  0  0  0  0  0
  -23.6271  -29.8247   20.1682 C   0  0  0  0  0  0
  -25.4136  -36.3069   24.0345 C   0  0  1  0  0  0
  -20.5884  -28.3665   23.1295 C   0  0  2  0  0  0
  -20.6796  -26.9402   22.5405 C   0  0  0  0  0  0
  -19.5776  -26.6381   21.5210 C   0  0  0  0  0  0
  -18.1943  -26.7927   22.1610 C   0  0  0  0  0  0
  -19.1536  -28.8839   23.2886 C   0  0  0  0  0  0
  -18.9461  -30.1442   23.8903 C   0  0  0  0  0  0
  -17.6465  -30.6584   24.0553 C   0  0  0  0  0  0
  -25.9058  -34.9443   23.5107 C   0  0  0  0  0  0
  -16.5355  -29.9073   23.6349 C   0  0  0  0  0  0
  -16.7273  -28.6486   23.0377 C   0  0  0  0  0  0
  -26.4509  -31.6568   25.0719 C   0  0  0  0  0  0
  -25.3748  -31.3703   26.1441 C   0  0  0  0  0  0
  -27.0365  -30.2993   24.6181 C   0  0  0  0  0  0
  -27.6064  -32.4302   25.7480 C   0  0  0  0  0  0
  -27.5608  -37.1771   24.8465 C   0  0  0  0  0  0
  -21.4176  -29.3019   22.3688 N   0  0  0  0  0  0
  -26.4324  -37.3745   23.9411 N   0  0  0  0  0  0
  -24.6864  -31.0613   22.1034 N   0  0  0  0  0  0
  -23.4167  -28.8191   23.3077 O   0  0  0  0  0  0
  -28.3371  -26.4636   20.1745 O   0  0  0  0  0  0
  -26.5598  -34.8910   22.4659 O   0  0  0  0  0  0
  -23.5415  -32.1433   23.7387 O   0  0  0  0  0  0
  -30.2113  -19.3077   19.6084 C   0  0  0  0  0  0
  -29.9598  -20.1052   20.7545 C   0  0  0  0  0  0
  -29.6739  -19.3968   21.9571 C   0  0  0  0  0  0
  -29.7017  -17.9572   22.0071 C   0  0  0  0  0  0
  -29.9664  -17.1618   20.8460 C   0  0  0  0  0  0
  -30.1926  -17.8816   19.6353 C   0  0  0  0  0  0
  -29.1685  -24.0139   20.5153 C   0  0  0  0  0  0
  -27.4565  -23.7222   17.7127 C   0  0  0  0  0  0
  -27.9065  -22.3160   18.1441 C   0  0  0  0  0  0
  -28.2804  -24.8848   18.2936 C   0  0  0  0  0  0
  -27.8618  -22.0704   19.6640 C   0  0  0  0  0  0
  -28.1615  -25.0258   19.8292 C   0  0  2  0  0  0
  -29.3568  -20.2051   23.2132 C   0  0  0  0  0  0
  -29.4450  -17.2524   23.3382 C   0  0  0  0  0  0
  -30.1386  -21.6777   20.7031 C   0  0  0  0  0  0
  -29.0331  -22.6437   20.3434 N   0  0  0  0  0  0
  -29.8143  -15.7009   20.9055 N   0  0  0  0  0  0
  -30.1070  -24.4857   21.1658 O   0  0  0  0  0  0
  -30.3832  -17.0548   18.1281 Cl  0  0  0  0  0  0
  -31.4799  -12.5391   19.1607 H   0  0  0  0  0  0
  -30.3766  -11.4149   19.9056 H   0  0  0  0  0  0
  -29.7803  -11.7640   17.4865 H   0  0  0  0  0  0
  -29.6495  -13.4867   17.7488 H   0  0  0  0  0  0
  -27.8725  -11.2958   18.8687 H   0  0  0  0  0  0
  -27.3804  -12.5771   17.7923 H   0  0  0  0  0  0
  -27.6666  -14.2553   19.5197 H   0  0  0  0  0  0
  -28.7082  -12.0594   21.3772 H   0  0  0  0  0  0
  -28.4318  -13.7122   21.8445 H   0  0  0  0  0  0
  -25.2764   -9.5683   22.4748 H   0  0  0  0  0  0
  -24.0005   -7.4634   22.7467 H   0  0  0  0  0  0
  -21.0845   -8.8764   19.8948 H   0  0  0  0  0  0
  -22.3694  -10.9665   19.6153 H   0  0  0  0  0  0
  -21.2006   -7.6147   23.9717 H   0  0  0  0  0  0
  -21.1488   -6.0524   25.9081 H   0  0  0  0  0  0
  -22.0596   -2.7609   23.2849 H   0  0  0  0  0  0
  -22.4124  -11.9861   22.4807 H   0  0  0  0  0  0
  -21.1105  -13.1208   22.2638 H   0  0  0  0  0  0
  -24.6483  -15.8383   20.5192 H   0  0  0  0  0  0
  -26.2689  -15.6388   20.0886 H   0  0  0  0  0  0
  -26.7166  -32.5445   23.1096 H   0  0  0  0  0  0
  -25.0166  -33.9727   25.0496 H   0  0  0  0  0  0
  -22.7109  -31.3081   21.4122 H   0  0  0  0  0  0
  -23.3808  -35.9563   23.3270 H   0  0  0  0  0  0
  -24.3641  -36.8899   22.2057 H   0  0  0  0  0  0
  -23.7253  -37.6457   23.6655 H   0  0  0  0  0  0
  -26.1030  -31.5606   20.6251 H   0  0  0  0  0  0
  -26.8380  -30.8208   22.0185 H   0  0  0  0  0  0
  -28.1089  -28.9726   21.1983 H   0  0  0  0  0  0
  -25.9218  -25.9509   19.0023 H   0  0  0  0  0  0
  -23.9509  -27.3155   19.0330 H   0  0  0  0  0  0
  -23.7336  -30.6007   19.4087 H   0  0  0  0  0  0
  -22.7480  -29.2477   19.8753 H   0  0  0  0  0  0
  -25.1323  -36.1918   25.0837 H   0  0  0  0  0  0
  -20.9964  -28.3248   24.1418 H   0  0  0  0  0  0
  -20.5735  -26.2271   23.3590 H   0  0  0  0  0  0
  -21.6668  -26.7466   22.1183 H   0  0  0  0  0  0
  -19.6948  -25.6291   21.1246 H   0  0  0  0  0  0
  -19.6743  -27.3191   20.6740 H   0  0  0  0  0  0
  -17.4223  -26.6691   21.3994 H   0  0  0  0  0  0
  -18.0315  -26.0059   22.8983 H   0  0  0  0  0  0
  -19.7932  -30.7250   24.2297 H   0  0  0  0  0  0
  -17.5016  -31.6285   24.5109 H   0  0  0  0  0  0
  -15.5352  -30.2964   23.7696 H   0  0  0  0  0  0
  -15.8667  -28.0790   22.7124 H   0  0  0  0  0  0
  -24.5916  -30.7066   25.7765 H   0  0  0  0  0  0
  -24.8951  -32.2868   26.4864 H   0  0  0  0  0  0
  -25.8070  -30.8871   27.0205 H   0  0  0  0  0  0
  -26.2938  -29.6713   24.1248 H   0  0  0  0  0  0
  -27.4112  -29.7268   25.4674 H   0  0  0  0  0  0
  -27.8781  -30.4289   23.9382 H   0  0  0  0  0  0
  -27.2675  -33.3592   26.2061 H   0  0  0  0  0  0
  -28.3857  -32.6874   25.0299 H   0  0  0  0  0  0
  -28.0740  -31.8428   26.5388 H   0  0  0  0  0  0
  -28.2585  -38.0100   24.7546 H   0  0  0  0  0  0
  -28.1151  -36.2636   24.6256 H   0  0  0  0  0  0
  -27.2321  -37.1362   25.8862 H   0  0  0  0  0  0
  -20.9334  -29.8681   21.6857 H   0  0  0  0  0  0
  -26.0219  -38.2826   24.1393 H   0  0  0  0  0  0
  -30.4213  -19.8014   18.6707 H   0  0  0  0  0  0
  -26.4035  -23.8623   17.9637 H   0  0  0  0  0  0
  -27.5105  -23.7735   16.6248 H   0  0  0  0  0  0
  -28.9064  -22.1011   17.7614 H   0  0  0  0  0  0
  -27.2472  -21.5954   17.6573 H   0  0  0  0  0  0
  -27.9530  -25.8091   17.8178 H   0  0  0  0  0  0
  -29.3269  -24.7756   18.0042 H   0  0  0  0  0  0
  -27.7923  -20.9987   19.8429 H   0  0  0  0  0  0
  -26.9403  -22.4631   20.0962 H   0  0  0  0  0  0
  -27.1789  -24.7113   20.1789 H   0  0  0  0  0  0
  -28.8804  -21.1558   22.9735 H   0  0  0  0  0  0
  -30.2716  -20.4126   23.7692 H   0  0  0  0  0  0
  -28.6606  -19.6926   23.8758 H   0  0  0  0  0  0
  -29.8979  -17.7944   24.1678 H   0  0  0  0  0  0
  -29.8759  -16.2529   23.3747 H   0  0  0  0  0  0
  -28.3742  -17.1702   23.5252 H   0  0  0  0  0  0
  -30.9347  -21.8712   19.9827 H   0  0  0  0  0  0
  -30.5721  -21.9913   21.6540 H   0  0  0  0  0  0
  -28.9348  -15.3950   21.2898 H   0  0  0  0  0  0
  1 25  1  0  0  0
  1 30  2  0  0  0
  1 87  1  0  0  0
  2  3  1  0  0  0
  2 25  1  0  0  0
  2 90  1  0  0  0
  2 91  1  0  0  0
  3  4  1  0  0  0
  3 92  1  0  0  0
  3 93  1  0  0  0
  4  5  1  0  0  0
  4 94  1  0  0  0
  4 95  1  0  0  0
  5  6  1  0  0  0
  5 26  1  0  0  0
  5 96  1  0  0  0
  6 25  1  0  0  0
  6 97  1  0  0  0
  6 98  1  0  0  0
  7  8  2  0  0  0
  7 26  1  0  0  0
  7 29  1  0  0  0
  8  9  1  0  0  0
  8 22  1  0  0  0
  9 10  1  0  0  0
  9 27  2  0  0  0
 10 11  2  0  0  0
 10 15  1  0  0  0
 11 12  1  0  0  0
 11 99  1  0  0  0
 12 13  2  0  0  0
 12100  1  0  0  0
 13 14  1  0  0  0
 13 31  1  0  0  0
 14 15  2  0  0  0
 14101  1  0  0  0
 15102  1  0  0  0
 16 17  2  0  0  0
 16 21  1  0  0  0
 16 31  1  0  0  0
 17 18  1  0  0  0
 17103  1  0  0  0
 18 19  2  0  0  0
 18104  1  0  0  0
 19 20  1  0  0  0
 19 24  1  0  0  0
 20 21  2  0  0  0
 20105  1  0  0  0
 21 23  1  0  0  0
 22 28  1  0  0  0
 22 32  2  0  0  0
 26 27  1  0  0  0
 28106  1  0  0  0
 28107  1  0  0  0
 29108  1  0  0  0
 29109  1  0  0  0
 33 34  1  0  0  0
 33 66  1  0  0  0
 33 70  2  0  0  0
 34 36  1  0  0  0
 34 59  1  0  0  0
 34110  1  0  0  0
 35 44  2  0  0  0
 35 45  1  0  0  0
 35 68  1  0  0  0
 36 56  1  0  0  0
 36111  1  0  0  0
 37 39  1  0  0  0
 37 47  1  0  0  0
 37 66  1  0  0  0
 37112  1  0  0  0
 38 43  2  0  0  0
 38 46  1  0  0  0
 38 47  1  0  0  0
 39 64  1  0  0  0
 39 67  2  0  0  0
 40 52  1  0  0  0
 40 53  2  0  0  0
 40 58  1  0  0  0
 41113  1  0  0  0
 41114  1  0  0  0
 41115  1  0  0  0
 41 48  1  0  0  0
 42 43  1  0  0  0
 42 66  1  0  0  0
 42116  1  0  0  0
 42117  1  0  0  0
 43 44  1  0  0  0
 44118  1  0  0  0
 45 46  2  0  0  0
 45119  1  0  0  0
 46120  1  0  0  0
 47121  1  0  0  0
 47122  1  0  0  0
 48 56  1  0  0  0
 48 65  1  0  0  0
 48123  1  0  0  0
 49 50  1  0  0  0
 49 53  1  0  0  0
 49 64  1  0  0  0
 49124  1  0  0  0
 50 51  1  0  0  0
 50125  1  0  0  0
 50126  1  0  0  0
 51 52  1  0  0  0
 51127  1  0  0  0
 51128  1  0  0  0
 52129  1  0  0  0
 52130  1  0  0  0
 53 54  1  0  0  0
 54 55  2  0  0  0
 54131  1  0  0  0
 55 57  1  0  0  0
 55132  1  0  0  0
 56 69  2  0  0  0
 57 58  2  0  0  0
 57133  1  0  0  0
 58134  1  0  0  0
 59 60  1  0  0  0
 59 61  1  0  0  0
 59 62  1  0  0  0
 60135  1  0  0  0
 60136  1  0  0  0
 60137  1  0  0  0
 61138  1  0  0  0
 61139  1  0  0  0
 61140  1  0  0  0
 62141  1  0  0  0
 62142  1  0  0  0
 62143  1  0  0  0
 63 65  1  0  0  0
 63144  1  0  0  0
 63145  1  0  0  0
 63146  1  0  0  0
 64147  1  0  0  0
 65148  1  0  0  0
 68 82  1  0  0  0
 71 72  2  0  0  0
 71 76  1  0  0  0
 71149  1  0  0  0
 72 73  1  0  0  0
 72 85  1  0  0  0
 73 74  2  0  0  0
 73 83  1  0  0  0
 74 75  1  0  0  0
 74 84  1  0  0  0
 75 76  2  0  0  0
 75 87  1  0  0  0
 76 89  1  0  0  0
 77 82  1  0  0  0
 77 86  1  0  0  0
 77 88  2  0  0  0
 78 79  1  0  0  0
 78 80  1  0  0  0
 78150  1  0  0  0
 78151  1  0  0  0
 79 81  1  0  0  0
 79152  1  0  0  0
 79153  1  0  0  0
 80 82  1  0  0  0
 80154  1  0  0  0
 80155  1  0  0  0
 81 86  1  0  0  0
 81156  1  0  0  0
 81157  1  0  0  0
 82158  1  0  0  0
 83159  1  0  0  0
 83160  1  0  0  0
 83161  1  0  0  0
 84162  1  0  0  0
 84163  1  0  0  0
 84164  1  0  0  0
 85 86  1  0  0  0
 85165  1  0  0  0
 85166  1  0  0  0
 87167  1  0  0  0
M  ISO  4   1 100  68 101  82 101  87 100
M  END
> <chiral flag>
0

> <version>
0

> <s_m_source_file>
/data/baiqing/PycharmProjects/Reinvent-master-3.2/result/LINK_invent/BTK/process_docking_weight1_custom_product_contain_oxygen_bond_distance_aromatic_linkinvent_7_9_3/rearranged_h_0039.sdf

> <i_m_source_file_index>
3

> <r_mmod_Potential_Energy-OPLS-2005>
131.162002563477

> <r_mmod_Stretch_Energy-OPLS-2005>
91.5072021484375

> <r_mmod_Bend_Energy-OPLS-2005>
141.526458740234

> <r_mmod_Torsional_Energy-OPLS-2005>
273.542755126953

> <r_mmod_Improper_Torsional_Energy-OPLS-2005>
4.72096252441406

> <r_mmod_Van_der_Waal_Energy-OPLS-2005>
161.414581298828

> <r_mmod_Electrostatic_Energy-OPLS-2005>
-364.581665039062

> <r_mmod_Solvation_Energy-OPLS-2005>
-229.696441650391

> <b_mmod_Minimization_Converged-OPLS-2005>
0

> <r_mmod_RMS_Derivative-OPLS-2005>
2.07153463363647

$$$$
3
                    3D
 Structure written by MMmdl.
163171  0  0  1  0            999 V2000
  -30.6721  -14.6873   20.3599 C   0  0  0  0  0  0
  -30.4228  -12.4066   19.4450 C   0  0  0  0  0  0
  -29.5089  -12.4522   18.2141 C   0  0  0  0  0  0
  -28.0284  -12.3145   18.6286 C   0  0  0  0  0  0
  -27.6362  -13.2277   19.8262 C   0  0  2  0  0  0
  -28.6968  -13.1989   20.9449 C   0  0  0  0  0  0
  -25.2529  -13.8188   20.5693 C   0  0  0  0  0  0
  -24.1797  -13.0405   20.9253 C   0  0  0  0  0  0
  -24.6411  -11.6900   20.8740 C   0  0  0  0  0  0
  -23.9040  -10.4275   21.0386 C   0  0  0  0  0  0
  -24.3562   -9.4212   21.9193 C   0  0  0  0  0  0
  -23.6264   -8.2217   22.0774 C   0  0  0  0  0  0
  -22.4252   -8.0239   21.3526 C   0  0  0  0  0  0
  -21.9854   -9.0214   20.4656 C   0  0  0  0  0  0
  -22.7180  -10.2120   20.3076 C   0  0  0  0  0  0
  -21.6833   -6.0703   22.5266 C   0  0  0  0  0  0
  -21.4028   -6.5625   23.8209 C   0  0  0  0  0  0
  -21.3652   -5.6783   24.9166 C   0  0  0  0  0  0
  -21.6030   -4.3050   24.7221 C   0  0  0  0  0  0
  -21.8820   -3.8128   23.4353 C   0  0  0  0  0  0
  -21.9214   -4.6932   22.3399 C   0  0  0  0  0  0
  -22.7818  -13.5236   21.1815 C   0  0  0  0  0  0
  -22.1675   -4.2114   21.0977 F   0  0  0  0  0  0
  -21.5605   -3.4542   25.7742 F   0  0  0  0  0  0
  -29.9796  -13.5092   20.3133 N   0  0  0  0  0  0
  -26.2929  -12.9377   20.3243 N   0  0  0  0  0  0
  -25.9326  -11.6523   20.5722 N   0  0  0  0  0  0
  -22.0416  -12.8254   22.0419 N   0  0  0  0  0  0
  -25.4147  -15.1921   20.4061 N   0  0  0  0  0  0
  -31.8963  -14.6743   20.2532 O   0  0  0  0  0  0
  -21.6634   -6.8817   21.4210 O   0  0  0  0  0  0
  -22.3478  -14.5467   20.6648 O   0  0  0  0  0  0
  -24.6232  -31.8645   23.1987 C   0  0  0  0  0  0
  -25.9079  -32.4799   23.8347 C   0  0  1  0  0  0
  -27.2295  -27.3564   20.0925 C   0  0  0  0  0  0
  -25.5900  -33.8627   24.2313 N   0  0  0  0  0  0
  -23.4214  -30.4842   21.5485 C   0  0  2  0  0  0
  -24.8541  -28.9286   20.1169 C   0  0  0  0  0  0
  -22.7503  -29.4679   22.4989 C   0  0  0  0  0  0
  -18.0322  -28.1431   22.8524 C   0  0  0  0  0  0
  -24.1482  -36.7319   23.2655 C   0  0  0  0  0  0
  -25.9521  -30.7983   21.3579 C   0  0  0  0  0  0
  -26.0192  -29.4231   20.7165 C   0  0  0  0  0  0
  -27.1991  -28.6390   20.7091 C   0  0  0  0  0  0
  -26.0456  -26.8951   19.4841 C   0  0  0  0  0  0
  -24.8620  -27.6628   19.5031 C   0  0  0  0  0  0
  -23.6220  -29.8020   20.1728 C   0  0  0  0  0  0
  -25.4098  -36.3153   24.0373 C   0  0  1  0  0  0
  -20.5984  -28.3647   23.1189 C   0  0  2  0  0  0
  -20.6777  -26.9403   22.5242 C   0  0  0  0  0  0
  -19.5654  -26.6329   21.5181 C   0  0  0  0  0  0
  -18.1889  -26.7963   22.1666 C   0  0  0  0  0  0
  -19.1663  -28.8863   23.2820 C   0  0  0  0  0  0
  -18.9687  -30.1417   23.9003 C   0  0  0  0  0  0
  -17.6748  -30.6734   24.0554 C   0  0  0  0  0  0
  -25.9005  -34.9509   23.5154 C   0  0  0  0  0  0
  -16.5567  -29.9311   23.6335 C   0  0  0  0  0  0
  -16.7326  -28.6606   23.0507 C   0  0  0  0  0  0
  -26.4453  -31.6553   25.0705 C   0  0  0  0  0  0
  -25.3708  -31.3631   26.1460 C   0  0  0  0  0  0
  -27.0295  -30.3000   24.6057 C   0  0  0  0  0  0
  -27.6077  -32.4231   25.7435 C   0  0  0  0  0  0
  -27.5585  -37.1820   24.8478 C   0  0  0  0  0  0
  -21.4233  -29.3088   22.3652 N   0  0  0  0  0  0
  -26.4326  -37.3778   23.9390 N   0  0  0  0  0  0
  -24.6874  -31.0709   22.0914 N   0  0  0  0  0  0
  -23.4184  -28.8186   23.3070 O   0  0  0  0  0  0
  -28.4051  -26.6037   20.1035 O   0  0  0  0  0  0
  -26.5618  -34.8970   22.4755 O   0  0  0  0  0  0
  -23.5391  -32.1465   23.7319 O   0  0  0  0  0  0
  -29.6612  -19.4164   23.6043 C   0  0  0  0  0  0
  -30.0904  -17.4073   22.3443 C   0  0  0  0  0  0
  -28.8590  -19.9161   22.5550 C   0  0  0  0  0  0
  -29.3731  -17.9044   21.2352 C   0  0  0  0  0  0
  -28.8893  -19.2817   21.2724 C   0  0  0  0  0  0
  -30.3255  -18.1898   23.4753 C   0  0  0  0  0  0
  -28.7840  -22.6474   20.2703 C   0  0  0  0  0  0
  -27.9770  -21.1125   22.9162 C   0  0  0  0  0  0
  -26.7212  -21.7103   19.3633 C   0  0  0  0  0  0
  -29.0860  -16.8656   20.1112 C   0  0  0  0  0  0
  -28.5234  -20.0839   19.9740 C   0  0  0  0  0  0
  -28.1148  -24.0525   20.5449 C   0  0  0  0  0  0
  -28.4960  -25.2384   19.5714 C   0  0  0  0  0  0
  -30.1081  -15.8046   19.7975 N   0  0  0  0  0  0
  -28.0362  -21.5245   19.9887 N   0  0  0  0  0  0
  -30.0032  -22.5604   20.4349 O   0  0  0  0  0  0
  -31.3483  -17.6035   24.7416 Cl  0  0  0  0  0  0
  -31.4640  -12.5091   19.1328 H   0  0  0  0  0  0
  -30.3483  -11.4485   19.9619 H   0  0  0  0  0  0
  -29.7779  -11.6661   17.5043 H   0  0  0  0  0  0
  -29.6508  -13.3975   17.6911 H   0  0  0  0  0  0
  -27.8564  -11.2701   18.8828 H   0  0  0  0  0  0
  -27.3797  -12.5300   17.7764 H   0  0  0  0  0  0
  -27.6166  -14.2425   19.4346 H   0  0  0  0  0  0
  -28.7341  -12.2175   21.4219 H   0  0  0  0  0  0
  -28.4626  -13.9195   21.7298 H   0  0  0  0  0  0
  -25.2681   -9.5717   22.4795 H   0  0  0  0  0  0
  -23.9964   -7.4625   22.7533 H   0  0  0  0  0  0
  -21.0752   -8.8717   19.8993 H   0  0  0  0  0  0
  -22.3577  -10.9640   19.6215 H   0  0  0  0  0  0
  -21.2043   -7.6145   23.9683 H   0  0  0  0  0  0
  -21.1460   -6.0534   25.9065 H   0  0  0  0  0  0
  -22.0619   -2.7587   23.2869 H   0  0  0  0  0  0
  -22.3985  -11.9949   22.4837 H   0  0  0  0  0  0
  -21.1068  -13.1344   22.2578 H   0  0  0  0  0  0
  -24.6210  -15.8200   20.4960 H   0  0  0  0  0  0
  -26.2342  -15.6304   20.0040 H   0  0  0  0  0  0
  -26.7219  -32.5443   23.1158 H   0  0  0  0  0  0
  -25.0054  -33.9713   25.0477 H   0  0  0  0  0  0
  -22.7211  -31.3114   21.4024 H   0  0  0  0  0  0
  -23.3725  -35.9652   23.3331 H   0  0  0  0  0  0
  -24.3628  -36.8898   22.2062 H   0  0  0  0  0  0
  -23.7214  -37.6546   23.6627 H   0  0  0  0  0  0
  -26.0843  -31.5383   20.5707 H   0  0  0  0  0  0
  -26.8412  -30.8520   21.9708 H   0  0  0  0  0  0
  -28.0882  -29.0091   21.2003 H   0  0  0  0  0  0
  -26.0086  -25.9318   18.9989 H   0  0  0  0  0  0
  -23.9666  -27.2641   19.0368 H   0  0  0  0  0  0
  -23.7303  -30.5758   19.4137 H   0  0  0  0  0  0
  -22.7387  -29.2253   19.8887 H   0  0  0  0  0  0
  -25.1259  -36.2079   25.0862 H   0  0  0  0  0  0
  -21.0171  -28.3173   24.1275 H   0  0  0  0  0  0
  -20.5698  -26.2317   23.3434 H   0  0  0  0  0  0
  -21.6586  -26.7355   22.0985 H   0  0  0  0  0  0
  -19.6783  -25.6225   21.1253 H   0  0  0  0  0  0
  -19.6608  -27.3083   20.6700 H   0  0  0  0  0  0
  -17.4073  -26.6840   21.4149 H   0  0  0  0  0  0
  -18.0434  -26.0060   22.9057 H   0  0  0  0  0  0
  -19.8230  -30.7094   24.2525 H   0  0  0  0  0  0
  -17.5460  -31.6500   24.4985 H   0  0  0  0  0  0
  -15.5618  -30.3321   23.7609 H   0  0  0  0  0  0
  -15.8723  -28.0931   22.7350 H   0  0  0  0  0  0
  -24.5907  -30.6936   25.7778 H   0  0  0  0  0  0
  -24.8844  -32.2753   26.4933 H   0  0  0  0  0  0
  -25.8052  -30.8803   27.0224 H   0  0  0  0  0  0
  -26.2841  -29.6732   24.1123 H   0  0  0  0  0  0
  -27.4133  -29.7231   25.4480 H   0  0  0  0  0  0
  -27.8635  -30.4343   23.9158 H   0  0  0  0  0  0
  -27.2800  -33.3588   26.1961 H   0  0  0  0  0  0
  -28.3865  -32.6661   25.0198 H   0  0  0  0  0  0
  -28.0738  -31.8362   26.5358 H   0  0  0  0  0  0
  -28.2633  -38.0081   24.7525 H   0  0  0  0  0  0
  -28.1067  -36.2644   24.6308 H   0  0  0  0  0  0
  -27.2359  -37.1480   25.8900 H   0  0  0  0  0  0
  -20.9364  -29.8946   21.7033 H   0  0  0  0  0  0
  -26.0255  -38.2901   24.1262 H   0  0  0  0  0  0
  -29.7537  -19.9751   24.5235 H   0  0  0  0  0  0
  -30.4714  -16.4015   22.3306 H   0  0  0  0  0  0
  -28.5544  -22.0342   22.8986 H   0  0  0  0  0  0
  -27.6059  -20.9830   23.9329 H   0  0  0  0  0  0
  -27.0756  -21.2032   22.3096 H   0  0  0  0  0  0
  -26.2563  -20.7705   19.0754 H   0  0  0  0  0  0
  -26.8339  -22.2880   18.4460 H   0  0  0  0  0  0
  -25.9926  -22.1998   20.0114 H   0  0  0  0  0  0
  -28.9692  -17.4332   19.1867 H   0  0  0  0  0  0
  -28.1077  -16.4239   20.2832 H   0  0  0  0  0  0
  -29.4170  -20.0734   19.3489 H   0  0  0  0  0  0
  -27.8290  -19.4529   19.4230 H   0  0  0  0  0  0
  -28.4514  -24.3339   21.5445 H   0  0  0  0  0  0
  -27.0340  -23.9754   20.6512 H   0  0  0  0  0  0
  -27.9728  -25.1337   18.6225 H   0  0  0  0  0  0
  -29.5472  -25.1165   19.2910 H   0  0  0  0  0  0
  -30.7996  -16.2372   19.2029 H   0  0  0  0  0  0
  1 25  1  0  0  0
  1 30  2  0  0  0
  1 84  1  0  0  0
  2  3  1  0  0  0
  2 25  1  0  0  0
  2 88  1  0  0  0
  2 89  1  0  0  0
  3  4  1  0  0  0
  3 90  1  0  0  0
  3 91  1  0  0  0
  4  5  1  0  0  0
  4 92  1  0  0  0
  4 93  1  0  0  0
  5  6  1  0  0  0
  5 26  1  0  0  0
  5 94  1  0  0  0
  6 25  1  0  0  0
  6 95  1  0  0  0
  6 96  1  0  0  0
  7  8  2  0  0  0
  7 26  1  0  0  0
  7 29  1  0  0  0
  8  9  1  0  0  0
  8 22  1  0  0  0
  9 10  1  0  0  0
  9 27  2  0  0  0
 10 11  2  0  0  0
 10 15  1  0  0  0
 11 12  1  0  0  0
 11 97  1  0  0  0
 12 13  2  0  0  0
 12 98  1  0  0  0
 13 14  1  0  0  0
 13 31  1  0  0  0
 14 15  2  0  0  0
 14 99  1  0  0  0
 15100  1  0  0  0
 16 17  2  0  0  0
 16 21  1  0  0  0
 16 31  1  0  0  0
 17 18  1  0  0  0
 17101  1  0  0  0
 18 19  2  0  0  0
 18102  1  0  0  0
 19 20  1  0  0  0
 19 24  1  0  0  0
 20 21  2  0  0  0
 20103  1  0  0  0
 21 23  1  0  0  0
 22 28  1  0  0  0
 22 32  2  0  0  0
 26 27  1  0  0  0
 28104  1  0  0  0
 28105  1  0  0  0
 29106  1  0  0  0
 29107  1  0  0  0
 33 34  1  0  0  0
 33 66  1  0  0  0
 33 70  2  0  0  0
 34 36  1  0  0  0
 34 59  1  0  0  0
 34108  1  0  0  0
 35 44  2  0  0  0
 35 45  1  0  0  0
 35 68  1  0  0  0
 36 56  1  0  0  0
 36109  1  0  0  0
 37 39  1  0  0  0
 37 47  1  0  0  0
 37 66  1  0  0  0
 37110  1  0  0  0
 38 43  2  0  0  0
 38 46  1  0  0  0
 38 47  1  0  0  0
 39 64  1  0  0  0
 39 67  2  0  0  0
 40 52  1  0  0  0
 40 53  2  0  0  0
 40 58  1  0  0  0
 41111  1  0  0  0
 41112  1  0  0  0
 41113  1  0  0  0
 41 48  1  0  0  0
 42 43  1  0  0  0
 42 66  1  0  0  0
 42114  1  0  0  0
 42115  1  0  0  0
 43 44  1  0  0  0
 44116  1  0  0  0
 45 46  2  0  0  0
 45117  1  0  0  0
 46118  1  0  0  0
 47119  1  0  0  0
 47120  1  0  0  0
 48 56  1  0  0  0
 48 65  1  0  0  0
 48121  1  0  0  0
 49 50  1  0  0  0
 49 53  1  0  0  0
 49 64  1  0  0  0
 49122  1  0  0  0
 50 51  1  0  0  0
 50123  1  0  0  0
 50124  1  0  0  0
 51 52  1  0  0  0
 51125  1  0  0  0
 51126  1  0  0  0
 52127  1  0  0  0
 52128  1  0  0  0
 53 54  1  0  0  0
 54 55  2  0  0  0
 54129  1  0  0  0
 55 57  1  0  0  0
 55130  1  0  0  0
 56 69  2  0  0  0
 57 58  2  0  0  0
 57131  1  0  0  0
 58132  1  0  0  0
 59 60  1  0  0  0
 59 61  1  0  0  0
 59 62  1  0  0  0
 60133  1  0  0  0
 60134  1  0  0  0
 60135  1  0  0  0
 61136  1  0  0  0
 61137  1  0  0  0
 61138  1  0  0  0
 62139  1  0  0  0
 62140  1  0  0  0
 62141  1  0  0  0
 63 65  1  0  0  0
 63142  1  0  0  0
 63143  1  0  0  0
 63144  1  0  0  0
 64145  1  0  0  0
 65146  1  0  0  0
 68 83  1  0  0  0
 71 73  2  0  0  0
 71 76  1  0  0  0
 71147  1  0  0  0
 72 74  1  0  0  0
 72 76  2  0  0  0
 72148  1  0  0  0
 73 75  1  0  0  0
 73 78  1  0  0  0
 74 75  2  0  0  0
 74 80  1  0  0  0
 75 81  1  0  0  0
 76 87  1  0  0  0
 77 82  1  0  0  0
 77 85  1  0  0  0
 77 86  2  0  0  0
 78149  1  0  0  0
 78150  1  0  0  0
 78151  1  0  0  0
 79 85  1  0  0  0
 79152  1  0  0  0
 79153  1  0  0  0
 79154  1  0  0  0
 80 84  1  0  0  0
 80155  1  0  0  0
 80156  1  0  0  0
 81 85  1  0  0  0
 81157  1  0  0  0
 81158  1  0  0  0
 82 83  1  0  0  0
 82159  1  0  0  0
 82160  1  0  0  0
 83161  1  0  0  0
 83162  1  0  0  0
 84163  1  0  0  0
M  ISO  4   1 100  68 101  83 101  84 100
M  END
> <chiral flag>
0

> <version>
0

> <s_m_source_file>
/data/baiqing/PycharmProjects/Reinvent-master-3.2/result/LINK_invent/BTK/process_docking_weight1_custom_product_contain_oxygen_bond_distance_aromatic_linkinvent_7_9_3/rearranged_h_0039.sdf

> <i_m_source_file_index>
4

> <r_mmod_Potential_Energy-OPLS-2005>
178.809829711914

> <r_mmod_Stretch_Energy-OPLS-2005>
82.8164978027344

> <r_mmod_Bend_Energy-OPLS-2005>
204.73828125

> <r_mmod_Torsional_Energy-OPLS-2005>
307.895141601562

> <r_mmod_Improper_Torsional_Energy-OPLS-2005>
33.2329368591309

> <r_mmod_Van_der_Waal_Energy-OPLS-2005>
149.066802978516

> <r_mmod_Electrostatic_Energy-OPLS-2005>
-429.364349365234

> <r_mmod_Solvation_Energy-OPLS-2005>
-234.262481689453

> <b_mmod_Minimization_Converged-OPLS-2005>
0

> <r_mmod_RMS_Derivative-OPLS-2005>
10.9346323013306

$$$$
4
                    3D
 Structure written by MMmdl.
167176  0  0  1  0            999 V2000
  -30.5940  -14.6513   20.4306 C   0  0  0  0  0  0
  -30.4322  -12.3754   19.4459 C   0  0  0  0  0  0
  -29.5000  -12.4866   18.2181 C   0  0  0  0  0  0
  -28.0188  -12.3366   18.6192 C   0  0  0  0  0  0
  -27.6370  -13.2023   19.8496 C   0  0  2  0  0  0
  -28.6931  -13.0850   20.9735 C   0  0  0  0  0  0
  -25.2512  -13.8059   20.5698 C   0  0  0  0  0  0
  -24.1784  -13.0376   20.9275 C   0  0  0  0  0  0
  -24.6334  -11.6802   20.8783 C   0  0  0  0  0  0
  -23.8990  -10.4205   21.0403 C   0  0  0  0  0  0
  -24.3540   -9.4098   21.9204 C   0  0  0  0  0  0
  -23.6245   -8.2109   22.0686 C   0  0  0  0  0  0
  -22.4225   -8.0159   21.3476 C   0  0  0  0  0  0
  -21.9864   -9.0146   20.4576 C   0  0  0  0  0  0
  -22.7150  -10.2056   20.3039 C   0  0  0  0  0  0
  -21.6839   -6.0644   22.5291 C   0  0  0  0  0  0
  -21.3996   -6.5569   23.8212 C   0  0  0  0  0  0
  -21.3694   -5.6748   24.9211 C   0  0  0  0  0  0
  -21.6078   -4.3016   24.7272 C   0  0  0  0  0  0
  -21.8814   -3.8076   23.4403 C   0  0  0  0  0  0
  -21.9161   -4.6880   22.3434 C   0  0  0  0  0  0
  -22.7808  -13.5146   21.1957 C   0  0  0  0  0  0
  -22.1630   -4.2059   21.1024 F   0  0  0  0  0  0
  -21.5674   -3.4511   25.7795 F   0  0  0  0  0  0
  -30.0092  -13.4164   20.3948 N   0  0  0  0  0  0
  -26.2889  -12.9202   20.3258 N   0  0  0  0  0  0
  -25.9240  -11.6363   20.5756 N   0  0  0  0  0  0
  -22.0478  -12.8143   22.0528 N   0  0  0  0  0  0
  -25.4232  -15.1806   20.3997 N   0  0  0  0  0  0
  -31.7956  -14.8269   20.2132 O   0  0  0  0  0  0
  -21.6605   -6.8759   21.4205 O   0  0  0  0  0  0
  -22.3459  -14.5447   20.6749 O   0  0  0  0  0  0
  -24.6255  -31.8599   23.2105 C   0  0  0  0  0  0
  -25.9117  -32.4756   23.8407 C   0  0  1  0  0  0
  -27.1760  -27.3161   20.0511 C   0  0  0  0  0  0
  -25.5933  -33.8571   24.2306 N   0  0  0  0  0  0
  -23.4169  -30.4829   21.5587 C   0  0  2  0  0  0
  -24.8381  -28.9344   20.1251 C   0  0  0  0  0  0
  -22.7449  -29.4561   22.5016 C   0  0  0  0  0  0
  -18.0295  -28.1364   22.8510 C   0  0  0  0  0  0
  -24.1495  -36.7264   23.2648 C   0  0  0  0  0  0
  -25.9612  -30.7737   21.3895 C   0  0  0  0  0  0
  -26.0193  -29.4092   20.7089 C   0  0  0  0  0  0
  -27.1973  -28.6102   20.6565 C   0  0  0  0  0  0
  -25.9606  -26.8692   19.5030 C   0  0  0  0  0  0
  -24.8048  -27.6675   19.5297 C   0  0  0  0  0  0
  -23.6235  -29.8296   20.1700 C   0  0  0  0  0  0
  -25.4138  -36.3063   24.0301 C   0  0  1  0  0  0
  -20.5875  -28.3643   23.1318 C   0  0  2  0  0  0
  -20.6757  -26.9371   22.5417 C   0  0  0  0  0  0
  -19.5780  -26.6378   21.5188 C   0  0  0  0  0  0
  -18.1953  -26.7922   22.1597 C   0  0  0  0  0  0
  -19.1535  -28.8827   23.2924 C   0  0  0  0  0  0
  -18.9446  -30.1416   23.8930 C   0  0  0  0  0  0
  -17.6464  -30.6585   24.0534 C   0  0  0  0  0  0
  -25.9071  -34.9424   23.5101 C   0  0  0  0  0  0
  -16.5355  -29.9064   23.6342 C   0  0  0  0  0  0
  -16.7265  -28.6458   23.0400 C   0  0  0  0  0  0
  -26.4521  -31.6615   25.0791 C   0  0  0  0  0  0
  -25.3700  -31.3788   26.1478 C   0  0  0  0  0  0
  -27.0401  -30.3031   24.6298 C   0  0  0  0  0  0
  -27.6083  -32.4384   25.7531 C   0  0  0  0  0  0
  -27.5599  -37.1779   24.8455 C   0  0  0  0  0  0
  -21.4168  -29.3006   22.3721 N   0  0  0  0  0  0
  -26.4304  -37.3774   23.9402 N   0  0  0  0  0  0
  -24.6867  -31.0545   22.1090 N   0  0  0  0  0  0
  -23.4152  -28.8057   23.3094 O   0  0  0  0  0  0
  -28.3191  -26.5204   20.0092 O   0  0  0  0  0  0
  -26.5653  -34.8863   22.4673 O   0  0  0  0  0  0
  -23.5412  -32.1433   23.7406 O   0  0  0  0  0  0
  -28.6307  -19.1119   19.2881 C   0  0  0  0  0  0
  -28.9256  -19.9414   20.3964 C   0  0  0  0  0  0
  -29.7355  -19.3472   21.4269 C   0  0  0  0  0  0
  -29.6938  -17.1118   20.2972 C   0  0  0  0  0  0
  -28.9754  -17.7374   19.2465 C   0  0  0  0  0  0
  -30.1127  -17.9537   21.3665 C   0  0  0  0  0  0
  -29.2268  -22.6701   18.6744 C   0  0  0  0  0  0
  -30.5509  -22.6933   18.4269 C   0  0  0  0  0  0
  -28.1382  -23.2443   17.7615 C   0  0  0  0  0  0
  -28.1060  -24.7854   17.9900 C   0  0  0  0  0  0
  -27.9753  -23.8946   20.4274 C   0  0  0  0  0  0
  -28.3723  -25.1261   19.5036 C   0  0  2  0  0  0
  -30.1542  -20.1524   22.6588 C   0  0  0  0  0  0
  -31.6361  -22.6466   19.4976 C   0  0  0  0  0  0
  -28.1365  -21.3129   20.5059 C   0  0  0  0  0  0
  -29.6753  -15.6566   20.3555 N   0  0  0  0  0  0
  -28.7509  -22.6271   20.0796 N   0  3  1  0  0  0
  -28.3888  -16.7931   17.9222 Cl  0  0  0  0  0  0
  -30.9706  -17.2339   22.6861 Cl  0  0  0  0  0  0
  -31.4760  -12.4877   19.1503 H   0  0  0  0  0  0
  -30.3546  -11.3905   19.9108 H   0  0  0  0  0  0
  -29.7530  -11.7163   17.4882 H   0  0  0  0  0  0
  -29.6577  -13.4451   17.7207 H   0  0  0  0  0  0
  -27.8475  -11.2805   18.8285 H   0  0  0  0  0  0
  -27.3736  -12.5801   17.7743 H   0  0  0  0  0  0
  -27.6207  -14.2295   19.4977 H   0  0  0  0  0  0
  -28.7089  -12.0714   21.3762 H   0  0  0  0  0  0
  -28.4487  -13.7443   21.8091 H   0  0  0  0  0  0
  -25.2596   -9.5607   22.4907 H   0  0  0  0  0  0
  -23.9942   -7.4425   22.7313 H   0  0  0  0  0  0
  -21.0835   -8.8605   19.8850 H   0  0  0  0  0  0
  -22.3491  -10.9632   19.6245 H   0  0  0  0  0  0
  -21.1971   -7.6066   23.9724 H   0  0  0  0  0  0
  -21.1576   -6.0482   25.9128 H   0  0  0  0  0  0
  -22.0575   -2.7523   23.2960 H   0  0  0  0  0  0
  -22.4115  -11.9820   22.4979 H   0  0  0  0  0  0
  -21.1084  -13.1105   22.2742 H   0  0  0  0  0  0
  -24.6670  -15.8450   20.5156 H   0  0  0  0  0  0
  -26.2604  -15.6058   20.0265 H   0  0  0  0  0  0
  -26.7174  -32.5333   23.1139 H   0  0  0  0  0  0
  -25.0044  -33.9787   25.0419 H   0  0  0  0  0  0
  -22.7172  -31.3071   21.4196 H   0  0  0  0  0  0
  -23.3767  -35.9580   23.3316 H   0  0  0  0  0  0
  -24.3633  -36.8903   22.2071 H   0  0  0  0  0  0
  -23.7205  -37.6424   23.6721 H   0  0  0  0  0  0
  -26.1377  -31.5560   20.6509 H   0  0  0  0  0  0
  -26.8210  -30.7798   22.0466 H   0  0  0  0  0  0
  -28.1187  -28.9683   21.0948 H   0  0  0  0  0  0
  -25.8660  -25.8903   19.0664 H   0  0  0  0  0  0
  -23.8829  -27.2941   19.1050 H   0  0  0  0  0  0
  -23.7717  -30.6096   19.4231 H   0  0  0  0  0  0
  -22.7340  -29.2841   19.8458 H   0  0  0  0  0  0
  -25.1329  -36.1921   25.0784 H   0  0  0  0  0  0
  -21.0021  -28.3178   24.1416 H   0  0  0  0  0  0
  -20.5671  -26.2212   23.3576 H   0  0  0  0  0  0
  -21.6619  -26.7434   22.1196 H   0  0  0  0  0  0
  -19.6966  -25.6286   21.1230 H   0  0  0  0  0  0
  -19.6754  -27.3144   20.6679 H   0  0  0  0  0  0
  -17.4228  -26.6702   21.3989 H   0  0  0  0  0  0
  -18.0368  -25.9995   22.8928 H   0  0  0  0  0  0
  -19.7909  -30.7221   24.2342 H   0  0  0  0  0  0
  -17.5003  -31.6288   24.5087 H   0  0  0  0  0  0
  -15.5357  -30.2993   23.7636 H   0  0  0  0  0  0
  -15.8649  -28.0754   22.7207 H   0  0  0  0  0  0
  -24.5798  -30.7262   25.7792 H   0  0  0  0  0  0
  -24.8946  -32.2936   26.5010 H   0  0  0  0  0  0
  -25.7886  -30.8848   27.0234 H   0  0  0  0  0  0
  -26.2982  -29.6774   24.1291 H   0  0  0  0  0  0
  -27.4076  -29.7349   25.4878 H   0  0  0  0  0  0
  -27.8919  -30.4429   23.9612 H   0  0  0  0  0  0
  -27.2721  -33.3671   26.2183 H   0  0  0  0  0  0
  -28.3820  -32.6984   25.0292 H   0  0  0  0  0  0
  -28.0850  -31.8477   26.5371 H   0  0  0  0  0  0
  -28.2557  -38.0140   24.7533 H   0  0  0  0  0  0
  -28.1147  -36.2647   24.6232 H   0  0  0  0  0  0
  -27.2325  -37.1315   25.8862 H   0  0  0  0  0  0
  -20.9342  -29.8701   21.6906 H   0  0  0  0  0  0
  -26.0173  -38.2832   24.1439 H   0  0  0  0  0  0
  -28.0195  -19.5033   18.4862 H   0  0  0  0  0  0
  -30.8932  -22.8879   17.4187 H   0  0  0  0  0  0
  -27.1565  -22.8232   18.0088 H   0  0  0  0  0  0
  -28.3152  -22.9876   16.7153 H   0  0  0  0  0  0
  -27.1941  -25.2046   17.5700 H   0  0  0  0  0  0
  -28.9093  -25.2141   17.3882 H   0  0  0  0  0  0
  -26.8963  -23.7135   20.3655 H   0  0  0  0  0  0
  -28.1919  -24.1341   21.4652 H   0  0  0  0  0  0
  -29.4587  -25.0864   19.5256 H   0  0  0  0  0  0
  -31.1814  -20.5086   22.5497 H   0  0  0  0  0  0
  -30.1008  -19.5516   23.5717 H   0  0  0  0  0  0
  -29.5161  -21.0108   22.8451 H   0  0  0  0  0  0
  -31.2660  -22.8761   20.4965 H   0  0  0  0  0  0
  -32.3741  -23.4218   19.2846 H   0  0  0  0  0  0
  -32.1560  -21.6871   19.5240 H   0  0  0  0  0  0
  -27.7517  -21.4145   21.5219 H   0  0  0  0  0  0
  -27.2417  -21.1951   19.8915 H   0  0  0  0  0  0
  -28.7751  -15.2776   20.1110 H   0  0  0  0  0  0
  -29.5802  -22.6832   20.6513 H   0  0  0  0  0  0
  1 25  1  0  0  0
  1 30  2  0  0  0
  1 86  1  0  0  0
  2  3  1  0  0  0
  2 25  1  0  0  0
  2 90  1  0  0  0
  2 91  1  0  0  0
  3  4  1  0  0  0
  3 92  1  0  0  0
  3 93  1  0  0  0
  4  5  1  0  0  0
  4 94  1  0  0  0
  4 95  1  0  0  0
  5  6  1  0  0  0
  5 26  1  0  0  0
  5 96  1  0  0  0
  6 25  1  0  0  0
  6 97  1  0  0  0
  6 98  1  0  0  0
  7  8  2  0  0  0
  7 26  1  0  0  0
  7 29  1  0  0  0
  8  9  1  0  0  0
  8 22  1  0  0  0
  9 10  1  0  0  0
  9 27  2  0  0  0
 10 11  2  0  0  0
 10 15  1  0  0  0
 11 12  1  0  0  0
 11 99  1  0  0  0
 12 13  2  0  0  0
 12100  1  0  0  0
 13 14  1  0  0  0
 13 31  1  0  0  0
 14 15  2  0  0  0
 14101  1  0  0  0
 15102  1  0  0  0
 16 17  2  0  0  0
 16 21  1  0  0  0
 16 31  1  0  0  0
 17 18  1  0  0  0
 17103  1  0  0  0
 18 19  2  0  0  0
 18104  1  0  0  0
 19 20  1  0  0  0
 19 24  1  0  0  0
 20 21  2  0  0  0
 20105  1  0  0  0
 21 23  1  0  0  0
 22 28  1  0  0  0
 22 32  2  0  0  0
 26 27  1  0  0  0
 28106  1  0  0  0
 28107  1  0  0  0
 29108  1  0  0  0
 29109  1  0  0  0
 33 34  1  0  0  0
 33 66  1  0  0  0
 33 70  2  0  0  0
 34 36  1  0  0  0
 34 59  1  0  0  0
 34110  1  0  0  0
 35 44  2  0  0  0
 35 45  1  0  0  0
 35 68  1  0  0  0
 36 56  1  0  0  0
 36111  1  0  0  0
 37 39  1  0  0  0
 37 47  1  0  0  0
 37 66  1  0  0  0
 37112  1  0  0  0
 38 43  2  0  0  0
 38 46  1  0  0  0
 38 47  1  0  0  0
 39 64  1  0  0  0
 39 67  2  0  0  0
 40 52  1  0  0  0
 40 53  2  0  0  0
 40 58  1  0  0  0
 41113  1  0  0  0
 41114  1  0  0  0
 41115  1  0  0  0
 41 48  1  0  0  0
 42 43  1  0  0  0
 42 66  1  0  0  0
 42116  1  0  0  0
 42117  1  0  0  0
 43 44  1  0  0  0
 44118  1  0  0  0
 45 46  2  0  0  0
 45119  1  0  0  0
 46120  1  0  0  0
 47121  1  0  0  0
 47122  1  0  0  0
 48 56  1  0  0  0
 48 65  1  0  0  0
 48123  1  0  0  0
 49 50  1  0  0  0
 49 53  1  0  0  0
 49 64  1  0  0  0
 49124  1  0  0  0
 50 51  1  0  0  0
 50125  1  0  0  0
 50126  1  0  0  0
 51 52  1  0  0  0
 51127  1  0  0  0
 51128  1  0  0  0
 52129  1  0  0  0
 52130  1  0  0  0
 53 54  1  0  0  0
 54 55  2  0  0  0
 54131  1  0  0  0
 55 57  1  0  0  0
 55132  1  0  0  0
 56 69  2  0  0  0
 57 58  2  0  0  0
 57133  1  0  0  0
 58134  1  0  0  0
 59 60  1  0  0  0
 59 61  1  0  0  0
 59 62  1  0  0  0
 60135  1  0  0  0
 60136  1  0  0  0
 60137  1  0  0  0
 61138  1  0  0  0
 61139  1  0  0  0
 61140  1  0  0  0
 62141  1  0  0  0
 62142  1  0  0  0
 62143  1  0  0  0
 63 65  1  0  0  0
 63144  1  0  0  0
 63145  1  0  0  0
 63146  1  0  0  0
 64147  1  0  0  0
 65148  1  0  0  0
 68 82  1  0  0  0
 71 72  2  0  0  0
 71 75  1  0  0  0
 71149  1  0  0  0
 72 73  1  0  0  0
 72 85  1  0  0  0
 73 76  2  0  0  0
 73 83  1  0  0  0
 74 75  2  0  0  0
 74 76  1  0  0  0
 74 86  1  0  0  0
 75 88  1  0  0  0
 76 89  1  0  0  0
 77 78  2  0  0  0
 77 79  1  0  0  0
 77 87  1  0  0  0
 78 84  1  0  0  0
 78150  1  0  0  0
 79 80  1  0  0  0
 79151  1  0  0  0
 79152  1  0  0  0
 80 82  1  0  0  0
 80153  1  0  0  0
 80154  1  0  0  0
 81 82  1  0  0  0
 81 87  1  0  0  0
 81155  1  0  0  0
 81156  1  0  0  0
 82157  1  0  0  0
 83158  1  0  0  0
 83159  1  0  0  0
 83160  1  0  0  0
 84161  1  0  0  0
 84162  1  0  0  0
 84163  1  0  0  0
 85164  1  0  0  0
 85165  1  0  0  0
 85 87  1  0  0  0
 86166  1  0  0  0
 87167  1  0  0  0
M  CHG  1  87   1
M  ISO  4   1 100  68 101  82 101  86 100
M  END
> <chiral flag>
0

> <version>
0

> <s_m_source_file>
/data/baiqing/PycharmProjects/Reinvent-master-3.2/result/LINK_invent/BTK/process_docking_weight1_custom_product_contain_oxygen_bond_distance_aromatic_linkinvent_7_9_3/rearranged_h_0039.sdf

> <i_m_source_file_index>
5

> <r_mmod_Potential_Energy-OPLS-2005>
47.1499977111816

> <r_mmod_Stretch_Energy-OPLS-2005>
82.4191436767578

> <r_mmod_Bend_Energy-OPLS-2005>
201.291229248047

> <r_mmod_Torsional_Energy-OPLS-2005>
291.177429199219

> <r_mmod_Improper_Torsional_Energy-OPLS-2005>
16.2631549835205

> <r_mmod_Van_der_Waal_Energy-OPLS-2005>
150.082061767578

> <r_mmod_Electrostatic_Energy-OPLS-2005>
-309.127777099609

> <r_mmod_Solvation_Energy-OPLS-2005>
-442.47119140625

> <b_mmod_Minimization_Converged-OPLS-2005>
0

> <r_mmod_RMS_Derivative-OPLS-2005>
9.24454116821289

$$$$
5
                    3D
 Structure written by MMmdl.
155163  0  0  1  0            999 V2000
  -30.6224  -14.7392   20.3716 C   0  0  0  0  0  0
  -30.4388  -12.4225   19.4833 C   0  0  0  0  0  0
  -29.5193  -12.3972   18.2420 C   0  0  0  0  0  0
  -28.0330  -12.2935   18.6482 C   0  0  0  0  0  0
  -27.6333  -13.2195   19.8296 C   0  0  2  0  0  0
  -28.6824  -13.2082   20.9570 C   0  0  0  0  0  0
  -25.2530  -13.8156   20.5699 C   0  0  0  0  0  0
  -24.1810  -13.0420   20.9210 C   0  0  0  0  0  0
  -24.6392  -11.6893   20.8780 C   0  0  0  0  0  0
  -23.9075  -10.4277   21.0440 C   0  0  0  0  0  0
  -24.3625   -9.4185   21.9210 C   0  0  0  0  0  0
  -23.6290   -8.2225   22.0763 C   0  0  0  0  0  0
  -22.4276   -8.0277   21.3543 C   0  0  0  0  0  0
  -21.9918   -9.0258   20.4650 C   0  0  0  0  0  0
  -22.7258  -10.2130   20.3073 C   0  0  0  0  0  0
  -21.6847   -6.0735   22.5282 C   0  0  0  0  0  0
  -21.4018   -6.5643   23.8215 C   0  0  0  0  0  0
  -21.3652   -5.6795   24.9176 C   0  0  0  0  0  0
  -21.6037   -4.3057   24.7229 C   0  0  0  0  0  0
  -21.8820   -3.8150   23.4351 C   0  0  0  0  0  0
  -21.9189   -4.6963   22.3406 C   0  0  0  0  0  0
  -22.7837  -13.5213   21.1850 C   0  0  0  0  0  0
  -22.1659   -4.2148   21.0983 F   0  0  0  0  0  0
  -21.5620   -3.4541   25.7741 F   0  0  0  0  0  0
  -29.9865  -13.5194   20.3649 N   0  0  0  0  0  0
  -26.2919  -12.9328   20.3240 N   0  0  0  0  0  0
  -25.9316  -11.6495   20.5789 N   0  0  0  0  0  0
  -22.0476  -12.8211   22.0407 N   0  0  0  0  0  0
  -25.4250  -15.1880   20.4135 N   0  0  0  0  0  0
  -31.8483  -14.7821   20.2495 O   0  0  0  0  0  0
  -21.6633   -6.8881   21.4243 O   0  0  0  0  0  0
  -22.3531  -14.5517   20.6687 O   0  0  0  0  0  0
  -24.6269  -31.8584   23.2002 C   0  0  0  0  0  0
  -25.9106  -32.4773   23.8342 C   0  0  1  0  0  0
  -27.2289  -27.3099   20.1364 C   0  0  0  0  0  0
  -25.5918  -33.8571   24.2272 N   0  0  0  0  0  0
  -23.4212  -30.4783   21.5434 C   0  0  2  0  0  0
  -24.8699  -28.9220   20.1187 C   0  0  0  0  0  0
  -22.7471  -29.4620   22.4948 C   0  0  0  0  0  0
  -18.0274  -28.1376   22.8488 C   0  0  0  0  0  0
  -24.1489  -36.7289   23.2638 C   0  0  0  0  0  0
  -25.9607  -30.7896   21.3667 C   0  0  0  0  0  0
  -26.0380  -29.4117   20.7172 C   0  0  0  0  0  0
  -27.2242  -28.6197   20.7074 C   0  0  0  0  0  0
  -26.0406  -26.8616   19.5251 C   0  0  0  0  0  0
  -24.8730  -27.6529   19.5123 C   0  0  0  0  0  0
  -23.6371  -29.8043   20.1620 C   0  0  0  0  0  0
  -25.4114  -36.3081   24.0328 C   0  0  1  0  0  0
  -20.5882  -28.3683   23.1285 C   0  0  2  0  0  0
  -20.6771  -26.9403   22.5415 C   0  0  0  0  0  0
  -19.5750  -26.6382   21.5213 C   0  0  0  0  0  0
  -18.1924  -26.7919   22.1620 C   0  0  0  0  0  0
  -19.1531  -28.8843   23.2879 C   0  0  0  0  0  0
  -18.9458  -30.1444   23.8897 C   0  0  0  0  0  0
  -17.6463  -30.6581   24.0556 C   0  0  0  0  0  0
  -25.9054  -34.9447   23.5104 C   0  0  0  0  0  0
  -16.5350  -29.9083   23.6329 C   0  0  0  0  0  0
  -16.7265  -28.6496   23.0353 C   0  0  0  0  0  0
  -26.4496  -31.6578   25.0707 C   0  0  0  0  0  0
  -25.3729  -31.3686   26.1437 C   0  0  0  0  0  0
  -27.0337  -30.3009   24.6131 C   0  0  0  0  0  0
  -27.6074  -32.4299   25.7472 C   0  0  0  0  0  0
  -27.5579  -37.1792   24.8460 C   0  0  0  0  0  0
  -21.4185  -29.3035   22.3681 N   0  0  0  0  0  0
  -26.4289  -37.3785   23.9410 N   0  0  0  0  0  0
  -24.6888  -31.0586   22.0947 N   0  0  0  0  0  0
  -23.4182  -28.8171   23.3043 O   0  0  0  0  0  0
  -28.3589  -26.4835   20.1127 O   0  0  0  0  0  0
  -26.5634  -34.8919   22.4674 O   0  0  0  0  0  0
  -23.5430  -32.1381   23.7332 O   0  0  0  0  0  0
  -29.2320  -16.0811   18.7397 C   0  0  0  0  0  0
  -28.7473  -17.2629   18.1619 C   0  0  0  0  0  0
  -29.8637  -16.0553   20.0000 C   0  0  0  0  0  0
  -29.4314  -18.5920   20.1092 C   0  0  0  0  0  0
  -28.8774  -18.5051   18.8027 C   0  0  0  0  0  0
  -29.9473  -17.3433   20.6783 C   0  0  0  0  0  0
  -29.1689  -22.5425   20.4695 C   0  0  0  0  0  0
  -27.2713  -20.9810   20.6472 C   0  0  0  0  0  0
  -29.5859  -20.0055   20.8381 C   0  0  0  0  0  0
  -28.2670  -23.7760   19.9991 C   0  0  0  0  0  0
  -28.3292  -25.1654   20.7993 C   0  0  0  0  0  0
  -28.7120  -21.2318   20.5531 N   0  0  0  0  0  0
  -30.3539  -22.7920   20.7064 O   0  0  0  0  0  0
  -28.4204  -19.8837   17.8637 Cl  0  0  0  0  0  0
  -30.7419  -17.4117   22.2142 Cl  0  0  0  0  0  0
  -31.4786  -12.5417   19.1741 H   0  0  0  0  0  0
  -30.3922  -11.4715   20.0163 H   0  0  0  0  0  0
  -29.7783  -11.5393   17.6201 H   0  0  0  0  0  0
  -29.6981  -13.2629   17.6100 H   0  0  0  0  0  0
  -27.8600  -11.2555   18.9328 H   0  0  0  0  0  0
  -27.3896  -12.4761   17.7866 H   0  0  0  0  0  0
  -27.5923  -14.2244   19.4230 H   0  0  0  0  0  0
  -28.7117  -12.2379   21.4552 H   0  0  0  0  0  0
  -28.4289  -13.9447   21.7215 H   0  0  0  0  0  0
  -25.2767   -9.5646   22.4795 H   0  0  0  0  0  0
  -23.9981   -7.4616   22.7490 H   0  0  0  0  0  0
  -21.0839   -8.8790   19.8968 H   0  0  0  0  0  0
  -22.3728  -10.9674   19.6185 H   0  0  0  0  0  0
  -21.2027   -7.6155   23.9717 H   0  0  0  0  0  0
  -21.1465   -6.0528   25.9074 H   0  0  0  0  0  0
  -22.0608   -2.7613   23.2854 H   0  0  0  0  0  0
  -22.4072  -11.9869   22.4801 H   0  0  0  0  0  0
  -21.1103  -13.1257   22.2613 H   0  0  0  0  0  0
  -24.6621  -15.8449   20.5360 H   0  0  0  0  0  0
  -26.2844  -15.6297   20.1118 H   0  0  0  0  0  0
  -26.7169  -32.5450   23.1090 H   0  0  0  0  0  0
  -25.0050  -33.9718   25.0408 H   0  0  0  0  0  0
  -22.7166  -31.2994   21.3956 H   0  0  0  0  0  0
  -23.3757  -35.9614   23.3294 H   0  0  0  0  0  0
  -24.3584  -36.8926   22.2056 H   0  0  0  0  0  0
  -23.7240  -37.6483   23.6674 H   0  0  0  0  0  0
  -26.0827  -31.5487   20.5931 H   0  0  0  0  0  0
  -26.8445  -30.8483   21.9905 H   0  0  0  0  0  0
  -28.1293  -28.9980   21.1621 H   0  0  0  0  0  0
  -26.0176  -25.8877   19.0561 H   0  0  0  0  0  0
  -23.9766  -27.2733   19.0426 H   0  0  0  0  0  0
  -23.7548  -30.5770   19.4013 H   0  0  0  0  0  0
  -22.7566  -29.2321   19.8643 H   0  0  0  0  0  0
  -25.1293  -36.1935   25.0820 H   0  0  0  0  0  0
  -20.9963  -28.3261   24.1411 H   0  0  0  0  0  0
  -20.5678  -26.2288   23.3612 H   0  0  0  0  0  0
  -21.6642  -26.7444   22.1206 H   0  0  0  0  0  0
  -19.6923  -25.6300   21.1228 H   0  0  0  0  0  0
  -19.6691  -27.3208   20.6754 H   0  0  0  0  0  0
  -17.4201  -26.6665   21.4011 H   0  0  0  0  0  0
  -18.0314  -26.0056   22.9014 H   0  0  0  0  0  0
  -19.7940  -30.7245   24.2279 H   0  0  0  0  0  0
  -17.5021  -31.6265   24.5150 H   0  0  0  0  0  0
  -15.5351  -30.2980   23.7658 H   0  0  0  0  0  0
  -15.8662  -28.0811   22.7078 H   0  0  0  0  0  0
  -24.5944  -30.6993   25.7759 H   0  0  0  0  0  0
  -24.8865  -32.2824   26.4856 H   0  0  0  0  0  0
  -25.8065  -30.8886   27.0216 H   0  0  0  0  0  0
  -26.2895  -29.6746   24.1202 H   0  0  0  0  0  0
  -27.4104  -29.7278   25.4614 H   0  0  0  0  0  0
  -27.8730  -30.4305   23.9293 H   0  0  0  0  0  0
  -27.2728  -33.3625   26.2021 H   0  0  0  0  0  0
  -28.3901  -32.6807   25.0297 H   0  0  0  0  0  0
  -28.0714  -31.8421   26.5403 H   0  0  0  0  0  0
  -28.2587  -38.0101   24.7543 H   0  0  0  0  0  0
  -28.1084  -36.2637   24.6249 H   0  0  0  0  0  0
  -27.2292  -37.1395   25.8860 H   0  0  0  0  0  0
  -20.9370  -29.8735   21.6870 H   0  0  0  0  0  0
  -26.0164  -38.2849   24.1443 H   0  0  0  0  0  0
  -29.1776  -15.1898   18.1414 H   0  0  0  0  0  0
  -28.3218  -17.2246   17.1686 H   0  0  0  0  0  0
  -26.8242  -21.5850   21.4388 H   0  0  0  0  0  0
  -27.0531  -19.9385   20.8775 H   0  0  0  0  0  0
  -26.7639  -21.2241   19.7131 H   0  0  0  0  0  0
  -30.6310  -20.2852   20.7036 H   0  0  0  0  0  0
  -29.4809  -19.8264   21.9081 H   0  0  0  0  0  0
  -27.2236  -23.4825   19.9035 H   0  0  0  0  0  0
  -28.5878  -23.9807   18.9786 H   0  0  0  0  0  0
  -29.2359  -25.1523   21.4047 H   0  0  0  0  0  0
  -27.5211  -25.1729   21.5331 H   0  0  0  0  0  0
  1 25  1  0  0  0
  1 30  2  0  0  0
  1 73  1  0  0  0
  2  3  1  0  0  0
  2 25  1  0  0  0
  2 86  1  0  0  0
  2 87  1  0  0  0
  3  4  1  0  0  0
  3 88  1  0  0  0
  3 89  1  0  0  0
  4  5  1  0  0  0
  4 90  1  0  0  0
  4 91  1  0  0  0
  5  6  1  0  0  0
  5 26  1  0  0  0
  5 92  1  0  0  0
  6 25  1  0  0  0
  6 93  1  0  0  0
  6 94  1  0  0  0
  7  8  2  0  0  0
  7 26  1  0  0  0
  7 29  1  0  0  0
  8  9  1  0  0  0
  8 22  1  0  0  0
  9 10  1  0  0  0
  9 27  2  0  0  0
 10 11  2  0  0  0
 10 15  1  0  0  0
 11 12  1  0  0  0
 11 95  1  0  0  0
 12 13  2  0  0  0
 12 96  1  0  0  0
 13 14  1  0  0  0
 13 31  1  0  0  0
 14 15  2  0  0  0
 14 97  1  0  0  0
 15 98  1  0  0  0
 16 17  2  0  0  0
 16 21  1  0  0  0
 16 31  1  0  0  0
 17 18  1  0  0  0
 17 99  1  0  0  0
 18 19  2  0  0  0
 18100  1  0  0  0
 19 20  1  0  0  0
 19 24  1  0  0  0
 20 21  2  0  0  0
 20101  1  0  0  0
 21 23  1  0  0  0
 22 28  1  0  0  0
 22 32  2  0  0  0
 26 27  1  0  0  0
 28102  1  0  0  0
 28103  1  0  0  0
 29104  1  0  0  0
 29105  1  0  0  0
 33 34  1  0  0  0
 33 66  1  0  0  0
 33 70  2  0  0  0
 34 36  1  0  0  0
 34 59  1  0  0  0
 34106  1  0  0  0
 35 44  2  0  0  0
 35 45  1  0  0  0
 35 68  1  0  0  0
 36 56  1  0  0  0
 36107  1  0  0  0
 37 39  1  0  0  0
 37 47  1  0  0  0
 37 66  1  0  0  0
 37108  1  0  0  0
 38 43  2  0  0  0
 38 46  1  0  0  0
 38 47  1  0  0  0
 39 64  1  0  0  0
 39 67  2  0  0  0
 40 52  1  0  0  0
 40 53  2  0  0  0
 40 58  1  0  0  0
 41109  1  0  0  0
 41110  1  0  0  0
 41111  1  0  0  0
 41 48  1  0  0  0
 42 43  1  0  0  0
 42 66  1  0  0  0
 42112  1  0  0  0
 42113  1  0  0  0
 43 44  1  0  0  0
 44114  1  0  0  0
 45 46  2  0  0  0
 45115  1  0  0  0
 46116  1  0  0  0
 47117  1  0  0  0
 47118  1  0  0  0
 48 56  1  0  0  0
 48 65  1  0  0  0
 48119  1  0  0  0
 49 50  1  0  0  0
 49 53  1  0  0  0
 49 64  1  0  0  0
 49120  1  0  0  0
 50 51  1  0  0  0
 50121  1  0  0  0
 50122  1  0  0  0
 51 52  1  0  0  0
 51123  1  0  0  0
 51124  1  0  0  0
 52125  1  0  0  0
 52126  1  0  0  0
 53 54  1  0  0  0
 54 55  2  0  0  0
 54127  1  0  0  0
 55 57  1  0  0  0
 55128  1  0  0  0
 56 69  2  0  0  0
 57 58  2  0  0  0
 57129  1  0  0  0
 58130  1  0  0  0
 59 60  1  0  0  0
 59 61  1  0  0  0
 59 62  1  0  0  0
 60131  1  0  0  0
 60132  1  0  0  0
 60133  1  0  0  0
 61134  1  0  0  0
 61135  1  0  0  0
 61136  1  0  0  0
 62137  1  0  0  0
 62138  1  0  0  0
 62139  1  0  0  0
 63 65  1  0  0  0
 63140  1  0  0  0
 63141  1  0  0  0
 63142  1  0  0  0
 64143  1  0  0  0
 65144  1  0  0  0
 68 81  1  0  0  0
 71 72  2  0  0  0
 71 73  1  0  0  0
 71145  1  0  0  0
 72 75  1  0  0  0
 72146  1  0  0  0
 73 76  2  0  0  0
 74 75  2  0  0  0
 74 76  1  0  0  0
 74 79  1  0  0  0
 75 84  1  0  0  0
 76 85  1  0  0  0
 77 80  1  0  0  0
 77 82  1  0  0  0
 77 83  2  0  0  0
 78 82  1  0  0  0
 78147  1  0  0  0
 78148  1  0  0  0
 78149  1  0  0  0
 79 82  1  0  0  0
 79150  1  0  0  0
 79151  1  0  0  0
 80 81  1  0  0  0
 80152  1  0  0  0
 80153  1  0  0  0
 81154  1  0  0  0
 81155  1  0  0  0
M  ISO  4   1 100  68 101  73 100  81 101
M  END
> <chiral flag>
0

> <version>
0

> <s_m_source_file>
/data/baiqing/PycharmProjects/Reinvent-master-3.2/result/LINK_invent/BTK/process_docking_weight1_custom_product_contain_oxygen_bond_distance_aromatic_linkinvent_7_9_3/rearranged_h_0039.sdf

> <i_m_source_file_index>
6

> <r_mmod_Potential_Energy-OPLS-2005>
250.556686401367

> <r_mmod_Stretch_Energy-OPLS-2005>
112.031219482422

> <r_mmod_Bend_Energy-OPLS-2005>
161.354400634766

> <r_mmod_Torsional_Energy-OPLS-2005>
264.817932128906

> <r_mmod_Improper_Torsional_Energy-OPLS-2005>
17.2264919281006

> <r_mmod_Van_der_Waal_Energy-OPLS-2005>
140.155883789062

> <r_mmod_Electrostatic_Energy-OPLS-2005>
-312.391357421875

> <r_mmod_Solvation_Energy-OPLS-2005>
-212.438888549805

> <b_mmod_Minimization_Converged-OPLS-2005>
0

> <r_mmod_RMS_Derivative-OPLS-2005>
1.27151679992676

$$$$
6
                    3D
 Structure written by MMmdl.
167176  0  0  1  0            999 V2000
  -30.6544  -14.5862   20.5454 C   0  0  0  0  0  0
  -30.4347  -12.3734   19.4374 C   0  0  0  0  0  0
  -29.5029  -12.5089   18.2135 C   0  0  0  0  0  0
  -28.0251  -12.3504   18.6270 C   0  0  0  0  0  0
  -27.6528  -13.2135   19.8616 C   0  0  2  0  0  0
  -28.6968  -13.0492   20.9907 C   0  0  0  0  0  0
  -25.2551  -13.8169   20.5670 C   0  0  0  0  0  0
  -24.1811  -13.0439   20.9179 C   0  0  0  0  0  0
  -24.6372  -11.6909   20.8728 C   0  0  0  0  0  0
  -23.9050  -10.4291   21.0403 C   0  0  0  0  0  0
  -24.3613   -9.4196   21.9174 C   0  0  0  0  0  0
  -23.6283   -8.2240   22.0762 C   0  0  0  0  0  0
  -22.4257   -8.0289   21.3563 C   0  0  0  0  0  0
  -21.9879   -9.0255   20.4660 C   0  0  0  0  0  0
  -22.7218  -10.2129   20.3051 C   0  0  0  0  0  0
  -21.6846   -6.0726   22.5281 C   0  0  0  0  0  0
  -21.4013   -6.5630   23.8211 C   0  0  0  0  0  0
  -21.3652   -5.6780   24.9169 C   0  0  0  0  0  0
  -21.6046   -4.3048   24.7227 C   0  0  0  0  0  0
  -21.8814   -3.8137   23.4344 C   0  0  0  0  0  0
  -21.9188   -4.6956   22.3403 C   0  0  0  0  0  0
  -22.7832  -13.5240   21.1847 C   0  0  0  0  0  0
  -22.1659   -4.2140   21.0982 F   0  0  0  0  0  0
  -21.5627   -3.4534   25.7742 F   0  0  0  0  0  0
  -30.0139  -13.3837   20.4272 N   0  0  0  0  0  0
  -26.2975  -12.9347   20.3289 N   0  0  0  0  0  0
  -25.9294  -11.6507   20.5721 N   0  0  0  0  0  0
  -22.0457  -12.8248   22.0404 N   0  0  0  0  0  0
  -25.4272  -15.1891   20.4087 N   0  0  0  0  0  0
  -31.8021  -14.7498   20.1247 O   0  0  0  0  0  0
  -21.6642   -6.8880   21.4248 O   0  0  0  0  0  0
  -22.3520  -14.5539   20.6681 O   0  0  0  0  0  0
  -24.6202  -31.8627   23.2030 C   0  0  0  0  0  0
  -25.9071  -32.4792   23.8355 C   0  0  1  0  0  0
  -27.2395  -27.3706   20.1025 C   0  0  0  0  0  0
  -25.5901  -33.8591   24.2285 N   0  0  0  0  0  0
  -23.4125  -30.4826   21.5436 C   0  0  2  0  0  0
  -24.8621  -28.9384   20.1085 C   0  0  0  0  0  0
  -22.7448  -29.4633   22.4957 C   0  0  0  0  0  0
  -18.0278  -28.1383   22.8483 C   0  0  0  0  0  0
  -24.1487  -36.7296   23.2640 C   0  0  0  0  0  0
  -25.9465  -30.8045   21.3690 C   0  0  0  0  0  0
  -26.0216  -29.4335   20.7159 C   0  0  0  0  0  0
  -27.2075  -28.6525   20.7179 C   0  0  0  0  0  0
  -26.0601  -26.9064   19.4811 C   0  0  0  0  0  0
  -24.8791  -27.6770   19.4874 C   0  0  0  0  0  0
  -23.6255  -29.8117   20.1590 C   0  0  0  0  0  0
  -25.4110  -36.3092   24.0330 C   0  0  1  0  0  0
  -20.5873  -28.3676   23.1300 C   0  0  2  0  0  0
  -20.6765  -26.9404   22.5419 C   0  0  0  0  0  0
  -19.5749  -26.6384   21.5213 C   0  0  0  0  0  0
  -18.1926  -26.7931   22.1618 C   0  0  0  0  0  0
  -19.1529  -28.8845   23.2889 C   0  0  0  0  0  0
  -18.9459  -30.1448   23.8905 C   0  0  0  0  0  0
  -17.6463  -30.6584   24.0569 C   0  0  0  0  0  0
  -25.9039  -34.9460   23.5110 C   0  0  0  0  0  0
  -16.5354  -29.9087   23.6326 C   0  0  0  0  0  0
  -16.7269  -28.6505   23.0343 C   0  0  0  0  0  0
  -26.4480  -31.6597   25.0710 C   0  0  0  0  0  0
  -25.3736  -31.3729   26.1458 C   0  0  0  0  0  0
  -27.0320  -30.3029   24.6132 C   0  0  0  0  0  0
  -27.6050  -32.4335   25.7466 C   0  0  0  0  0  0
  -27.5579  -37.1801   24.8465 C   0  0  0  0  0  0
  -21.4169  -29.3030   22.3695 N   0  0  0  0  0  0
  -26.4292  -37.3779   23.9407 N   0  0  0  0  0  0
  -24.6774  -31.0675   22.0958 N   0  0  0  0  0  0
  -23.4192  -28.8189   23.3036 O   0  0  0  0  0  0
  -28.3860  -26.5833   20.1787 O   0  0  0  0  0  0
  -26.5615  -34.8927   22.4680 O   0  0  0  0  0  0
  -23.5379  -32.1414   23.7382 O   0  0  0  0  0  0
  -29.5516  -18.1368   20.8360 C   0  0  0  0  0  0
  -31.6581  -18.5416   22.6164 C   0  0  0  0  0  0
  -29.8563  -19.4827   21.2438 C   0  0  0  0  0  0
  -30.9422  -19.6604   22.1417 C   0  0  0  0  0  0
  -30.2839  -16.9917   21.3082 C   0  0  0  0  0  0
  -31.3281  -17.2261   22.2411 C   0  0  0  0  0  0
  -29.8945  -21.4660   18.6065 C   0  0  0  0  0  0
  -31.0105  -20.8775   18.1470 C   0  0  0  0  0  0
  -28.7109  -21.9450   17.7914 C   0  0  0  0  0  0
  -28.6073  -23.4691   17.8688 C   0  0  0  0  0  0
  -29.3940  -23.2561   20.3169 C   0  0  0  0  0  0
  -28.4530  -24.0370   19.3037 C   0  0  1  0  0  0
  -31.3530  -21.0320   22.6600 C   0  0  0  0  0  0
  -28.9851  -20.7169   20.8187 C   0  0  0  0  0  0
  -28.6944  -25.6043   19.1527 C   0  0  0  0  0  0
  -29.8860  -15.6385   20.9559 N   0  0  0  0  0  0
  -29.7069  -21.7894   20.0418 N   0  3  1  0  0  0
  -32.1776  -15.9448   23.0385 Cl  0  0  0  0  0  0
  -31.4752  -12.4980   19.1318 H   0  0  0  0  0  0
  -30.3688  -11.3728   19.8671 H   0  0  0  0  0  0
  -29.7622  -11.7678   17.4559 H   0  0  0  0  0  0
  -29.6512  -13.4839   17.7471 H   0  0  0  0  0  0
  -27.8542  -11.2956   18.8461 H   0  0  0  0  0  0
  -27.3749  -12.5946   17.7851 H   0  0  0  0  0  0
  -27.6783  -14.2519   19.5297 H   0  0  0  0  0  0
  -28.6979  -12.0223   21.3590 H   0  0  0  0  0  0
  -28.4453  -13.6751   21.8489 H   0  0  0  0  0  0
  -25.2758   -9.5662   22.4744 H   0  0  0  0  0  0
  -23.9984   -7.4613   22.7469 H   0  0  0  0  0  0
  -21.0807   -8.8771   19.8954 H   0  0  0  0  0  0
  -22.3687  -10.9664   19.6149 H   0  0  0  0  0  0
  -21.2014   -7.6139   23.9711 H   0  0  0  0  0  0
  -21.1476   -6.0519   25.9074 H   0  0  0  0  0  0
  -22.0604   -2.7605   23.2854 H   0  0  0  0  0  0
  -22.4080  -11.9920   22.4808 H   0  0  0  0  0  0
  -21.1073  -13.1294   22.2613 H   0  0  0  0  0  0
  -24.6586  -15.8426   20.5132 H   0  0  0  0  0  0
  -26.2693  -15.6254   20.0555 H   0  0  0  0  0  0
  -26.7138  -32.5481   23.1107 H   0  0  0  0  0  0
  -25.0054  -33.9746   25.0434 H   0  0  0  0  0  0
  -22.7036  -31.3001   21.3987 H   0  0  0  0  0  0
  -23.3747  -35.9632   23.3312 H   0  0  0  0  0  0
  -24.3580  -36.8906   22.2054 H   0  0  0  0  0  0
  -23.7244  -37.6502   23.6655 H   0  0  0  0  0  0
  -26.0724  -31.5670   20.5993 H   0  0  0  0  0  0
  -26.8290  -30.8569   21.9948 H   0  0  0  0  0  0
  -28.0985  -29.0258   21.2023 H   0  0  0  0  0  0
  -26.0320  -25.9330   19.0129 H   0  0  0  0  0  0
  -23.9865  -27.2876   19.0178 H   0  0  0  0  0  0
  -23.7398  -30.5851   19.3986 H   0  0  0  0  0  0
  -22.7481  -29.2339   19.8623 H   0  0  0  0  0  0
  -25.1293  -36.1943   25.0821 H   0  0  0  0  0  0
  -20.9963  -28.3246   24.1423 H   0  0  0  0  0  0
  -20.5654  -26.2289   23.3612 H   0  0  0  0  0  0
  -21.6640  -26.7432   22.1227 H   0  0  0  0  0  0
  -19.6909  -25.6295   21.1239 H   0  0  0  0  0  0
  -19.6689  -27.3197   20.6745 H   0  0  0  0  0  0
  -17.4198  -26.6679   21.4016 H   0  0  0  0  0  0
  -18.0319  -26.0071   22.9011 H   0  0  0  0  0  0
  -19.7935  -30.7260   24.2279 H   0  0  0  0  0  0
  -17.5018  -31.6265   24.5171 H   0  0  0  0  0  0
  -15.5355  -30.2994   23.7642 H   0  0  0  0  0  0
  -15.8670  -28.0829   22.7054 H   0  0  0  0  0  0
  -24.5887  -30.7099   25.7793 H   0  0  0  0  0  0
  -24.8959  -32.2902   26.4916 H   0  0  0  0  0  0
  -25.8082  -30.8882   27.0210 H   0  0  0  0  0  0
  -26.2876  -29.6777   24.1185 H   0  0  0  0  0  0
  -27.4071  -29.7284   25.4612 H   0  0  0  0  0  0
  -27.8725  -30.4331   23.9309 H   0  0  0  0  0  0
  -27.2656  -33.3624   26.2064 H   0  0  0  0  0  0
  -28.3838  -32.6919   25.0276 H   0  0  0  0  0  0
  -28.0746  -31.8457   26.5364 H   0  0  0  0  0  0
  -28.2606  -38.0089   24.7506 H   0  0  0  0  0  0
  -28.1068  -36.2625   24.6295 H   0  0  0  0  0  0
  -27.2305  -37.1459   25.8871 H   0  0  0  0  0  0
  -20.9335  -29.8752   21.6913 H   0  0  0  0  0  0
  -26.0177  -38.2856   24.1407 H   0  0  0  0  0  0
  -28.7178  -17.9734   20.1683 H   0  0  0  0  0  0
  -32.4622  -18.6834   23.3246 H   0  0  0  0  0  0
  -31.1420  -20.6790   17.0926 H   0  0  0  0  0  0
  -31.8176  -20.5879   18.8063 H   0  0  0  0  0  0
  -27.7905  -21.4758   18.1418 H   0  0  0  0  0  0
  -28.8381  -21.6334   16.7535 H   0  0  0  0  0  0
  -27.7779  -23.8066   17.2457 H   0  0  0  0  0  0
  -29.5077  -23.8844   17.4105 H   0  0  0  0  0  0
  -29.0394  -23.3922   21.3389 H   0  0  0  0  0  0
  -30.3642  -23.7529   20.2907 H   0  0  0  0  0  0
  -27.4204  -23.8670   19.6115 H   0  0  0  0  0  0
  -32.0421  -20.9440   23.5007 H   0  0  0  0  0  0
  -30.4972  -21.6058   23.0184 H   0  0  0  0  0  0
  -31.8701  -21.6000   21.8857 H   0  0  0  0  0  0
  -28.5756  -21.1509   21.7299 H   0  0  0  0  0  0
  -28.1153  -20.3789   20.2562 H   0  0  0  0  0  0
  -28.2243  -25.9445   18.2287 H   0  0  0  0  0  0
  -29.7587  -25.7403   18.9562 H   0  0  0  0  0  0
  -28.9071  -15.4304   21.0649 H   0  0  0  0  0  0
  -30.6204  -21.7172   20.4617 H   0  0  0  0  0  0
  1 25  1  0  0  0
  1 30  2  0  0  0
  1 86  1  0  0  0
  2  3  1  0  0  0
  2 25  1  0  0  0
  2 89  1  0  0  0
  2 90  1  0  0  0
  3  4  1  0  0  0
  3 91  1  0  0  0
  3 92  1  0  0  0
  4  5  1  0  0  0
  4 93  1  0  0  0
  4 94  1  0  0  0
  5  6  1  0  0  0
  5 26  1  0  0  0
  5 95  1  0  0  0
  6 25  1  0  0  0
  6 96  1  0  0  0
  6 97  1  0  0  0
  7  8  2  0  0  0
  7 26  1  0  0  0
  7 29  1  0  0  0
  8  9  1  0  0  0
  8 22  1  0  0  0
  9 10  1  0  0  0
  9 27  2  0  0  0
 10 11  2  0  0  0
 10 15  1  0  0  0
 11 12  1  0  0  0
 11 98  1  0  0  0
 12 13  2  0  0  0
 12 99  1  0  0  0
 13 14  1  0  0  0
 13 31  1  0  0  0
 14 15  2  0  0  0
 14100  1  0  0  0
 15101  1  0  0  0
 16 17  2  0  0  0
 16 21  1  0  0  0
 16 31  1  0  0  0
 17 18  1  0  0  0
 17102  1  0  0  0
 18 19  2  0  0  0
 18103  1  0  0  0
 19 20  1  0  0  0
 19 24  1  0  0  0
 20 21  2  0  0  0
 20104  1  0  0  0
 21 23  1  0  0  0
 22 28  1  0  0  0
 22 32  2  0  0  0
 26 27  1  0  0  0
 28105  1  0  0  0
 28106  1  0  0  0
 29107  1  0  0  0
 29108  1  0  0  0
 33 34  1  0  0  0
 33 66  1  0  0  0
 33 70  2  0  0  0
 34 36  1  0  0  0
 34 59  1  0  0  0
 34109  1  0  0  0
 35 44  2  0  0  0
 35 45  1  0  0  0
 35 68  1  0  0  0
 36 56  1  0  0  0
 36110  1  0  0  0
 37 39  1  0  0  0
 37 47  1  0  0  0
 37 66  1  0  0  0
 37111  1  0  0  0
 38 43  2  0  0  0
 38 46  1  0  0  0
 38 47  1  0  0  0
 39 64  1  0  0  0
 39 67  2  0  0  0
 40 52  1  0  0  0
 40 53  2  0  0  0
 40 58  1  0  0  0
 41112  1  0  0  0
 41113  1  0  0  0
 41114  1  0  0  0
 41 48  1  0  0  0
 42 43  1  0  0  0
 42 66  1  0  0  0
 42115  1  0  0  0
 42116  1  0  0  0
 43 44  1  0  0  0
 44117  1  0  0  0
 45 46  2  0  0  0
 45118  1  0  0  0
 46119  1  0  0  0
 47120  1  0  0  0
 47121  1  0  0  0
 48 56  1  0  0  0
 48 65  1  0  0  0
 48122  1  0  0  0
 49 50  1  0  0  0
 49 53  1  0  0  0
 49 64  1  0  0  0
 49123  1  0  0  0
 50 51  1  0  0  0
 50124  1  0  0  0
 50125  1  0  0  0
 51 52  1  0  0  0
 51126  1  0  0  0
 51127  1  0  0  0
 52128  1  0  0  0
 52129  1  0  0  0
 53 54  1  0  0  0
 54 55  2  0  0  0
 54130  1  0  0  0
 55 57  1  0  0  0
 55131  1  0  0  0
 56 69  2  0  0  0
 57 58  2  0  0  0
 57132  1  0  0  0
 58133  1  0  0  0
 59 60  1  0  0  0
 59 61  1  0  0  0
 59 62  1  0  0  0
 60134  1  0  0  0
 60135  1  0  0  0
 60136  1  0  0  0
 61137  1  0  0  0
 61138  1  0  0  0
 61139  1  0  0  0
 62140  1  0  0  0
 62141  1  0  0  0
 62142  1  0  0  0
 63 65  1  0  0  0
 63143  1  0  0  0
 63144  1  0  0  0
 63145  1  0  0  0
 64146  1  0  0  0
 65147  1  0  0  0
 68 85  1  0  0  0
 71 73  2  0  0  0
 71 75  1  0  0  0
 71148  1  0  0  0
 72 74  2  0  0  0
 72 76  1  0  0  0
 72149  1  0  0  0
 73 74  1  0  0  0
 73 84  1  0  0  0
 74 83  1  0  0  0
 75 76  2  0  0  0
 75 86  1  0  0  0
 76 88  1  0  0  0
 77 78  2  0  0  0
 77 79  1  0  0  0
 77 87  1  0  0  0
 78150  1  0  0  0
 78151  1  0  0  0
 79 80  1  0  0  0
 79152  1  0  0  0
 79153  1  0  0  0
 80 82  1  0  0  0
 80154  1  0  0  0
 80155  1  0  0  0
 81 82  1  0  0  0
 81 87  1  0  0  0
 81156  1  0  0  0
 81157  1  0  0  0
 82 85  1  0  0  0
 82158  1  0  0  0
 83159  1  0  0  0
 83160  1  0  0  0
 83161  1  0  0  0
 84162  1  0  0  0
 84163  1  0  0  0
 84 87  1  0  0  0
 85164  1  0  0  0
 85165  1  0  0  0
 86166  1  0  0  0
 87167  1  0  0  0
M  CHG  1  87   1
M  ISO  4   1 100  68 101  85 101  86 100
M  END
> <chiral flag>
0

> <version>
0

> <s_m_source_file>
/data/baiqing/PycharmProjects/Reinvent-master-3.2/result/LINK_invent/BTK/process_docking_weight1_custom_product_contain_oxygen_bond_distance_aromatic_linkinvent_7_9_3/rearranged_h_0039.sdf

> <i_m_source_file_index>
7

> <r_mmod_Potential_Energy-OPLS-2005>
-50.2052879333496

> <r_mmod_Stretch_Energy-OPLS-2005>
70.1642990112305

> <r_mmod_Bend_Energy-OPLS-2005>
155.377014160156

> <r_mmod_Torsional_Energy-OPLS-2005>
258.240203857422

> <r_mmod_Improper_Torsional_Energy-OPLS-2005>
5.50074100494385

> <r_mmod_Van_der_Waal_Energy-OPLS-2005>
145.183609008789

> <r_mmod_Electrostatic_Energy-OPLS-2005>
-269.489135742188

> <r_mmod_Solvation_Energy-OPLS-2005>
-446.794403076172

> <b_mmod_Minimization_Converged-OPLS-2005>
0

> <r_mmod_RMS_Derivative-OPLS-2005>
2.30261397361755

$$$$
7
                    3D
 Structure written by MMmdl.
165174  0  0  1  0            999 V2000
  -30.6657  -14.6302   20.4652 C   0  0  0  0  0  0
  -30.4084  -12.3725   19.4709 C   0  0  0  0  0  0
  -29.4957  -12.4780   18.2314 C   0  0  0  0  0  0
  -28.0159  -12.3457   18.6397 C   0  0  0  0  0  0
  -27.6413  -13.2307   19.8613 C   0  0  2  0  0  0
  -28.6879  -13.1331   20.9934 C   0  0  0  0  0  0
  -25.2496  -13.8216   20.5764 C   0  0  0  0  0  0
  -24.1785  -13.0454   20.9269 C   0  0  0  0  0  0
  -24.6378  -11.6929   20.8795 C   0  0  0  0  0  0
  -23.9040  -10.4301   21.0431 C   0  0  0  0  0  0
  -24.3596   -9.4211   21.9199 C   0  0  0  0  0  0
  -23.6295   -8.2227   22.0725 C   0  0  0  0  0  0
  -22.4282   -8.0263   21.3517 C   0  0  0  0  0  0
  -21.9918   -9.0236   20.4615 C   0  0  0  0  0  0
  -22.7219  -10.2135   20.3063 C   0  0  0  0  0  0
  -21.6854   -6.0729   22.5284 C   0  0  0  0  0  0
  -21.3997   -6.5636   23.8221 C   0  0  0  0  0  0
  -21.3663   -5.6793   24.9184 C   0  0  0  0  0  0
  -21.6057   -4.3054   24.7247 C   0  0  0  0  0  0
  -21.8808   -3.8138   23.4370 C   0  0  0  0  0  0
  -21.9178   -4.6954   22.3419 C   0  0  0  0  0  0
  -22.7795  -13.5210   21.1915 C   0  0  0  0  0  0
  -22.1656   -4.2134   21.1005 F   0  0  0  0  0  0
  -21.5627   -3.4544   25.7759 F   0  0  0  0  0  0
  -29.9962  -13.4373   20.4105 N   0  0  0  0  0  0
  -26.2924  -12.9420   20.3367 N   0  0  0  0  0  0
  -25.9307  -11.6561   20.5823 N   0  0  0  0  0  0
  -22.0473  -12.8173   22.0491 N   0  0  0  0  0  0
  -25.4222  -15.1941   20.4160 N   0  0  0  0  0  0
  -31.8536  -14.6938   20.1403 O   0  0  0  0  0  0
  -21.6646   -6.8865   21.4231 O   0  0  0  0  0  0
  -22.3463  -14.5488   20.6727 O   0  0  0  0  0  0
  -24.6229  -31.8605   23.2035 C   0  0  0  0  0  0
  -25.9092  -32.4778   23.8349 C   0  0  1  0  0  0
  -27.2160  -27.3382   20.1203 C   0  0  0  0  0  0
  -25.5919  -33.8582   24.2273 N   0  0  0  0  0  0
  -23.4158  -30.4831   21.5460 C   0  0  2  0  0  0
  -24.8624  -28.9373   20.1133 C   0  0  0  0  0  0
  -22.7461  -29.4623   22.4955 C   0  0  0  0  0  0
  -18.0286  -28.1400   22.8489 C   0  0  0  0  0  0
  -24.1490  -36.7294   23.2641 C   0  0  0  0  0  0
  -25.9553  -30.7972   21.3713 C   0  0  0  0  0  0
  -26.0310  -29.4261   20.7140 C   0  0  0  0  0  0
  -27.2167  -28.6389   20.7055 C   0  0  0  0  0  0
  -26.0336  -26.8896   19.5030 C   0  0  0  0  0  0
  -24.8638  -27.6743   19.4990 C   0  0  0  0  0  0
  -23.6301  -29.8163   20.1613 C   0  0  0  0  0  0
  -25.4118  -36.3081   24.0323 C   0  0  1  0  0  0
  -20.5882  -28.3695   23.1302 C   0  0  2  0  0  0
  -20.6780  -26.9423   22.5415 C   0  0  0  0  0  0
  -19.5756  -26.6397   21.5219 C   0  0  0  0  0  0
  -18.1934  -26.7945   22.1625 C   0  0  0  0  0  0
  -19.1537  -28.8867   23.2890 C   0  0  0  0  0  0
  -18.9459  -30.1472   23.8903 C   0  0  0  0  0  0
  -17.6459  -30.6600   24.0575 C   0  0  0  0  0  0
  -25.9052  -34.9452   23.5097 C   0  0  0  0  0  0
  -16.5350  -29.9097   23.6335 C   0  0  0  0  0  0
  -16.7272  -28.6519   23.0342 C   0  0  0  0  0  0
  -26.4490  -31.6587   25.0714 C   0  0  0  0  0  0
  -25.3723  -31.3729   26.1441 C   0  0  0  0  0  0
  -27.0329  -30.3005   24.6166 C   0  0  0  0  0  0
  -27.6043  -32.4335   25.7483 C   0  0  0  0  0  0
  -27.5580  -37.1805   24.8461 C   0  0  0  0  0  0
  -21.4181  -29.3038   22.3693 N   0  0  0  0  0  0
  -26.4296  -37.3772   23.9400 N   0  0  0  0  0  0
  -24.6834  -31.0630   22.0975 N   0  0  0  0  0  0
  -23.4193  -28.8180   23.3039 O   0  0  0  0  0  0
  -28.3210  -26.4868   20.1108 O   0  0  0  0  0  0
  -26.5625  -34.8916   22.4665 O   0  0  0  0  0  0
  -23.5401  -32.1413   23.7373 O   0  0  0  0  0  0
  -30.2834  -19.5792   19.4876 C   0  0  0  0  0  0
  -28.9903  -18.9247   21.3942 C   0  0  0  0  0  0
  -29.8607  -18.5340   20.3503 C   0  0  0  0  0  0
  -29.9752  -20.9569   19.7014 C   0  0  0  0  0  0
  -29.1894  -21.3751   20.8185 C   0  0  0  0  0  0
  -28.6537  -20.2987   21.6132 C   0  0  0  0  0  0
  -29.1192  -24.8833   23.3952 C   0  0  0  0  0  0
  -30.3913  -24.1078   23.0558 C   0  0  0  0  0  0
  -28.8028  -25.8836   22.2895 C   0  0  0  0  0  0
  -30.1390  -22.7723   22.3596 C   0  0  0  0  0  0
  -28.9963  -23.9741   20.4118 C   0  0  0  0  0  0
  -28.2557  -25.2930   20.9740 C   0  0  2  0  0  0
  -30.5988  -21.9552   18.7396 C   0  0  0  0  0  0
  -30.5066  -17.1116   20.1535 C   0  0  0  0  0  0
  -29.1224  -22.7476   21.2912 N   0  0  0  0  0  0
  -29.9471  -15.7931   20.6154 N   0  0  0  0  0  0
  -27.6052  -20.6426   22.9483 Cl  0  0  0  0  0  0
  -31.4560  -12.4512   19.1761 H   0  0  0  0  0  0
  -30.3058  -11.3922   19.9396 H   0  0  0  0  0  0
  -29.7538  -11.7035   17.5069 H   0  0  0  0  0  0
  -29.6611  -13.4314   17.7279 H   0  0  0  0  0  0
  -27.8337  -11.2959   18.8727 H   0  0  0  0  0  0
  -27.3672  -12.5819   17.7957 H   0  0  0  0  0  0
  -27.6425  -14.2602   19.5034 H   0  0  0  0  0  0
  -28.6973  -12.1373   21.4370 H   0  0  0  0  0  0
  -28.4539  -13.8272   21.8033 H   0  0  0  0  0  0
  -25.2727   -9.5681   22.4796 H   0  0  0  0  0  0
  -24.0003   -7.4590   22.7411 H   0  0  0  0  0  0
  -21.0859   -8.8731   19.8912 H   0  0  0  0  0  0
  -22.3648  -10.9670   19.6180 H   0  0  0  0  0  0
  -21.1986   -7.6144   23.9718 H   0  0  0  0  0  0
  -21.1516   -6.0531   25.9087 H   0  0  0  0  0  0
  -22.0592   -2.7600   23.2868 H   0  0  0  0  0  0
  -22.4121  -11.9854   22.4903 H   0  0  0  0  0  0
  -21.1072  -13.1140   22.2685 H   0  0  0  0  0  0
  -24.6558  -15.8498   20.5179 H   0  0  0  0  0  0
  -26.2765  -15.6350   20.0973 H   0  0  0  0  0  0
  -26.7165  -32.5460   23.1101 H   0  0  0  0  0  0
  -25.0039  -33.9730   25.0397 H   0  0  0  0  0  0
  -22.7091  -31.3033   21.4023 H   0  0  0  0  0  0
  -23.3743  -35.9639   23.3323 H   0  0  0  0  0  0
  -24.3572  -36.8893   22.2052 H   0  0  0  0  0  0
  -23.7263  -37.6508   23.6654 H   0  0  0  0  0  0
  -26.0846  -31.5629   20.6056 H   0  0  0  0  0  0
  -26.8362  -30.8452   21.9998 H   0  0  0  0  0  0
  -28.1192  -29.0090   21.1719 H   0  0  0  0  0  0
  -26.0120  -25.9156   19.0339 H   0  0  0  0  0  0
  -23.9666  -27.2923   19.0314 H   0  0  0  0  0  0
  -23.7533  -30.5924   19.4053 H   0  0  0  0  0  0
  -22.7504  -29.2455   19.8575 H   0  0  0  0  0  0
  -25.1304  -36.1927   25.0818 H   0  0  0  0  0  0
  -20.9972  -28.3268   24.1426 H   0  0  0  0  0  0
  -20.5707  -26.2299   23.3609 H   0  0  0  0  0  0
  -21.6648  -26.7476   22.1191 H   0  0  0  0  0  0
  -19.6916  -25.6308   21.1248 H   0  0  0  0  0  0
  -19.6698  -27.3214   20.6760 H   0  0  0  0  0  0
  -17.4202  -26.6703   21.4023 H   0  0  0  0  0  0
  -18.0329  -26.0094   22.9030 H   0  0  0  0  0  0
  -19.7932  -30.7298   24.2266 H   0  0  0  0  0  0
  -17.5006  -31.6277   24.5186 H   0  0  0  0  0  0
  -15.5350  -30.2997   23.7667 H   0  0  0  0  0  0
  -15.8670  -28.0848   22.7038 H   0  0  0  0  0  0
  -24.5859  -30.7133   25.7748 H   0  0  0  0  0  0
  -24.8964  -32.2908   26.4908 H   0  0  0  0  0  0
  -25.8030  -30.8845   27.0188 H   0  0  0  0  0  0
  -26.2898  -29.6758   24.1192 H   0  0  0  0  0  0
  -27.4028  -29.7259   25.4669 H   0  0  0  0  0  0
  -27.8770  -30.4285   23.9382 H   0  0  0  0  0  0
  -27.2630  -33.3616   26.2083 H   0  0  0  0  0  0
  -28.3831  -32.6937   25.0301 H   0  0  0  0  0  0
  -28.0741  -31.8458   26.5379 H   0  0  0  0  0  0
  -28.2595  -38.0104   24.7499 H   0  0  0  0  0  0
  -28.1078  -36.2632   24.6294 H   0  0  0  0  0  0
  -27.2295  -37.1458   25.8864 H   0  0  0  0  0  0
  -20.9369  -29.8737   21.6876 H   0  0  0  0  0  0
  -26.0172  -38.2845   24.1399 H   0  0  0  0  0  0
  -30.9379  -19.3230   18.6650 H   0  0  0  0  0  0
  -28.6171  -18.1796   22.0824 H   0  0  0  0  0  0
  -29.2806  -25.4398   24.3190 H   0  0  0  0  0  0
  -28.2767  -24.2146   23.5788 H   0  0  0  0  0  0
  -30.9354  -23.9008   23.9783 H   0  0  0  0  0  0
  -31.0749  -24.7128   22.4582 H   0  0  0  0  0  0
  -29.6967  -26.4731   22.0776 H   0  0  0  0  0  0
  -28.0744  -26.5962   22.6780 H   0  0  0  0  0  0
  -29.8561  -22.0740   23.1474 H   0  0  0  0  0  0
  -31.0928  -22.4055   21.9735 H   0  0  0  0  0  0
  -29.9976  -24.2757   20.1087 H   0  0  0  0  0  0
  -28.4728  -23.6790   19.5018 H   0  0  0  0  0  0
  -27.2126  -25.0182   21.1424 H   0  0  0  0  0  0
  -31.2245  -21.4679   17.9934 H   0  0  0  0  0  0
  -31.2329  -22.6612   19.2742 H   0  0  0  0  0  0
  -29.8278  -22.5022   18.1974 H   0  0  0  0  0  0
  -31.5062  -17.1990   20.5838 H   0  0  0  0  0  0
  -30.6721  -17.0006   19.0801 H   0  0  0  0  0  0
  -28.9596  -15.7309   20.8073 H   0  0  0  0  0  0
  1 25  1  0  0  0
  1 30  2  0  0  0
  1 86  1  0  0  0
  2  3  1  0  0  0
  2 25  1  0  0  0
  2 88  1  0  0  0
  2 89  1  0  0  0
  3  4  1  0  0  0
  3 90  1  0  0  0
  3 91  1  0  0  0
  4  5  1  0  0  0
  4 92  1  0  0  0
  4 93  1  0  0  0
  5  6  1  0  0  0
  5 26  1  0  0  0
  5 94  1  0  0  0
  6 25  1  0  0  0
  6 95  1  0  0  0
  6 96  1  0  0  0
  7  8  2  0  0  0
  7 26  1  0  0  0
  7 29  1  0  0  0
  8  9  1  0  0  0
  8 22  1  0  0  0
  9 10  1  0  0  0
  9 27  2  0  0  0
 10 11  2  0  0  0
 10 15  1  0  0  0
 11 12  1  0  0  0
 11 97  1  0  0  0
 12 13  2  0  0  0
 12 98  1  0  0  0
 13 14  1  0  0  0
 13 31  1  0  0  0
 14 15  2  0  0  0
 14 99  1  0  0  0
 15100  1  0  0  0
 16 17  2  0  0  0
 16 21  1  0  0  0
 16 31  1  0  0  0
 17 18  1  0  0  0
 17101  1  0  0  0
 18 19  2  0  0  0
 18102  1  0  0  0
 19 20  1  0  0  0
 19 24  1  0  0  0
 20 21  2  0  0  0
 20103  1  0  0  0
 21 23  1  0  0  0
 22 28  1  0  0  0
 22 32  2  0  0  0
 26 27  1  0  0  0
 28104  1  0  0  0
 28105  1  0  0  0
 29106  1  0  0  0
 29107  1  0  0  0
 33 34  1  0  0  0
 33 66  1  0  0  0
 33 70  2  0  0  0
 34 36  1  0  0  0
 34 59  1  0  0  0
 34108  1  0  0  0
 35 44  2  0  0  0
 35 45  1  0  0  0
 35 68  1  0  0  0
 36 56  1  0  0  0
 36109  1  0  0  0
 37 39  1  0  0  0
 37 47  1  0  0  0
 37 66  1  0  0  0
 37110  1  0  0  0
 38 43  2  0  0  0
 38 46  1  0  0  0
 38 47  1  0  0  0
 39 64  1  0  0  0
 39 67  2  0  0  0
 40 52  1  0  0  0
 40 53  2  0  0  0
 40 58  1  0  0  0
 41111  1  0  0  0
 41112  1  0  0  0
 41113  1  0  0  0
 41 48  1  0  0  0
 42 43  1  0  0  0
 42 66  1  0  0  0
 42114  1  0  0  0
 42115  1  0  0  0
 43 44  1  0  0  0
 44116  1  0  0  0
 45 46  2  0  0  0
 45117  1  0  0  0
 46118  1  0  0  0
 47119  1  0  0  0
 47120  1  0  0  0
 48 56  1  0  0  0
 48 65  1  0  0  0
 48121  1  0  0  0
 49 50  1  0  0  0
 49 53  1  0  0  0
 49 64  1  0  0  0
 49122  1  0  0  0
 50 51  1  0  0  0
 50123  1  0  0  0
 50124  1  0  0  0
 51 52  1  0  0  0
 51125  1  0  0  0
 51126  1  0  0  0
 52127  1  0  0  0
 52128  1  0  0  0
 53 54  1  0  0  0
 54 55  2  0  0  0
 54129  1  0  0  0
 55 57  1  0  0  0
 55130  1  0  0  0
 56 69  2  0  0  0
 57 58  2  0  0  0
 57131  1  0  0  0
 58132  1  0  0  0
 59 60  1  0  0  0
 59 61  1  0  0  0
 59 62  1  0  0  0
 60133  1  0  0  0
 60134  1  0  0  0
 60135  1  0  0  0
 61136  1  0  0  0
 61137  1  0  0  0
 61138  1  0  0  0
 62139  1  0  0  0
 62140  1  0  0  0
 62141  1  0  0  0
 63 65  1  0  0  0
 63142  1  0  0  0
 63143  1  0  0  0
 63144  1  0  0  0
 64145  1  0  0  0
 65146  1  0  0  0
 68 82  1  0  0  0
 71 73  2  0  0  0
 71 74  1  0  0  0
 71147  1  0  0  0
 72 73  1  0  0  0
 72 76  2  0  0  0
 72148  1  0  0  0
 73 84  1  0  0  0
 74 75  2  0  0  0
 74 83  1  0  0  0
 75 76  1  0  0  0
 75 85  1  0  0  0
 76 87  1  0  0  0
 77 78  1  0  0  0
 77 79  1  0  0  0
 77149  1  0  0  0
 77150  1  0  0  0
 78 80  1  0  0  0
 78151  1  0  0  0
 78152  1  0  0  0
 79 82  1  0  0  0
 79153  1  0  0  0
 79154  1  0  0  0
 80 85  1  0  0  0
 80155  1  0  0  0
 80156  1  0  0  0
 81 82  1  0  0  0
 81 85  1  0  0  0
 81157  1  0  0  0
 81158  1  0  0  0
 82159  1  0  0  0
 83160  1  0  0  0
 83161  1  0  0  0
 83162  1  0  0  0
 84 86  1  0  0  0
 84163  1  0  0  0
 84164  1  0  0  0
 86165  1  0  0  0
M  ISO  4   1 100  68 101  82 101  86 100
M  END
> <chiral flag>
0

> <version>
0

> <s_m_source_file>
/data/baiqing/PycharmProjects/Reinvent-master-3.2/result/LINK_invent/BTK/process_docking_weight1_custom_product_contain_oxygen_bond_distance_aromatic_linkinvent_7_9_3/rearranged_h_0039.sdf

> <i_m_source_file_index>
8

> <r_mmod_Potential_Energy-OPLS-2005>
173.980941772461

> <r_mmod_Stretch_Energy-OPLS-2005>
87.0516738891602

> <r_mmod_Bend_Energy-OPLS-2005>
175.683395385742

> <r_mmod_Torsional_Energy-OPLS-2005>
295.822021484375

> <r_mmod_Improper_Torsional_Energy-OPLS-2005>
12.8692007064819

> <r_mmod_Van_der_Waal_Energy-OPLS-2005>
154.141616821289

> <r_mmod_Electrostatic_Energy-OPLS-2005>
-390.943206787109

> <r_mmod_Solvation_Energy-OPLS-2005>
-207.788726806641

> <b_mmod_Minimization_Converged-OPLS-2005>
0

> <r_mmod_RMS_Derivative-OPLS-2005>
2.69975018501282

$$$$
8
                    3D
 Structure written by MMmdl.
162170  0  0  1  0            999 V2000
  -30.7675  -14.3750   20.6798 C   0  0  0  0  0  0
  -30.4111  -12.2922   19.4039 C   0  0  0  0  0  0
  -29.4817  -12.5230   18.1979 C   0  0  0  0  0  0
  -28.0068  -12.3785   18.6142 C   0  0  0  0  0  0
  -27.6638  -13.2044   19.8813 C   0  0  2  0  0  0
  -28.7006  -12.9574   21.0003 C   0  0  0  0  0  0
  -25.2592  -13.8173   20.5682 C   0  0  0  0  0  0
  -24.1840  -13.0445   20.9167 C   0  0  0  0  0  0
  -24.6386  -11.6910   20.8731 C   0  0  0  0  0  0
  -23.9056  -10.4296   21.0407 C   0  0  0  0  0  0
  -24.3613   -9.4216   21.9188 C   0  0  0  0  0  0
  -23.6292   -8.2246   22.0759 C   0  0  0  0  0  0
  -22.4276   -8.0277   21.3542 C   0  0  0  0  0  0
  -21.9911   -9.0249   20.4640 C   0  0  0  0  0  0
  -22.7233  -10.2133   20.3050 C   0  0  0  0  0  0
  -21.6846   -6.0732   22.5279 C   0  0  0  0  0  0
  -21.4012   -6.5638   23.8212 C   0  0  0  0  0  0
  -21.3658   -5.6794   24.9177 C   0  0  0  0  0  0
  -21.6046   -4.3056   24.7226 C   0  0  0  0  0  0
  -21.8821   -3.8149   23.4343 C   0  0  0  0  0  0
  -21.9192   -4.6965   22.3400 C   0  0  0  0  0  0
  -22.7867  -13.5239   21.1839 C   0  0  0  0  0  0
  -22.1661   -4.2153   21.0979 F   0  0  0  0  0  0
  -21.5631   -3.4540   25.7738 F   0  0  0  0  0  0
  -30.0420  -13.2475   20.4607 N   0  0  0  0  0  0
  -26.3023  -12.9333   20.3381 N   0  0  0  0  0  0
  -25.9306  -11.6493   20.5762 N   0  0  0  0  0  0
  -22.0502  -12.8217   22.0387 N   0  0  0  0  0  0
  -25.4324  -15.1886   20.4088 N   0  0  0  0  0  0
  -31.7979  -14.6362   20.0500 O   0  0  0  0  0  0
  -21.6632   -6.8878   21.4242 O   0  0  0  0  0  0
  -22.3556  -14.5555   20.6703 O   0  0  0  0  0  0
  -24.6121  -31.8693   23.2137 C   0  0  0  0  0  0
  -25.9026  -32.4829   23.8413 C   0  0  1  0  0  0
  -27.2343  -27.4451   20.0823 C   0  0  0  0  0  0
  -25.5899  -33.8630   24.2347 N   0  0  0  0  0  0
  -23.3972  -30.4937   21.5558 C   0  0  2  0  0  0
  -24.8404  -28.9612   20.1179 C   0  0  0  0  0  0
  -22.7379  -29.4661   22.5021 C   0  0  0  0  0  0
  -18.0268  -28.1384   22.8494 C   0  0  0  0  0  0
  -24.1481  -36.7306   23.2641 C   0  0  0  0  0  0
  -25.9241  -30.8365   21.3641 C   0  0  0  0  0  0
  -25.9991  -29.4704   20.7138 C   0  0  0  0  0  0
  -27.1936  -28.7183   20.6952 C   0  0  0  0  0  0
  -26.0528  -26.9517   19.4766 C   0  0  0  0  0  0
  -24.8614  -27.7001   19.5002 C   0  0  0  0  0  0
  -23.6028  -29.8276   20.1701 C   0  0  0  0  0  0
  -25.4113  -36.3115   24.0334 C   0  0  1  0  0  0
  -20.5849  -28.3663   23.1331 C   0  0  2  0  0  0
  -20.6756  -26.9409   22.5413 C   0  0  0  0  0  0
  -19.5737  -26.6399   21.5201 C   0  0  0  0  0  0
  -18.1915  -26.7934   22.1612 C   0  0  0  0  0  0
  -19.1515  -28.8839   23.2903 C   0  0  0  0  0  0
  -18.9443  -30.1443   23.8921 C   0  0  0  0  0  0
  -17.6451  -30.6592   24.0575 C   0  0  0  0  0  0
  -25.9040  -34.9478   23.5137 C   0  0  0  0  0  0
  -16.5342  -29.9101   23.6332 C   0  0  0  0  0  0
  -16.7259  -28.6514   23.0359 C   0  0  0  0  0  0
  -26.4475  -31.6596   25.0720 C   0  0  0  0  0  0
  -25.3748  -31.3631   26.1452 C   0  0  0  0  0  0
  -27.0342  -30.3074   24.6057 C   0  0  0  0  0  0
  -27.6038  -32.4319   25.7497 C   0  0  0  0  0  0
  -27.5578  -37.1820   24.8474 C   0  0  0  0  0  0
  -21.4114  -29.3020   22.3736 N   0  0  0  0  0  0
  -26.4297  -37.3802   23.9407 N   0  0  0  0  0  0
  -24.6633  -31.0800   22.1036 N   0  0  0  0  0  0
  -23.4154  -28.8201   23.3060 O   0  0  0  0  0  0
  -28.4437  -26.7757   20.0841 O   0  0  0  0  0  0
  -26.5595  -34.8914   22.4694 O   0  0  0  0  0  0
  -23.5325  -32.1443   23.7547 O   0  0  0  0  0  0
  -32.1448  -18.7523   23.0336 C   0  0  0  0  0  0
  -32.2770  -16.4079   22.4174 C   0  0  0  0  0  0
  -30.7635  -18.7697   22.7427 C   0  0  0  0  0  0
  -30.1284  -17.5833   22.2715 C   0  0  0  0  0  0
  -30.9009  -16.4018   22.0903 C   0  0  0  0  0  0
  -32.8969  -17.5774   22.8823 C   0  0  0  0  0  0
  -28.6323  -17.5637   21.9686 C   0  0  0  0  0  0
  -30.0208  -20.0855   22.9756 C   0  0  0  0  0  0
  -29.3579  -23.1422   20.7509 C   0  0  0  0  0  0
  -29.1443  -24.6489   21.0045 C   0  0  0  0  0  0
  -29.7557  -22.3650   22.0229 C   0  0  0  0  0  0
  -28.5212  -25.3746   19.7998 C   0  0  0  0  0  0
  -30.2913  -15.1983   21.6304 N   0  0  0  0  0  0
  -29.9930  -20.9266   21.7599 N   0  3  0  0  0  0
  -34.5771  -17.5686   23.2732 Cl  0  0  0  0  0  0
  -31.4545  -12.3874   19.0989 H   0  0  0  0  0  0
  -30.3059  -11.2721   19.7766 H   0  0  0  0  0  0
  -29.7136  -11.8158   17.4007 H   0  0  0  0  0  0
  -29.6514  -13.5185   17.7844 H   0  0  0  0  0  0
  -27.8148  -11.3210   18.7970 H   0  0  0  0  0  0
  -27.3544  -12.6686   17.7899 H   0  0  0  0  0  0
  -27.7193  -14.2563   19.6021 H   0  0  0  0  0  0
  -28.6633  -11.9163   21.3265 H   0  0  0  0  0  0
  -28.4473  -13.5431   21.8835 H   0  0  0  0  0  0
  -25.2749   -9.5691   22.4766 H   0  0  0  0  0  0
  -23.9993   -7.4645   22.7483 H   0  0  0  0  0  0
  -21.0845   -8.8767   19.8940 H   0  0  0  0  0  0
  -22.3695  -10.9675   19.6157 H   0  0  0  0  0  0
  -21.2006   -7.6148   23.9718 H   0  0  0  0  0  0
  -21.1477   -6.0522   25.9081 H   0  0  0  0  0  0
  -22.0602   -2.7608   23.2844 H   0  0  0  0  0  0
  -22.4114  -11.9853   22.4731 H   0  0  0  0  0  0
  -21.1125  -13.1241   22.2605 H   0  0  0  0  0  0
  -24.6654  -15.8445   20.5108 H   0  0  0  0  0  0
  -26.2854  -15.6246   20.0816 H   0  0  0  0  0  0
  -26.7084  -32.5552   23.1171 H   0  0  0  0  0  0
  -25.0058  -33.9798   25.0495 H   0  0  0  0  0  0
  -22.6838  -31.3091   21.4207 H   0  0  0  0  0  0
  -23.3748  -35.9630   23.3305 H   0  0  0  0  0  0
  -24.3564  -36.8925   22.2053 H   0  0  0  0  0  0
  -23.7212  -37.6502   23.6658 H   0  0  0  0  0  0
  -26.0272  -31.6009   20.5924 H   0  0  0  0  0  0
  -26.8163  -30.8940   21.9759 H   0  0  0  0  0  0
  -28.0895  -29.1126   21.1528 H   0  0  0  0  0  0
  -26.0144  -26.0087   18.9543 H   0  0  0  0  0  0
  -23.9714  -27.3074   19.0277 H   0  0  0  0  0  0
  -23.7090  -30.6042   19.4123 H   0  0  0  0  0  0
  -22.7261  -29.2476   19.8761 H   0  0  0  0  0  0
  -25.1296  -36.1985   25.0830 H   0  0  0  0  0  0
  -20.9939  -28.3233   24.1449 H   0  0  0  0  0  0
  -20.5658  -26.2276   23.3583 H   0  0  0  0  0  0
  -21.6627  -26.7455   22.1208 H   0  0  0  0  0  0
  -19.6897  -25.6313   21.1218 H   0  0  0  0  0  0
  -19.6690  -27.3208   20.6726 H   0  0  0  0  0  0
  -17.4189  -26.6687   21.4007 H   0  0  0  0  0  0
  -18.0311  -26.0061   22.8995 H   0  0  0  0  0  0
  -19.7919  -30.7243   24.2309 H   0  0  0  0  0  0
  -17.5013  -31.6274   24.5177 H   0  0  0  0  0  0
  -15.5342  -30.3021   23.7639 H   0  0  0  0  0  0
  -15.8653  -28.0837   22.7087 H   0  0  0  0  0  0
  -24.5997  -30.6898   25.7768 H   0  0  0  0  0  0
  -24.8841  -32.2739   26.4893 H   0  0  0  0  0  0
  -25.8128  -30.8831   27.0214 H   0  0  0  0  0  0
  -26.2887  -29.6798   24.1165 H   0  0  0  0  0  0
  -27.4214  -29.7336   25.4486 H   0  0  0  0  0  0
  -27.8655  -30.4448   23.9137 H   0  0  0  0  0  0
  -27.2665  -33.3621   26.2089 H   0  0  0  0  0  0
  -28.3852  -32.6881   25.0326 H   0  0  0  0  0  0
  -28.0699  -31.8431   26.5413 H   0  0  0  0  0  0
  -28.2612  -38.0109   24.7548 H   0  0  0  0  0  0
  -28.1067  -36.2645   24.6302 H   0  0  0  0  0  0
  -27.2283  -37.1467   25.8873 H   0  0  0  0  0  0
  -20.9262  -29.8747   21.6967 H   0  0  0  0  0  0
  -26.0186  -38.2875   24.1430 H   0  0  0  0  0  0
  -32.6396  -19.6436   23.3941 H   0  0  0  0  0  0
  -32.8726  -15.5124   22.3146 H   0  0  0  0  0  0
  -28.2595  -18.5299   21.6355 H   0  0  0  0  0  0
  -28.0741  -17.2729   22.8589 H   0  0  0  0  0  0
  -28.3859  -16.8608   21.1733 H   0  0  0  0  0  0
  -30.5319  -20.6282   23.7736 H   0  0  0  0  0  0
  -29.0111  -19.9107   23.3470 H   0  0  0  0  0  0
  -30.1195  -23.0150   19.9801 H   0  0  0  0  0  0
  -28.4379  -22.7152   20.3488 H   0  0  0  0  0  0
  -30.0971  -25.1149   21.2594 H   0  0  0  0  0  0
  -28.4925  -24.7873   21.8684 H   0  0  0  0  0  0
  -28.9645  -22.4708   22.7674 H   0  0  0  0  0  0
  -30.6566  -22.7971   22.4605 H   0  0  0  0  0  0
  -27.5743  -24.8890   19.5820 H   0  0  0  0  0  0
  -29.1473  -25.2437   18.9175 H   0  0  0  0  0  0
  -29.3869  -14.9638   22.0115 H   0  0  0  0  0  0
  -29.2757  -20.5742   21.1488 H   0  0  0  0  0  0
  -30.8757  -20.8257   21.2865 H   0  0  0  0  0  0
  1 25  1  0  0  0
  1 30  2  0  0  0
  1 83  1  0  0  0
  2  3  1  0  0  0
  2 25  1  0  0  0
  2 86  1  0  0  0
  2 87  1  0  0  0
  3  4  1  0  0  0
  3 88  1  0  0  0
  3 89  1  0  0  0
  4  5  1  0  0  0
  4 90  1  0  0  0
  4 91  1  0  0  0
  5  6  1  0  0  0
  5 26  1  0  0  0
  5 92  1  0  0  0
  6 25  1  0  0  0
  6 93  1  0  0  0
  6 94  1  0  0  0
  7  8  2  0  0  0
  7 26  1  0  0  0
  7 29  1  0  0  0
  8  9  1  0  0  0
  8 22  1  0  0  0
  9 10  1  0  0  0
  9 27  2  0  0  0
 10 11  2  0  0  0
 10 15  1  0  0  0
 11 12  1  0  0  0
 11 95  1  0  0  0
 12 13  2  0  0  0
 12 96  1  0  0  0
 13 14  1  0  0  0
 13 31  1  0  0  0
 14 15  2  0  0  0
 14 97  1  0  0  0
 15 98  1  0  0  0
 16 17  2  0  0  0
 16 21  1  0  0  0
 16 31  1  0  0  0
 17 18  1  0  0  0
 17 99  1  0  0  0
 18 19  2  0  0  0
 18100  1  0  0  0
 19 20  1  0  0  0
 19 24  1  0  0  0
 20 21  2  0  0  0
 20101  1  0  0  0
 21 23  1  0  0  0
 22 28  1  0  0  0
 22 32  2  0  0  0
 26 27  1  0  0  0
 28102  1  0  0  0
 28103  1  0  0  0
 29104  1  0  0  0
 29105  1  0  0  0
 33 34  1  0  0  0
 33 66  1  0  0  0
 33 70  2  0  0  0
 34 36  1  0  0  0
 34 59  1  0  0  0
 34106  1  0  0  0
 35 44  2  0  0  0
 35 45  1  0  0  0
 35 68  1  0  0  0
 36 56  1  0  0  0
 36107  1  0  0  0
 37 39  1  0  0  0
 37 47  1  0  0  0
 37 66  1  0  0  0
 37108  1  0  0  0
 38 43  2  0  0  0
 38 46  1  0  0  0
 38 47  1  0  0  0
 39 64  1  0  0  0
 39 67  2  0  0  0
 40 52  1  0  0  0
 40 53  2  0  0  0
 40 58  1  0  0  0
 41109  1  0  0  0
 41110  1  0  0  0
 41111  1  0  0  0
 41 48  1  0  0  0
 42 43  1  0  0  0
 42 66  1  0  0  0
 42112  1  0  0  0
 42113  1  0  0  0
 43 44  1  0  0  0
 44114  1  0  0  0
 45 46  2  0  0  0
 45115  1  0  0  0
 46116  1  0  0  0
 47117  1  0  0  0
 47118  1  0  0  0
 48 56  1  0  0  0
 48 65  1  0  0  0
 48119  1  0  0  0
 49 50  1  0  0  0
 49 53  1  0  0  0
 49 64  1  0  0  0
 49120  1  0  0  0
 50 51  1  0  0  0
 50121  1  0  0  0
 50122  1  0  0  0
 51 52  1  0  0  0
 51123  1  0  0  0
 51124  1  0  0  0
 52125  1  0  0  0
 52126  1  0  0  0
 53 54  1  0  0  0
 54 55  2  0  0  0
 54127  1  0  0  0
 55 57  1  0  0  0
 55128  1  0  0  0
 56 69  2  0  0  0
 57 58  2  0  0  0
 57129  1  0  0  0
 58130  1  0  0  0
 59 60  1  0  0  0
 59 61  1  0  0  0
 59 62  1  0  0  0
 60131  1  0  0  0
 60132  1  0  0  0
 60133  1  0  0  0
 61134  1  0  0  0
 61135  1  0  0  0
 61136  1  0  0  0
 62137  1  0  0  0
 62138  1  0  0  0
 62139  1  0  0  0
 63 65  1  0  0  0
 63140  1  0  0  0
 63141  1  0  0  0
 63142  1  0  0  0
 64143  1  0  0  0
 65144  1  0  0  0
 68 82  1  0  0  0
 71 73  2  0  0  0
 71 76  1  0  0  0
 71145  1  0  0  0
 72 75  1  0  0  0
 72 76  2  0  0  0
 72146  1  0  0  0
 73 74  1  0  0  0
 73 78  1  0  0  0
 74 75  2  0  0  0
 74 77  1  0  0  0
 75 83  1  0  0  0
 76 85  1  0  0  0
 77147  1  0  0  0
 77148  1  0  0  0
 77149  1  0  0  0
 78 84  1  0  0  0
 78150  1  0  0  0
 78151  1  0  0  0
 79 80  1  0  0  0
 79 81  1  0  0  0
 79152  1  0  0  0
 79153  1  0  0  0
 80 82  1  0  0  0
 80154  1  0  0  0
 80155  1  0  0  0
 81 84  1  0  0  0
 81156  1  0  0  0
 81157  1  0  0  0
 82158  1  0  0  0
 82159  1  0  0  0
 83160  1  0  0  0
 84161  1  0  0  0
 84162  1  0  0  0
M  CHG  1  84   1
M  ISO  4   1 100  68 101  82 101  83 100
M  END
> <chiral flag>
0

> <version>
0

> <s_m_source_file>
/data/baiqing/PycharmProjects/Reinvent-master-3.2/result/LINK_invent/BTK/process_docking_weight1_custom_product_contain_oxygen_bond_distance_aromatic_linkinvent_7_9_3/rearranged_h_0039.sdf

> <i_m_source_file_index>
9

> <r_mmod_Potential_Energy-OPLS-2005>
-275.155517578125

> <r_mmod_Stretch_Energy-OPLS-2005>
35.3805885314941

> <r_mmod_Bend_Energy-OPLS-2005>
99.8025588989258

> <r_mmod_Torsional_Energy-OPLS-2005>
206.283157348633

> <r_mmod_Improper_Torsional_Energy-OPLS-2005>
1.7885844707489

> <r_mmod_Van_der_Waal_Energy-OPLS-2005>
158.932220458984

> <r_mmod_Electrostatic_Energy-OPLS-2005>
-299.963562011719

> <r_mmod_Solvation_Energy-OPLS-2005>
-485.537414550781

> <b_mmod_Minimization_Converged-OPLS-2005>
0

> <r_mmod_RMS_Derivative-OPLS-2005>
1.65892350673676

$$$$
9
                    3D
 Structure written by MMmdl.
180189  0  0  1  0            999 V2000
  -30.7449  -14.4348   20.4831 C   0  0  0  0  0  0
  -30.3909  -12.2682   19.4074 C   0  0  0  0  0  0
  -29.4775  -12.4687   18.1860 C   0  0  0  0  0  0
  -27.9982  -12.3505   18.6014 C   0  0  0  0  0  0
  -27.6439  -13.2125   19.8442 C   0  0  2  0  0  0
  -28.6918  -13.0523   20.9667 C   0  0  0  0  0  0
  -25.2492  -13.8158   20.5595 C   0  0  0  0  0  0
  -24.1798  -13.0425   20.9206 C   0  0  0  0  0  0
  -24.6362  -11.6896   20.8740 C   0  0  0  0  0  0
  -23.9033  -10.4279   21.0399 C   0  0  0  0  0  0
  -24.3604   -9.4209   21.9182 C   0  0  0  0  0  0
  -23.6287   -8.2244   22.0756 C   0  0  0  0  0  0
  -22.4269   -8.0268   21.3550 C   0  0  0  0  0  0
  -21.9888   -9.0227   20.4641 C   0  0  0  0  0  0
  -22.7201  -10.2121   20.3040 C   0  0  0  0  0  0
  -21.6862   -6.0707   22.5271 C   0  0  0  0  0  0
  -21.4016   -6.5623   23.8197 C   0  0  0  0  0  0
  -21.3670   -5.6787   24.9173 C   0  0  0  0  0  0
  -21.6051   -4.3041   24.7229 C   0  0  0  0  0  0
  -21.8820   -3.8122   23.4348 C   0  0  0  0  0  0
  -21.9205   -4.6935   22.3405 C   0  0  0  0  0  0
  -22.7817  -13.5229   21.1835 C   0  0  0  0  0  0
  -22.1654   -4.2127   21.0973 F   0  0  0  0  0  0
  -21.5650   -3.4516   25.7733 F   0  0  0  0  0  0
  -30.0152  -13.2973   20.3842 N   0  0  0  0  0  0
  -26.2930  -12.9340   20.3239 N   0  0  0  0  0  0
  -25.9294  -11.6502   20.5753 N   0  0  0  0  0  0
  -22.0431  -12.8258   22.0393 N   0  0  0  0  0  0
  -25.4130  -15.1862   20.3853 N   0  0  0  0  0  0
  -31.9528  -14.4201   20.3017 O   0  0  0  0  0  0
  -21.6650   -6.8853   21.4232 O   0  0  0  0  0  0
  -22.3513  -14.5531   20.6658 O   0  0  0  0  0  0
  -24.6079  -31.8705   23.2121 C   0  0  0  0  0  0
  -25.9012  -32.4832   23.8399 C   0  0  1  0  0  0
  -27.2712  -27.4951   20.0906 C   0  0  0  0  0  0
  -25.5931  -33.8628   24.2374 N   0  0  0  0  0  0
  -23.3941  -30.4914   21.5476 C   0  0  2  0  0  0
  -24.8456  -28.9584   20.1172 C   0  0  0  0  0  0
  -22.7375  -29.4668   22.4986 C   0  0  0  0  0  0
  -18.0265  -28.1382   22.8488 C   0  0  0  0  0  0
  -24.1497  -36.7304   23.2635 C   0  0  0  0  0  0
  -25.9110  -30.8603   21.3507 C   0  0  0  0  0  0
  -25.9945  -29.4951   20.7053 C   0  0  0  0  0  0
  -27.2023  -28.7757   20.6906 C   0  0  0  0  0  0
  -26.0978  -26.9565   19.5190 C   0  0  0  0  0  0
  -24.8896  -27.6846   19.5198 C   0  0  0  0  0  0
  -23.6007  -29.8148   20.1635 C   0  0  0  0  0  0
  -25.4119  -36.3106   24.0344 C   0  0  1  0  0  0
  -20.5858  -28.3664   23.1321 C   0  0  2  0  0  0
  -20.6764  -26.9411   22.5406 C   0  0  0  0  0  0
  -19.5743  -26.6394   21.5206 C   0  0  0  0  0  0
  -18.1918  -26.7934   22.1606 C   0  0  0  0  0  0
  -19.1513  -28.8837   23.2915 C   0  0  0  0  0  0
  -18.9450  -30.1449   23.8917 C   0  0  0  0  0  0
  -17.6459  -30.6597   24.0559 C   0  0  0  0  0  0
  -25.9032  -34.9469   23.5141 C   0  0  0  0  0  0
  -16.5349  -29.9094   23.6339 C   0  0  0  0  0  0
  -16.7260  -28.6510   23.0359 C   0  0  0  0  0  0
  -26.4490  -31.6565   25.0679 C   0  0  0  0  0  0
  -25.3781  -31.3617   26.1439 C   0  0  0  0  0  0
  -27.0309  -30.3019   24.5977 C   0  0  0  0  0  0
  -27.6088  -32.4258   25.7444 C   0  0  0  0  0  0
  -27.5592  -37.1816   24.8470 C   0  0  0  0  0  0
  -21.4112  -29.3030   22.3723 N   0  0  0  0  0  0
  -26.4302  -37.3801   23.9412 N   0  0  0  0  0  0
  -24.6551  -31.0869   22.0966 N   0  0  0  0  0  0
  -23.4168  -28.8247   23.3047 O   0  0  0  0  0  0
  -28.4244  -26.7392   20.0272 O   0  0  0  0  0  0
  -26.5553  -34.8907   22.4682 O   0  0  0  0  0  0
  -23.5301  -32.1424   23.7569 O   0  0  0  0  0  0
  -29.7554  -19.2150   21.3504 C   0  0  0  0  0  0
  -31.0597  -19.7146   21.1599 C   0  0  0  0  0  0
  -29.4659  -17.8397   21.1847 C   0  0  0  0  0  0
  -32.0731  -18.7931   20.7907 C   0  0  0  0  0  0
  -31.7185  -17.5055   20.3225 C   0  0  0  0  0  0
  -30.4415  -16.9523   20.6569 C   0  0  0  0  0  0
  -32.5289  -23.2419   20.4542 C   0  0  0  0  0  0
  -32.2029  -24.5482   20.4944 C   0  0  0  0  0  0
  -30.9064  -25.1878   20.3753 C   0  0  0  0  0  0
  -30.8649  -26.5289   20.2663 C   0  0  0  0  0  0
  -33.9785  -22.7819   20.4838 C   0  0  0  0  0  0
  -34.6437  -23.0128   19.1196 C   0  0  0  0  0  0
  -34.0796  -22.1150   18.0046 C   0  0  0  0  0  0
  -32.5495  -22.2173   17.8047 C   0  0  0  0  0  0
  -31.7168  -21.4453   18.8641 C   0  0  0  0  0  0
  -28.0784  -17.3408   21.5576 C   0  0  0  0  0  0
  -33.5517  -19.1554   20.8989 C   0  0  0  0  0  0
  -32.7098  -16.8501   19.3652 C   0  0  0  0  0  0
  -31.3564  -21.2140   21.3978 C   0  0  0  0  0  0
  -29.6553  -27.4332   20.2157 C   0  0  0  0  0  0
  -30.0307  -15.5795   20.4869 N   0  0  0  0  0  0
  -31.5732  -22.1076   20.2031 N   0  3  1  0  0  0
  -31.4380  -12.3246   19.1047 H   0  0  0  0  0  0
  -30.2491  -11.2719   19.8292 H   0  0  0  0  0  0
  -29.7077  -11.7285   17.4191 H   0  0  0  0  0  0
  -29.6618  -13.4465   17.7370 H   0  0  0  0  0  0
  -27.7997  -11.2976   18.8093 H   0  0  0  0  0  0
  -27.3538  -12.6202   17.7641 H   0  0  0  0  0  0
  -27.6653  -14.2502   19.5128 H   0  0  0  0  0  0
  -28.6531  -12.0446   21.3829 H   0  0  0  0  0  0
  -28.4862  -13.7357   21.7926 H   0  0  0  0  0  0
  -25.2743   -9.5717   22.4752 H   0  0  0  0  0  0
  -24.0003   -7.4647   22.7475 H   0  0  0  0  0  0
  -21.0826   -8.8737   19.8935 H   0  0  0  0  0  0
  -22.3652  -10.9657   19.6147 H   0  0  0  0  0  0
  -21.1989   -7.6123   23.9703 H   0  0  0  0  0  0
  -21.1498   -6.0502   25.9082 H   0  0  0  0  0  0
  -22.0597   -2.7574   23.2853 H   0  0  0  0  0  0
  -22.4032  -11.9967   22.4880 H   0  0  0  0  0  0
  -21.1032  -13.1286   22.2489 H   0  0  0  0  0  0
  -24.6275  -15.8238   20.4587 H   0  0  0  0  0  0
  -26.2296  -15.6114   19.9684 H   0  0  0  0  0  0
  -26.7098  -32.5565   23.1197 H   0  0  0  0  0  0
  -25.0203  -33.9798   25.0601 H   0  0  0  0  0  0
  -22.6821  -31.3063   21.4057 H   0  0  0  0  0  0
  -23.3755  -35.9637   23.3298 H   0  0  0  0  0  0
  -24.3601  -36.8899   22.2042 H   0  0  0  0  0  0
  -23.7245  -37.6522   23.6629 H   0  0  0  0  0  0
  -26.0086  -31.6293   20.5819 H   0  0  0  0  0  0
  -26.8020  -30.9245   21.9631 H   0  0  0  0  0  0
  -28.0631  -29.2439   21.1419 H   0  0  0  0  0  0
  -26.1301  -25.9797   19.0575 H   0  0  0  0  0  0
  -24.0062  -27.2634   19.0596 H   0  0  0  0  0  0
  -23.7004  -30.5859   19.3975 H   0  0  0  0  0  0
  -22.7298  -29.2224   19.8752 H   0  0  0  0  0  0
  -25.1300  -36.1960   25.0835 H   0  0  0  0  0  0
  -20.9956  -28.3219   24.1439 H   0  0  0  0  0  0
  -20.5681  -26.2274   23.3585 H   0  0  0  0  0  0
  -21.6630  -26.7449   22.1196 H   0  0  0  0  0  0
  -19.6904  -25.6309   21.1226 H   0  0  0  0  0  0
  -19.6696  -27.3207   20.6748 H   0  0  0  0  0  0
  -17.4205  -26.6707   21.3995 H   0  0  0  0  0  0
  -18.0293  -26.0065   22.8984 H   0  0  0  0  0  0
  -19.7936  -30.7260   24.2278 H   0  0  0  0  0  0
  -17.5025  -31.6271   24.5163 H   0  0  0  0  0  0
  -15.5356  -30.3010   23.7666 H   0  0  0  0  0  0
  -15.8653  -28.0844   22.7069 H   0  0  0  0  0  0
  -24.5975  -30.6941   25.7780 H   0  0  0  0  0  0
  -24.8953  -32.2729   26.4959 H   0  0  0  0  0  0
  -25.8182  -30.8760   27.0157 H   0  0  0  0  0  0
  -26.2812  -29.6745   24.1131 H   0  0  0  0  0  0
  -27.4241  -29.7263   25.4374 H   0  0  0  0  0  0
  -27.8569  -30.4364   23.8987 H   0  0  0  0  0  0
  -27.2741  -33.3539   26.2077 H   0  0  0  0  0  0
  -28.3864  -32.6825   25.0236 H   0  0  0  0  0  0
  -28.0795  -31.8356   26.5324 H   0  0  0  0  0  0
  -28.2617  -38.0113   24.7532 H   0  0  0  0  0  0
  -28.1091  -36.2639   24.6297 H   0  0  0  0  0  0
  -27.2295  -37.1477   25.8873 H   0  0  0  0  0  0
  -20.9272  -29.8703   21.6902 H   0  0  0  0  0  0
  -26.0184  -38.2872   24.1442 H   0  0  0  0  0  0
  -28.9738  -19.8800   21.6912 H   0  0  0  0  0  0
  -33.0443  -25.2149   20.6249 H   0  0  0  0  0  0
  -29.9866  -24.6224   20.3990 H   0  0  0  0  0  0
  -31.7987  -27.0741   20.2328 H   0  0  0  0  0  0
  -34.0853  -21.7506   20.7941 H   0  0  0  0  0  0
  -34.5005  -23.3615   21.2466 H   0  0  0  0  0  0
  -35.7170  -22.8401   19.2143 H   0  0  0  0  0  0
  -34.5358  -24.0597   18.8273 H   0  0  0  0  0  0
  -34.3691  -21.0784   18.1803 H   0  0  0  0  0  0
  -34.5761  -22.3911   17.0743 H   0  0  0  0  0  0
  -32.3249  -21.7595   16.8400 H   0  0  0  0  0  0
  -32.2279  -23.2556   17.7082 H   0  0  0  0  0  0
  -32.1691  -20.4661   18.9270 H   0  0  0  0  0  0
  -30.7108  -21.2666   18.4817 H   0  0  0  0  0  0
  -27.4909  -18.1181   22.0497 H   0  0  0  0  0  0
  -28.1454  -16.4966   22.2460 H   0  0  0  0  0  0
  -27.5379  -17.0271   20.6647 H   0  0  0  0  0  0
  -33.7372  -19.7766   21.7740 H   0  0  0  0  0  0
  -33.9303  -19.6494   20.0066 H   0  0  0  0  0  0
  -34.1611  -18.2656   21.0613 H   0  0  0  0  0  0
  -33.2229  -17.5982   18.7596 H   0  0  0  0  0  0
  -32.1958  -16.2096   18.6501 H   0  0  0  0  0  0
  -33.4745  -16.2838   19.8970 H   0  0  0  0  0  0
  -32.1957  -21.2965   22.0863 H   0  0  0  0  0  0
  -30.5258  -21.6456   21.9564 H   0  0  0  0  0  0
  -29.7955  -28.1649   19.4177 H   0  0  0  0  0  0
  -29.6853  -27.9661   21.1657 H   0  0  0  0  0  0
  -29.0376  -15.4262   20.5308 H   0  0  0  0  0  0
  -30.6683  -22.5406   20.1063 H   0  0  0  0  0  0
  1 25  1  0  0  0
  1 30  2  0  0  0
  1 91  1  0  0  0
  2  3  1  0  0  0
  2 25  1  0  0  0
  2 93  1  0  0  0
  2 94  1  0  0  0
  3  4  1  0  0  0
  3 95  1  0  0  0
  3 96  1  0  0  0
  4  5  1  0  0  0
  4 97  1  0  0  0
  4 98  1  0  0  0
  5  6  1  0  0  0
  5 26  1  0  0  0
  5 99  1  0  0  0
  6 25  1  0  0  0
  6100  1  0  0  0
  6101  1  0  0  0
  7  8  2  0  0  0
  7 26  1  0  0  0
  7 29  1  0  0  0
  8  9  1  0  0  0
  8 22  1  0  0  0
  9 10  1  0  0  0
  9 27  2  0  0  0
 10 11  2  0  0  0
 10 15  1  0  0  0
 11 12  1  0  0  0
 11102  1  0  0  0
 12 13  2  0  0  0
 12103  1  0  0  0
 13 14  1  0  0  0
 13 31  1  0  0  0
 14 15  2  0  0  0
 14104  1  0  0  0
 15105  1  0  0  0
 16 17  2  0  0  0
 16 21  1  0  0  0
 16 31  1  0  0  0
 17 18  1  0  0  0
 17106  1  0  0  0
 18 19  2  0  0  0
 18107  1  0  0  0
 19 20  1  0  0  0
 19 24  1  0  0  0
 20 21  2  0  0  0
 20108  1  0  0  0
 21 23  1  0  0  0
 22 28  1  0  0  0
 22 32  2  0  0  0
 26 27  1  0  0  0
 28109  1  0  0  0
 28110  1  0  0  0
 29111  1  0  0  0
 29112  1  0  0  0
 33 34  1  0  0  0
 33 66  1  0  0  0
 33 70  2  0  0  0
 34 36  1  0  0  0
 34 59  1  0  0  0
 34113  1  0  0  0
 35 44  2  0  0  0
 35 45  1  0  0  0
 35 68  1  0  0  0
 36 56  1  0  0  0
 36114  1  0  0  0
 37 39  1  0  0  0
 37 47  1  0  0  0
 37 66  1  0  0  0
 37115  1  0  0  0
 38 43  2  0  0  0
 38 46  1  0  0  0
 38 47  1  0  0  0
 39 64  1  0  0  0
 39 67  2  0  0  0
 40 52  1  0  0  0
 40 53  2  0  0  0
 40 58  1  0  0  0
 41116  1  0  0  0
 41117  1  0  0  0
 41118  1  0  0  0
 41 48  1  0  0  0
 42 43  1  0  0  0
 42 66  1  0  0  0
 42119  1  0  0  0
 42120  1  0  0  0
 43 44  1  0  0  0
 44121  1  0  0  0
 45 46  2  0  0  0
 45122  1  0  0  0
 46123  1  0  0  0
 47124  1  0  0  0
 47125  1  0  0  0
 48 56  1  0  0  0
 48 65  1  0  0  0
 48126  1  0  0  0
 49 50  1  0  0  0
 49 53  1  0  0  0
 49 64  1  0  0  0
 49127  1  0  0  0
 50 51  1  0  0  0
 50128  1  0  0  0
 50129  1  0  0  0
 51 52  1  0  0  0
 51130  1  0  0  0
 51131  1  0  0  0
 52132  1  0  0  0
 52133  1  0  0  0
 53 54  1  0  0  0
 54 55  2  0  0  0
 54134  1  0  0  0
 55 57  1  0  0  0
 55135  1  0  0  0
 56 69  2  0  0  0
 57 58  2  0  0  0
 57136  1  0  0  0
 58137  1  0  0  0
 59 60  1  0  0  0
 59 61  1  0  0  0
 59 62  1  0  0  0
 60138  1  0  0  0
 60139  1  0  0  0
 60140  1  0  0  0
 61141  1  0  0  0
 61142  1  0  0  0
 61143  1  0  0  0
 62144  1  0  0  0
 62145  1  0  0  0
 62146  1  0  0  0
 63 65  1  0  0  0
 63147  1  0  0  0
 63148  1  0  0  0
 63149  1  0  0  0
 64150  1  0  0  0
 65151  1  0  0  0
 68 90  1  0  0  0
 71 72  2  0  0  0
 71 73  1  0  0  0
 71152  1  0  0  0
 72 74  1  0  0  0
 72 89  1  0  0  0
 73 76  2  0  0  0
 73 86  1  0  0  0
 74 75  2  0  0  0
 74 87  1  0  0  0
 75 76  1  0  0  0
 75 88  1  0  0  0
 76 91  1  0  0  0
 77 78  2  0  0  0
 77 81  1  0  0  0
 77 92  1  0  0  0
 78 79  1  0  0  0
 78153  1  0  0  0
 79 80  2  0  0  0
 79154  1  0  0  0
 80 90  1  0  0  0
 80155  1  0  0  0
 81 82  1  0  0  0
 81156  1  0  0  0
 81157  1  0  0  0
 82 83  1  0  0  0
 82158  1  0  0  0
 82159  1  0  0  0
 83 84  1  0  0  0
 83160  1  0  0  0
 83161  1  0  0  0
 84 85  1  0  0  0
 84162  1  0  0  0
 84163  1  0  0  0
 85 92  1  0  0  0
 85164  1  0  0  0
 85165  1  0  0  0
 86166  1  0  0  0
 86167  1  0  0  0
 86168  1  0  0  0
 87169  1  0  0  0
 87170  1  0  0  0
 87171  1  0  0  0
 88172  1  0  0  0
 88173  1  0  0  0
 88174  1  0  0  0
 89175  1  0  0  0
 89176  1  0  0  0
 89 92  1  0  0  0
 90177  1  0  0  0
 90178  1  0  0  0
 91179  1  0  0  0
 92180  1  0  0  0
M  CHG  1  92   1
M  ISO  4   1 100  68 101  90 101  91 100
M  END
> <chiral flag>
0

> <version>
0

> <s_m_source_file>
/data/baiqing/PycharmProjects/Reinvent-master-3.2/result/LINK_invent/BTK/process_docking_weight1_custom_product_contain_oxygen_bond_distance_aromatic_linkinvent_7_9_3/rearranged_h_0039.sdf

> <i_m_source_file_index>
10

> <r_mmod_Potential_Energy-OPLS-2005>
-16.0268115997314

> <r_mmod_Stretch_Energy-OPLS-2005>
44.9518203735352

> <r_mmod_Bend_Energy-OPLS-2005>
152.799758911133

> <r_mmod_Torsional_Energy-OPLS-2005>
282.699249267578

> <r_mmod_Improper_Torsional_Energy-OPLS-2005>
8.94573402404785

> <r_mmod_Van_der_Waal_Energy-OPLS-2005>
186.423812866211

> <r_mmod_Electrostatic_Energy-OPLS-2005>
-315.386566162109

> <r_mmod_Solvation_Energy-OPLS-2005>
-404.497497558594

> <b_mmod_Minimization_Converged-OPLS-2005>
0

> <r_mmod_RMS_Derivative-OPLS-2005>
3.47157859802246

$$$$
10
                    3D
 Structure written by MMmdl.
154162  0  0  1  0            999 V2000
  -30.6715  -14.5017   20.5544 C   0  0  0  0  0  0
  -30.4160  -12.3117   19.4460 C   0  0  0  0  0  0
  -29.4989  -12.5089   18.2212 C   0  0  0  0  0  0
  -28.0185  -12.3720   18.6254 C   0  0  0  0  0  0
  -27.6590  -13.2135   19.8788 C   0  0  2  0  0  0
  -28.6947  -13.0053   21.0081 C   0  0  0  0  0  0
  -25.2557  -13.8196   20.5717 C   0  0  0  0  0  0
  -24.1823  -13.0453   20.9183 C   0  0  0  0  0  0
  -24.6388  -11.6924   20.8733 C   0  0  0  0  0  0
  -23.9069  -10.4307   21.0413 C   0  0  0  0  0  0
  -24.3615   -9.4211   21.9191 C   0  0  0  0  0  0
  -23.6292   -8.2248   22.0757 C   0  0  0  0  0  0
  -22.4269   -8.0280   21.3557 C   0  0  0  0  0  0
  -21.9909   -9.0257   20.4657 C   0  0  0  0  0  0
  -22.7240  -10.2149   20.3069 C   0  0  0  0  0  0
  -21.6853   -6.0723   22.5279 C   0  0  0  0  0  0
  -21.4014   -6.5640   23.8213 C   0  0  0  0  0  0
  -21.3672   -5.6798   24.9184 C   0  0  0  0  0  0
  -21.6052   -4.3055   24.7232 C   0  0  0  0  0  0
  -21.8817   -3.8143   23.4363 C   0  0  0  0  0  0
  -21.9195   -4.6957   22.3417 C   0  0  0  0  0  0
  -22.7850  -13.5240   21.1839 C   0  0  0  0  0  0
  -22.1649   -4.2144   21.0992 F   0  0  0  0  0  0
  -21.5646   -3.4545   25.7753 F   0  0  0  0  0  0
  -30.0301  -13.3033   20.4648 N   0  0  0  0  0  0
  -26.2995  -12.9379   20.3381 N   0  0  0  0  0  0
  -25.9314  -11.6532   20.5742 N   0  0  0  0  0  0
  -22.0497  -12.8250   22.0412 N   0  0  0  0  0  0
  -25.4275  -15.1927   20.4159 N   0  0  0  0  0  0
  -31.7901  -14.6940   20.0690 O   0  0  0  0  0  0
  -21.6648   -6.8862   21.4238 O   0  0  0  0  0  0
  -22.3525  -14.5543   20.6679 O   0  0  0  0  0  0
  -24.6115  -31.8654   23.2065 C   0  0  0  0  0  0
  -25.8993  -32.4827   23.8355 C   0  0  1  0  0  0
  -27.2364  -27.3991   20.1008 C   0  0  0  0  0  0
  -25.5850  -33.8639   24.2249 N   0  0  0  0  0  0
  -23.4022  -30.4840   21.5512 C   0  0  2  0  0  0
  -24.8499  -28.9480   20.1166 C   0  0  0  0  0  0
  -22.7391  -29.4590   22.4991 C   0  0  0  0  0  0
  -18.0232  -28.1372   22.8485 C   0  0  0  0  0  0
  -24.1502  -36.7310   23.2637 C   0  0  0  0  0  0
  -25.9354  -30.8201   21.3684 C   0  0  0  0  0  0
  -26.0119  -29.4529   20.7123 C   0  0  0  0  0  0
  -27.2022  -28.6852   20.7017 C   0  0  0  0  0  0
  -26.0481  -26.9156   19.5073 C   0  0  0  0  0  0
  -24.8631  -27.6776   19.5169 C   0  0  0  0  0  0
  -23.6131  -29.8195   20.1650 C   0  0  0  0  0  0
  -25.4134  -36.3117   24.0317 C   0  0  1  0  0  0
  -20.5829  -28.3622   23.1346 C   0  0  2  0  0  0
  -20.6746  -26.9355   22.5439 C   0  0  0  0  0  0
  -19.5734  -26.6366   21.5225 C   0  0  0  0  0  0
  -18.1895  -26.7910   22.1618 C   0  0  0  0  0  0
  -19.1486  -28.8815   23.2907 C   0  0  0  0  0  0
  -18.9426  -30.1436   23.8895 C   0  0  0  0  0  0
  -17.6438  -30.6593   24.0545 C   0  0  0  0  0  0
  -25.9059  -34.9494   23.5079 C   0  0  0  0  0  0
  -16.5320  -29.9096   23.6343 C   0  0  0  0  0  0
  -16.7222  -28.6520   23.0339 C   0  0  0  0  0  0
  -26.4404  -31.6640   25.0711 C   0  0  0  0  0  0
  -25.3673  -31.3766   26.1468 C   0  0  0  0  0  0
  -27.0196  -30.3054   24.6132 C   0  0  0  0  0  0
  -27.5965  -32.4379   25.7481 C   0  0  0  0  0  0
  -27.5592  -37.1804   24.8439 C   0  0  0  0  0  0
  -21.4116  -29.2980   22.3761 N   0  0  0  0  0  0
  -26.4298  -37.3817   23.9403 N   0  0  0  0  0  0
  -24.6680  -31.0728   22.0984 N   0  0  0  0  0  0
  -23.4158  -28.8132   23.3036 O   0  0  0  0  0  0
  -28.4200  -26.6723   20.1243 O   0  0  0  0  0  0
  -26.5665  -34.8948   22.4668 O   0  0  0  0  0  0
  -23.5305  -32.1385   23.7452 O   0  0  0  0  0  0
  -29.0474  -18.0473   18.4789 C   0  0  0  0  0  0
  -29.0060  -19.2448   19.2186 C   0  0  0  0  0  0
  -29.4006  -16.8346   19.0965 C   0  0  0  0  0  0
  -29.3219  -19.2537   20.5956 C   0  0  0  0  0  0
  -29.7121  -16.7909   20.4752 C   0  0  0  0  0  0
  -29.6676  -18.0087   21.2228 C   0  0  0  0  0  0
  -29.0348  -23.0243   20.6797 C   0  0  0  0  0  0
  -29.3310  -20.5955   21.3706 C   0  0  0  0  0  0
  -28.0099  -24.1464   20.3367 C   0  0  0  0  0  0
  -28.5265  -25.3681   19.4968 C   0  0  0  0  0  0
  -29.9621  -15.5171   21.0981 N   0  0  0  0  0  0
  -28.5903  -21.7476   20.7885 N   0  0  0  0  0  0
  -30.2119  -23.3171   20.8964 O   0  0  0  0  0  0
  -30.0521  -17.9646   22.9102 Cl  0  0  0  0  0  0
  -31.4621  -12.3985   19.1527 H   0  0  0  0  0  0
  -30.3016  -11.3013   19.8396 H   0  0  0  0  0  0
  -29.7412  -11.7796   17.4475 H   0  0  0  0  0  0
  -29.6775  -13.4898   17.7786 H   0  0  0  0  0  0
  -27.8261  -11.3167   18.8200 H   0  0  0  0  0  0
  -27.3758  -12.6467   17.7888 H   0  0  0  0  0  0
  -27.6982  -14.2607   19.5772 H   0  0  0  0  0  0
  -28.6600  -11.9780   21.3730 H   0  0  0  0  0  0
  -28.4422  -13.6243   21.8700 H   0  0  0  0  0  0
  -25.2758   -9.5726   22.4749 H   0  0  0  0  0  0
  -24.0023   -7.4654   22.7481 H   0  0  0  0  0  0
  -21.0842   -8.8774   19.8955 H   0  0  0  0  0  0
  -22.3677  -10.9683   19.6181 H   0  0  0  0  0  0
  -21.1972   -7.6139   23.9717 H   0  0  0  0  0  0
  -21.1504   -6.0526   25.9086 H   0  0  0  0  0  0
  -22.0574   -2.7602   23.2877 H   0  0  0  0  0  0
  -22.4090  -11.9911   22.4838 H   0  0  0  0  0  0
  -21.1113  -13.1295   22.2577 H   0  0  0  0  0  0
  -24.6655  -15.8511   20.5287 H   0  0  0  0  0  0
  -26.2874  -15.6363   20.1192 H   0  0  0  0  0  0
  -26.7066  -32.5498   23.1120 H   0  0  0  0  0  0
  -24.9953  -33.9814   25.0358 H   0  0  0  0  0  0
  -22.6866  -31.2979   21.4135 H   0  0  0  0  0  0
  -23.3788  -35.9616   23.3284 H   0  0  0  0  0  0
  -24.3583  -36.8954   22.2050 H   0  0  0  0  0  0
  -23.7229  -37.6493   23.6684 H   0  0  0  0  0  0
  -26.0627  -31.5898   20.6059 H   0  0  0  0  0  0
  -26.8152  -30.8604   21.9988 H   0  0  0  0  0  0
  -28.1016  -29.0756   21.1588 H   0  0  0  0  0  0
  -26.0104  -25.9450   19.0405 H   0  0  0  0  0  0
  -23.9662  -27.2743   19.0665 H   0  0  0  0  0  0
  -23.7215  -30.5991   19.4085 H   0  0  0  0  0  0
  -22.7347  -29.2442   19.8662 H   0  0  0  0  0  0
  -25.1325  -36.1971   25.0814 H   0  0  0  0  0  0
  -20.9872  -28.3200   24.1483 H   0  0  0  0  0  0
  -20.5673  -26.2190   23.3597 H   0  0  0  0  0  0
  -21.6613  -26.7432   22.1198 H   0  0  0  0  0  0
  -19.6888  -25.6280   21.1242 H   0  0  0  0  0  0
  -19.6719  -27.3196   20.6775 H   0  0  0  0  0  0
  -17.4150  -26.6598   21.4035 H   0  0  0  0  0  0
  -18.0317  -26.0071   22.9036 H   0  0  0  0  0  0
  -19.7919  -30.7241   24.2241 H   0  0  0  0  0  0
  -17.5010  -31.6282   24.5127 H   0  0  0  0  0  0
  -15.5325  -30.2999   23.7714 H   0  0  0  0  0  0
  -15.8598  -28.0881   22.7033 H   0  0  0  0  0  0
  -24.5833  -30.7117   25.7813 H   0  0  0  0  0  0
  -24.8877  -32.2931   26.4937 H   0  0  0  0  0  0
  -25.8039  -30.8922   27.0216 H   0  0  0  0  0  0
  -26.2724  -29.6905   24.1090 H   0  0  0  0  0  0
  -27.3782  -29.7237   25.4637 H   0  0  0  0  0  0
  -27.8670  -30.4306   23.9381 H   0  0  0  0  0  0
  -27.2540  -33.3657   26.2095 H   0  0  0  0  0  0
  -28.3767  -32.6996   25.0315 H   0  0  0  0  0  0
  -28.0650  -31.8488   26.5378 H   0  0  0  0  0  0
  -28.2577  -38.0139   24.7570 H   0  0  0  0  0  0
  -28.1121  -36.2669   24.6179 H   0  0  0  0  0  0
  -27.2300  -37.1355   25.8837 H   0  0  0  0  0  0
  -20.9236  -29.8684   21.7000 H   0  0  0  0  0  0
  -26.0178  -38.2872   24.1493 H   0  0  0  0  0  0
  -28.8008  -18.0565   17.4252 H   0  0  0  0  0  0
  -28.7366  -20.1619   18.7118 H   0  0  0  0  0  0
  -29.4076  -15.9340   18.4998 H   0  0  0  0  0  0
  -30.3777  -20.8587   21.5313 H   0  0  0  0  0  0
  -28.9154  -20.4306   22.3648 H   0  0  0  0  0  0
  -27.6118  -24.5200   21.2802 H   0  0  0  0  0  0
  -27.1612  -23.6931   19.8252 H   0  0  0  0  0  0
  -28.0590  -25.3813   18.5106 H   0  0  0  0  0  0
  -29.5866  -25.2347   19.2743 H   0  0  0  0  0  0
  -29.2515  -15.2260   21.7506 H   0  0  0  0  0  0
  -27.6109  -21.5887   20.5924 H   0  0  0  0  0  0
  1 25  1  0  0  0
  1 30  2  0  0  0
  1 81  1  0  0  0
  2  3  1  0  0  0
  2 25  1  0  0  0
  2 85  1  0  0  0
  2 86  1  0  0  0
  3  4  1  0  0  0
  3 87  1  0  0  0
  3 88  1  0  0  0
  4  5  1  0  0  0
  4 89  1  0  0  0
  4 90  1  0  0  0
  5  6  1  0  0  0
  5 26  1  0  0  0
  5 91  1  0  0  0
  6 25  1  0  0  0
  6 92  1  0  0  0
  6 93  1  0  0  0
  7  8  2  0  0  0
  7 26  1  0  0  0
  7 29  1  0  0  0
  8  9  1  0  0  0
  8 22  1  0  0  0
  9 10  1  0  0  0
  9 27  2  0  0  0
 10 11  2  0  0  0
 10 15  1  0  0  0
 11 12  1  0  0  0
 11 94  1  0  0  0
 12 13  2  0  0  0
 12 95  1  0  0  0
 13 14  1  0  0  0
 13 31  1  0  0  0
 14 15  2  0  0  0
 14 96  1  0  0  0
 15 97  1  0  0  0
 16 17  2  0  0  0
 16 21  1  0  0  0
 16 31  1  0  0  0
 17 18  1  0  0  0
 17 98  1  0  0  0
 18 19  2  0  0  0
 18 99  1  0  0  0
 19 20  1  0  0  0
 19 24  1  0  0  0
 20 21  2  0  0  0
 20100  1  0  0  0
 21 23  1  0  0  0
 22 28  1  0  0  0
 22 32  2  0  0  0
 26 27  1  0  0  0
 28101  1  0  0  0
 28102  1  0  0  0
 29103  1  0  0  0
 29104  1  0  0  0
 33 34  1  0  0  0
 33 66  1  0  0  0
 33 70  2  0  0  0
 34 36  1  0  0  0
 34 59  1  0  0  0
 34105  1  0  0  0
 35 44  2  0  0  0
 35 45  1  0  0  0
 35 68  1  0  0  0
 36 56  1  0  0  0
 36106  1  0  0  0
 37 39  1  0  0  0
 37 47  1  0  0  0
 37 66  1  0  0  0
 37107  1  0  0  0
 38 43  2  0  0  0
 38 46  1  0  0  0
 38 47  1  0  0  0
 39 64  1  0  0  0
 39 67  2  0  0  0
 40 52  1  0  0  0
 40 53  2  0  0  0
 40 58  1  0  0  0
 41108  1  0  0  0
 41109  1  0  0  0
 41110  1  0  0  0
 41 48  1  0  0  0
 42 43  1  0  0  0
 42 66  1  0  0  0
 42111  1  0  0  0
 42112  1  0  0  0
 43 44  1  0  0  0
 44113  1  0  0  0
 45 46  2  0  0  0
 45114  1  0  0  0
 46115  1  0  0  0
 47116  1  0  0  0
 47117  1  0  0  0
 48 56  1  0  0  0
 48 65  1  0  0  0
 48118  1  0  0  0
 49 50  1  0  0  0
 49 53  1  0  0  0
 49 64  1  0  0  0
 49119  1  0  0  0
 50 51  1  0  0  0
 50120  1  0  0  0
 50121  1  0  0  0
 51 52  1  0  0  0
 51122  1  0  0  0
 51123  1  0  0  0
 52124  1  0  0  0
 52125  1  0  0  0
 53 54  1  0  0  0
 54 55  2  0  0  0
 54126  1  0  0  0
 55 57  1  0  0  0
 55127  1  0  0  0
 56 69  2  0  0  0
 57 58  2  0  0  0
 57128  1  0  0  0
 58129  1  0  0  0
 59 60  1  0  0  0
 59 61  1  0  0  0
 59 62  1  0  0  0
 60130  1  0  0  0
 60131  1  0  0  0
 60132  1  0  0  0
 61133  1  0  0  0
 61134  1  0  0  0
 61135  1  0  0  0
 62136  1  0  0  0
 62137  1  0  0  0
 62138  1  0  0  0
 63 65  1  0  0  0
 63139  1  0  0  0
 63140  1  0  0  0
 63141  1  0  0  0
 64142  1  0  0  0
 65143  1  0  0  0
 68 80  1  0  0  0
 71 72  2  0  0  0
 71 73  1  0  0  0
 71144  1  0  0  0
 72 74  1  0  0  0
 72145  1  0  0  0
 73 75  2  0  0  0
 73146  1  0  0  0
 74 76  2  0  0  0
 74 78  1  0  0  0
 75 76  1  0  0  0
 75 81  1  0  0  0
 76 84  1  0  0  0
 77 79  1  0  0  0
 77 82  1  0  0  0
 77 83  2  0  0  0
 78 82  1  0  0  0
 78147  1  0  0  0
 78148  1  0  0  0
 79 80  1  0  0  0
 79149  1  0  0  0
 79150  1  0  0  0
 80151  1  0  0  0
 80152  1  0  0  0
 81153  1  0  0  0
 82154  1  0  0  0
M  ISO  4   1 100  68 101  80 101  81 100
M  END
> <chiral flag>
0

> <version>
0

> <s_m_source_file>
/data/baiqing/PycharmProjects/Reinvent-master-3.2/result/LINK_invent/BTK/process_docking_weight1_custom_product_contain_oxygen_bond_distance_aromatic_linkinvent_7_9_3/rearranged_h_0039.sdf

> <i_m_source_file_index>
11

> <r_mmod_Potential_Energy-OPLS-2005>
-120.680587768555

> <r_mmod_Stretch_Energy-OPLS-2005>
50.3642768859863

> <r_mmod_Bend_Energy-OPLS-2005>
110.911689758301

> <r_mmod_Torsional_Energy-OPLS-2005>
233.54541015625

> <r_mmod_Improper_Torsional_Energy-OPLS-2005>
5.69008016586304

> <r_mmod_Van_der_Waal_Energy-OPLS-2005>
148.391540527344

> <r_mmod_Electrostatic_Energy-OPLS-2005>
-441.722351074219

> <r_mmod_Solvation_Energy-OPLS-2005>
-244.788452148438

> <b_mmod_Minimization_Converged-OPLS-2005>
0

> <r_mmod_RMS_Derivative-OPLS-2005>
3.45823550224304

$$$$
11
                    3D
 Structure written by MMmdl.
181190  0  0  1  0            999 V2000
  -30.6712  -14.5602   20.5574 C   0  0  0  0  0  0
  -30.4302  -12.3616   19.4318 C   0  0  0  0  0  0
  -29.4954  -12.5061   18.2116 C   0  0  0  0  0  0
  -28.0197  -12.3485   18.6239 C   0  0  0  0  0  0
  -27.6513  -13.2102   19.8620 C   0  0  2  0  0  0
  -28.6962  -13.0422   20.9889 C   0  0  0  0  0  0
  -25.2567  -13.8170   20.5707 C   0  0  0  0  0  0
  -24.1832  -13.0442   20.9191 C   0  0  0  0  0  0
  -24.6378  -11.6905   20.8741 C   0  0  0  0  0  0
  -23.9042  -10.4300   21.0421 C   0  0  0  0  0  0
  -24.3613   -9.4214   21.9186 C   0  0  0  0  0  0
  -23.6291   -8.2246   22.0751 C   0  0  0  0  0  0
  -22.4273   -8.0285   21.3551 C   0  0  0  0  0  0
  -21.9912   -9.0253   20.4643 C   0  0  0  0  0  0
  -22.7223  -10.2140   20.3057 C   0  0  0  0  0  0
  -21.6859   -6.0734   22.5275 C   0  0  0  0  0  0
  -21.4020   -6.5635   23.8205 C   0  0  0  0  0  0
  -21.3654   -5.6787   24.9168 C   0  0  0  0  0  0
  -21.6036   -4.3054   24.7217 C   0  0  0  0  0  0
  -21.8832   -3.8141   23.4340 C   0  0  0  0  0  0
  -21.9203   -4.6965   22.3402 C   0  0  0  0  0  0
  -22.7870  -13.5252   21.1837 C   0  0  0  0  0  0
  -22.1676   -4.2144   21.0984 F   0  0  0  0  0  0
  -21.5614   -3.4535   25.7730 F   0  0  0  0  0  0
  -30.0169  -13.3691   20.4272 N   0  0  0  0  0  0
  -26.2971  -12.9317   20.3313 N   0  0  0  0  0  0
  -25.9291  -11.6477   20.5725 N   0  0  0  0  0  0
  -22.0522  -12.8240   22.0397 N   0  0  0  0  0  0
  -25.4316  -15.1901   20.4190 N   0  0  0  0  0  0
  -31.8173  -14.7205   20.1266 O   0  0  0  0  0  0
  -21.6648   -6.8874   21.4236 O   0  0  0  0  0  0
  -22.3555  -14.5553   20.6667 O   0  0  0  0  0  0
  -24.6194  -31.8636   23.2079 C   0  0  0  0  0  0
  -25.9081  -32.4793   23.8372 C   0  0  1  0  0  0
  -27.2333  -27.3889   20.0852 C   0  0  0  0  0  0
  -25.5927  -33.8586   24.2308 N   0  0  0  0  0  0
  -23.4079  -30.4915   21.5486 C   0  0  2  0  0  0
  -24.8521  -28.9556   20.1075 C   0  0  0  0  0  0
  -22.7417  -29.4654   22.4954 C   0  0  0  0  0  0
  -18.0285  -28.1364   22.8498 C   0  0  0  0  0  0
  -24.1496  -36.7308   23.2636 C   0  0  0  0  0  0
  -25.9412  -30.8178   21.3646 C   0  0  0  0  0  0
  -26.0154  -29.4484   20.7100 C   0  0  0  0  0  0
  -27.2016  -28.6688   20.7037 C   0  0  0  0  0  0
  -26.0395  -26.9235   19.4834 C   0  0  0  0  0  0
  -24.8608  -27.6924   19.4947 C   0  0  0  0  0  0
  -23.6162  -29.8286   20.1611 C   0  0  0  0  0  0
  -25.4114  -36.3091   24.0333 C   0  0  1  0  0  0
  -20.5874  -28.3662   23.1292 C   0  0  2  0  0  0
  -20.6774  -26.9398   22.5393 C   0  0  0  0  0  0
  -19.5746  -26.6373   21.5201 C   0  0  0  0  0  0
  -18.1931  -26.7907   22.1630 C   0  0  0  0  0  0
  -19.1531  -28.8829   23.2898 C   0  0  0  0  0  0
  -18.9462  -30.1434   23.8910 C   0  0  0  0  0  0
  -17.6462  -30.6576   24.0561 C   0  0  0  0  0  0
  -25.9043  -34.9459   23.5116 C   0  0  0  0  0  0
  -16.5355  -29.9077   23.6319 C   0  0  0  0  0  0
  -16.7273  -28.6489   23.0351 C   0  0  0  0  0  0
  -26.4511  -31.6562   25.0687 C   0  0  0  0  0  0
  -25.3802  -31.3675   26.1453 C   0  0  0  0  0  0
  -27.0315  -30.2996   24.6055 C   0  0  0  0  0  0
  -27.6104  -32.4260   25.7435 C   0  0  0  0  0  0
  -27.5586  -37.1792   24.8468 C   0  0  0  0  0  0
  -21.4139  -29.3040   22.3688 N   0  0  0  0  0  0
  -26.4294  -37.3784   23.9421 N   0  0  0  0  0  0
  -24.6751  -31.0712   22.0990 N   0  0  0  0  0  0
  -23.4165  -28.8194   23.3006 O   0  0  0  0  0  0
  -28.3938  -26.6202   20.1483 O   0  0  0  0  0  0
  -26.5598  -34.8919   22.4669 O   0  0  0  0  0  0
  -23.5383  -32.1406   23.7457 O   0  0  0  0  0  0
  -30.8708  -19.6459   22.1274 C   0  0  0  0  0  0
  -31.6658  -18.5823   22.5835 C   0  0  0  0  0  0
  -29.5031  -18.0652   20.8847 C   0  0  0  0  0  0
  -29.7702  -19.4173   21.2776 C   0  0  0  0  0  0
  -31.3846  -17.2477   22.2240 C   0  0  0  0  0  0
  -30.3072  -16.9644   21.3358 C   0  0  0  0  0  0
  -28.4473  -22.9590   19.8265 C   0  0  0  0  0  0
  -27.0986  -23.0739   19.7889 C   0  0  0  0  0  0
  -26.0756  -22.0549   19.6451 C   0  0  0  0  0  0
  -24.7783  -22.4083   19.5884 C   0  0  0  0  0  0
  -23.6834  -21.4773   19.4084 C   0  0  0  0  0  0
  -22.4199  -21.9009   19.2277 C   0  0  0  0  0  0
  -21.2897  -20.9847   19.0306 C   0  0  0  0  0  0
  -30.9482  -22.6054   18.4475 C   0  0  0  0  0  0
  -30.6964  -24.0258   18.9405 C   0  0  0  0  0  0
  -30.6279  -21.6228   19.5626 C   0  0  0  0  0  0
  -29.3648  -24.2372   19.7286 C   0  0  1  0  0  0
  -32.2249  -16.1614   22.8787 C   0  0  0  0  0  0
  -19.0793  -20.3894   18.6756 C   0  0  0  0  0  0
  -28.8314  -20.6273   20.9553 C   0  0  0  0  0  0
  -28.6632  -25.5672   19.1855 C   0  0  0  0  0  0
  -20.0990  -21.4009   18.8689 N   0  0  0  0  0  0
  -29.9224  -15.6040   21.0153 N   0  0  0  0  0  0
  -29.1713  -21.5782   19.8257 N   0  3  1  0  0  0
  -31.4685  -12.4857   19.1185 H   0  0  0  0  0  0
  -30.3661  -11.3601   19.8594 H   0  0  0  0  0  0
  -29.7520  -11.7631   17.4538 H   0  0  0  0  0  0
  -29.6382  -13.4822   17.7457 H   0  0  0  0  0  0
  -27.8546  -11.2927   18.8409 H   0  0  0  0  0  0
  -27.3645  -12.5880   17.7846 H   0  0  0  0  0  0
  -27.6731  -14.2481   19.5320 H   0  0  0  0  0  0
  -28.6930  -12.0167   21.3624 H   0  0  0  0  0  0
  -28.4461  -13.6670   21.8475 H   0  0  0  0  0  0
  -25.2773   -9.5682   22.4721 H   0  0  0  0  0  0
  -24.0016   -7.4643   22.7463 H   0  0  0  0  0  0
  -21.0844   -8.8751   19.8949 H   0  0  0  0  0  0
  -22.3686  -10.9666   19.6152 H   0  0  0  0  0  0
  -21.2014   -7.6150   23.9718 H   0  0  0  0  0  0
  -21.1464   -6.0513   25.9067 H   0  0  0  0  0  0
  -22.0619   -2.7600   23.2846 H   0  0  0  0  0  0
  -22.4162  -11.9905   22.4767 H   0  0  0  0  0  0
  -21.1140  -13.1244   22.2614 H   0  0  0  0  0  0
  -24.6696  -15.8488   20.5378 H   0  0  0  0  0  0
  -26.2878  -15.6293   20.1079 H   0  0  0  0  0  0
  -26.7140  -32.5499   23.1120 H   0  0  0  0  0  0
  -25.0102  -33.9729   25.0472 H   0  0  0  0  0  0
  -22.7021  -31.3129   21.4120 H   0  0  0  0  0  0
  -23.3744  -35.9650   23.3282 H   0  0  0  0  0  0
  -24.3615  -36.8928   22.2053 H   0  0  0  0  0  0
  -23.7250  -37.6513   23.6650 H   0  0  0  0  0  0
  -26.0557  -31.5843   20.5963 H   0  0  0  0  0  0
  -26.8295  -30.8719   21.9824 H   0  0  0  0  0  0
  -28.0953  -29.0439   21.1830 H   0  0  0  0  0  0
  -25.9670  -25.9544   19.0207 H   0  0  0  0  0  0
  -23.9640  -27.3020   19.0339 H   0  0  0  0  0  0
  -23.7253  -30.6077   19.4058 H   0  0  0  0  0  0
  -22.7371  -29.2538   19.8630 H   0  0  0  0  0  0
  -25.1281  -36.1950   25.0826 H   0  0  0  0  0  0
  -20.9989  -28.3231   24.1402 H   0  0  0  0  0  0
  -20.5683  -26.2267   23.3581 H   0  0  0  0  0  0
  -21.6646  -26.7435   22.1183 H   0  0  0  0  0  0
  -19.6911  -25.6289   21.1217 H   0  0  0  0  0  0
  -19.6672  -27.3191   20.6735 H   0  0  0  0  0  0
  -17.4189  -26.6638   21.4052 H   0  0  0  0  0  0
  -18.0364  -26.0047   22.9033 H   0  0  0  0  0  0
  -19.7937  -30.7246   24.2290 H   0  0  0  0  0  0
  -17.5019  -31.6263   24.5148 H   0  0  0  0  0  0
  -15.5356  -30.2990   23.7634 H   0  0  0  0  0  0
  -15.8673  -28.0820   22.7055 H   0  0  0  0  0  0
  -24.5931  -30.7072   25.7797 H   0  0  0  0  0  0
  -24.9061  -32.2835   26.4983 H   0  0  0  0  0  0
  -25.8174  -30.8770   27.0156 H   0  0  0  0  0  0
  -26.2817  -29.6727   24.1207 H   0  0  0  0  0  0
  -27.4189  -29.7265   25.4490 H   0  0  0  0  0  0
  -27.8624  -30.4299   23.9115 H   0  0  0  0  0  0
  -27.2769  -33.3592   26.1987 H   0  0  0  0  0  0
  -28.3932  -32.6744   25.0252 H   0  0  0  0  0  0
  -28.0737  -31.8372   26.5361 H   0  0  0  0  0  0
  -28.2585  -38.0110   24.7542 H   0  0  0  0  0  0
  -28.1096  -36.2638   24.6252 H   0  0  0  0  0  0
  -27.2307  -37.1391   25.8871 H   0  0  0  0  0  0
  -20.9276  -29.8778   21.6935 H   0  0  0  0  0  0
  -26.0172  -38.2851   24.1437 H   0  0  0  0  0  0
  -31.0945  -20.6431   22.4840 H   0  0  0  0  0  0
  -32.4773  -18.8000   23.2653 H   0  0  0  0  0  0
  -28.6416  -17.8629   20.2621 H   0  0  0  0  0  0
  -26.7079  -24.0763   19.8253 H   0  0  0  0  0  0
  -26.3283  -21.0118   19.5498 H   0  0  0  0  0  0
  -24.5270  -23.4573   19.6757 H   0  0  0  0  0  0
  -23.8888  -20.4150   19.4202 H   0  0  0  0  0  0
  -22.1754  -22.9549   19.2105 H   0  0  0  0  0  0
  -21.5473  -19.9205   19.0309 H   0  0  0  0  0  0
  -31.9892  -22.5045   18.1390 H   0  0  0  0  0  0
  -30.3468  -22.3936   17.5613 H   0  0  0  0  0  0
  -30.7642  -24.6619   18.0582 H   0  0  0  0  0  0
  -31.5298  -24.3413   19.5702 H   0  0  0  0  0  0
  -31.1653  -21.9091   20.4668 H   0  0  0  0  0  0
  -30.9841  -20.6342   19.2723 H   0  0  0  0  0  0
  -29.6516  -24.4428   20.7607 H   0  0  0  0  0  0
  -32.7316  -16.5393   23.7681 H   0  0  0  0  0  0
  -32.9910  -15.8037   22.1920 H   0  0  0  0  0  0
  -31.6169  -15.3152   23.1974 H   0  0  0  0  0  0
  -18.2236  -20.8103   18.1461 H   0  0  0  0  0  0
  -18.7150  -20.0126   19.6331 H   0  0  0  0  0  0
  -19.4278  -19.5359   18.0869 H   0  0  0  0  0  0
  -28.7740  -21.2273   21.8627 H   0  0  0  0  0  0
  -27.8302  -20.2255   20.8207 H   0  0  0  0  0  0
  -27.8527  -25.3289   18.5034 H   0  0  0  0  0  0
  -29.3413  -26.0922   18.5160 H   0  0  0  0  0  0
  -28.9430  -15.3939   21.1233 H   0  0  0  0  0  0
  -28.8312  -21.0865   19.0141 H   0  0  0  0  0  0
  1 25  1  0  0  0
  1 30  2  0  0  0
  1 93  1  0  0  0
  2  3  1  0  0  0
  2 25  1  0  0  0
  2 95  1  0  0  0
  2 96  1  0  0  0
  3  4  1  0  0  0
  3 97  1  0  0  0
  3 98  1  0  0  0
  4  5  1  0  0  0
  4 99  1  0  0  0
  4100  1  0  0  0
  5  6  1  0  0  0
  5 26  1  0  0  0
  5101  1  0  0  0
  6 25  1  0  0  0
  6102  1  0  0  0
  6103  1  0  0  0
  7  8  2  0  0  0
  7 26  1  0  0  0
  7 29  1  0  0  0
  8  9  1  0  0  0
  8 22  1  0  0  0
  9 10  1  0  0  0
  9 27  2  0  0  0
 10 11  2  0  0  0
 10 15  1  0  0  0
 11 12  1  0  0  0
 11104  1  0  0  0
 12 13  2  0  0  0
 12105  1  0  0  0
 13 14  1  0  0  0
 13 31  1  0  0  0
 14 15  2  0  0  0
 14106  1  0  0  0
 15107  1  0  0  0
 16 17  2  0  0  0
 16 21  1  0  0  0
 16 31  1  0  0  0
 17 18  1  0  0  0
 17108  1  0  0  0
 18 19  2  0  0  0
 18109  1  0  0  0
 19 20  1  0  0  0
 19 24  1  0  0  0
 20 21  2  0  0  0
 20110  1  0  0  0
 21 23  1  0  0  0
 22 28  1  0  0  0
 22 32  2  0  0  0
 26 27  1  0  0  0
 28111  1  0  0  0
 28112  1  0  0  0
 29113  1  0  0  0
 29114  1  0  0  0
 33 34  1  0  0  0
 33 66  1  0  0  0
 33 70  2  0  0  0
 34 36  1  0  0  0
 34 59  1  0  0  0
 34115  1  0  0  0
 35 44  2  0  0  0
 35 45  1  0  0  0
 35 68  1  0  0  0
 36 56  1  0  0  0
 36116  1  0  0  0
 37 39  1  0  0  0
 37 47  1  0  0  0
 37 66  1  0  0  0
 37117  1  0  0  0
 38 43  2  0  0  0
 38 46  1  0  0  0
 38 47  1  0  0  0
 39 64  1  0  0  0
 39 67  2  0  0  0
 40 52  1  0  0  0
 40 53  2  0  0  0
 40 58  1  0  0  0
 41118  1  0  0  0
 41119  1  0  0  0
 41120  1  0  0  0
 41 48  1  0  0  0
 42 43  1  0  0  0
 42 66  1  0  0  0
 42121  1  0  0  0
 42122  1  0  0  0
 43 44  1  0  0  0
 44123  1  0  0  0
 45 46  2  0  0  0
 45124  1  0  0  0
 46125  1  0  0  0
 47126  1  0  0  0
 47127  1  0  0  0
 48 56  1  0  0  0
 48 65  1  0  0  0
 48128  1  0  0  0
 49 50  1  0  0  0
 49 53  1  0  0  0
 49 64  1  0  0  0
 49129  1  0  0  0
 50 51  1  0  0  0
 50130  1  0  0  0
 50131  1  0  0  0
 51 52  1  0  0  0
 51132  1  0  0  0
 51133  1  0  0  0
 52134  1  0  0  0
 52135  1  0  0  0
 53 54  1  0  0  0
 54 55  2  0  0  0
 54136  1  0  0  0
 55 57  1  0  0  0
 55137  1  0  0  0
 56 69  2  0  0  0
 57 58  2  0  0  0
 57138  1  0  0  0
 58139  1  0  0  0
 59 60  1  0  0  0
 59 61  1  0  0  0
 59 62  1  0  0  0
 60140  1  0  0  0
 60141  1  0  0  0
 60142  1  0  0  0
 61143  1  0  0  0
 61144  1  0  0  0
 61145  1  0  0  0
 62146  1  0  0  0
 62147  1  0  0  0
 62148  1  0  0  0
 63 65  1  0  0  0
 63149  1  0  0  0
 63150  1  0  0  0
 63151  1  0  0  0
 64152  1  0  0  0
 65153  1  0  0  0
 68 91  1  0  0  0
 71 72  2  0  0  0
 71 74  1  0  0  0
 71154  1  0  0  0
 72 75  1  0  0  0
 72155  1  0  0  0
 73 74  2  0  0  0
 73 76  1  0  0  0
 73156  1  0  0  0
 74 90  1  0  0  0
 75 76  2  0  0  0
 75 88  1  0  0  0
 76 93  1  0  0  0
 77 78  2  0  0  0
 77 87  1  0  0  0
 77 94  1  0  0  0
 78 79  1  0  0  0
 78157  1  0  0  0
 79 80  2  0  0  0
 79158  1  0  0  0
 80 81  1  0  0  0
 80159  1  0  0  0
 81 82  2  0  0  0
 81160  1  0  0  0
 82 83  1  0  0  0
 82161  1  0  0  0
 83 92  2  0  0  0
 83162  1  0  0  0
 84 85  1  0  0  0
 84 86  1  0  0  0
 84163  1  0  0  0
 84164  1  0  0  0
 85 87  1  0  0  0
 85165  1  0  0  0
 85166  1  0  0  0
 86 94  1  0  0  0
 86167  1  0  0  0
 86168  1  0  0  0
 87 91  1  0  0  0
 87169  1  0  0  0
 88170  1  0  0  0
 88171  1  0  0  0
 88172  1  0  0  0
 89 92  1  0  0  0
 89173  1  0  0  0
 89174  1  0  0  0
 89175  1  0  0  0
 90176  1  0  0  0
 90177  1  0  0  0
 90 94  1  0  0  0
 91178  1  0  0  0
 91179  1  0  0  0
 93180  1  0  0  0
 94181  1  0  0  0
M  CHG  1  94   1
M  ISO  4   1 100  68 101  91 101  93 100
M  END
> <chiral flag>
0

> <version>
0

> <s_m_source_file>
/data/baiqing/PycharmProjects/Reinvent-master-3.2/result/LINK_invent/BTK/process_docking_weight1_custom_product_contain_oxygen_bond_distance_aromatic_linkinvent_7_9_3/rearranged_h_0039.sdf

> <i_m_source_file_index>
12

> <r_mmod_Potential_Energy-OPLS-2005>
-33.3428649902344

> <r_mmod_Stretch_Energy-OPLS-2005>
76.3287506103516

> <r_mmod_Bend_Energy-OPLS-2005>
164.553756713867

> <r_mmod_Torsional_Energy-OPLS-2005>
249.518447875977

> <r_mmod_Improper_Torsional_Energy-OPLS-2005>
5.46012258529663

> <r_mmod_Van_der_Waal_Energy-OPLS-2005>
169.596206665039

> <r_mmod_Electrostatic_Energy-OPLS-2005>
-262.346343994141

> <r_mmod_Solvation_Energy-OPLS-2005>
-461.663024902344

> <b_mmod_Minimization_Converged-OPLS-2005>
0

> <r_mmod_RMS_Derivative-OPLS-2005>
2.95910096168518

$$$$
12
                    3D
 Structure written by MMmdl.
159167  0  0  1  0            999 V2000
  -30.6888  -14.4247   20.6407 C   0  0  0  0  0  0
  -30.4250  -12.2954   19.4267 C   0  0  0  0  0  0
  -29.5149  -12.5591   18.2160 C   0  0  0  0  0  0
  -28.0299  -12.3953   18.5980 C   0  0  0  0  0  0
  -27.6670  -13.2019   19.8773 C   0  0  2  0  0  0
  -28.6960  -12.9236   20.9941 C   0  0  0  0  0  0
  -25.2583  -13.8169   20.5636 C   0  0  0  0  0  0
  -24.1853  -13.0429   20.9109 C   0  0  0  0  0  0
  -24.6377  -11.6913   20.8650 C   0  0  0  0  0  0
  -23.9026  -10.4295   21.0369 C   0  0  0  0  0  0
  -24.3584   -9.4254   21.9175 C   0  0  0  0  0  0
  -23.6270   -8.2285   22.0765 C   0  0  0  0  0  0
  -22.4278   -8.0294   21.3551 C   0  0  0  0  0  0
  -21.9869   -9.0266   20.4664 C   0  0  0  0  0  0
  -22.7171  -10.2143   20.3057 C   0  0  0  0  0  0
  -21.6872   -6.0728   22.5271 C   0  0  0  0  0  0
  -21.4018   -6.5630   23.8204 C   0  0  0  0  0  0
  -21.3644   -5.6801   24.9166 C   0  0  0  0  0  0
  -21.6047   -4.3058   24.7212 C   0  0  0  0  0  0
  -21.8800   -3.8131   23.4360 C   0  0  0  0  0  0
  -21.9179   -4.6944   22.3386 C   0  0  0  0  0  0
  -22.7854  -13.5261   21.1778 C   0  0  0  0  0  0
  -22.1650   -4.2118   21.0970 F   0  0  0  0  0  0
  -21.5630   -3.4543   25.7735 F   0  0  0  0  0  0
  -30.0447  -13.2391   20.4787 N   0  0  0  0  0  0
  -26.3023  -12.9311   20.3282 N   0  0  0  0  0  0
  -25.9307  -11.6479   20.5643 N   0  0  0  0  0  0
  -22.0470  -12.8288   22.0349 N   0  0  0  0  0  0
  -25.4193  -15.1895   20.4116 N   0  0  0  0  0  0
  -31.7370  -14.7195   20.0553 O   0  0  0  0  0  0
  -21.6651   -6.8878   21.4250 O   0  0  0  0  0  0
  -22.3534  -14.5550   20.6620 O   0  0  0  0  0  0
  -24.6198  -31.8621   23.1960 C   0  0  0  0  0  0
  -25.9098  -32.4817   23.8316 C   0  0  1  0  0  0
  -27.2532  -27.4487   20.0879 C   0  0  0  0  0  0
  -25.5960  -33.8625   24.2265 N   0  0  0  0  0  0
  -23.4081  -30.4733   21.5445 C   0  0  2  0  0  0
  -24.8596  -28.9484   20.1037 C   0  0  0  0  0  0
  -22.7408  -29.4562   22.4982 C   0  0  0  0  0  0
  -18.0204  -28.1280   22.8406 C   0  0  0  0  0  0
  -24.1494  -36.7321   23.2617 C   0  0  0  0  0  0
  -25.9310  -30.8359   21.3441 C   0  0  0  0  0  0
  -26.0145  -29.4683   20.7030 C   0  0  0  0  0  0
  -27.2166  -28.7229   20.6969 C   0  0  0  0  0  0
  -26.0810  -26.9398   19.4851 C   0  0  0  0  0  0
  -24.8875  -27.6830   19.4925 C   0  0  0  0  0  0
  -23.6141  -29.8020   20.1569 C   0  0  0  0  0  0
  -25.4098  -36.3099   24.0307 C   0  0  1  0  0  0
  -20.5766  -28.3617   23.1305 C   0  0  2  0  0  0
  -20.6704  -26.9306   22.5492 C   0  0  0  0  0  0
  -19.5751  -26.6123   21.5257 C   0  0  0  0  0  0
  -18.1905  -26.7769   22.1575 C   0  0  0  0  0  0
  -19.1439  -28.8785   23.2841 C   0  0  0  0  0  0
  -18.9359  -30.1378   23.8861 C   0  0  0  0  0  0
  -17.6366  -30.6542   24.0447 C   0  0  0  0  0  0
  -25.9049  -34.9503   23.5062 C   0  0  0  0  0  0
  -16.5261  -29.9029   23.6246 C   0  0  0  0  0  0
  -16.7192  -28.6400   23.0288 C   0  0  0  0  0  0
  -26.4501  -31.6628   25.0703 C   0  0  0  0  0  0
  -25.3648  -31.3916   26.1366 C   0  0  0  0  0  0
  -27.0369  -30.3048   24.6194 C   0  0  0  0  0  0
  -27.6072  -32.4332   25.7519 C   0  0  0  0  0  0
  -27.5568  -37.1796   24.8441 C   0  0  0  0  0  0
  -21.4092  -29.3015   22.3769 N   0  0  0  0  0  0
  -26.4279  -37.3780   23.9403 N   0  0  0  0  0  0
  -24.6717  -31.0672   22.0917 N   0  0  0  0  0  0
  -23.4133  -28.8081   23.3021 O   0  0  0  0  0  0
  -28.4115  -26.7095   20.0541 O   0  0  0  0  0  0
  -26.5602  -34.8932   22.4624 O   0  0  0  0  0  0
  -23.5359  -32.1462   23.7266 O   0  0  0  0  0  0
  -28.6916  -18.5089   22.5816 C   0  0  0  0  0  0
  -30.6751  -17.5609   20.8399 C   0  0  0  0  0  0
  -28.8815  -17.1177   22.4299 C   0  0  0  0  0  0
  -29.5203  -19.4466   21.9249 C   0  0  0  0  0  0
  -29.9033  -16.6342   21.5784 C   0  0  0  0  0  0
  -30.5097  -18.9534   21.0231 C   0  0  0  0  0  0
  -27.9908  -16.1437   23.1950 C   0  0  0  0  0  0
  -29.3420  -20.9291   22.3118 C   0  0  0  0  0  0
  -29.2199  -24.3589   20.4427 C   0  0  0  0  0  0
  -29.1861  -23.3079   21.5851 C   0  0  0  0  0  0
  -28.3917  -25.5785   20.9306 C   0  0  0  0  0  0
  -30.0869  -15.2256   21.5343 N   0  0  0  0  0  0
  -29.6147  -21.9319   21.2407 N   0  3  0  0  0  0
  -31.5559  -19.9952   20.1270 Cl  0  0  0  0  0  0
  -31.4752  -12.4004   19.1517 H   0  0  0  0  0  0
  -30.3132  -11.2669   19.7775 H   0  0  0  0  0  0
  -29.7845  -11.9098   17.3839 H   0  0  0  0  0  0
  -29.6819  -13.5779   17.8672 H   0  0  0  0  0  0
  -27.8323  -11.3330   18.7530 H   0  0  0  0  0  0
  -27.4026  -12.7069   17.7588 H   0  0  0  0  0  0
  -27.7226  -14.2586   19.6162 H   0  0  0  0  0  0
  -28.6600  -11.8700   21.2680 H   0  0  0  0  0  0
  -28.4270  -13.4518   21.9087 H   0  0  0  0  0  0
  -25.2736   -9.5741   22.4750 H   0  0  0  0  0  0
  -23.9964   -7.4688   22.7521 H   0  0  0  0  0  0
  -21.0776   -8.8766   19.9010 H   0  0  0  0  0  0
  -22.3609  -10.9675   19.6163 H   0  0  0  0  0  0
  -21.2043   -7.6146   23.9675 H   0  0  0  0  0  0
  -21.1490   -6.0546   25.9053 H   0  0  0  0  0  0
  -22.0596   -2.7587   23.2852 H   0  0  0  0  0  0
  -22.4015  -11.9961   22.4800 H   0  0  0  0  0  0
  -21.1101  -13.1412   22.2554 H   0  0  0  0  0  0
  -24.6300  -15.8192   20.4936 H   0  0  0  0  0  0
  -26.2714  -15.6537   20.1164 H   0  0  0  0  0  0
  -26.7180  -32.5532   23.1081 H   0  0  0  0  0  0
  -25.0228  -33.9807   25.0477 H   0  0  0  0  0  0
  -22.7018  -31.2925   21.3971 H   0  0  0  0  0  0
  -23.3741  -35.9682   23.3291 H   0  0  0  0  0  0
  -24.3589  -36.8931   22.2036 H   0  0  0  0  0  0
  -23.7293  -37.6537   23.6639 H   0  0  0  0  0  0
  -26.0293  -31.5911   20.5642 H   0  0  0  0  0  0
  -26.8241  -30.9019   21.9538 H   0  0  0  0  0  0
  -28.1073  -29.1210   21.1636 H   0  0  0  0  0  0
  -26.1050  -25.9723   19.0056 H   0  0  0  0  0  0
  -24.0038  -27.2853   19.0166 H   0  0  0  0  0  0
  -23.7020  -30.5770   19.3936 H   0  0  0  0  0  0
  -22.7475  -29.2028   19.8746 H   0  0  0  0  0  0
  -25.1251  -36.1958   25.0804 H   0  0  0  0  0  0
  -20.9704  -28.3246   24.1479 H   0  0  0  0  0  0
  -20.5667  -26.2190   23.3719 H   0  0  0  0  0  0
  -21.6603  -26.7347   22.1339 H   0  0  0  0  0  0
  -19.6929  -25.5978   21.1476 H   0  0  0  0  0  0
  -19.6741  -27.2740   20.6664 H   0  0  0  0  0  0
  -17.4168  -26.6343   21.4005 H   0  0  0  0  0  0
  -18.0367  -25.9969   22.9058 H   0  0  0  0  0  0
  -19.7832  -30.7158   24.2321 H   0  0  0  0  0  0
  -17.4914  -31.6249   24.4989 H   0  0  0  0  0  0
  -15.5276  -30.2911   23.7555 H   0  0  0  0  0  0
  -15.8608  -28.0726   22.7007 H   0  0  0  0  0  0
  -24.5747  -30.7391   25.7619 H   0  0  0  0  0  0
  -24.8947  -32.3209   26.4632 H   0  0  0  0  0  0
  -25.7782  -30.9124   27.0247 H   0  0  0  0  0  0
  -26.3043  -29.6801   24.1088 H   0  0  0  0  0  0
  -27.3932  -29.7299   25.4751 H   0  0  0  0  0  0
  -27.8918  -30.4316   23.9548 H   0  0  0  0  0  0
  -27.2704  -33.3582   26.2202 H   0  0  0  0  0  0
  -28.3899  -32.6966   25.0398 H   0  0  0  0  0  0
  -28.0791  -31.8439   26.5387 H   0  0  0  0  0  0
  -28.2531  -38.0124   24.7478 H   0  0  0  0  0  0
  -28.1097  -36.2657   24.6249 H   0  0  0  0  0  0
  -27.2311  -37.1433   25.8843 H   0  0  0  0  0  0
  -20.9220  -29.8947   21.7220 H   0  0  0  0  0  0
  -26.0150  -38.2854   24.1415 H   0  0  0  0  0  0
  -27.9140  -18.8607   23.2486 H   0  0  0  0  0  0
  -31.4296  -17.2142   20.1504 H   0  0  0  0  0  0
  -27.2010  -16.6489   23.7476 H   0  0  0  0  0  0
  -28.5717  -15.5505   23.9048 H   0  0  0  0  0  0
  -27.5019  -15.4626   22.4994 H   0  0  0  0  0  0
  -29.9684  -21.1082   23.1931 H   0  0  0  0  0  0
  -28.3119  -21.0736   22.6613 H   0  0  0  0  0  0
  -28.7703  -23.9464   19.5293 H   0  0  0  0  0  0
  -30.2532  -24.6403   20.1982 H   0  0  0  0  0  0
  -28.1507  -23.2355   21.9188 H   0  0  0  0  0  0
  -29.7549  -23.6867   22.4348 H   0  0  0  0  0  0
  -28.7483  -25.9221   21.9099 H   0  0  0  0  0  0
  -27.3667  -25.2246   21.0922 H   0  0  0  0  0  0
  -29.4103  -14.7217   22.0812 H   0  0  0  0  0  0
  -29.1279  -21.6435   20.4077 H   0  0  0  0  0  0
  -30.6061  -21.9024   21.0441 H   0  0  0  0  0  0
  1 25  1  0  0  0
  1 30  2  0  0  0
  1 82  1  0  0  0
  2  3  1  0  0  0
  2 25  1  0  0  0
  2 85  1  0  0  0
  2 86  1  0  0  0
  3  4  1  0  0  0
  3 87  1  0  0  0
  3 88  1  0  0  0
  4  5  1  0  0  0
  4 89  1  0  0  0
  4 90  1  0  0  0
  5  6  1  0  0  0
  5 26  1  0  0  0
  5 91  1  0  0  0
  6 25  1  0  0  0
  6 92  1  0  0  0
  6 93  1  0  0  0
  7  8  2  0  0  0
  7 26  1  0  0  0
  7 29  1  0  0  0
  8  9  1  0  0  0
  8 22  1  0  0  0
  9 10  1  0  0  0
  9 27  2  0  0  0
 10 11  2  0  0  0
 10 15  1  0  0  0
 11 12  1  0  0  0
 11 94  1  0  0  0
 12 13  2  0  0  0
 12 95  1  0  0  0
 13 14  1  0  0  0
 13 31  1  0  0  0
 14 15  2  0  0  0
 14 96  1  0  0  0
 15 97  1  0  0  0
 16 17  2  0  0  0
 16 21  1  0  0  0
 16 31  1  0  0  0
 17 18  1  0  0  0
 17 98  1  0  0  0
 18 19  2  0  0  0
 18 99  1  0  0  0
 19 20  1  0  0  0
 19 24  1  0  0  0
 20 21  2  0  0  0
 20100  1  0  0  0
 21 23  1  0  0  0
 22 28  1  0  0  0
 22 32  2  0  0  0
 26 27  1  0  0  0
 28101  1  0  0  0
 28102  1  0  0  0
 29103  1  0  0  0
 29104  1  0  0  0
 33 34  1  0  0  0
 33 66  1  0  0  0
 33 70  2  0  0  0
 34 36  1  0  0  0
 34 59  1  0  0  0
 34105  1  0  0  0
 35 44  2  0  0  0
 35 45  1  0  0  0
 35 68  1  0  0  0
 36 56  1  0  0  0
 36106  1  0  0  0
 37 39  1  0  0  0
 37 47  1  0  0  0
 37 66  1  0  0  0
 37107  1  0  0  0
 38 43  2  0  0  0
 38 46  1  0  0  0
 38 47  1  0  0  0
 39 64  1  0  0  0
 39 67  2  0  0  0
 40 52  1  0  0  0
 40 53  2  0  0  0
 40 58  1  0  0  0
 41108  1  0  0  0
 41109  1  0  0  0
 41110  1  0  0  0
 41 48  1  0  0  0
 42 43  1  0  0  0
 42 66  1  0  0  0
 42111  1  0  0  0
 42112  1  0  0  0
 43 44  1  0  0  0
 44113  1  0  0  0
 45 46  2  0  0  0
 45114  1  0  0  0
 46115  1  0  0  0
 47116  1  0  0  0
 47117  1  0  0  0
 48 56  1  0  0  0
 48 65  1  0  0  0
 48118  1  0  0  0
 49 50  1  0  0  0
 49 53  1  0  0  0
 49 64  1  0  0  0
 49119  1  0  0  0
 50 51  1  0  0  0
 50120  1  0  0  0
 50121  1  0  0  0
 51 52  1  0  0  0
 51122  1  0  0  0
 51123  1  0  0  0
 52124  1  0  0  0
 52125  1  0  0  0
 53 54  1  0  0  0
 54 55  2  0  0  0
 54126  1  0  0  0
 55 57  1  0  0  0
 55127  1  0  0  0
 56 69  2  0  0  0
 57 58  2  0  0  0
 57128  1  0  0  0
 58129  1  0  0  0
 59 60  1  0  0  0
 59 61  1  0  0  0
 59 62  1  0  0  0
 60130  1  0  0  0
 60131  1  0  0  0
 60132  1  0  0  0
 61133  1  0  0  0
 61134  1  0  0  0
 61135  1  0  0  0
 62136  1  0  0  0
 62137  1  0  0  0
 62138  1  0  0  0
 63 65  1  0  0  0
 63139  1  0  0  0
 63140  1  0  0  0
 63141  1  0  0  0
 64142  1  0  0  0
 65143  1  0  0  0
 68 81  1  0  0  0
 71 73  2  0  0  0
 71 74  1  0  0  0
 71144  1  0  0  0
 72 75  2  0  0  0
 72 76  1  0  0  0
 72145  1  0  0  0
 73 75  1  0  0  0
 73 77  1  0  0  0
 74 76  2  0  0  0
 74 78  1  0  0  0
 75 82  1  0  0  0
 76 84  1  0  0  0
 77146  1  0  0  0
 77147  1  0  0  0
 77148  1  0  0  0
 78 83  1  0  0  0
 78149  1  0  0  0
 78150  1  0  0  0
 79 80  1  0  0  0
 79 81  1  0  0  0
 79151  1  0  0  0
 79152  1  0  0  0
 80 83  1  0  0  0
 80153  1  0  0  0
 80154  1  0  0  0
 81155  1  0  0  0
 81156  1  0  0  0
 82157  1  0  0  0
 83158  1  0  0  0
 83159  1  0  0  0
M  CHG  1  83   1
M  ISO  4   1 100  68 101  81 101  82 100
M  END
> <chiral flag>
0

> <version>
0

> <s_m_source_file>
/data/baiqing/PycharmProjects/Reinvent-master-3.2/result/LINK_invent/BTK/process_docking_weight1_custom_product_contain_oxygen_bond_distance_aromatic_linkinvent_7_9_3/rearranged_h_0039.sdf

> <i_m_source_file_index>
13

> <r_mmod_Potential_Energy-OPLS-2005>
-235.702346801758

> <r_mmod_Stretch_Energy-OPLS-2005>
39.3857192993164

> <r_mmod_Bend_Energy-OPLS-2005>
113.491317749023

> <r_mmod_Torsional_Energy-OPLS-2005>
235.20149230957

> <r_mmod_Improper_Torsional_Energy-OPLS-2005>
3.74968004226685

> <r_mmod_Van_der_Waal_Energy-OPLS-2005>
156.593383789062

> <r_mmod_Electrostatic_Energy-OPLS-2005>
-333.037841796875

> <r_mmod_Solvation_Energy-OPLS-2005>
-461.380065917969

> <b_mmod_Minimization_Converged-OPLS-2005>
0

> <r_mmod_RMS_Derivative-OPLS-2005>
8.81378650665283

$$$$
13
                    3D
 Structure written by MMmdl.
162170  0  0  1  0            999 V2000
  -30.6610  -14.5263   20.5111 C   0  0  0  0  0  0
  -30.4193  -12.3220   19.4379 C   0  0  0  0  0  0
  -29.4953  -12.4943   18.2135 C   0  0  0  0  0  0
  -28.0151  -12.3548   18.6234 C   0  0  0  0  0  0
  -27.6530  -13.2105   19.8672 C   0  0  2  0  0  0
  -28.6932  -13.0271   20.9945 C   0  0  0  0  0  0
  -25.2552  -13.8151   20.5637 C   0  0  0  0  0  0
  -24.1829  -13.0437   20.9184 C   0  0  0  0  0  0
  -24.6395  -11.6902   20.8757 C   0  0  0  0  0  0
  -23.9072  -10.4292   21.0431 C   0  0  0  0  0  0
  -24.3624   -9.4195   21.9193 C   0  0  0  0  0  0
  -23.6301   -8.2232   22.0754 C   0  0  0  0  0  0
  -22.4281   -8.0289   21.3545 C   0  0  0  0  0  0
  -21.9923   -9.0258   20.4639 C   0  0  0  0  0  0
  -22.7256  -10.2139   20.3061 C   0  0  0  0  0  0
  -21.6843   -6.0745   22.5277 C   0  0  0  0  0  0
  -21.4014   -6.5643   23.8214 C   0  0  0  0  0  0
  -21.3661   -5.6795   24.9176 C   0  0  0  0  0  0
  -21.6040   -4.3056   24.7221 C   0  0  0  0  0  0
  -21.8826   -3.8151   23.4341 C   0  0  0  0  0  0
  -21.9195   -4.6974   22.3397 C   0  0  0  0  0  0
  -22.7853  -13.5227   21.1846 C   0  0  0  0  0  0
  -22.1661   -4.2155   21.0979 F   0  0  0  0  0  0
  -21.5631   -3.4540   25.7735 F   0  0  0  0  0  0
  -30.0181  -13.3295   20.4350 N   0  0  0  0  0  0
  -26.2982  -12.9332   20.3328 N   0  0  0  0  0  0
  -25.9318  -11.6485   20.5762 N   0  0  0  0  0  0
  -22.0503  -12.8222   22.0404 N   0  0  0  0  0  0
  -25.4243  -15.1869   20.3955 N   0  0  0  0  0  0
  -31.8387  -14.6397   20.1625 O   0  0  0  0  0  0
  -21.6642   -6.8893   21.4241 O   0  0  0  0  0  0
  -22.3546  -14.5534   20.6689 O   0  0  0  0  0  0
  -24.6135  -31.8687   23.2103 C   0  0  0  0  0  0
  -25.9030  -32.4833   23.8397 C   0  0  1  0  0  0
  -27.2323  -27.4089   20.1097 C   0  0  0  0  0  0
  -25.5840  -33.8622   24.2313 N   0  0  0  0  0  0
  -23.4027  -30.4913   21.5511 C   0  0  2  0  0  0
  -24.8500  -28.9514   20.1175 C   0  0  0  0  0  0
  -22.7429  -29.4668   22.5005 C   0  0  0  0  0  0
  -18.0290  -28.1372   22.8519 C   0  0  0  0  0  0
  -24.1484  -36.7320   23.2638 C   0  0  0  0  0  0
  -25.9341  -30.8262   21.3695 C   0  0  0  0  0  0
  -26.0086  -29.4578   20.7145 C   0  0  0  0  0  0
  -27.1986  -28.6927   20.7083 C   0  0  0  0  0  0
  -26.0506  -26.9182   19.5092 C   0  0  0  0  0  0
  -24.8666  -27.6831   19.5087 C   0  0  0  0  0  0
  -23.6144  -29.8231   20.1655 C   0  0  0  0  0  0
  -25.4112  -36.3126   24.0327 C   0  0  1  0  0  0
  -20.5878  -28.3662   23.1324 C   0  0  2  0  0  0
  -20.6779  -26.9388   22.5428 C   0  0  0  0  0  0
  -19.5755  -26.6394   21.5222 C   0  0  0  0  0  0
  -18.1937  -26.7938   22.1637 C   0  0  0  0  0  0
  -19.1537  -28.8839   23.2921 C   0  0  0  0  0  0
  -18.9454  -30.1444   23.8926 C   0  0  0  0  0  0
  -17.6453  -30.6591   24.0568 C   0  0  0  0  0  0
  -25.9036  -34.9484   23.5141 C   0  0  0  0  0  0
  -16.5345  -29.9091   23.6305 C   0  0  0  0  0  0
  -16.7276  -28.6496   23.0352 C   0  0  0  0  0  0
  -26.4445  -31.6620   25.0737 C   0  0  0  0  0  0
  -25.3652  -31.3664   26.1435 C   0  0  0  0  0  0
  -27.0265  -30.3056   24.6111 C   0  0  0  0  0  0
  -27.6065  -32.4300   25.7473 C   0  0  0  0  0  0
  -27.5600  -37.1809   24.8463 C   0  0  0  0  0  0
  -21.4164  -29.3023   22.3725 N   0  0  0  0  0  0
  -26.4323  -37.3792   23.9381 N   0  0  0  0  0  0
  -24.6677  -31.0776   22.1009 N   0  0  0  0  0  0
  -23.4219  -28.8204   23.3025 O   0  0  0  0  0  0
  -28.4202  -26.6991   20.1510 O   0  0  0  0  0  0
  -26.5657  -34.8934   22.4743 O   0  0  0  0  0  0
  -23.5314  -32.1441   23.7485 O   0  0  0  0  0  0
  -30.4038  -19.7946   20.0428 C   0  0  0  0  0  0
  -31.1686  -17.4943   19.8321 C   0  0  0  0  0  0
  -31.3503  -18.8646   19.5850 C   0  0  0  0  0  0
  -29.2550  -19.3755   20.7446 C   0  0  0  0  0  0
  -29.0906  -17.9708   21.0175 C   0  0  0  0  0  0
  -30.0574  -17.0106   20.5666 C   0  0  0  0  0  0
  -32.5659  -19.3334   18.8120 C   0  0  0  0  0  0
  -27.8676  -17.5020   21.8039 C   0  0  0  0  0  0
  -28.2527  -20.4520   21.2449 C   0  0  0  0  0  0
  -28.0577  -24.2266   20.6558 C   0  0  0  0  0  0
  -28.8530  -22.8692   20.5873 C   0  0  0  0  0  0
  -28.5331  -25.3418   19.6709 C   0  0  0  0  0  0
  -29.8768  -15.5936   20.8248 N   0  0  0  0  0  0
  -28.0107  -21.6487   20.3775 N   0  3  0  0  0  0
  -31.4645  -12.4193   19.1373 H   0  0  0  0  0  0
  -30.3224  -11.3186   19.8546 H   0  0  0  0  0  0
  -29.7387  -11.7578   17.4469 H   0  0  0  0  0  0
  -29.6604  -13.4738   17.7615 H   0  0  0  0  0  0
  -27.8269  -11.3001   18.8295 H   0  0  0  0  0  0
  -27.3683  -12.6175   17.7851 H   0  0  0  0  0  0
  -27.6855  -14.2518   19.5465 H   0  0  0  0  0  0
  -28.6753  -12.0022   21.3678 H   0  0  0  0  0  0
  -28.4586  -13.6579   21.8542 H   0  0  0  0  0  0
  -25.2769   -9.5664   22.4765 H   0  0  0  0  0  0
  -24.0000   -7.4625   22.7476 H   0  0  0  0  0  0
  -21.0851   -8.8791   19.8941 H   0  0  0  0  0  0
  -22.3725  -10.9684   19.6174 H   0  0  0  0  0  0
  -21.2007   -7.6151   23.9719 H   0  0  0  0  0  0
  -21.1473   -6.0524   25.9081 H   0  0  0  0  0  0
  -22.0605   -2.7611   23.2840 H   0  0  0  0  0  0
  -22.4124  -11.9875   22.4779 H   0  0  0  0  0  0
  -21.1114  -13.1232   22.2609 H   0  0  0  0  0  0
  -24.6408  -15.8272   20.4645 H   0  0  0  0  0  0
  -26.2484  -15.6085   19.9889 H   0  0  0  0  0  0
  -26.7111  -32.5549   23.1177 H   0  0  0  0  0  0
  -24.9838  -33.9750   25.0350 H   0  0  0  0  0  0
  -22.6921  -31.3073   21.4125 H   0  0  0  0  0  0
  -23.3761  -35.9646   23.3311 H   0  0  0  0  0  0
  -24.3568  -36.8932   22.2056 H   0  0  0  0  0  0
  -23.7234  -37.6511   23.6675 H   0  0  0  0  0  0
  -26.0550  -31.5950   20.6061 H   0  0  0  0  0  0
  -26.8160  -30.8733   21.9962 H   0  0  0  0  0  0
  -28.0934  -29.0753   21.1802 H   0  0  0  0  0  0
  -26.0208  -25.9442   19.0449 H   0  0  0  0  0  0
  -23.9691  -27.2940   19.0497 H   0  0  0  0  0  0
  -23.7303  -30.5987   19.4079 H   0  0  0  0  0  0
  -22.7345  -29.2486   19.8669 H   0  0  0  0  0  0
  -25.1293  -36.2022   25.0822 H   0  0  0  0  0  0
  -20.9965  -28.3278   24.1452 H   0  0  0  0  0  0
  -20.5710  -26.2255   23.3613 H   0  0  0  0  0  0
  -21.6641  -26.7464   22.1180 H   0  0  0  0  0  0
  -19.6897  -25.6317   21.1226 H   0  0  0  0  0  0
  -19.6698  -27.3234   20.6780 H   0  0  0  0  0  0
  -17.4190  -26.6690   21.4065 H   0  0  0  0  0  0
  -18.0328  -26.0068   22.9015 H   0  0  0  0  0  0
  -19.7928  -30.7241   24.2327 H   0  0  0  0  0  0
  -17.5010  -31.6281   24.5168 H   0  0  0  0  0  0
  -15.5345  -30.2993   23.7614 H   0  0  0  0  0  0
  -15.8681  -28.0825   22.7044 H   0  0  0  0  0  0
  -24.5933  -30.6930   25.7691 H   0  0  0  0  0  0
  -24.8694  -32.2746   26.4862 H   0  0  0  0  0  0
  -25.7954  -30.8842   27.0222 H   0  0  0  0  0  0
  -26.2806  -29.6833   24.1146 H   0  0  0  0  0  0
  -27.3987  -29.7300   25.4601 H   0  0  0  0  0  0
  -27.8678  -30.4363   23.9292 H   0  0  0  0  0  0
  -27.2793  -33.3630   26.2065 H   0  0  0  0  0  0
  -28.3853  -32.6774   25.0255 H   0  0  0  0  0  0
  -28.0755  -31.8384   26.5336 H   0  0  0  0  0  0
  -28.2612  -38.0126   24.7520 H   0  0  0  0  0  0
  -28.1101  -36.2630   24.6295 H   0  0  0  0  0  0
  -27.2281  -37.1453   25.8863 H   0  0  0  0  0  0
  -20.9359  -29.8696   21.6887 H   0  0  0  0  0  0
  -26.0225  -38.2880   24.1399 H   0  0  0  0  0  0
  -30.5758  -20.8402   19.8422 H   0  0  0  0  0  0
  -31.9163  -16.8315   19.4294 H   0  0  0  0  0  0
  -32.7933  -20.3773   19.0280 H   0  0  0  0  0  0
  -32.3880  -19.2362   17.7407 H   0  0  0  0  0  0
  -33.4448  -18.7386   19.0675 H   0  0  0  0  0  0
  -27.7001  -18.1252   22.6822 H   0  0  0  0  0  0
  -27.9509  -16.4815   22.1720 H   0  0  0  0  0  0
  -26.9785  -17.5537   21.1747 H   0  0  0  0  0  0
  -28.5178  -20.7574   22.2565 H   0  0  0  0  0  0
  -27.2727  -19.9833   21.3366 H   0  0  0  0  0  0
  -28.1779  -24.6135   21.6705 H   0  0  0  0  0  0
  -26.9855  -24.0692   20.5393 H   0  0  0  0  0  0
  -29.4243  -22.7577   21.5115 H   0  0  0  0  0  0
  -29.6074  -22.9110   19.8008 H   0  0  0  0  0  0
  -28.0881  -25.2225   18.6823 H   0  0  0  0  0  0
  -29.6045  -25.2115   19.5098 H   0  0  0  0  0  0
  -28.9666  -15.3357   21.1717 H   0  0  0  0  0  0
  -27.0622  -21.9199   20.5747 H   0  0  0  0  0  0
  -28.0290  -21.3675   19.4111 H   0  0  0  0  0  0
  1 25  1  0  0  0
  1 30  2  0  0  0
  1 83  1  0  0  0
  2  3  1  0  0  0
  2 25  1  0  0  0
  2 85  1  0  0  0
  2 86  1  0  0  0
  3  4  1  0  0  0
  3 87  1  0  0  0
  3 88  1  0  0  0
  4  5  1  0  0  0
  4 89  1  0  0  0
  4 90  1  0  0  0
  5  6  1  0  0  0
  5 26  1  0  0  0
  5 91  1  0  0  0
  6 25  1  0  0  0
  6 92  1  0  0  0
  6 93  1  0  0  0
  7  8  2  0  0  0
  7 26  1  0  0  0
  7 29  1  0  0  0
  8  9  1  0  0  0
  8 22  1  0  0  0
  9 10  1  0  0  0
  9 27  2  0  0  0
 10 11  2  0  0  0
 10 15  1  0  0  0
 11 12  1  0  0  0
 11 94  1  0  0  0
 12 13  2  0  0  0
 12 95  1  0  0  0
 13 14  1  0  0  0
 13 31  1  0  0  0
 14 15  2  0  0  0
 14 96  1  0  0  0
 15 97  1  0  0  0
 16 17  2  0  0  0
 16 21  1  0  0  0
 16 31  1  0  0  0
 17 18  1  0  0  0
 17 98  1  0  0  0
 18 19  2  0  0  0
 18 99  1  0  0  0
 19 20  1  0  0  0
 19 24  1  0  0  0
 20 21  2  0  0  0
 20100  1  0  0  0
 21 23  1  0  0  0
 22 28  1  0  0  0
 22 32  2  0  0  0
 26 27  1  0  0  0
 28101  1  0  0  0
 28102  1  0  0  0
 29103  1  0  0  0
 29104  1  0  0  0
 33 34  1  0  0  0
 33 66  1  0  0  0
 33 70  2  0  0  0
 34 36  1  0  0  0
 34 59  1  0  0  0
 34105  1  0  0  0
 35 44  2  0  0  0
 35 45  1  0  0  0
 35 68  1  0  0  0
 36 56  1  0  0  0
 36106  1  0  0  0
 37 39  1  0  0  0
 37 47  1  0  0  0
 37 66  1  0  0  0
 37107  1  0  0  0
 38 43  2  0  0  0
 38 46  1  0  0  0
 38 47  1  0  0  0
 39 64  1  0  0  0
 39 67  2  0  0  0
 40 52  1  0  0  0
 40 53  2  0  0  0
 40 58  1  0  0  0
 41108  1  0  0  0
 41109  1  0  0  0
 41110  1  0  0  0
 41 48  1  0  0  0
 42 43  1  0  0  0
 42 66  1  0  0  0
 42111  1  0  0  0
 42112  1  0  0  0
 43 44  1  0  0  0
 44113  1  0  0  0
 45 46  2  0  0  0
 45114  1  0  0  0
 46115  1  0  0  0
 47116  1  0  0  0
 47117  1  0  0  0
 48 56  1  0  0  0
 48 65  1  0  0  0
 48118  1  0  0  0
 49 50  1  0  0  0
 49 53  1  0  0  0
 49 64  1  0  0  0
 49119  1  0  0  0
 50 51  1  0  0  0
 50120  1  0  0  0
 50121  1  0  0  0
 51 52  1  0  0  0
 51122  1  0  0  0
 51123  1  0  0  0
 52124  1  0  0  0
 52125  1  0  0  0
 53 54  1  0  0  0
 54 55  2  0  0  0
 54126  1  0  0  0
 55 57  1  0  0  0
 55127  1  0  0  0
 56 69  2  0  0  0
 57 58  2  0  0  0
 57128  1  0  0  0
 58129  1  0  0  0
 59 60  1  0  0  0
 59 61  1  0  0  0
 59 62  1  0  0  0
 60130  1  0  0  0
 60131  1  0  0  0
 60132  1  0  0  0
 61133  1  0  0  0
 61134  1  0  0  0
 61135  1  0  0  0
 62136  1  0  0  0
 62137  1  0  0  0
 62138  1  0  0  0
 63 65  1  0  0  0
 63139  1  0  0  0
 63140  1  0  0  0
 63141  1  0  0  0
 64142  1  0  0  0
 65143  1  0  0  0
 68 82  1  0  0  0
 71 73  2  0  0  0
 71 74  1  0  0  0
 71144  1  0  0  0
 72 73  1  0  0  0
 72 76  2  0  0  0
 72145  1  0  0  0
 73 77  1  0  0  0
 74 75  2  0  0  0
 74 79  1  0  0  0
 75 76  1  0  0  0
 75 78  1  0  0  0
 76 83  1  0  0  0
 77146  1  0  0  0
 77147  1  0  0  0
 77148  1  0  0  0
 78149  1  0  0  0
 78150  1  0  0  0
 78151  1  0  0  0
 79 84  1  0  0  0
 79152  1  0  0  0
 79153  1  0  0  0
 80 81  1  0  0  0
 80 82  1  0  0  0
 80154  1  0  0  0
 80155  1  0  0  0
 81 84  1  0  0  0
 81156  1  0  0  0
 81157  1  0  0  0
 82158  1  0  0  0
 82159  1  0  0  0
 83160  1  0  0  0
 84161  1  0  0  0
 84162  1  0  0  0
M  CHG  1  84   1
M  ISO  4   1 100  68 101  82 101  83 100
M  END
> <chiral flag>
0

> <version>
0

> <s_m_source_file>
/data/baiqing/PycharmProjects/Reinvent-master-3.2/result/LINK_invent/BTK/process_docking_weight1_custom_product_contain_oxygen_bond_distance_aromatic_linkinvent_7_9_3/rearranged_h_0039.sdf

> <i_m_source_file_index>
14

> <r_mmod_Potential_Energy-OPLS-2005>
-200.282165527344

> <r_mmod_Stretch_Energy-OPLS-2005>
52.1519317626953

> <r_mmod_Bend_Energy-OPLS-2005>
125.135925292969

> <r_mmod_Torsional_Energy-OPLS-2005>
230.748260498047

> <r_mmod_Improper_Torsional_Energy-OPLS-2005>
4.76189708709717

> <r_mmod_Van_der_Waal_Energy-OPLS-2005>
157.345260620117

> <r_mmod_Electrostatic_Energy-OPLS-2005>
-314.396820068359

> <r_mmod_Solvation_Energy-OPLS-2005>
-477.264068603516

> <b_mmod_Minimization_Converged-OPLS-2005>
0

> <r_mmod_RMS_Derivative-OPLS-2005>
2.81269884109497

$$$$
14
                    3D
 Structure written by MMmdl.
167176  0  0  1  0            999 V2000
  -29.0717  -15.9856   20.8130 C   0  0  0  0  0  0
  -30.1564  -13.5558   19.7592 C   0  0  0  0  0  0
  -29.5172  -12.8563   18.4906 C   0  0  0  0  0  0
  -28.1201  -12.2952   18.7950 C   0  0  0  0  0  0
  -27.4518  -13.2419   19.8018 C   0  0  2  0  0  0
  -28.2646  -13.5222   21.0575 C   0  0  0  0  0  0
  -25.1569  -13.8034   20.5405 C   0  0  0  0  0  0
  -24.1150  -13.0266   20.9341 C   0  0  0  0  0  0
  -24.5820  -11.6753   20.8805 C   0  0  0  0  0  0
  -23.8710  -10.4148   21.0515 C   0  0  0  0  0  0
  -24.3428   -9.4082   21.9222 C   0  0  0  0  0  0
  -23.6174   -8.2087   22.0742 C   0  0  0  0  0  0
  -22.4160   -8.0131   21.3533 C   0  0  0  0  0  0
  -21.9732   -9.0064   20.4640 C   0  0  0  0  0  0
  -22.6967  -10.1973   20.3079 C   0  0  0  0  0  0
  -21.6793   -6.0644   22.5300 C   0  0  0  0  0  0
  -21.3963   -6.5574   23.8226 C   0  0  0  0  0  0
  -21.3647   -5.6746   24.9199 C   0  0  0  0  0  0
  -21.6044   -4.3011   24.7263 C   0  0  0  0  0  0
  -21.8820   -3.8085   23.4391 C   0  0  0  0  0  0
  -21.9167   -4.6883   22.3436 C   0  0  0  0  0  0
  -22.7300  -13.5113   21.2110 C   0  0  0  0  0  0
  -22.1645   -4.2072   21.1014 F   0  0  0  0  0  0
  -21.5654   -3.4510   25.7789 F   0  0  0  0  0  0
  -29.1741  -14.5034   20.5668 N   0  0  0  0  0  0
  -26.1548  -12.9058   20.2380 N   0  0  0  0  0  0
  -25.8547  -11.6276   20.5310 N   0  0  0  0  0  0
  -22.0031  -12.8123   22.0716 N   0  0  0  0  0  0
  -25.3311  -15.1794   20.3750 N   0  0  0  0  0  0
  -30.3138  -16.2251   20.5875 O   0  0  0  0  0  0
  -21.6542   -6.8741   21.4242 O   0  0  0  0  0  0
  -22.3067  -14.5424   20.6905 O   0  0  0  0  0  0
  -24.7679  -32.0166   23.1839 C   0  0  0  0  0  0
  -26.0214  -32.5624   23.8805 C   0  0  1  0  0  0
  -25.4754  -27.4364   20.6892 C   0  0  0  0  0  0
  -25.6730  -33.9209   24.2790 N   0  0  0  0  0  0
  -23.8281  -30.4379   21.6272 C   0  0  2  0  0  0
  -25.1544  -29.5622   19.5714 C   0  0  0  0  0  0
  -23.9795  -29.2147   22.7673 C   0  0  0  0  0  0
  -18.4234  -27.3834   22.6670 C   0  0  0  0  0  0
  -24.1512  -36.7504   23.2548 C   0  0  0  0  0  0
  -26.2071  -30.9433   21.4011 C   0  0  0  0  0  0
  -26.1234  -29.6696   20.5693 C   0  0  0  0  0  0
  -26.4462  -28.4265   21.0948 C   0  0  0  0  0  0
  -25.7174  -27.2053   19.3456 C   0  0  0  0  0  0
  -25.1046  -28.3512   18.7885 C   0  0  0  0  0  0
  -23.9487  -30.3150   20.0203 C   0  0  0  0  0  0
  -25.4117  -36.3432   24.0329 C   0  0  1  0  0  0
  -22.1043  -27.2402   22.8707 C   0  0  2  0  0  0
  -22.0752  -25.6996   21.4966 C   0  0  0  0  0  0
  -20.1593  -25.0812   21.0272 C   0  0  0  0  0  0
  -18.5748  -25.9644   21.6911 C   0  0  0  0  0  0
  -19.6555  -28.0806   23.2077 C   0  0  0  0  0  0
  -19.1173  -29.4159   23.7900 C   0  0  0  0  0  0
  -17.8334  -30.0109   23.8817 C   0  0  0  0  0  0
  -25.9205  -34.9891   23.5184 C   0  0  0  0  0  0
  -16.7769  -29.2751   23.3865 C   0  0  0  0  0  0
  -17.0938  -28.0105   22.8041 C   0  0  0  0  0  0
  -26.5091  -31.7064   25.1130 C   0  0  0  0  0  0
  -25.4040  -31.3997   26.1559 C   0  0  0  0  0  0
  -27.2139  -30.3924   24.6796 C   0  0  0  0  0  0
  -27.6181  -32.4953   25.8399 C   0  0  0  0  0  0
  -27.5614  -37.1991   24.8463 C   0  0  0  0  0  0
  -23.3794  -28.0280   23.0256 N   0  0  0  0  0  0
  -26.4298  -37.4096   23.9459 N   0  0  0  0  0  0
  -24.9256  -31.2601   22.0646 N   0  0  0  0  0  0
  -24.4650  -29.3412   23.8362 O   0  0  0  0  0  0
  -23.9204  -27.5345   20.6704 O   0  0  0  0  0  0
  -26.5432  -34.9247   22.4549 O   0  0  0  0  0  0
  -23.6532  -32.2324   23.6961 O   0  0  0  0  0  0
  -23.9115  -19.5495   21.2579 C   0  0  0  0  0  0
  -25.0939  -20.0352   21.8708 C   0  0  0  0  0  0
  -22.0850  -21.3870   21.8558 C   0  0  0  0  0  0
  -22.8592  -22.4037   22.5442 C   0  0  0  0  0  0
  -22.5894  -20.1452   21.2509 C   0  0  0  0  0  0
  -24.3948  -21.5358   22.4898 C   0  0  0  0  0  0
  -20.8526  -26.8037   24.8567 C   0  0  0  0  0  0
  -20.5986  -26.2565   26.0536 C   0  0  0  0  0  0
  -21.4628  -28.6406   24.6237 C   0  0  0  0  0  0
  -21.4781  -29.5219   22.6223 C   0  0  0  0  0  0
  -20.5876  -27.3577   21.2388 C   0  0  0  0  0  0
  -22.1118  -28.4525   20.9356 C   0  0  2  0  0  0
  -20.5662  -21.5630   21.7858 C   0  0  0  0  0  0
  -26.8190  -18.7978   21.6354 C   0  0  0  0  0  0
  -21.7309  -24.0474   23.3609 C   0  0  0  0  0  0
  -27.7353  -17.0374   21.1760 N   0  0  0  0  0  0
  -20.5500  -25.7412   23.2330 N   0  3  1  0  0  0
  -21.4584  -19.1618   20.3795 Cl  0  0  0  0  0  0
  -25.6004  -22.4328   23.3355 Cl  0  0  0  0  0  0
  -31.0127  -14.1419   19.4238 H   0  0  0  0  0  0
  -30.5915  -12.8132   20.4295 H   0  0  0  0  0  0
  -30.1738  -12.0829   18.0909 H   0  0  0  0  0  0
  -29.4183  -13.6065   17.7045 H   0  0  0  0  0  0
  -28.2034  -11.2946   19.2199 H   0  0  0  0  0  0
  -27.5308  -12.2050   17.8808 H   0  0  0  0  0  0
  -27.3136  -14.1531   19.2138 H   0  0  0  0  0  0
  -28.7130  -12.6364   21.5106 H   0  0  0  0  0  0
  -27.6604  -13.9973   21.8329 H   0  0  0  0  0  0
  -25.2588   -9.5561   22.4765 H   0  0  0  0  0  0
  -23.9900   -7.4449   22.7417 H   0  0  0  0  0  0
  -21.0672   -8.8500   19.8961 H   0  0  0  0  0  0
  -22.3401  -10.9481   19.6167 H   0  0  0  0  0  0
  -21.1926   -7.6077   23.9714 H   0  0  0  0  0  0
  -21.1485   -6.0481   25.9105 H   0  0  0  0  0  0
  -22.0623   -2.7545   23.2912 H   0  0  0  0  0  0
  -22.3675  -11.9724   22.4970 H   0  0  0  0  0  0
  -21.0670  -13.1141   22.3019 H   0  0  0  0  0  0
  -24.4516  -15.6866   20.3885 H   0  0  0  0  0  0
  -25.8672  -15.4426   19.5569 H   0  0  0  0  0  0
  -26.8596  -32.6298   23.1890 H   0  0  0  0  0  0
  -25.1163  -34.0307   25.1135 H   0  0  0  0  0  0
  -23.0093  -31.1453   21.6481 H   0  0  0  0  0  0
  -23.3835  -35.9773   23.3197 H   0  0  0  0  0  0
  -24.3648  -36.9107   22.1966 H   0  0  0  0  0  0
  -23.7168  -37.6689   23.6511 H   0  0  0  0  0  0
  -26.4745  -31.7716   20.7439 H   0  0  0  0  0  0
  -27.0418  -30.8227   22.0850 H   0  0  0  0  0  0
  -26.9552  -28.3469   22.0448 H   0  0  0  0  0  0
  -25.3857  -26.2867   18.8820 H   0  0  0  0  0  0
  -24.3978  -28.2269   17.9803 H   0  0  0  0  0  0
  -24.1467  -31.3321   19.6740 H   0  0  0  0  0  0
  -23.0890  -30.1413   19.3934 H   0  0  0  0  0  0
  -25.1225  -36.2322   25.0807 H   0  0  0  0  0  0
  -22.6647  -26.6474   23.6126 H   0  0  0  0  0  0
  -22.8785  -24.9714   21.6010 H   0  0  0  0  0  0
  -22.4105  -25.9634   20.4948 H   0  0  0  0  0  0
  -20.0506  -24.0437   21.3098 H   0  0  0  0  0  0
  -20.0767  -24.9833   19.9432 H   0  0  0  0  0  0
  -17.9685  -26.1701   20.8089 H   0  0  0  0  0  0
  -17.9901  -25.2050   22.2094 H   0  0  0  0  0  0
  -19.7658  -30.1918   24.1601 H   0  0  0  0  0  0
  -17.6865  -30.9921   24.3118 H   0  0  0  0  0  0
  -15.7625  -29.6526   23.4122 H   0  0  0  0  0  0
  -16.2617  -27.4699   22.3750 H   0  0  0  0  0  0
  -24.5934  -30.7890   25.7686 H   0  0  0  0  0  0
  -24.9520  -32.3169   26.5338 H   0  0  0  0  0  0
  -25.8090  -30.8688   27.0178 H   0  0  0  0  0  0
  -26.6801  -29.7629   23.9890 H   0  0  0  0  0  0
  -27.4521  -29.7725   25.5450 H   0  0  0  0  0  0
  -28.1631  -30.6086   24.1868 H   0  0  0  0  0  0
  -27.2386  -33.4012   26.3136 H   0  0  0  0  0  0
  -28.4113  -32.7991   25.1554 H   0  0  0  0  0  0
  -28.0816  -31.9042   26.6313 H   0  0  0  0  0  0
  -28.2592  -38.0338   24.7647 H   0  0  0  0  0  0
  -28.1171  -36.2892   24.6126 H   0  0  0  0  0  0
  -27.2357  -37.1452   25.8869 H   0  0  0  0  0  0
  -23.8936  -27.6612   23.8134 H   0  0  0  0  0  0
  -26.0215  -38.3165   24.1570 H   0  0  0  0  0  0
  -24.0160  -18.6077   20.7392 H   0  0  0  0  0  0
  -20.7395  -26.8277   26.9595 H   0  0  0  0  0  0
  -20.2418  -25.2419   26.1552 H   0  0  0  0  0  0
  -22.4381  -28.6879   25.1078 H   0  0  0  0  0  0
  -20.9677  -29.2377   25.3892 H   0  0  0  0  0  0
  -21.8056  -30.5052   22.9273 H   0  0  0  0  0  0
  -20.6070  -29.9837   22.1545 H   0  0  0  0  0  0
  -20.5410  -27.0437   20.1863 H   0  0  0  0  0  0
  -19.7911  -28.0613   20.9639 H   0  0  0  0  0  0
  -21.7689  -28.9087   20.0174 H   0  0  0  0  0  0
  -20.1617  -22.2358   22.5340 H   0  0  0  0  0  0
  -20.0432  -20.6274   21.9844 H   0  0  0  0  0  0
  -20.2568  -21.8992   20.7959 H   0  0  0  0  0  0
  -27.2533  -18.9624   22.6219 H   0  0  0  0  0  0
  -27.4107  -19.4520   20.9928 H   0  0  0  0  0  0
  -22.5244  -24.4434   23.9925 H   0  0  0  0  0  0
  -21.1337  -23.4967   24.0852 H   0  0  0  0  0  0
  -26.9671  -16.3701   21.1944 H   0  0  0  0  0  0
  -19.6007  -25.3998   23.2455 H   0  0  0  0  0  0
  1 25  1  0  0  0
  1 30  2  0  0  0
  1 86  1  0  0  0
  2  3  1  0  0  0
  2 25  1  0  0  0
  2 90  1  0  0  0
  2 91  1  0  0  0
  3  4  1  0  0  0
  3 92  1  0  0  0
  3 93  1  0  0  0
  4  5  1  0  0  0
  4 94  1  0  0  0
  4 95  1  0  0  0
  5  6  1  0  0  0
  5 26  1  0  0  0
  5 96  1  0  0  0
  6 25  1  0  0  0
  6 97  1  0  0  0
  6 98  1  0  0  0
  7  8  2  0  0  0
  7 26  1  0  0  0
  7 29  1  0  0  0
  8  9  1  0  0  0
  8 22  1  0  0  0
  9 10  1  0  0  0
  9 27  2  0  0  0
 10 11  2  0  0  0
 10 15  1  0  0  0
 11 12  1  0  0  0
 11 99  1  0  0  0
 12 13  2  0  0  0
 12100  1  0  0  0
 13 14  1  0  0  0
 13 31  1  0  0  0
 14 15  2  0  0  0
 14101  1  0  0  0
 15102  1  0  0  0
 16 17  2  0  0  0
 16 21  1  0  0  0
 16 31  1  0  0  0
 17 18  1  0  0  0
 17103  1  0  0  0
 18 19  2  0  0  0
 18104  1  0  0  0
 19 20  1  0  0  0
 19 24  1  0  0  0
 20 21  2  0  0  0
 20105  1  0  0  0
 21 23  1  0  0  0
 22 28  1  0  0  0
 22 32  2  0  0  0
 26 27  1  0  0  0
 28106  1  0  0  0
 28107  1  0  0  0
 29108  1  0  0  0
 29109  1  0  0  0
 33 34  1  0  0  0
 33 66  1  0  0  0
 33 70  2  0  0  0
 34 36  1  0  0  0
 34 59  1  0  0  0
 34110  1  0  0  0
 35 44  2  0  0  0
 35 45  1  0  0  0
 35 68  1  0  0  0
 36 56  1  0  0  0
 36111  1  0  0  0
 37 39  1  0  0  0
 37 47  1  0  0  0
 37 66  1  0  0  0
 37112  1  0  0  0
 38 43  2  0  0  0
 38 46  1  0  0  0
 38 47  1  0  0  0
 39 64  1  0  0  0
 39 67  2  0  0  0
 40 52  1  0  0  0
 40 53  2  0  0  0
 40 58  1  0  0  0
 41113  1  0  0  0
 41114  1  0  0  0
 41115  1  0  0  0
 41 48  1  0  0  0
 42 43  1  0  0  0
 42 66  1  0  0  0
 42116  1  0  0  0
 42117  1  0  0  0
 43 44  1  0  0  0
 44118  1  0  0  0
 45 46  2  0  0  0
 45119  1  0  0  0
 46120  1  0  0  0
 47121  1  0  0  0
 47122  1  0  0  0
 48 56  1  0  0  0
 48 65  1  0  0  0
 48123  1  0  0  0
 49 50  1  0  0  0
 49 53  1  0  0  0
 49 64  1  0  0  0
 49124  1  0  0  0
 50 51  1  0  0  0
 50125  1  0  0  0
 50126  1  0  0  0
 51 52  1  0  0  0
 51127  1  0  0  0
 51128  1  0  0  0
 52129  1  0  0  0
 52130  1  0  0  0
 53 54  1  0  0  0
 54 55  2  0  0  0
 54131  1  0  0  0
 55 57  1  0  0  0
 55132  1  0  0  0
 56 69  2  0  0  0
 57 58  2  0  0  0
 57133  1  0  0  0
 58134  1  0  0  0
 59 60  1  0  0  0
 59 61  1  0  0  0
 59 62  1  0  0  0
 60135  1  0  0  0
 60136  1  0  0  0
 60137  1  0  0  0
 61138  1  0  0  0
 61139  1  0  0  0
 61140  1  0  0  0
 62141  1  0  0  0
 62142  1  0  0  0
 62143  1  0  0  0
 63 65  1  0  0  0
 63144  1  0  0  0
 63145  1  0  0  0
 63146  1  0  0  0
 64147  1  0  0  0
 65148  1  0  0  0
 68 82  1  0  0  0
 71 72  2  0  0  0
 71 75  1  0  0  0
 71149  1  0  0  0
 72 76  1  0  0  0
 72 84  1  0  0  0
 73 74  1  0  0  0
 73 75  2  0  0  0
 73 83  1  0  0  0
 74 76  2  0  0  0
 74 85  1  0  0  0
 75 88  1  0  0  0
 76 89  1  0  0  0
 77 78  2  0  0  0
 77 79  1  0  0  0
 77 87  1  0  0  0
 78150  1  0  0  0
 78151  1  0  0  0
 79 80  1  0  0  0
 79152  1  0  0  0
 79153  1  0  0  0
 80 82  1  0  0  0
 80154  1  0  0  0
 80155  1  0  0  0
 81 82  1  0  0  0
 81 87  1  0  0  0
 81156  1  0  0  0
 81157  1  0  0  0
 82158  1  0  0  0
 83159  1  0  0  0
 83160  1  0  0  0
 83161  1  0  0  0
 84 86  1  0  0  0
 84162  1  0  0  0
 84163  1  0  0  0
 85164  1  0  0  0
 85165  1  0  0  0
 85 87  1  0  0  0
 86166  1  0  0  0
 87167  1  0  0  0
M  CHG  1  87   1
M  ISO  4   1 100  68 101  82 101  86 100
M  END
> <chiral flag>
0

> <version>
0

> <s_m_source_file>
/data/baiqing/PycharmProjects/Reinvent-master-3.2/result/LINK_invent/BTK/process_docking_weight1_custom_product_contain_oxygen_bond_distance_aromatic_linkinvent_7_9_3/rearranged_h_0039.sdf

> <i_m_source_file_index>
15

> <r_mmod_Potential_Energy-OPLS-2005>
22241.150390625

> <r_mmod_Stretch_Energy-OPLS-2005>
9745.33984375

> <r_mmod_Bend_Energy-OPLS-2005>
2119.30078125

> <r_mmod_Torsional_Energy-OPLS-2005>
603.959411621094

> <r_mmod_Improper_Torsional_Energy-OPLS-2005>
77.2830810546875

> <r_mmod_Van_der_Waal_Energy-OPLS-2005>
3475.59912109375

> <r_mmod_Electrostatic_Energy-OPLS-2005>
-357.545104980469

> <r_mmod_Solvation_Energy-OPLS-2005>
-393.292694091797

> <b_mmod_Minimization_Converged-OPLS-2005>
0

> <r_mmod_RMS_Derivative-OPLS-2005>
4.2360053062439

$$$$
15
                    3D
 Structure written by MMmdl.
169178  0  0  1  0            999 V2000
  -30.4798  -14.9175   20.4079 C   0  0  0  0  0  0
  -30.4494  -12.5547   19.4719 C   0  0  0  0  0  0
  -29.5165  -12.4930   18.2362 C   0  0  0  0  0  0
  -28.0413  -12.3100   18.6498 C   0  0  0  0  0  0
  -27.6285  -13.2299   19.8280 C   0  0  2  0  0  0
  -28.6763  -13.2114   20.9571 C   0  0  0  0  0  0
  -25.2476  -13.8186   20.5705 C   0  0  0  0  0  0
  -24.1767  -13.0449   20.9249 C   0  0  0  0  0  0
  -24.6348  -11.6925   20.8763 C   0  0  0  0  0  0
  -23.9063  -10.4292   21.0389 C   0  0  0  0  0  0
  -24.3623   -9.4190   21.9157 C   0  0  0  0  0  0
  -23.6285   -8.2238   22.0727 C   0  0  0  0  0  0
  -22.4274   -8.0265   21.3522 C   0  0  0  0  0  0
  -21.9896   -9.0256   20.4665 C   0  0  0  0  0  0
  -22.7227  -10.2139   20.3049 C   0  0  0  0  0  0
  -21.6856   -6.0719   22.5285 C   0  0  0  0  0  0
  -21.4034   -6.5629   23.8217 C   0  0  0  0  0  0
  -21.3645   -5.6777   24.9164 C   0  0  0  0  0  0
  -21.6020   -4.3039   24.7220 C   0  0  0  0  0  0
  -21.8831   -3.8140   23.4341 C   0  0  0  0  0  0
  -21.9213   -4.6954   22.3396 C   0  0  0  0  0  0
  -22.7787  -13.5218   21.1909 C   0  0  0  0  0  0
  -22.1671   -4.2138   21.0976 F   0  0  0  0  0  0
  -21.5616   -3.4524   25.7730 F   0  0  0  0  0  0
  -29.9413  -13.6382   20.3513 N   0  0  0  0  0  0
  -26.2864  -12.9377   20.3202 N   0  0  0  0  0  0
  -25.9271  -11.6537   20.5733 N   0  0  0  0  0  0
  -22.0493  -12.8177   22.0479 N   0  0  0  0  0  0
  -25.4142  -15.1918   20.4122 N   0  0  0  0  0  0
  -31.6979  -15.0370   20.2392 O   0  0  0  0  0  0
  -21.6622   -6.8865   21.4237 O   0  0  0  0  0  0
  -22.3439  -14.5506   20.6756 O   0  0  0  0  0  0
  -24.6212  -31.8501   23.1925 C   0  0  0  0  0  0
  -25.9019  -32.4769   23.8325 C   0  0  1  0  0  0
  -27.5630  -27.0737   20.2951 C   0  0  0  0  0  0
  -25.5817  -33.8566   24.2227 N   0  0  0  0  0  0
  -23.4344  -30.4430   21.5261 C   0  0  2  0  0  0
  -24.8444  -28.7884   20.1140 C   0  0  0  0  0  0
  -22.7449  -29.4520   22.4899 C   0  0  0  0  0  0
  -18.0285  -28.1374   22.8515 C   0  0  0  0  0  0
  -24.1461  -36.7277   23.2661 C   0  0  0  0  0  0
  -25.9682  -30.7303   21.4124 C   0  0  0  0  0  0
  -26.0824  -29.2979   20.9170 C   0  0  0  0  0  0
  -27.4493  -28.5029   21.0538 C   0  0  0  0  0  0
  -26.1063  -26.4577   19.2888 C   0  0  0  0  0  0
  -24.8036  -27.4275   19.3070 C   0  0  0  0  0  0
  -23.6563  -29.7378   20.1465 C   0  0  0  0  0  0
  -25.4116  -36.3064   24.0328 C   0  0  1  0  0  0
  -20.5893  -28.3695   23.1292 C   0  0  2  0  0  0
  -20.6776  -26.9395   22.5452 C   0  0  0  0  0  0
  -19.5762  -26.6383   21.5249 C   0  0  0  0  0  0
  -18.1926  -26.7917   22.1645 C   0  0  0  0  0  0
  -19.1536  -28.8857   23.2907 C   0  0  0  0  0  0
  -18.9477  -30.1453   23.8921 C   0  0  0  0  0  0
  -17.6478  -30.6585   24.0591 C   0  0  0  0  0  0
  -25.9047  -34.9439   23.5112 C   0  0  0  0  0  0
  -16.5365  -29.9104   23.6317 C   0  0  0  0  0  0
  -16.7272  -28.6517   23.0341 C   0  0  0  0  0  0
  -26.4470  -31.6617   25.0677 C   0  0  0  0  0  0
  -25.3778  -31.3817   26.1468 C   0  0  0  0  0  0
  -27.0304  -30.3028   24.6129 C   0  0  0  0  0  0
  -27.6070  -32.4379   25.7361 C   0  0  0  0  0  0
  -27.5574  -37.1783   24.8477 C   0  0  0  0  0  0
  -21.4151  -29.2981   22.3590 N   0  0  0  0  0  0
  -26.4286  -37.3775   23.9409 N   0  0  0  0  0  0
  -24.6888  -31.0363   22.0964 N   0  0  0  0  0  0
  -23.4086  -28.8199   23.3137 O   0  0  0  0  0  0
  -28.6314  -26.4067   19.8468 O   0  0  0  0  0  0
  -26.5643  -34.8913   22.4685 O   0  0  0  0  0  0
  -23.5364  -32.1379   23.7123 O   0  0  0  0  0  0
  -29.7360  -20.2616   18.0313 C   0  0  0  0  0  0
  -29.4358  -18.9564   20.0938 C   0  0  0  0  0  0
  -28.8620  -21.5768   19.9697 C   0  0  0  0  0  0
  -29.8126  -19.0367   18.7325 C   0  0  0  0  0  0
  -29.2709  -21.4738   18.6006 C   0  0  0  0  0  0
  -28.9689  -20.2556   20.6688 C   0  0  0  0  0  0
  -26.8825  -28.4870   18.7512 C   0  0  0  0  0  0
  -25.7072  -26.8916   21.4417 C   0  0  0  0  0  0
  -28.3156  -27.4065   18.0640 C   0  0  0  0  0  0
  -26.5867  -25.1147   21.4272 C   0  0  2  0  0  0
  -28.8964  -25.5588   19.2745 C   0  0  2  0  0  0
  -26.8002  -24.6665   22.8930 C   0  0  0  0  0  0
  -29.6515  -17.5399   20.9245 C   0  0  0  0  0  0
  -28.4446  -23.0140   20.7482 C   0  0  0  0  0  0
  -28.2421  -25.6547   18.3425 C   0  0  0  0  0  0
  -29.5948  -16.0264   20.4709 N   0  0  0  0  0  0
  -27.8304  -24.4626   20.3247 N   0  3  1  0  0  0
  -30.3841  -17.6466   17.8736 Cl  0  0  0  0  0  0
  -29.2541  -22.8007   17.5101 Cl  0  0  0  0  0  0
  -28.5112  -20.2244   22.3403 Cl  0  0  0  0  0  0
  -31.4772  -12.7379   19.1567 H   0  0  0  0  0  0
  -30.4617  -11.5958   19.9919 H   0  0  0  0  0  0
  -29.8105  -11.6717   17.5781 H   0  0  0  0  0  0
  -29.6238  -13.4043   17.6505 H   0  0  0  0  0  0
  -27.9097  -11.2697   18.9338 H   0  0  0  0  0  0
  -27.3834  -12.4672   17.7928 H   0  0  0  0  0  0
  -27.5987  -14.2374   19.4126 H   0  0  0  0  0  0
  -28.7618  -12.2156   21.3972 H   0  0  0  0  0  0
  -28.3894  -13.8807   21.7715 H   0  0  0  0  0  0
  -25.2789   -9.5630   22.4700 H   0  0  0  0  0  0
  -24.0015   -7.4591   22.7394 H   0  0  0  0  0  0
  -21.0845   -8.8776   19.8958 H   0  0  0  0  0  0
  -22.3690  -10.9668   19.6155 H   0  0  0  0  0  0
  -21.2045   -7.6151   23.9723 H   0  0  0  0  0  0
  -21.1431   -6.0497   25.9067 H   0  0  0  0  0  0
  -22.0628   -2.7609   23.2841 H   0  0  0  0  0  0
  -22.4196  -11.9861   22.4826 H   0  0  0  0  0  0
  -21.1111  -13.1127   22.2784 H   0  0  0  0  0  0
  -24.6372  -15.8372   20.5058 H   0  0  0  0  0  0
  -26.2404  -15.6321   20.0301 H   0  0  0  0  0  0
  -26.7080  -32.5517   23.1110 H   0  0  0  0  0  0
  -24.9885  -33.9728   25.0310 H   0  0  0  0  0  0
  -22.7392  -31.2658   21.3583 H   0  0  0  0  0  0
  -23.3718  -35.9610   23.3368 H   0  0  0  0  0  0
  -24.3553  -36.8865   22.2063 H   0  0  0  0  0  0
  -23.7200  -37.6473   23.6676 H   0  0  0  0  0  0
  -26.0642  -31.3951   20.5522 H   0  0  0  0  0  0
  -26.8602  -30.8867   22.0044 H   0  0  0  0  0  0
  -28.3126  -28.9592   21.5148 H   0  0  0  0  0  0
  -25.9556  -25.5615   18.7078 H   0  0  0  0  0  0
  -23.9152  -27.1344   18.7634 H   0  0  0  0  0  0
  -23.8192  -30.4979   19.3793 H   0  0  0  0  0  0
  -22.7582  -29.1944   19.8410 H   0  0  0  0  0  0
  -25.1301  -36.1920   25.0819 H   0  0  0  0  0  0
  -21.0046  -28.3308   24.1396 H   0  0  0  0  0  0
  -20.5713  -26.2287   23.3642 H   0  0  0  0  0  0
  -21.6637  -26.7412   22.1209 H   0  0  0  0  0  0
  -19.6925  -25.6312   21.1219 H   0  0  0  0  0  0
  -19.6706  -27.3256   20.6831 H   0  0  0  0  0  0
  -17.4179  -26.6668   21.4031 H   0  0  0  0  0  0
  -18.0305  -26.0058   22.9058 H   0  0  0  0  0  0
  -19.7959  -30.7273   24.2262 H   0  0  0  0  0  0
  -17.5042  -31.6285   24.5181 H   0  0  0  0  0  0
  -15.5366  -30.3067   23.7611 H   0  0  0  0  0  0
  -15.8642  -28.0890   22.7029 H   0  0  0  0  0  0
  -24.5872  -30.7231   25.7859 H   0  0  0  0  0  0
  -24.9100  -32.3026   26.4949 H   0  0  0  0  0  0
  -25.8181  -30.8977   27.0193 H   0  0  0  0  0  0
  -26.2898  -29.6767   24.1143 H   0  0  0  0  0  0
  -27.3995  -29.7264   25.4626 H   0  0  0  0  0  0
  -27.8771  -30.4301   23.9371 H   0  0  0  0  0  0
  -27.2708  -33.3729   26.1856 H   0  0  0  0  0  0
  -28.3874  -32.6897   25.0150 H   0  0  0  0  0  0
  -28.0782  -31.8583   26.5305 H   0  0  0  0  0  0
  -28.2587  -38.0074   24.7526 H   0  0  0  0  0  0
  -28.1058  -36.2596   24.6325 H   0  0  0  0  0  0
  -27.2308  -37.1493   25.8885 H   0  0  0  0  0  0
  -20.9292  -29.8623   21.6725 H   0  0  0  0  0  0
  -26.0171  -38.2840   24.1454 H   0  0  0  0  0  0
  -30.0701  -20.2708   16.9975 H   0  0  0  0  0  0
  -27.2823  -29.5092   18.8451 H   0  0  0  0  0  0
  -26.2239  -28.6231   17.8823 H   0  0  0  0  0  0
  -24.6357  -26.7033   21.5467 H   0  0  0  0  0  0
  -25.9289  -27.3143   22.4312 H   0  0  0  0  0  0
  -29.1865  -28.0670   18.0930 H   0  0  0  0  0  0
  -28.1728  -27.3343   16.9695 H   0  0  0  0  0  0
  -25.7625  -24.4671   21.1222 H   0  0  0  0  0  0
  -29.8685  -25.0161   19.0587 H   0  0  0  0  0  0
  -27.6087  -25.2050   23.3849 H   0  0  0  0  0  0
  -26.9858  -23.6002   23.0116 H   0  0  0  0  0  0
  -25.8843  -24.8357   23.4613 H   0  0  0  0  0  0
  -28.8427  -17.5664   21.6580 H   0  0  0  0  0  0
  -30.5578  -17.6540   21.5169 H   0  0  0  0  0  0
  -29.2541  -23.2003   21.4583 H   0  0  0  0  0  0
  -27.6247  -22.5976   21.3230 H   0  0  0  0  0  0
  -28.9764  -25.4824   17.5179 H   0  0  0  0  0  0
  -27.6725  -24.7344   18.2118 H   0  0  0  0  0  0
  -28.6416  -15.6978   20.4291 H   0  0  0  0  0  0
  -27.2009  -24.1496   19.6070 H   0  0  0  0  0  0
  1 25  1  0  0  0
  1 30  2  0  0  0
  1 86  1  0  0  0
  2  3  1  0  0  0
  2 25  1  0  0  0
  2 91  1  0  0  0
  2 92  1  0  0  0
  3  4  1  0  0  0
  3 93  1  0  0  0
  3 94  1  0  0  0
  4  5  1  0  0  0
  4 95  1  0  0  0
  4 96  1  0  0  0
  5  6  1  0  0  0
  5 26  1  0  0  0
  5 97  1  0  0  0
  6 25  1  0  0  0
  6 98  1  0  0  0
  6 99  1  0  0  0
  7  8  2  0  0  0
  7 26  1  0  0  0
  7 29  1  0  0  0
  8  9  1  0  0  0
  8 22  1  0  0  0
  9 10  1  0  0  0
  9 27  2  0  0  0
 10 11  2  0  0  0
 10 15  1  0  0  0
 11 12  1  0  0  0
 11100  1  0  0  0
 12 13  2  0  0  0
 12101  1  0  0  0
 13 14  1  0  0  0
 13 31  1  0  0  0
 14 15  2  0  0  0
 14102  1  0  0  0
 15103  1  0  0  0
 16 17  2  0  0  0
 16 21  1  0  0  0
 16 31  1  0  0  0
 17 18  1  0  0  0
 17104  1  0  0  0
 18 19  2  0  0  0
 18105  1  0  0  0
 19 20  1  0  0  0
 19 24  1  0  0  0
 20 21  2  0  0  0
 20106  1  0  0  0
 21 23  1  0  0  0
 22 28  1  0  0  0
 22 32  2  0  0  0
 26 27  1  0  0  0
 28107  1  0  0  0
 28108  1  0  0  0
 29109  1  0  0  0
 29110  1  0  0  0
 33 34  1  0  0  0
 33 66  1  0  0  0
 33 70  2  0  0  0
 34 36  1  0  0  0
 34 59  1  0  0  0
 34111  1  0  0  0
 35 44  2  0  0  0
 35 45  1  0  0  0
 35 68  1  0  0  0
 36 56  1  0  0  0
 36112  1  0  0  0
 37 39  1  0  0  0
 37 47  1  0  0  0
 37 66  1  0  0  0
 37113  1  0  0  0
 38 43  2  0  0  0
 38 46  1  0  0  0
 38 47  1  0  0  0
 39 64  1  0  0  0
 39 67  2  0  0  0
 40 52  1  0  0  0
 40 53  2  0  0  0
 40 58  1  0  0  0
 41114  1  0  0  0
 41115  1  0  0  0
 41116  1  0  0  0
 41 48  1  0  0  0
 42 43  1  0  0  0
 42 66  1  0  0  0
 42117  1  0  0  0
 42118  1  0  0  0
 43 44  1  0  0  0
 44119  1  0  0  0
 45 46  2  0  0  0
 45120  1  0  0  0
 46121  1  0  0  0
 47122  1  0  0  0
 47123  1  0  0  0
 48 56  1  0  0  0
 48 65  1  0  0  0
 48124  1  0  0  0
 49 50  1  0  0  0
 49 53  1  0  0  0
 49 64  1  0  0  0
 49125  1  0  0  0
 50 51  1  0  0  0
 50126  1  0  0  0
 50127  1  0  0  0
 51 52  1  0  0  0
 51128  1  0  0  0
 51129  1  0  0  0
 52130  1  0  0  0
 52131  1  0  0  0
 53 54  1  0  0  0
 54 55  2  0  0  0
 54132  1  0  0  0
 55 57  1  0  0  0
 55133  1  0  0  0
 56 69  2  0  0  0
 57 58  2  0  0  0
 57134  1  0  0  0
 58135  1  0  0  0
 59 60  1  0  0  0
 59 61  1  0  0  0
 59 62  1  0  0  0
 60136  1  0  0  0
 60137  1  0  0  0
 60138  1  0  0  0
 61139  1  0  0  0
 61140  1  0  0  0
 61141  1  0  0  0
 62142  1  0  0  0
 62143  1  0  0  0
 62144  1  0  0  0
 63 65  1  0  0  0
 63145  1  0  0  0
 63146  1  0  0  0
 63147  1  0  0  0
 64148  1  0  0  0
 65149  1  0  0  0
 68 85  1  0  0  0
 71 74  2  0  0  0
 71 75  1  0  0  0
 71150  1  0  0  0
 72 74  1  0  0  0
 72 76  2  0  0  0
 72 83  1  0  0  0
 73 75  2  0  0  0
 73 76  1  0  0  0
 73 84  1  0  0  0
 74 88  1  0  0  0
 75 89  1  0  0  0
 76 90  1  0  0  0
 77 78  1  0  0  0
 77 79  1  0  0  0
 77151  1  0  0  0
 77152  1  0  0  0
 78 80  1  0  0  0
 78153  1  0  0  0
 78154  1  0  0  0
 79 81  1  0  0  0
 79155  1  0  0  0
 79156  1  0  0  0
 80 82  1  0  0  0
 80 87  1  0  0  0
 80157  1  0  0  0
 81 85  1  0  0  0
 81 87  1  0  0  0
 81158  1  0  0  0
 82159  1  0  0  0
 82160  1  0  0  0
 82161  1  0  0  0
 83 86  1  0  0  0
 83162  1  0  0  0
 83163  1  0  0  0
 84164  1  0  0  0
 84165  1  0  0  0
 84 87  1  0  0  0
 85166  1  0  0  0
 85167  1  0  0  0
 86168  1  0  0  0
 87169  1  0  0  0
M  CHG  1  87   1
M  ISO  4   1 100  68 101  85 101  86 100
M  END
> <chiral flag>
0

> <version>
0

> <s_m_source_file>
/data/baiqing/PycharmProjects/Reinvent-master-3.2/result/LINK_invent/BTK/process_docking_weight1_custom_product_contain_oxygen_bond_distance_aromatic_linkinvent_7_9_3/rearranged_h_0039.sdf

> <i_m_source_file_index>
16

> <r_mmod_Potential_Energy-OPLS-2005>
10263.9697265625

> <r_mmod_Stretch_Energy-OPLS-2005>
6458.8095703125

> <r_mmod_Bend_Energy-OPLS-2005>
1148.47058105469

> <r_mmod_Torsional_Energy-OPLS-2005>
339.849548339844

> <r_mmod_Improper_Torsional_Energy-OPLS-2005>
11.8849964141846

> <r_mmod_Van_der_Waal_Energy-OPLS-2005>
2757.59643554688

> <r_mmod_Electrostatic_Energy-OPLS-2005>
-292.457916259766

> <r_mmod_Solvation_Energy-OPLS-2005>
-407.271423339844

> <b_mmod_Minimization_Converged-OPLS-2005>
0

> <r_mmod_RMS_Derivative-OPLS-2005>
10.8766527175903

$$$$
16
                    3D
 Structure written by MMmdl.
164173  0  0  1  0            999 V2000
  -30.5837  -14.7545   20.4829 C   0  0  0  0  0  0
  -30.4432  -12.4703   19.4524 C   0  0  0  0  0  0
  -29.5124  -12.5112   18.2211 C   0  0  0  0  0  0
  -28.0333  -12.3459   18.6256 C   0  0  0  0  0  0
  -27.6375  -13.2286   19.8409 C   0  0  2  0  0  0
  -28.6859  -13.1472   20.9689 C   0  0  0  0  0  0
  -25.2513  -13.8156   20.5695 C   0  0  0  0  0  0
  -24.1810  -13.0414   20.9216 C   0  0  0  0  0  0
  -24.6382  -11.6903   20.8727 C   0  0  0  0  0  0
  -23.9046  -10.4305   21.0388 C   0  0  0  0  0  0
  -24.3611   -9.4224   21.9161 C   0  0  0  0  0  0
  -23.6318   -8.2243   22.0731 C   0  0  0  0  0  0
  -22.4287   -8.0258   21.3531 C   0  0  0  0  0  0
  -21.9914   -9.0218   20.4634 C   0  0  0  0  0  0
  -22.7212  -10.2115   20.3051 C   0  0  0  0  0  0
  -21.6860   -6.0714   22.5290 C   0  0  0  0  0  0
  -21.3990   -6.5610   23.8211 C   0  0  0  0  0  0
  -21.3677   -5.6774   24.9186 C   0  0  0  0  0  0
  -21.6051   -4.3029   24.7227 C   0  0  0  0  0  0
  -21.8816   -3.8117   23.4350 C   0  0  0  0  0  0
  -21.9179   -4.6936   22.3413 C   0  0  0  0  0  0
  -22.7807  -13.5203   21.1862 C   0  0  0  0  0  0
  -22.1696   -4.2133   21.0991 F   0  0  0  0  0  0
  -21.5651   -3.4509   25.7744 F   0  0  0  0  0  0
  -29.9777  -13.5226   20.3809 N   0  0  0  0  0  0
  -26.2940  -12.9371   20.3206 N   0  0  0  0  0  0
  -25.9311  -11.6484   20.5666 N   0  0  0  0  0  0
  -22.0432  -12.8212   22.0412 N   0  0  0  0  0  0
  -25.4171  -15.1915   20.4226 N   0  0  0  0  0  0
  -31.7924  -14.8627   20.2616 O   0  0  0  0  0  0
  -21.6668   -6.8849   21.4247 O   0  0  0  0  0  0
  -22.3511  -14.5512   20.6718 O   0  0  0  0  0  0
  -24.6285  -31.8598   23.1976 C   0  0  0  0  0  0
  -25.9137  -32.4762   23.8291 C   0  0  1  0  0  0
  -27.2188  -27.2942   20.1508 C   0  0  0  0  0  0
  -25.5953  -33.8556   24.2246 N   0  0  0  0  0  0
  -23.4192  -30.4834   21.5434 C   0  0  2  0  0  0
  -24.8645  -28.9258   20.1141 C   0  0  0  0  0  0
  -22.7466  -29.4672   22.4962 C   0  0  0  0  0  0
  -18.0285  -28.1383   22.8508 C   0  0  0  0  0  0
  -24.1491  -36.7289   23.2642 C   0  0  0  0  0  0
  -25.9591  -30.7848   21.3682 C   0  0  0  0  0  0
  -26.0340  -29.4074   20.7176 C   0  0  0  0  0  0
  -27.2153  -28.6070   20.7214 C   0  0  0  0  0  0
  -26.0341  -26.8654   19.5165 C   0  0  0  0  0  0
  -24.8711  -27.6637   19.4945 C   0  0  0  0  0  0
  -23.6315  -29.8104   20.1609 C   0  0  0  0  0  0
  -25.4119  -36.3078   24.0328 C   0  0  1  0  0  0
  -20.5890  -28.3726   23.1290 C   0  0  2  0  0  0
  -20.6793  -26.9450   22.5428 C   0  0  0  0  0  0
  -19.5766  -26.6400   21.5235 C   0  0  0  0  0  0
  -18.1938  -26.7924   22.1629 C   0  0  0  0  0  0
  -19.1532  -28.8862   23.2899 C   0  0  0  0  0  0
  -18.9460  -30.1458   23.8927 C   0  0  0  0  0  0
  -17.6469  -30.6595   24.0574 C   0  0  0  0  0  0
  -25.9063  -34.9448   23.5088 C   0  0  0  0  0  0
  -16.5360  -29.9102   23.6333 C   0  0  0  0  0  0
  -16.7281  -28.6506   23.0374 C   0  0  0  0  0  0
  -26.4507  -31.6562   25.0660 C   0  0  0  0  0  0
  -25.3751  -31.3721   26.1411 C   0  0  0  0  0  0
  -27.0351  -30.2979   24.6112 C   0  0  0  0  0  0
  -27.6038  -32.4324   25.7451 C   0  0  0  0  0  0
  -27.5583  -37.1803   24.8474 C   0  0  0  0  0  0
  -21.4192  -29.3075   22.3683 N   0  0  0  0  0  0
  -26.4293  -37.3782   23.9415 N   0  0  0  0  0  0
  -24.6885  -31.0576   22.0941 N   0  0  0  0  0  0
  -23.4172  -28.8262   23.3086 O   0  0  0  0  0  0
  -28.3310  -26.4393   20.1591 O   0  0  0  0  0  0
  -26.5640  -34.8944   22.4658 O   0  0  0  0  0  0
  -23.5457  -32.1426   23.7309 O   0  0  0  0  0  0
  -30.0660  -19.8717   22.2262 C   0  0  0  0  0  0
  -30.4557  -17.4419   22.2824 C   0  0  0  0  0  0
  -29.5967  -19.8274   20.8972 C   0  0  0  0  0  0
  -29.4965  -18.4913   20.3049 C   0  0  0  0  0  0
  -29.9478  -17.2696   20.9784 C   0  0  0  0  0  0
  -30.4918  -18.7087   22.9011 C   0  0  0  0  0  0
  -30.7901  -23.1197   20.7779 C   0  0  0  0  0  0
  -31.6664  -22.9101   21.7743 C   0  0  0  0  0  0
  -30.9980  -24.1006   19.6321 C   0  0  0  0  0  0
  -29.6835  -24.1405   18.8648 C   0  0  0  0  0  0
  -28.6542  -23.7494   19.9276 C   0  0  2  0  0  0
  -28.8557  -18.3911   18.9306 C   0  0  0  0  0  0
  -29.1632  -21.1886   20.1539 C   0  0  0  0  0  0
  -28.2005  -25.0690   20.7466 C   0  0  0  0  0  0
  -29.7530  -15.8726   20.4967 N   0  0  0  0  0  0
  -29.3635  -22.6260   20.7111 N   0  3  2  0  0  0
  -31.0402  -18.8400   24.5309 Cl  0  0  0  0  0  0
  -31.4792  -12.6189   19.1475 H   0  0  0  0  0  0
  -30.4048  -11.4924   19.9318 H   0  0  0  0  0  0
  -29.7879  -11.7255   17.5164 H   0  0  0  0  0  0
  -29.6515  -13.4593   17.6991 H   0  0  0  0  0  0
  -27.8745  -11.2936   18.8634 H   0  0  0  0  0  0
  -27.3865  -12.5610   17.7755 H   0  0  0  0  0  0
  -27.6282  -14.2521   19.4641 H   0  0  0  0  0  0
  -28.7264  -12.1368   21.3818 H   0  0  0  0  0  0
  -28.4195  -13.8109   21.7909 H   0  0  0  0  0  0
  -25.2739   -9.5714   22.4725 H   0  0  0  0  0  0
  -24.0007   -7.4622   22.7447 H   0  0  0  0  0  0
  -21.0837   -8.8727   19.8953 H   0  0  0  0  0  0
  -22.3639  -10.9647   19.6171 H   0  0  0  0  0  0
  -21.1977   -7.6123   23.9715 H   0  0  0  0  0  0
  -21.1532   -6.0515   25.9090 H   0  0  0  0  0  0
  -22.0587   -2.7575   23.2878 H   0  0  0  0  0  0
  -22.4093  -11.9949   22.4914 H   0  0  0  0  0  0
  -21.1046  -13.1232   22.2595 H   0  0  0  0  0  0
  -24.6399  -15.8305   20.5374 H   0  0  0  0  0  0
  -26.2550  -15.6459   20.0850 H   0  0  0  0  0  0
  -26.7204  -32.5434   23.1034 H   0  0  0  0  0  0
  -25.0113  -33.9664   25.0409 H   0  0  0  0  0  0
  -22.7179  -31.3083   21.4012 H   0  0  0  0  0  0
  -23.3753  -35.9618   23.3294 H   0  0  0  0  0  0
  -24.3605  -36.8914   22.2059 H   0  0  0  0  0  0
  -23.7235  -37.6485   23.6670 H   0  0  0  0  0  0
  -26.0894  -31.5428   20.5940 H   0  0  0  0  0  0
  -26.8377  -30.8335   21.9997 H   0  0  0  0  0  0
  -28.1122  -28.9835   21.1934 H   0  0  0  0  0  0
  -26.0074  -25.8951   19.0381 H   0  0  0  0  0  0
  -23.9784  -27.2905   19.0088 H   0  0  0  0  0  0
  -23.7487  -30.5845   19.4018 H   0  0  0  0  0  0
  -22.7473  -29.2425   19.8630 H   0  0  0  0  0  0
  -25.1298  -36.1915   25.0817 H   0  0  0  0  0  0
  -20.9962  -28.3305   24.1419 H   0  0  0  0  0  0
  -20.5738  -26.2348   23.3644 H   0  0  0  0  0  0
  -21.6668  -26.7531   22.1204 H   0  0  0  0  0  0
  -19.6955  -25.6313   21.1264 H   0  0  0  0  0  0
  -19.6667  -27.3218   20.6761 H   0  0  0  0  0  0
  -17.4227  -26.6708   21.4003 H   0  0  0  0  0  0
  -18.0315  -26.0041   22.8994 H   0  0  0  0  0  0
  -19.7947  -30.7254   24.2314 H   0  0  0  0  0  0
  -17.5036  -31.6281   24.5171 H   0  0  0  0  0  0
  -15.5364  -30.3023   23.7628 H   0  0  0  0  0  0
  -15.8680  -28.0825   22.7095 H   0  0  0  0  0  0
  -24.5880  -30.7114   25.7766 H   0  0  0  0  0  0
  -24.9010  -32.2905   26.4871 H   0  0  0  0  0  0
  -25.8075  -30.8871   27.0172 H   0  0  0  0  0  0
  -26.2906  -29.6718   24.1182 H   0  0  0  0  0  0
  -27.4113  -29.7233   25.4588 H   0  0  0  0  0  0
  -27.8750  -30.4259   23.9281 H   0  0  0  0  0  0
  -27.2580  -33.3607   26.2022 H   0  0  0  0  0  0
  -28.3838  -32.6929   25.0278 H   0  0  0  0  0  0
  -28.0729  -31.8479   26.5382 H   0  0  0  0  0  0
  -28.2617  -38.0088   24.7525 H   0  0  0  0  0  0
  -28.1051  -36.2623   24.6276 H   0  0  0  0  0  0
  -27.2320  -37.1445   25.8885 H   0  0  0  0  0  0
  -20.9387  -29.8738   21.6838 H   0  0  0  0  0  0
  -26.0166  -38.2860   24.1384 H   0  0  0  0  0  0
  -30.0802  -20.7995   22.7722 H   0  0  0  0  0  0
  -30.7606  -16.5830   22.8608 H   0  0  0  0  0  0
  -32.6306  -23.4006   21.7408 H   0  0  0  0  0  0
  -31.4646  -22.3000   22.6375 H   0  0  0  0  0  0
  -31.8433  -23.8273   18.9987 H   0  0  0  0  0  0
  -31.2134  -25.0873   20.0573 H   0  0  0  0  0  0
  -29.7041  -23.3951   18.0678 H   0  0  0  0  0  0
  -29.4834  -25.0999   18.3853 H   0  0  0  0  0  0
  -27.7625  -23.3508   19.4424 H   0  0  0  0  0  0
  -28.7943  -17.3634   18.5683 H   0  0  0  0  0  0
  -29.4206  -18.9743   18.2021 H   0  0  0  0  0  0
  -27.8411  -18.7954   18.9658 H   0  0  0  0  0  0
  -28.0975  -21.0930   19.9544 H   0  0  0  0  0  0
  -29.6423  -21.1609   19.1770 H   0  0  0  0  0  0
  -28.7868  -25.1121   21.6657 H   0  0  0  0  0  0
  -27.1758  -24.9093   21.0897 H   0  0  0  0  0  0
  -28.8018  -15.6477   20.2559 H   0  0  0  0  0  0
  -28.9622  -22.6152   21.6379 H   0  0  0  0  0  0
  1 25  1  0  0  0
  1 30  2  0  0  0
  1 85  1  0  0  0
  2  3  1  0  0  0
  2 25  1  0  0  0
  2 88  1  0  0  0
  2 89  1  0  0  0
  3  4  1  0  0  0
  3 90  1  0  0  0
  3 91  1  0  0  0
  4  5  1  0  0  0
  4 92  1  0  0  0
  4 93  1  0  0  0
  5  6  1  0  0  0
  5 26  1  0  0  0
  5 94  1  0  0  0
  6 25  1  0  0  0
  6 95  1  0  0  0
  6 96  1  0  0  0
  7  8  2  0  0  0
  7 26  1  0  0  0
  7 29  1  0  0  0
  8  9  1  0  0  0
  8 22  1  0  0  0
  9 10  1  0  0  0
  9 27  2  0  0  0
 10 11  2  0  0  0
 10 15  1  0  0  0
 11 12  1  0  0  0
 11 97  1  0  0  0
 12 13  2  0  0  0
 12 98  1  0  0  0
 13 14  1  0  0  0
 13 31  1  0  0  0
 14 15  2  0  0  0
 14 99  1  0  0  0
 15100  1  0  0  0
 16 17  2  0  0  0
 16 21  1  0  0  0
 16 31  1  0  0  0
 17 18  1  0  0  0
 17101  1  0  0  0
 18 19  2  0  0  0
 18102  1  0  0  0
 19 20  1  0  0  0
 19 24  1  0  0  0
 20 21  2  0  0  0
 20103  1  0  0  0
 21 23  1  0  0  0
 22 28  1  0  0  0
 22 32  2  0  0  0
 26 27  1  0  0  0
 28104  1  0  0  0
 28105  1  0  0  0
 29106  1  0  0  0
 29107  1  0  0  0
 33 34  1  0  0  0
 33 66  1  0  0  0
 33 70  2  0  0  0
 34 36  1  0  0  0
 34 59  1  0  0  0
 34108  1  0  0  0
 35 44  2  0  0  0
 35 45  1  0  0  0
 35 68  1  0  0  0
 36 56  1  0  0  0
 36109  1  0  0  0
 37 39  1  0  0  0
 37 47  1  0  0  0
 37 66  1  0  0  0
 37110  1  0  0  0
 38 43  2  0  0  0
 38 46  1  0  0  0
 38 47  1  0  0  0
 39 64  1  0  0  0
 39 67  2  0  0  0
 40 52  1  0  0  0
 40 53  2  0  0  0
 40 58  1  0  0  0
 41111  1  0  0  0
 41112  1  0  0  0
 41113  1  0  0  0
 41 48  1  0  0  0
 42 43  1  0  0  0
 42 66  1  0  0  0
 42114  1  0  0  0
 42115  1  0  0  0
 43 44  1  0  0  0
 44116  1  0  0  0
 45 46  2  0  0  0
 45117  1  0  0  0
 46118  1  0  0  0
 47119  1  0  0  0
 47120  1  0  0  0
 48 56  1  0  0  0
 48 65  1  0  0  0
 48121  1  0  0  0
 49 50  1  0  0  0
 49 53  1  0  0  0
 49 64  1  0  0  0
 49122  1  0  0  0
 50 51  1  0  0  0
 50123  1  0  0  0
 50124  1  0  0  0
 51 52  1  0  0  0
 51125  1  0  0  0
 51126  1  0  0  0
 52127  1  0  0  0
 52128  1  0  0  0
 53 54  1  0  0  0
 54 55  2  0  0  0
 54129  1  0  0  0
 55 57  1  0  0  0
 55130  1  0  0  0
 56 69  2  0  0  0
 57 58  2  0  0  0
 57131  1  0  0  0
 58132  1  0  0  0
 59 60  1  0  0  0
 59 61  1  0  0  0
 59 62  1  0  0  0
 60133  1  0  0  0
 60134  1  0  0  0
 60135  1  0  0  0
 61136  1  0  0  0
 61137  1  0  0  0
 61138  1  0  0  0
 62139  1  0  0  0
 62140  1  0  0  0
 62141  1  0  0  0
 63 65  1  0  0  0
 63142  1  0  0  0
 63143  1  0  0  0
 63144  1  0  0  0
 64145  1  0  0  0
 65146  1  0  0  0
 68 84  1  0  0  0
 71 73  2  0  0  0
 71 76  1  0  0  0
 71147  1  0  0  0
 72 75  1  0  0  0
 72 76  2  0  0  0
 72148  1  0  0  0
 73 74  1  0  0  0
 73 83  1  0  0  0
 74 75  2  0  0  0
 74 82  1  0  0  0
 75 85  1  0  0  0
 76 87  1  0  0  0
 77 78  2  0  0  0
 77 79  1  0  0  0
 77 86  1  0  0  0
 78149  1  0  0  0
 78150  1  0  0  0
 79 80  1  0  0  0
 79151  1  0  0  0
 79152  1  0  0  0
 80 81  1  0  0  0
 80153  1  0  0  0
 80154  1  0  0  0
 81 84  1  0  0  0
 81 86  1  0  0  0
 81155  1  0  0  0
 82156  1  0  0  0
 82157  1  0  0  0
 82158  1  0  0  0
 83159  1  0  0  0
 83160  1  0  0  0
 83 86  1  0  0  0
 84161  1  0  0  0
 84162  1  0  0  0
 85163  1  0  0  0
 86164  1  0  0  0
M  CHG  1  86   1
M  ISO  4   1 100  68 101  84 101  85 100
M  END
> <chiral flag>
0

> <version>
0

> <s_m_source_file>
/data/baiqing/PycharmProjects/Reinvent-master-3.2/result/LINK_invent/BTK/process_docking_weight1_custom_product_contain_oxygen_bond_distance_aromatic_linkinvent_7_9_3/rearranged_h_0039.sdf

> <i_m_source_file_index>
17

> <r_mmod_Potential_Energy-OPLS-2005>
165.796676635742

> <r_mmod_Stretch_Energy-OPLS-2005>
127.252319335938

> <r_mmod_Bend_Energy-OPLS-2005>
197.831970214844

> <r_mmod_Torsional_Energy-OPLS-2005>
304.556182861328

> <r_mmod_Improper_Torsional_Energy-OPLS-2005>
10.0371255874634

> <r_mmod_Van_der_Waal_Energy-OPLS-2005>
126.021484375

> <r_mmod_Electrostatic_Energy-OPLS-2005>
-239.855453491211

> <r_mmod_Solvation_Energy-OPLS-2005>
-440.309417724609

> <b_mmod_Minimization_Converged-OPLS-2005>
0

> <r_mmod_RMS_Derivative-OPLS-2005>
5.36897325515747

$$$$
17
                    3D
 Structure written by MMmdl.
170179  0  0  1  0            999 V2000
  -29.1005  -15.9746   20.8322 C   0  0  0  0  0  0
  -30.1579  -13.5359   19.7773 C   0  0  0  0  0  0
  -29.5153  -12.8544   18.5038 C   0  0  0  0  0  0
  -28.1227  -12.2932   18.8223 C   0  0  0  0  0  0
  -27.4557  -13.2445   19.8294 C   0  0  2  0  0  0
  -28.2710  -13.5069   21.0865 C   0  0  0  0  0  0
  -25.1547  -13.8018   20.5536 C   0  0  0  0  0  0
  -24.1070  -13.0224   20.9215 C   0  0  0  0  0  0
  -24.5786  -11.6733   20.8732 C   0  0  0  0  0  0
  -23.8689  -10.4149   21.0476 C   0  0  0  0  0  0
  -24.3410   -9.4131   21.9218 C   0  0  0  0  0  0
  -23.6182   -8.2127   22.0756 C   0  0  0  0  0  0
  -22.4173   -8.0139   21.3537 C   0  0  0  0  0  0
  -21.9716   -9.0064   20.4645 C   0  0  0  0  0  0
  -22.6935  -10.1975   20.3080 C   0  0  0  0  0  0
  -21.6809   -6.0650   22.5297 C   0  0  0  0  0  0
  -21.3979   -6.5587   23.8218 C   0  0  0  0  0  0
  -21.3653   -5.6758   24.9192 C   0  0  0  0  0  0
  -21.6045   -4.3020   24.7255 C   0  0  0  0  0  0
  -21.8825   -3.8093   23.4386 C   0  0  0  0  0  0
  -21.9178   -4.6891   22.3432 C   0  0  0  0  0  0
  -22.7233  -13.5084   21.2027 C   0  0  0  0  0  0
  -22.1654   -4.2083   21.1008 F   0  0  0  0  0  0
  -21.5642   -3.4517   25.7776 F   0  0  0  0  0  0
  -29.1814  -14.4885   20.5943 N   0  0  0  0  0  0
  -26.1581  -12.9076   20.2603 N   0  0  0  0  0  0
  -25.8550  -11.6269   20.5372 N   0  0  0  0  0  0
  -21.9990  -12.8107   22.0666 N   0  0  0  0  0  0
  -25.3308  -15.1792   20.4263 N   0  0  0  0  0  0
  -30.3420  -16.1893   20.5854 O   0  0  0  0  0  0
  -21.6574   -6.8739   21.4238 O   0  0  0  0  0  0
  -22.2988  -14.5432   20.6904 O   0  0  0  0  0  0
  -24.7682  -32.0208   23.1796 C   0  0  0  0  0  0
  -26.0209  -32.5645   23.8804 C   0  0  1  0  0  0
  -25.4660  -27.4402   20.6899 C   0  0  0  0  0  0
  -25.6717  -33.9227   24.2805 N   0  0  0  0  0  0
  -23.8260  -30.4505   21.6150 C   0  0  2  0  0  0
  -25.1615  -29.5624   19.5667 C   0  0  0  0  0  0
  -23.9708  -29.2352   22.7564 C   0  0  0  0  0  0
  -18.4300  -27.3761   22.6776 C   0  0  0  0  0  0
  -24.1511  -36.7514   23.2553 C   0  0  0  0  0  0
  -26.2084  -30.9463   21.3979 C   0  0  0  0  0  0
  -26.1256  -29.6705   20.5688 C   0  0  0  0  0  0
  -26.4407  -28.4269   21.0982 C   0  0  0  0  0  0
  -25.7200  -27.2048   19.3498 C   0  0  0  0  0  0
  -25.1169  -28.3510   18.7841 C   0  0  0  0  0  0
  -23.9524  -30.3146   20.0093 C   0  0  0  0  0  0
  -25.4116  -36.3451   24.0340 C   0  0  1  0  0  0
  -22.1080  -27.2763   22.8708 C   0  0  2  0  0  0
  -22.0992  -25.7056   21.5217 C   0  0  0  0  0  0
  -20.1823  -25.0549   21.0628 C   0  0  0  0  0  0
  -18.5909  -25.9343   21.7338 C   0  0  0  0  0  0
  -19.6588  -28.0942   23.1993 C   0  0  0  0  0  0
  -19.1116  -29.4297   23.7731 C   0  0  0  0  0  0
  -17.8245  -30.0137   23.8694 C   0  0  0  0  0  0
  -25.9193  -34.9910   23.5202 C   0  0  0  0  0  0
  -16.7729  -29.2615   23.3877 C   0  0  0  0  0  0
  -17.0961  -27.9942   22.8149 C   0  0  0  0  0  0
  -26.5053  -31.7066   25.1118 C   0  0  0  0  0  0
  -25.3982  -31.3972   26.1510 C   0  0  0  0  0  0
  -27.2091  -30.3939   24.6757 C   0  0  0  0  0  0
  -27.6141  -32.4918   25.8432 C   0  0  0  0  0  0
  -27.5616  -37.2001   24.8465 C   0  0  0  0  0  0
  -23.3739  -28.0591   23.0173 N   0  0  0  0  0  0
  -26.4300  -37.4110   23.9459 N   0  0  0  0  0  0
  -24.9271  -31.2667   22.0578 N   0  0  0  0  0  0
  -24.4678  -29.3494   23.8217 O   0  0  0  0  0  0
  -23.9110  -27.5455   20.6600 O   0  0  0  0  0  0
  -26.5417  -34.9245   22.4561 O   0  0  0  0  0  0
  -23.6515  -32.2380   23.6870 O   0  0  0  0  0  0
  -23.8351  -19.4047   21.6126 C   0  0  0  0  0  0
  -25.0686  -20.0098   21.9681 C   0  0  0  0  0  0
  -24.3933  -21.5601   22.4845 C   0  0  0  0  0  0
  -22.8397  -22.3816   22.6484 C   0  0  0  0  0  0
  -22.0371  -21.2651   22.1975 C   0  0  0  0  0  0
  -22.5024  -19.9641   21.7156 C   0  0  0  0  0  0
  -20.8567  -26.8383   24.8613 C   0  0  0  0  0  0
  -20.5938  -26.2979   26.0597 C   0  0  0  0  0  0
  -21.4575  -28.6825   24.6141 C   0  0  0  0  0  0
  -21.4673  -29.5472   22.5967 C   0  0  0  0  0  0
  -20.5828  -27.3387   21.2419 C   0  0  0  0  0  0
  -22.0985  -28.4583   20.9228 C   0  0  2  0  0  0
  -25.4968  -22.4851   22.9468 C   0  0  0  0  0  0
  -20.5164  -21.3864   22.2697 C   0  0  0  0  0  0
  -26.8097  -18.8063   21.6809 C   0  0  0  0  0  0
  -21.7079  -24.0438   23.4171 C   0  0  0  0  0  0
  -27.8254  -17.1006   21.2002 N   0  0  0  0  0  0
  -20.5887  -25.7551   23.2513 N   0  3  2  0  0  0
  -21.5331  -19.1109   21.3030 F   0  0  0  0  0  0
  -31.0227  -14.1090   19.4428 H   0  0  0  0  0  0
  -30.5832  -12.7768   20.4351 H   0  0  0  0  0  0
  -30.1689  -12.0789   18.1038 H   0  0  0  0  0  0
  -29.4206  -13.6091   17.7215 H   0  0  0  0  0  0
  -28.2312  -11.3014   19.2643 H   0  0  0  0  0  0
  -27.5223  -12.1809   17.9186 H   0  0  0  0  0  0
  -27.3187  -14.1658   19.2562 H   0  0  0  0  0  0
  -28.7131  -12.6080   21.5208 H   0  0  0  0  0  0
  -27.6730  -13.9683   21.8759 H   0  0  0  0  0  0
  -25.2553   -9.5679   22.4777 H   0  0  0  0  0  0
  -23.9930   -7.4518   22.7452 H   0  0  0  0  0  0
  -21.0655   -8.8515   19.8956 H   0  0  0  0  0  0
  -22.3354  -10.9506   19.6202 H   0  0  0  0  0  0
  -21.1953   -7.6095   23.9697 H   0  0  0  0  0  0
  -21.1481   -6.0500   25.9090 H   0  0  0  0  0  0
  -22.0618   -2.7556   23.2908 H   0  0  0  0  0  0
  -22.3641  -11.9741   22.4971 H   0  0  0  0  0  0
  -21.0656  -13.1172   22.3020 H   0  0  0  0  0  0
  -24.5732  -15.8243   20.6176 H   0  0  0  0  0  0
  -26.2010  -15.6505   20.2122 H   0  0  0  0  0  0
  -26.8589  -32.6325   23.1884 H   0  0  0  0  0  0
  -25.1136  -34.0336   25.1146 H   0  0  0  0  0  0
  -23.0143  -31.1650   21.6301 H   0  0  0  0  0  0
  -23.3823  -35.9790   23.3196 H   0  0  0  0  0  0
  -24.3655  -36.9108   22.1971 H   0  0  0  0  0  0
  -23.7179  -37.6703   23.6514 H   0  0  0  0  0  0
  -26.4774  -31.7758   20.7409 H   0  0  0  0  0  0
  -27.0434  -30.8255   22.0810 H   0  0  0  0  0  0
  -26.9429  -28.3518   22.0518 H   0  0  0  0  0  0
  -25.3995  -26.2833   18.8821 H   0  0  0  0  0  0
  -24.4244  -28.2316   17.9628 H   0  0  0  0  0  0
  -24.1543  -31.3287   19.6586 H   0  0  0  0  0  0
  -23.0987  -30.1302   19.3783 H   0  0  0  0  0  0
  -25.1228  -36.2339   25.0821 H   0  0  0  0  0  0
  -22.6787  -26.7083   23.6274 H   0  0  0  0  0  0
  -22.8946  -24.9739   21.6639 H   0  0  0  0  0  0
  -22.4380  -25.9474   20.5147 H   0  0  0  0  0  0
  -20.0881  -24.0083   21.3443 H   0  0  0  0  0  0
  -20.0924  -24.9612   19.9781 H   0  0  0  0  0  0
  -17.9477  -26.0913   20.8670 H   0  0  0  0  0  0
  -18.0505  -25.1764   22.3023 H   0  0  0  0  0  0
  -19.7544  -30.2177   24.1266 H   0  0  0  0  0  0
  -17.6718  -30.9983   24.2903 H   0  0  0  0  0  0
  -15.7545  -29.6230   23.4214 H   0  0  0  0  0  0
  -16.2644  -27.4361   22.4056 H   0  0  0  0  0  0
  -24.5856  -30.7938   25.7565 H   0  0  0  0  0  0
  -24.9488  -32.3136   26.5344 H   0  0  0  0  0  0
  -25.7998  -30.8556   27.0083 H   0  0  0  0  0  0
  -26.6788  -29.7681   23.9791 H   0  0  0  0  0  0
  -27.4411  -29.7700   25.5392 H   0  0  0  0  0  0
  -28.1624  -30.6093   24.1916 H   0  0  0  0  0  0
  -27.2356  -33.3954   26.3221 H   0  0  0  0  0  0
  -28.4101  -32.7975   25.1630 H   0  0  0  0  0  0
  -28.0756  -31.8960   26.6318 H   0  0  0  0  0  0
  -28.2600  -38.0342   24.7658 H   0  0  0  0  0  0
  -28.1167  -36.2906   24.6117 H   0  0  0  0  0  0
  -27.2366  -37.1447   25.8870 H   0  0  0  0  0  0
  -23.8956  -27.6978   23.8030 H   0  0  0  0  0  0
  -26.0202  -38.3173   24.1556 H   0  0  0  0  0  0
  -23.8920  -18.3961   21.2283 H   0  0  0  0  0  0
  -20.7204  -26.8761   26.9630 H   0  0  0  0  0  0
  -20.2511  -25.2793   26.1595 H   0  0  0  0  0  0
  -22.4303  -28.7426   25.0985 H   0  0  0  0  0  0
  -20.9590  -29.2867   25.3727 H   0  0  0  0  0  0
  -21.7740  -30.5446   22.8753 H   0  0  0  0  0  0
  -20.5895  -29.9851   22.1190 H   0  0  0  0  0  0
  -20.5712  -27.0086   20.1926 H   0  0  0  0  0  0
  -19.7657  -28.0082   20.9431 H   0  0  0  0  0  0
  -21.7561  -28.9094   19.9993 H   0  0  0  0  0  0
  -26.4819  -22.0844   22.7076 H   0  0  0  0  0  0
  -25.4413  -22.6406   24.0249 H   0  0  0  0  0  0
  -25.3977  -23.4534   22.4557 H   0  0  0  0  0  0
  -20.1689  -22.0321   23.0678 H   0  0  0  0  0  0
  -20.0572  -20.4211   22.4871 H   0  0  0  0  0  0
  -20.1032  -21.7364   21.3243 H   0  0  0  0  0  0
  -27.2853  -18.9995   22.6435 H   0  0  0  0  0  0
  -27.3357  -19.4791   21.0034 H   0  0  0  0  0  0
  -22.5246  -24.4655   24.0027 H   0  0  0  0  0  0
  -21.1352  -23.5536   24.2022 H   0  0  0  0  0  0
  -28.5922  -17.7357   21.0155 H   0  0  0  0  0  0
  -21.5065  -25.8224   22.8390 H   0  0  0  0  0  0
  1 25  1  0  0  0
  1 30  2  0  0  0
  1 87  1  0  0  0
  2  3  1  0  0  0
  2 25  1  0  0  0
  2 90  1  0  0  0
  2 91  1  0  0  0
  3  4  1  0  0  0
  3 92  1  0  0  0
  3 93  1  0  0  0
  4  5  1  0  0  0
  4 94  1  0  0  0
  4 95  1  0  0  0
  5  6  1  0  0  0
  5 26  1  0  0  0
  5 96  1  0  0  0
  6 25  1  0  0  0
  6 97  1  0  0  0
  6 98  1  0  0  0
  7  8  2  0  0  0
  7 26  1  0  0  0
  7 29  1  0  0  0
  8  9  1  0  0  0
  8 22  1  0  0  0
  9 10  1  0  0  0
  9 27  2  0  0  0
 10 11  2  0  0  0
 10 15  1  0  0  0
 11 12  1  0  0  0
 11 99  1  0  0  0
 12 13  2  0  0  0
 12100  1  0  0  0
 13 14  1  0  0  0
 13 31  1  0  0  0
 14 15  2  0  0  0
 14101  1  0  0  0
 15102  1  0  0  0
 16 17  2  0  0  0
 16 21  1  0  0  0
 16 31  1  0  0  0
 17 18  1  0  0  0
 17103  1  0  0  0
 18 19  2  0  0  0
 18104  1  0  0  0
 19 20  1  0  0  0
 19 24  1  0  0  0
 20 21  2  0  0  0
 20105  1  0  0  0
 21 23  1  0  0  0
 22 28  1  0  0  0
 22 32  2  0  0  0
 26 27  1  0  0  0
 28106  1  0  0  0
 28107  1  0  0  0
 29108  1  0  0  0
 29109  1  0  0  0
 33 34  1  0  0  0
 33 66  1  0  0  0
 33 70  2  0  0  0
 34 36  1  0  0  0
 34 59  1  0  0  0
 34110  1  0  0  0
 35 44  2  0  0  0
 35 45  1  0  0  0
 35 68  1  0  0  0
 36 56  1  0  0  0
 36111  1  0  0  0
 37 39  1  0  0  0
 37 47  1  0  0  0
 37 66  1  0  0  0
 37112  1  0  0  0
 38 43  2  0  0  0
 38 46  1  0  0  0
 38 47  1  0  0  0
 39 64  1  0  0  0
 39 67  2  0  0  0
 40 52  1  0  0  0
 40 53  2  0  0  0
 40 58  1  0  0  0
 41113  1  0  0  0
 41114  1  0  0  0
 41115  1  0  0  0
 41 48  1  0  0  0
 42 43  1  0  0  0
 42 66  1  0  0  0
 42116  1  0  0  0
 42117  1  0  0  0
 43 44  1  0  0  0
 44118  1  0  0  0
 45 46  2  0  0  0
 45119  1  0  0  0
 46120  1  0  0  0
 47121  1  0  0  0
 47122  1  0  0  0
 48 56  1  0  0  0
 48 65  1  0  0  0
 48123  1  0  0  0
 49 50  1  0  0  0
 49 53  1  0  0  0
 49 64  1  0  0  0
 49124  1  0  0  0
 50 51  1  0  0  0
 50125  1  0  0  0
 50126  1  0  0  0
 51 52  1  0  0  0
 51127  1  0  0  0
 51128  1  0  0  0
 52129  1  0  0  0
 52130  1  0  0  0
 53 54  1  0  0  0
 54 55  2  0  0  0
 54131  1  0  0  0
 55 57  1  0  0  0
 55132  1  0  0  0
 56 69  2  0  0  0
 57 58  2  0  0  0
 57133  1  0  0  0
 58134  1  0  0  0
 59 60  1  0  0  0
 59 61  1  0  0  0
 59 62  1  0  0  0
 60135  1  0  0  0
 60136  1  0  0  0
 60137  1  0  0  0
 61138  1  0  0  0
 61139  1  0  0  0
 61140  1  0  0  0
 62141  1  0  0  0
 62142  1  0  0  0
 62143  1  0  0  0
 63 65  1  0  0  0
 63144  1  0  0  0
 63145  1  0  0  0
 63146  1  0  0  0
 64147  1  0  0  0
 65148  1  0  0  0
 68 82  1  0  0  0
 71 72  2  0  0  0
 71 76  1  0  0  0
 71149  1  0  0  0
 72 73  1  0  0  0
 72 85  1  0  0  0
 73 74  2  0  0  0
 73 83  1  0  0  0
 74 75  1  0  0  0
 74 86  1  0  0  0
 75 76  2  0  0  0
 75 84  1  0  0  0
 76 89  1  0  0  0
 77 78  2  0  0  0
 77 79  1  0  0  0
 77 88  1  0  0  0
 78150  1  0  0  0
 78151  1  0  0  0
 79 80  1  0  0  0
 79152  1  0  0  0
 79153  1  0  0  0
 80 82  1  0  0  0
 80154  1  0  0  0
 80155  1  0  0  0
 81 82  1  0  0  0
 81 88  1  0  0  0
 81156  1  0  0  0
 81157  1  0  0  0
 82158  1  0  0  0
 83159  1  0  0  0
 83160  1  0  0  0
 83161  1  0  0  0
 84162  1  0  0  0
 84163  1  0  0  0
 84164  1  0  0  0
 85 87  1  0  0  0
 85165  1  0  0  0
 85166  1  0  0  0
 86167  1  0  0  0
 86168  1  0  0  0
 86 88  1  0  0  0
 87169  1  0  0  0
 88170  1  0  0  0
M  CHG  1  88   1
M  ISO  4   1 100  68 101  82 101  87 100
M  END
> <chiral flag>
0

> <version>
0

> <s_m_source_file>
/data/baiqing/PycharmProjects/Reinvent-master-3.2/result/LINK_invent/BTK/process_docking_weight1_custom_product_contain_oxygen_bond_distance_aromatic_linkinvent_7_9_3/rearranged_h_0039.sdf

> <i_m_source_file_index>
18

> <r_mmod_Potential_Energy-OPLS-2005>
22525

> <r_mmod_Stretch_Energy-OPLS-2005>
9712.0302734375

> <r_mmod_Bend_Energy-OPLS-2005>
2467.28491210938

> <r_mmod_Torsional_Energy-OPLS-2005>
590.632934570312

> <r_mmod_Improper_Torsional_Energy-OPLS-2005>
71.3142395019531

> <r_mmod_Van_der_Waal_Energy-OPLS-2005>
3480.66552734375

> <r_mmod_Electrostatic_Energy-OPLS-2005>
-334.798156738281

> <r_mmod_Solvation_Energy-OPLS-2005>
-396.442291259766

> <b_mmod_Minimization_Converged-OPLS-2005>
0

> <r_mmod_RMS_Derivative-OPLS-2005>
3.9590380191803

$$$$
18
                    3D
 Structure written by MMmdl.
187196  0  0  1  0            999 V2000
  -30.7884  -14.3961   20.6628 C   0  0  0  0  0  0
  -30.4065  -12.3100   19.3981 C   0  0  0  0  0  0
  -29.4738  -12.5177   18.1918 C   0  0  0  0  0  0
  -28.0029  -12.3643   18.6170 C   0  0  0  0  0  0
  -27.6540  -13.1984   19.8760 C   0  0  2  0  0  0
  -28.7023  -12.9844   20.9920 C   0  0  0  0  0  0
  -25.2481  -13.8039   20.5683 C   0  0  0  0  0  0
  -24.1764  -13.0337   20.9247 C   0  0  0  0  0  0
  -24.6365  -11.6843   20.8783 C   0  0  0  0  0  0
  -23.9054  -10.4246   21.0409 C   0  0  0  0  0  0
  -24.3620   -9.4184   21.9183 C   0  0  0  0  0  0
  -23.6293   -8.2219   22.0766 C   0  0  0  0  0  0
  -22.4275   -8.0267   21.3552 C   0  0  0  0  0  0
  -21.9900   -9.0239   20.4649 C   0  0  0  0  0  0
  -22.7234  -10.2110   20.3047 C   0  0  0  0  0  0
  -21.6873   -6.0732   22.5281 C   0  0  0  0  0  0
  -21.4035   -6.5632   23.8216 C   0  0  0  0  0  0
  -21.3635   -5.6782   24.9168 C   0  0  0  0  0  0
  -21.6041   -4.3059   24.7229 C   0  0  0  0  0  0
  -21.8818   -3.8154   23.4354 C   0  0  0  0  0  0
  -21.9215   -4.6964   22.3403 C   0  0  0  0  0  0
  -22.7796  -13.5171   21.1893 C   0  0  0  0  0  0
  -22.1684   -4.2166   21.0984 F   0  0  0  0  0  0
  -21.5633   -3.4514   25.7732 F   0  0  0  0  0  0
  -30.0344  -13.2846   20.4366 N   0  0  0  0  0  0
  -26.2970  -12.9265   20.3422 N   0  0  0  0  0  0
  -25.9291  -11.6431   20.5828 N   0  0  0  0  0  0
  -22.0413  -12.8179   22.0455 N   0  0  0  0  0  0
  -25.3959  -15.1686   20.3950 N   0  0  0  0  0  0
  -31.8384  -14.6296   20.0609 O   0  0  0  0  0  0
  -21.6642   -6.8870   21.4247 O   0  0  0  0  0  0
  -22.3485  -14.5472   20.6749 O   0  0  0  0  0  0
  -24.6114  -31.8696   23.2124 C   0  0  0  0  0  0
  -25.9021  -32.4840   23.8408 C   0  0  1  0  0  0
  -27.2354  -27.4662   20.0771 C   0  0  0  0  0  0
  -25.5885  -33.8630   24.2347 N   0  0  0  0  0  0
  -23.3961  -30.4932   21.5545 C   0  0  2  0  0  0
  -24.8387  -28.9609   20.1191 C   0  0  0  0  0  0
  -22.7396  -29.4655   22.5033 C   0  0  0  0  0  0
  -18.0256  -28.1362   22.8505 C   0  0  0  0  0  0
  -24.1484  -36.7325   23.2638 C   0  0  0  0  0  0
  -25.9216  -30.8459   21.3580 C   0  0  0  0  0  0
  -25.9974  -29.4809   20.7071 C   0  0  0  0  0  0
  -27.1964  -28.7394   20.6842 C   0  0  0  0  0  0
  -26.0531  -26.9457   19.5002 C   0  0  0  0  0  0
  -24.8571  -27.6890   19.5209 C   0  0  0  0  0  0
  -23.6016  -29.8259   20.1689 C   0  0  0  0  0  0
  -25.4101  -36.3127   24.0351 C   0  0  1  0  0  0
  -20.5851  -28.3629   23.1350 C   0  0  2  0  0  0
  -20.6758  -26.9376   22.5429 C   0  0  0  0  0  0
  -19.5738  -26.6381   21.5220 C   0  0  0  0  0  0
  -18.1906  -26.7909   22.1626 C   0  0  0  0  0  0
  -19.1511  -28.8811   23.2916 C   0  0  0  0  0  0
  -18.9443  -30.1419   23.8929 C   0  0  0  0  0  0
  -17.6455  -30.6578   24.0561 C   0  0  0  0  0  0
  -25.9033  -34.9486   23.5159 C   0  0  0  0  0  0
  -16.5344  -29.9081   23.6322 C   0  0  0  0  0  0
  -16.7252  -28.6487   23.0361 C   0  0  0  0  0  0
  -26.4467  -31.6591   25.0708 C   0  0  0  0  0  0
  -25.3754  -31.3644   26.1471 C   0  0  0  0  0  0
  -27.0302  -30.3064   24.6019 C   0  0  0  0  0  0
  -27.6056  -32.4292   25.7474 C   0  0  0  0  0  0
  -27.5586  -37.1809   24.8469 C   0  0  0  0  0  0
  -21.4129  -29.2999   22.3769 N   0  0  0  0  0  0
  -26.4292  -37.3803   23.9417 N   0  0  0  0  0  0
  -24.6617  -31.0825   22.1013 N   0  0  0  0  0  0
  -23.4192  -28.8197   23.3052 O   0  0  0  0  0  0
  -28.4455  -26.8109   20.0564 O   0  0  0  0  0  0
  -26.5588  -34.8928   22.4713 O   0  0  0  0  0  0
  -23.5326  -32.1422   23.7560 O   0  0  0  0  0  0
  -28.9157  -16.7315   22.8155 C   0  0  0  0  0  0
  -28.6524  -16.5447   20.4138 C   0  0  0  0  0  0
  -27.0766  -17.9166   21.7112 C   0  0  0  0  0  0
  -27.8325  -17.6322   22.8848 C   0  0  0  0  0  0
  -29.3054  -16.1440   21.6000 C   0  0  0  0  0  0
  -27.5497  -17.4188   20.4693 C   0  0  0  0  0  0
  -25.8148  -18.6907   21.7259 C   0  0  0  0  0  0
  -24.8359  -18.6035   22.6447 C   0  0  0  0  0  0
  -26.4730  -22.3672   24.3158 C   0  0  0  0  0  0
  -26.9246  -21.7457   25.6497 C   0  0  0  0  0  0
  -28.8269  -20.3688   23.7393 C   0  0  0  0  0  0
  -27.6341  -23.0098   23.5226 C   0  0  0  0  0  0
  -27.2544  -20.2387   25.6191 C   0  0  2  0  0  0
  -28.6196  -20.9649   22.3114 C   0  0  2  0  0  0
  -23.5776  -19.4442   22.6311 C   0  0  0  0  0  0
  -28.3159  -19.8969   26.6902 C   0  0  0  0  0  0
  -29.9429  -20.8113   21.5193 C   0  0  0  0  0  0
  -27.5861  -18.2865   24.2423 C   0  0  0  0  0  0
  -27.9524  -24.6505   21.0589 C   0  0  0  0  0  0
  -28.5329  -23.2248   21.1748 C   0  0  0  0  0  0
  -28.4914  -25.4066   19.8320 C   0  0  0  0  0  0
  -27.5981  -19.7611   24.2693 N   0  0  0  0  0  0
  -30.3947  -15.2312   21.6352 N   0  0  0  0  0  0
  -27.9544  -22.3264   22.2306 N   0  3  2  0  0  0
  -26.7734  -17.8380   18.9814 Cl  0  0  0  0  0  0
  -31.4526  -12.3918   19.0944 H   0  0  0  0  0  0
  -30.2984  -11.2968   19.7869 H   0  0  0  0  0  0
  -29.7023  -11.7941   17.4080 H   0  0  0  0  0  0
  -29.6331  -13.5089   17.7618 H   0  0  0  0  0  0
  -27.8261  -11.3068   18.8196 H   0  0  0  0  0  0
  -27.3465  -12.6363   17.7898 H   0  0  0  0  0  0
  -27.6852  -14.2404   19.5717 H   0  0  0  0  0  0
  -28.6792  -11.9506   21.3402 H   0  0  0  0  0  0
  -28.4575  -13.5900   21.8648 H   0  0  0  0  0  0
  -25.2773   -9.5677   22.4752 H   0  0  0  0  0  0
  -24.0012   -7.4624   22.7479 H   0  0  0  0  0  0
  -21.0836   -8.8769   19.8923 H   0  0  0  0  0  0
  -22.3728  -10.9657   19.6154 H   0  0  0  0  0  0
  -21.2033   -7.6145   23.9725 H   0  0  0  0  0  0
  -21.1442   -6.0512   25.9068 H   0  0  0  0  0  0
  -22.0617   -2.7616   23.2853 H   0  0  0  0  0  0
  -22.4034  -11.9866   22.4882 H   0  0  0  0  0  0
  -21.0997  -13.1170   22.2583 H   0  0  0  0  0  0
  -24.6124  -15.8028   20.4976 H   0  0  0  0  0  0
  -26.2163  -15.6158   20.0102 H   0  0  0  0  0  0
  -26.7092  -32.5584   23.1171 H   0  0  0  0  0  0
  -25.0034  -33.9769   25.0503 H   0  0  0  0  0  0
  -22.6855  -31.3109   21.4181 H   0  0  0  0  0  0
  -23.3755  -35.9658   23.3310 H   0  0  0  0  0  0
  -24.3572  -36.8927   22.2056 H   0  0  0  0  0  0
  -23.7233  -37.6524   23.6644 H   0  0  0  0  0  0
  -26.0225  -31.6138   20.5874 H   0  0  0  0  0  0
  -26.8147  -30.9051   21.9675 H   0  0  0  0  0  0
  -28.0960  -29.1384   21.1316 H   0  0  0  0  0  0
  -26.0341  -25.9789   19.0198 H   0  0  0  0  0  0
  -23.9623  -27.2807   19.0672 H   0  0  0  0  0  0
  -23.7062  -30.6005   19.4097 H   0  0  0  0  0  0
  -22.7253  -29.2437   19.8760 H   0  0  0  0  0  0
  -25.1269  -36.2002   25.0846 H   0  0  0  0  0  0
  -20.9932  -28.3196   24.1475 H   0  0  0  0  0  0
  -20.5689  -26.2232   23.3607 H   0  0  0  0  0  0
  -21.6625  -26.7445   22.1204 H   0  0  0  0  0  0
  -19.6915  -25.6303   21.1223 H   0  0  0  0  0  0
  -19.6689  -27.3219   20.6775 H   0  0  0  0  0  0
  -17.4187  -26.6677   21.4015 H   0  0  0  0  0  0
  -18.0278  -26.0044   22.9012 H   0  0  0  0  0  0
  -19.7924  -30.7205   24.2349 H   0  0  0  0  0  0
  -17.5010  -31.6273   24.5125 H   0  0  0  0  0  0
  -15.5342  -30.2994   23.7623 H   0  0  0  0  0  0
  -15.8649  -28.0808   22.7091 H   0  0  0  0  0  0
  -24.5958  -30.6951   25.7793 H   0  0  0  0  0  0
  -24.8907  -32.2777   26.4943 H   0  0  0  0  0  0
  -25.8138  -30.8811   27.0215 H   0  0  0  0  0  0
  -26.2811  -29.6807   24.1152 H   0  0  0  0  0  0
  -27.4201  -29.7295   25.4403 H   0  0  0  0  0  0
  -27.8585  -30.4413   23.9057 H   0  0  0  0  0  0
  -27.2694  -33.3593   26.2061 H   0  0  0  0  0  0
  -28.3865  -32.6837   25.0296 H   0  0  0  0  0  0
  -28.0720  -31.8406   26.5375 H   0  0  0  0  0  0
  -28.2595  -38.0112   24.7526 H   0  0  0  0  0  0
  -28.1081  -36.2643   24.6283 H   0  0  0  0  0  0
  -27.2296  -37.1451   25.8865 H   0  0  0  0  0  0
  -20.9286  -29.8728   21.7003 H   0  0  0  0  0  0
  -26.0204  -38.2889   24.1415 H   0  0  0  0  0  0
  -29.4593  -16.4819   23.7173 H   0  0  0  0  0  0
  -28.9766  -16.1817   19.4504 H   0  0  0  0  0  0
  -25.6875  -19.3998   20.9200 H   0  0  0  0  0  0
  -24.9078  -17.8984   23.4588 H   0  0  0  0  0  0
  -25.7632  -23.1574   24.5609 H   0  0  0  0  0  0
  -25.8952  -21.6638   23.7134 H   0  0  0  0  0  0
  -26.1299  -21.8798   26.3835 H   0  0  0  0  0  0
  -27.7647  -22.3140   26.0526 H   0  0  0  0  0  0
  -29.2414  -21.1279   24.4003 H   0  0  0  0  0  0
  -29.5982  -19.5982   23.7156 H   0  0  0  0  0  0
  -28.5362  -23.1681   24.1123 H   0  0  0  0  0  0
  -27.2625  -24.0137   23.3417 H   0  0  0  0  0  0
  -26.3322  -19.7274   25.9018 H   0  0  0  0  0  0
  -27.9244  -20.3298   21.7781 H   0  0  0  0  0  0
  -23.5564  -20.1198   21.7751 H   0  0  0  0  0  0
  -23.5142  -20.0378   23.5435 H   0  0  0  0  0  0
  -22.6951  -18.8065   22.5827 H   0  0  0  0  0  0
  -29.3064  -20.2779   26.4409 H   0  0  0  0  0  0
  -28.4078  -18.8273   26.8671 H   0  0  0  0  0  0
  -28.0441  -20.3393   27.6480 H   0  0  0  0  0  0
  -30.7315  -21.4503   21.9140 H   0  0  0  0  0  0
  -29.8281  -21.0208   20.4561 H   0  0  0  0  0  0
  -30.3106  -19.7867   21.5776 H   0  0  0  0  0  0
  -28.3445  -17.9082   24.9259 H   0  0  0  0  0  0
  -26.6464  -17.9155   24.6458 H   0  0  0  0  0  0
  -28.2489  -25.2288   21.9339 H   0  0  0  0  0  0
  -26.8624  -24.6291   21.0396 H   0  0  0  0  0  0
  -29.6054  -23.3395   21.3302 H   0  0  0  0  0  0
  -28.3982  -22.7363   20.2095 H   0  0  0  0  0  0
  -28.0043  -25.1055   18.9053 H   0  0  0  0  0  0
  -29.5440  -25.1616   19.6953 H   0  0  0  0  0  0
  -31.1826  -15.6023   22.1445 H   0  0  0  0  0  0
  -27.0336  -22.1065   21.8777 H   0  0  0  0  0  0
  1 25  1  0  0  0
  1 30  2  0  0  0
  1 93  1  0  0  0
  2  3  1  0  0  0
  2 25  1  0  0  0
  2 96  1  0  0  0
  2 97  1  0  0  0
  3  4  1  0  0  0
  3 98  1  0  0  0
  3 99  1  0  0  0
  4  5  1  0  0  0
  4100  1  0  0  0
  4101  1  0  0  0
  5  6  1  0  0  0
  5 26  1  0  0  0
  5102  1  0  0  0
  6 25  1  0  0  0
  6103  1  0  0  0
  6104  1  0  0  0
  7  8  2  0  0  0
  7 26  1  0  0  0
  7 29  1  0  0  0
  8  9  1  0  0  0
  8 22  1  0  0  0
  9 10  1  0  0  0
  9 27  2  0  0  0
 10 11  2  0  0  0
 10 15  1  0  0  0
 11 12  1  0  0  0
 11105  1  0  0  0
 12 13  2  0  0  0
 12106  1  0  0  0
 13 14  1  0  0  0
 13 31  1  0  0  0
 14 15  2  0  0  0
 14107  1  0  0  0
 15108  1  0  0  0
 16 17  2  0  0  0
 16 21  1  0  0  0
 16 31  1  0  0  0
 17 18  1  0  0  0
 17109  1  0  0  0
 18 19  2  0  0  0
 18110  1  0  0  0
 19 20  1  0  0  0
 19 24  1  0  0  0
 20 21  2  0  0  0
 20111  1  0  0  0
 21 23  1  0  0  0
 22 28  1  0  0  0
 22 32  2  0  0  0
 26 27  1  0  0  0
 28112  1  0  0  0
 28113  1  0  0  0
 29114  1  0  0  0
 29115  1  0  0  0
 33 34  1  0  0  0
 33 66  1  0  0  0
 33 70  2  0  0  0
 34 36  1  0  0  0
 34 59  1  0  0  0
 34116  1  0  0  0
 35 44  2  0  0  0
 35 45  1  0  0  0
 35 68  1  0  0  0
 36 56  1  0  0  0
 36117  1  0  0  0
 37 39  1  0  0  0
 37 47  1  0  0  0
 37 66  1  0  0  0
 37118  1  0  0  0
 38 43  2  0  0  0
 38 46  1  0  0  0
 38 47  1  0  0  0
 39 64  1  0  0  0
 39 67  2  0  0  0
 40 52  1  0  0  0
 40 53  2  0  0  0
 40 58  1  0  0  0
 41119  1  0  0  0
 41120  1  0  0  0
 41121  1  0  0  0
 41 48  1  0  0  0
 42 43  1  0  0  0
 42 66  1  0  0  0
 42122  1  0  0  0
 42123  1  0  0  0
 43 44  1  0  0  0
 44124  1  0  0  0
 45 46  2  0  0  0
 45125  1  0  0  0
 46126  1  0  0  0
 47127  1  0  0  0
 47128  1  0  0  0
 48 56  1  0  0  0
 48 65  1  0  0  0
 48129  1  0  0  0
 49 50  1  0  0  0
 49 53  1  0  0  0
 49 64  1  0  0  0
 49130  1  0  0  0
 50 51  1  0  0  0
 50131  1  0  0  0
 50132  1  0  0  0
 51 52  1  0  0  0
 51133  1  0  0  0
 51134  1  0  0  0
 52135  1  0  0  0
 52136  1  0  0  0
 53 54  1  0  0  0
 54 55  2  0  0  0
 54137  1  0  0  0
 55 57  1  0  0  0
 55138  1  0  0  0
 56 69  2  0  0  0
 57 58  2  0  0  0
 57139  1  0  0  0
 58140  1  0  0  0
 59 60  1  0  0  0
 59 61  1  0  0  0
 59 62  1  0  0  0
 60141  1  0  0  0
 60142  1  0  0  0
 60143  1  0  0  0
 61144  1  0  0  0
 61145  1  0  0  0
 61146  1  0  0  0
 62147  1  0  0  0
 62148  1  0  0  0
 62149  1  0  0  0
 63 65  1  0  0  0
 63150  1  0  0  0
 63151  1  0  0  0
 63152  1  0  0  0
 64153  1  0  0  0
 65154  1  0  0  0
 68 91  1  0  0  0
 71 74  2  0  0  0
 71 75  1  0  0  0
 71155  1  0  0  0
 72 75  2  0  0  0
 72 76  1  0  0  0
 72156  1  0  0  0
 73 74  1  0  0  0
 73 76  2  0  0  0
 73 77  1  0  0  0
 74 88  1  0  0  0
 75 93  1  0  0  0
 76 95  1  0  0  0
 77 78  2  0  0  0
 77157  1  0  0  0
 78 85  1  0  0  0
 78158  1  0  0  0
 79 80  1  0  0  0
 79 82  1  0  0  0
 79159  1  0  0  0
 79160  1  0  0  0
 80 83  1  0  0  0
 80161  1  0  0  0
 80162  1  0  0  0
 81 84  1  0  0  0
 81 92  1  0  0  0
 81163  1  0  0  0
 81164  1  0  0  0
 82 94  1  0  0  0
 82165  1  0  0  0
 82166  1  0  0  0
 83 86  1  0  0  0
 83 92  1  0  0  0
 83167  1  0  0  0
 84 87  1  0  0  0
 84 94  1  0  0  0
 84168  1  0  0  0
 85169  1  0  0  0
 85170  1  0  0  0
 85171  1  0  0  0
 86172  1  0  0  0
 86173  1  0  0  0
 86174  1  0  0  0
 87175  1  0  0  0
 87176  1  0  0  0
 87177  1  0  0  0
 88 92  1  0  0  0
 88178  1  0  0  0
 88179  1  0  0  0
 89 90  1  0  0  0
 89 91  1  0  0  0
 89180  1  0  0  0
 89181  1  0  0  0
 90182  1  0  0  0
 90183  1  0  0  0
 90 94  1  0  0  0
 91184  1  0  0  0
 91185  1  0  0  0
 93186  1  0  0  0
 94187  1  0  0  0
M  CHG  1  94   1
M  ISO  4   1 100  68 101  91 101  93 100
M  END
> <chiral flag>
0

> <version>
0

> <s_m_source_file>
/data/baiqing/PycharmProjects/Reinvent-master-3.2/result/LINK_invent/BTK/process_docking_weight1_custom_product_contain_oxygen_bond_distance_aromatic_linkinvent_7_9_3/rearranged_h_0039.sdf

> <i_m_source_file_index>
19

> <r_mmod_Potential_Energy-OPLS-2005>
51.7688064575195

> <r_mmod_Stretch_Energy-OPLS-2005>
44.7011833190918

> <r_mmod_Bend_Energy-OPLS-2005>
160.77717590332

> <r_mmod_Torsional_Energy-OPLS-2005>
343.778045654297

> <r_mmod_Improper_Torsional_Energy-OPLS-2005>
5.22094821929932

> <r_mmod_Van_der_Waal_Energy-OPLS-2005>
179.83544921875

> <r_mmod_Electrostatic_Energy-OPLS-2005>
-300.587188720703

> <r_mmod_Solvation_Energy-OPLS-2005>
-391.360198974609

> <b_mmod_Minimization_Converged-OPLS-2005>
0

> <r_mmod_RMS_Derivative-OPLS-2005>
3.50719022750854

$$$$
19
                    3D
 Structure written by MMmdl.
159167  0  0  1  0            999 V2000
  -30.6539  -14.5487   20.5396 C   0  0  0  0  0  0
  -30.4267  -12.3474   19.4292 C   0  0  0  0  0  0
  -29.4962  -12.5112   18.2079 C   0  0  0  0  0  0
  -28.0153  -12.3667   18.6158 C   0  0  0  0  0  0
  -27.6530  -13.2123   19.8659 C   0  0  2  0  0  0
  -28.6974  -13.0221   20.9890 C   0  0  0  0  0  0
  -25.2558  -13.8169   20.5671 C   0  0  0  0  0  0
  -24.1829  -13.0437   20.9174 C   0  0  0  0  0  0
  -24.6388  -11.6905   20.8717 C   0  0  0  0  0  0
  -23.9061  -10.4288   21.0389 C   0  0  0  0  0  0
  -24.3621   -9.4208   21.9168 C   0  0  0  0  0  0
  -23.6295   -8.2249   22.0755 C   0  0  0  0  0  0
  -22.4280   -8.0275   21.3543 C   0  0  0  0  0  0
  -21.9906   -9.0247   20.4649 C   0  0  0  0  0  0
  -22.7232  -10.2126   20.3048 C   0  0  0  0  0  0
  -21.6853   -6.0731   22.5277 C   0  0  0  0  0  0
  -21.4012   -6.5635   23.8204 C   0  0  0  0  0  0
  -21.3664   -5.6793   24.9172 C   0  0  0  0  0  0
  -21.6050   -4.3057   24.7224 C   0  0  0  0  0  0
  -21.8822   -3.8144   23.4343 C   0  0  0  0  0  0
  -21.9196   -4.6960   22.3400 C   0  0  0  0  0  0
  -22.7856  -13.5233   21.1853 C   0  0  0  0  0  0
  -22.1670   -4.2148   21.0977 F   0  0  0  0  0  0
  -21.5632   -3.4540   25.7737 F   0  0  0  0  0  0
  -30.0178  -13.3485   20.4288 N   0  0  0  0  0  0
  -26.2980  -12.9342   20.3321 N   0  0  0  0  0  0
  -25.9309  -11.6499   20.5739 N   0  0  0  0  0  0
  -22.0525  -12.8204   22.0408 N   0  0  0  0  0  0
  -25.4283  -15.1890   20.4075 N   0  0  0  0  0  0
  -31.8064  -14.7257   20.1353 O   0  0  0  0  0  0
  -21.6646   -6.8873   21.4238 O   0  0  0  0  0  0
  -22.3529  -14.5541   20.6713 O   0  0  0  0  0  0
  -24.6192  -31.8633   23.2055 C   0  0  0  0  0  0
  -25.9068  -32.4796   23.8378 C   0  0  1  0  0  0
  -27.2322  -27.3797   20.1004 C   0  0  0  0  0  0
  -25.5906  -33.8599   24.2302 N   0  0  0  0  0  0
  -23.4099  -30.4868   21.5460 C   0  0  2  0  0  0
  -24.8555  -28.9451   20.1138 C   0  0  0  0  0  0
  -22.7444  -29.4633   22.4954 C   0  0  0  0  0  0
  -18.0280  -28.1384   22.8501 C   0  0  0  0  0  0
  -24.1486  -36.7307   23.2640 C   0  0  0  0  0  0
  -25.9437  -30.8126   21.3672 C   0  0  0  0  0  0
  -26.0180  -29.4429   20.7132 C   0  0  0  0  0  0
  -27.2062  -28.6698   20.6966 C   0  0  0  0  0  0
  -26.0401  -26.9030   19.5052 C   0  0  0  0  0  0
  -24.8650  -27.6786   19.5071 C   0  0  0  0  0  0
  -23.6216  -29.8197   20.1611 C   0  0  0  0  0  0
  -25.4108  -36.3094   24.0329 C   0  0  1  0  0  0
  -20.5871  -28.3678   23.1307 C   0  0  2  0  0  0
  -20.6767  -26.9406   22.5422 C   0  0  0  0  0  0
  -19.5741  -26.6390   21.5224 C   0  0  0  0  0  0
  -18.1920  -26.7930   22.1635 C   0  0  0  0  0  0
  -19.1526  -28.8848   23.2911 C   0  0  0  0  0  0
  -18.9446  -30.1454   23.8921 C   0  0  0  0  0  0
  -17.6444  -30.6589   24.0566 C   0  0  0  0  0  0
  -25.9042  -34.9459   23.5115 C   0  0  0  0  0  0
  -16.5340  -29.9084   23.6330 C   0  0  0  0  0  0
  -16.7267  -28.6505   23.0348 C   0  0  0  0  0  0
  -26.4472  -31.6594   25.0730 C   0  0  0  0  0  0
  -25.3719  -31.3725   26.1468 C   0  0  0  0  0  0
  -27.0325  -30.3024   24.6159 C   0  0  0  0  0  0
  -27.6038  -32.4322   25.7505 C   0  0  0  0  0  0
  -27.5575  -37.1805   24.8462 C   0  0  0  0  0  0
  -21.4161  -29.3037   22.3709 N   0  0  0  0  0  0
  -26.4286  -37.3778   23.9409 N   0  0  0  0  0  0
  -24.6760  -31.0703   22.0972 N   0  0  0  0  0  0
  -23.4200  -28.8174   23.3007 O   0  0  0  0  0  0
  -28.4131  -26.6467   20.1225 O   0  0  0  0  0  0
  -26.5614  -34.8911   22.4686 O   0  0  0  0  0  0
  -23.5364  -32.1418   23.7410 O   0  0  0  0  0  0
  -28.1649  -19.8813   18.5421 C   0  0  0  0  0  0
  -29.1597  -17.6963   18.9508 C   0  0  0  0  0  0
  -28.4981  -20.3150   19.8428 C   0  0  0  0  0  0
  -29.5122  -18.0676   20.2660 C   0  0  0  0  0  0
  -29.2028  -19.4059   20.7103 C   0  0  0  0  0  0
  -28.5002  -18.5936   18.0948 C   0  0  0  0  0  0
  -27.9527  -21.6571   20.2075 C   0  0  0  0  0  0
  -29.5866  -19.8276   22.1254 C   0  0  0  0  0  0
  -30.2537  -17.0140   21.1394 C   0  0  0  0  0  0
  -28.2489  -24.1697   20.7500 C   0  0  0  0  0  0
  -28.4906  -25.2675   19.6619 C   0  0  0  0  0  0
  -26.6306  -21.7596   20.3114 N   0  0  0  0  0  0
  -29.8833  -15.5832   20.9586 N   0  0  0  0  0  0
  -28.6922  -22.7813   20.3691 N   0  3  0  0  0  0
  -28.0822  -18.1076   16.4918 Cl  0  0  0  0  0  0
  -31.4692  -12.4607   19.1286 H   0  0  0  0  0  0
  -30.3437  -11.3431   19.8474 H   0  0  0  0  0  0
  -29.7458  -11.7763   17.4419 H   0  0  0  0  0  0
  -29.6539  -13.4903   17.7517 H   0  0  0  0  0  0
  -27.8220  -11.3110   18.8092 H   0  0  0  0  0  0
  -27.3717  -12.6418   17.7803 H   0  0  0  0  0  0
  -27.6844  -14.2554   19.5524 H   0  0  0  0  0  0
  -28.6914  -11.9917   21.3466 H   0  0  0  0  0  0
  -28.4550  -13.6349   21.8590 H   0  0  0  0  0  0
  -25.2770   -9.5687   22.4730 H   0  0  0  0  0  0
  -24.0014   -7.4634   22.7463 H   0  0  0  0  0  0
  -21.0843   -8.8753   19.8939 H   0  0  0  0  0  0
  -22.3689  -10.9658   19.6151 H   0  0  0  0  0  0
  -21.2004   -7.6145   23.9705 H   0  0  0  0  0  0
  -21.1489   -6.0527   25.9072 H   0  0  0  0  0  0
  -22.0605   -2.7606   23.2844 H   0  0  0  0  0  0
  -22.4180  -11.9845   22.4743 H   0  0  0  0  0  0
  -21.1146  -13.1205   22.2655 H   0  0  0  0  0  0
  -24.6610  -15.8441   20.5056 H   0  0  0  0  0  0
  -26.2779  -15.6245   20.0717 H   0  0  0  0  0  0
  -26.7137  -32.5481   23.1136 H   0  0  0  0  0  0
  -25.0040  -33.9762   25.0430 H   0  0  0  0  0  0
  -22.7000  -31.3041   21.4043 H   0  0  0  0  0  0
  -23.3732  -35.9654   23.3314 H   0  0  0  0  0  0
  -24.3586  -36.8927   22.2056 H   0  0  0  0  0  0
  -23.7250  -37.6512   23.6662 H   0  0  0  0  0  0
  -26.0647  -31.5772   20.5971 H   0  0  0  0  0  0
  -26.8276  -30.8635   21.9925 H   0  0  0  0  0  0
  -28.1049  -29.0548   21.1581 H   0  0  0  0  0  0
  -25.9838  -25.9327   19.0358 H   0  0  0  0  0  0
  -23.9675  -27.2921   19.0434 H   0  0  0  0  0  0
  -23.7365  -30.5942   19.4019 H   0  0  0  0  0  0
  -22.7436  -29.2443   19.8616 H   0  0  0  0  0  0
  -25.1278  -36.1951   25.0815 H   0  0  0  0  0  0
  -20.9972  -28.3242   24.1422 H   0  0  0  0  0  0
  -20.5680  -26.2282   23.3617 H   0  0  0  0  0  0
  -21.6628  -26.7443   22.1200 H   0  0  0  0  0  0
  -19.6900  -25.6309   21.1237 H   0  0  0  0  0  0
  -19.6661  -27.3213   20.6764 H   0  0  0  0  0  0
  -17.4188  -26.6685   21.4038 H   0  0  0  0  0  0
  -18.0317  -26.0062   22.9024 H   0  0  0  0  0  0
  -19.7915  -30.7281   24.2281 H   0  0  0  0  0  0
  -17.4987  -31.6261   24.5177 H   0  0  0  0  0  0
  -15.5338  -30.2988   23.7635 H   0  0  0  0  0  0
  -15.8672  -28.0838   22.7029 H   0  0  0  0  0  0
  -24.5870  -30.7102   25.7796 H   0  0  0  0  0  0
  -24.8928  -32.2890   26.4913 H   0  0  0  0  0  0
  -25.8037  -30.8879   27.0234 H   0  0  0  0  0  0
  -26.2907  -29.6775   24.1165 H   0  0  0  0  0  0
  -27.4029  -29.7265   25.4656 H   0  0  0  0  0  0
  -27.8768  -30.4332   23.9384 H   0  0  0  0  0  0
  -27.2643  -33.3601   26.2125 H   0  0  0  0  0  0
  -28.3827  -32.6928   25.0326 H   0  0  0  0  0  0
  -28.0739  -31.8433   26.5392 H   0  0  0  0  0  0
  -28.2582  -38.0109   24.7493 H   0  0  0  0  0  0
  -28.1077  -36.2635   24.6292 H   0  0  0  0  0  0
  -27.2306  -37.1474   25.8869 H   0  0  0  0  0  0
  -20.9335  -29.8790   21.6950 H   0  0  0  0  0  0
  -26.0170  -38.2855   24.1390 H   0  0  0  0  0  0
  -27.6309  -20.5417   17.8735 H   0  0  0  0  0  0
  -29.3998  -16.7109   18.5822 H   0  0  0  0  0  0
  -29.5464  -20.9042   22.2785 H   0  0  0  0  0  0
  -30.6076  -19.5253   22.3606 H   0  0  0  0  0  0
  -28.9141  -19.3664   22.8495 H   0  0  0  0  0  0
  -30.0888  -17.2327   22.1940 H   0  0  0  0  0  0
  -31.3240  -17.1471   20.9725 H   0  0  0  0  0  0
  -27.2043  -24.1828   21.0610 H   0  0  0  0  0  0
  -28.8162  -24.4435   21.6400 H   0  0  0  0  0  0
  -27.8721  -25.0842   18.7842 H   0  0  0  0  0  0
  -29.5079  -25.1397   19.2923 H   0  0  0  0  0  0
  -26.0703  -20.9296   20.1809 H   0  0  0  0  0  0
  -26.1603  -22.6263   20.5093 H   0  0  0  0  0  0
  -28.9459  -15.3362   21.2370 H   0  0  0  0  0  0
  -29.6921  -22.6623   20.2537 H   0  0  0  0  0  0
  1 25  1  0  0  0
  1 30  2  0  0  0
  1 83  1  0  0  0
  2  3  1  0  0  0
  2 25  1  0  0  0
  2 86  1  0  0  0
  2 87  1  0  0  0
  3  4  1  0  0  0
  3 88  1  0  0  0
  3 89  1  0  0  0
  4  5  1  0  0  0
  4 90  1  0  0  0
  4 91  1  0  0  0
  5  6  1  0  0  0
  5 26  1  0  0  0
  5 92  1  0  0  0
  6 25  1  0  0  0
  6 93  1  0  0  0
  6 94  1  0  0  0
  7  8  2  0  0  0
  7 26  1  0  0  0
  7 29  1  0  0  0
  8  9  1  0  0  0
  8 22  1  0  0  0
  9 10  1  0  0  0
  9 27  2  0  0  0
 10 11  2  0  0  0
 10 15  1  0  0  0
 11 12  1  0  0  0
 11 95  1  0  0  0
 12 13  2  0  0  0
 12 96  1  0  0  0
 13 14  1  0  0  0
 13 31  1  0  0  0
 14 15  2  0  0  0
 14 97  1  0  0  0
 15 98  1  0  0  0
 16 17  2  0  0  0
 16 21  1  0  0  0
 16 31  1  0  0  0
 17 18  1  0  0  0
 17 99  1  0  0  0
 18 19  2  0  0  0
 18100  1  0  0  0
 19 20  1  0  0  0
 19 24  1  0  0  0
 20 21  2  0  0  0
 20101  1  0  0  0
 21 23  1  0  0  0
 22 28  1  0  0  0
 22 32  2  0  0  0
 26 27  1  0  0  0
 28102  1  0  0  0
 28103  1  0  0  0
 29104  1  0  0  0
 29105  1  0  0  0
 33 34  1  0  0  0
 33 66  1  0  0  0
 33 70  2  0  0  0
 34 36  1  0  0  0
 34 59  1  0  0  0
 34106  1  0  0  0
 35 44  2  0  0  0
 35 45  1  0  0  0
 35 68  1  0  0  0
 36 56  1  0  0  0
 36107  1  0  0  0
 37 39  1  0  0  0
 37 47  1  0  0  0
 37 66  1  0  0  0
 37108  1  0  0  0
 38 43  2  0  0  0
 38 46  1  0  0  0
 38 47  1  0  0  0
 39 64  1  0  0  0
 39 67  2  0  0  0
 40 52  1  0  0  0
 40 53  2  0  0  0
 40 58  1  0  0  0
 41109  1  0  0  0
 41110  1  0  0  0
 41111  1  0  0  0
 41 48  1  0  0  0
 42 43  1  0  0  0
 42 66  1  0  0  0
 42112  1  0  0  0
 42113  1  0  0  0
 43 44  1  0  0  0
 44114  1  0  0  0
 45 46  2  0  0  0
 45115  1  0  0  0
 46116  1  0  0  0
 47117  1  0  0  0
 47118  1  0  0  0
 48 56  1  0  0  0
 48 65  1  0  0  0
 48119  1  0  0  0
 49 50  1  0  0  0
 49 53  1  0  0  0
 49 64  1  0  0  0
 49120  1  0  0  0
 50 51  1  0  0  0
 50121  1  0  0  0
 50122  1  0  0  0
 51 52  1  0  0  0
 51123  1  0  0  0
 51124  1  0  0  0
 52125  1  0  0  0
 52126  1  0  0  0
 53 54  1  0  0  0
 54 55  2  0  0  0
 54127  1  0  0  0
 55 57  1  0  0  0
 55128  1  0  0  0
 56 69  2  0  0  0
 57 58  2  0  0  0
 57129  1  0  0  0
 58130  1  0  0  0
 59 60  1  0  0  0
 59 61  1  0  0  0
 59 62  1  0  0  0
 60131  1  0  0  0
 60132  1  0  0  0
 60133  1  0  0  0
 61134  1  0  0  0
 61135  1  0  0  0
 61136  1  0  0  0
 62137  1  0  0  0
 62138  1  0  0  0
 62139  1  0  0  0
 63 65  1  0  0  0
 63140  1  0  0  0
 63141  1  0  0  0
 63142  1  0  0  0
 64143  1  0  0  0
 65144  1  0  0  0
 68 81  1  0  0  0
 71 73  2  0  0  0
 71 76  1  0  0  0
 71145  1  0  0  0
 72 74  1  0  0  0
 72 76  2  0  0  0
 72146  1  0  0  0
 73 75  1  0  0  0
 73 77  1  0  0  0
 74 75  2  0  0  0
 74 79  1  0  0  0
 75 78  1  0  0  0
 76 85  1  0  0  0
 77 82  1  0  0  0
 77 84  2  0  0  0
 78147  1  0  0  0
 78148  1  0  0  0
 78149  1  0  0  0
 79 83  1  0  0  0
 79150  1  0  0  0
 79151  1  0  0  0
 80 81  1  0  0  0
 80 84  1  0  0  0
 80152  1  0  0  0
 80153  1  0  0  0
 81154  1  0  0  0
 81155  1  0  0  0
 82156  1  0  0  0
 82157  1  0  0  0
 83158  1  0  0  0
 84159  1  0  0  0
M  CHG  1  84   1
M  ISO  4   1 100  68 101  81 101  83 100
M  END
> <chiral flag>
0

> <version>
0

> <s_m_source_file>
/data/baiqing/PycharmProjects/Reinvent-master-3.2/result/LINK_invent/BTK/process_docking_weight1_custom_product_contain_oxygen_bond_distance_aromatic_linkinvent_7_9_3/rearranged_h_0039.sdf

> <i_m_source_file_index>
20

> <r_mmod_Potential_Energy-OPLS-2005>
-301.534423828125

> <r_mmod_Stretch_Energy-OPLS-2005>
56.0613670349121

> <r_mmod_Bend_Energy-OPLS-2005>
125.49462890625

> <r_mmod_Torsional_Energy-OPLS-2005>
202.562896728516

> <r_mmod_Improper_Torsional_Energy-OPLS-2005>
4.63543462753296

> <r_mmod_Van_der_Waal_Energy-OPLS-2005>
147.069183349609

> <r_mmod_Electrostatic_Energy-OPLS-2005>
-434.786346435547

> <r_mmod_Solvation_Energy-OPLS-2005>
-426.164581298828

> <b_mmod_Minimization_Converged-OPLS-2005>
0

> <r_mmod_RMS_Derivative-OPLS-2005>
1.9218887090683

$$$$
20
                    3D
 Structure written by MMmdl.
162170  0  0  1  0            999 V2000
  -30.6807  -14.4591   20.5471 C   0  0  0  0  0  0
  -30.4328  -12.3007   19.3728 C   0  0  0  0  0  0
  -29.4926  -12.4636   18.1619 C   0  0  0  0  0  0
  -28.0038  -12.3860   18.5814 C   0  0  0  0  0  0
  -27.6629  -13.2003   19.8601 C   0  0  2  0  0  0
  -28.7051  -12.9526   20.9584 C   0  0  0  0  0  0
  -25.2754  -13.8211   20.5833 C   0  0  0  0  0  0
  -24.1920  -13.0568   20.9211 C   0  0  0  0  0  0
  -24.6368  -11.7045   20.8689 C   0  0  0  0  0  0
  -23.8937  -10.4386   21.0310 C   0  0  0  0  0  0
  -24.3519   -9.4359   21.9081 C   0  0  0  0  0  0
  -23.6253   -8.2364   22.0663 C   0  0  0  0  0  0
  -22.4205   -8.0346   21.3495 C   0  0  0  0  0  0
  -21.9823   -9.0311   20.4550 C   0  0  0  0  0  0
  -22.7151  -10.2244   20.2962 C   0  0  0  0  0  0
  -21.6823   -6.0775   22.5335 C   0  0  0  0  0  0
  -21.3977   -6.5597   23.8318 C   0  0  0  0  0  0
  -21.3660   -5.6695   24.9209 C   0  0  0  0  0  0
  -21.6103   -4.2964   24.7226 C   0  0  0  0  0  0
  -21.8823   -3.8136   23.4293 C   0  0  0  0  0  0
  -21.9170   -4.6971   22.3397 C   0  0  0  0  0  0
  -22.7955  -13.5485   21.1814 C   0  0  0  0  0  0
  -22.1564   -4.2219   21.0934 F   0  0  0  0  0  0
  -21.5722   -3.4417   25.7677 F   0  0  0  0  0  0
  -30.0157  -13.2822   20.3740 N   0  0  0  0  0  0
  -26.3052  -12.9328   20.3384 N   0  0  0  0  0  0
  -25.9308  -11.6477   20.5696 N   0  0  0  0  0  0
  -22.0367  -12.8536   22.0148 N   0  0  0  0  0  0
  -25.4563  -15.1983   20.4514 N   0  0  0  0  0  0
  -31.8701  -14.6052   20.2589 O   0  0  0  0  0  0
  -21.6608   -6.8982   21.4291 O   0  0  0  0  0  0
  -22.3851  -14.5874   20.6673 O   0  0  0  0  0  0
  -24.6147  -31.8653   23.2089 C   0  0  0  0  0  0
  -25.8975  -32.4880   23.8441 C   0  0  1  0  0  0
  -27.2212  -27.4110   20.1025 C   0  0  0  0  0  0
  -25.5801  -33.8615   24.2397 N   0  0  0  0  0  0
  -23.4102  -30.4907   21.5539 C   0  0  2  0  0  0
  -24.8485  -28.9439   20.1323 C   0  0  0  0  0  0
  -22.7441  -29.4640   22.5036 C   0  0  0  0  0  0
  -18.0231  -28.1501   22.8539 C   0  0  0  0  0  0
  -24.1431  -36.7352   23.2663 C   0  0  0  0  0  0
  -25.9397  -30.8185   21.3669 C   0  0  0  0  0  0
  -26.0104  -29.4490   20.7258 C   0  0  0  0  0  0
  -27.2002  -28.6855   20.7006 C   0  0  0  0  0  0
  -26.0289  -26.9016   19.5300 C   0  0  0  0  0  0
  -24.8466  -27.6693   19.5306 C   0  0  0  0  0  0
  -23.6200  -29.8219   20.1731 C   0  0  0  0  0  0
  -25.4043  -36.3200   24.0431 C   0  0  1  0  0  0
  -20.5848  -28.3799   23.1367 C   0  0  2  0  0  0
  -20.6726  -26.9500   22.5542 C   0  0  0  0  0  0
  -19.5689  -26.6339   21.5379 C   0  0  0  0  0  0
  -18.1865  -26.7979   22.1775 C   0  0  0  0  0  0
  -19.1525  -28.8906   23.2927 C   0  0  0  0  0  0
  -18.9479  -30.1581   23.8938 C   0  0  0  0  0  0
  -17.6461  -30.6709   24.0595 C   0  0  0  0  0  0
  -25.8960  -34.9582   23.5275 C   0  0  0  0  0  0
  -16.5345  -29.9191   23.6382 C   0  0  0  0  0  0
  -16.7250  -28.6675   23.0356 C   0  0  0  0  0  0
  -26.4431  -31.6546   25.0705 C   0  0  0  0  0  0
  -25.3775  -31.3516   26.1515 C   0  0  0  0  0  0
  -27.0245  -30.3012   24.6029 C   0  0  0  0  0  0
  -27.6067  -32.4256   25.7403 C   0  0  0  0  0  0
  -27.5609  -37.1813   24.8517 C   0  0  0  0  0  0
  -21.4135  -29.3184   22.3803 N   0  0  0  0  0  0
  -26.4293  -37.3861   23.9481 N   0  0  0  0  0  0
  -24.6786  -31.0724   22.1061 N   0  0  0  0  0  0
  -23.4096  -28.8096   23.3008 O   0  0  0  0  0  0
  -28.3853  -26.6876   20.0502 O   0  0  0  0  0  0
  -26.5570  -34.8972   22.4828 O   0  0  0  0  0  0
  -23.5361  -32.1401   23.7461 O   0  0  0  0  0  0
  -30.0745  -19.9948   19.9527 C   0  0  0  0  0  0
  -28.7835  -20.3956   20.3289 C   0  0  0  0  0  0
  -28.0713  -19.6169   21.2938 C   0  0  0  0  0  0
  -29.9173  -17.9828   21.3230 C   0  0  0  0  0  0
  -30.6537  -18.8117   20.4393 C   0  0  0  0  0  0
  -28.6455  -18.4136   21.7808 C   0  0  0  0  0  0
  -26.8877  -20.9879   23.0617 C   0  0  0  0  0  0
  -26.7130  -20.0661   21.8470 C   0  0  0  0  0  0
  -30.4612  -16.6223   21.7121 C   0  0  0  0  0  0
  -28.2170  -21.6601   19.6547 C   0  0  0  0  0  0
  -28.2202  -24.1852   19.7138 C   0  0  0  0  0  0
  -28.3750  -25.3960   20.6764 C   0  0  0  0  0  0
  -29.9419  -15.4998   20.9180 N   0  0  0  0  0  0
  -28.6399  -22.8990   20.3451 N   0  3  0  0  0  0
  -32.2461  -18.4076   19.9038 Cl  0  0  0  0  0  0
  -27.7995  -17.4330   22.9402 Cl  0  0  0  0  0  0
  -31.4754  -12.4310   19.0673 H   0  0  0  0  0  0
  -30.3638  -11.2886   19.7642 H   0  0  0  0  0  0
  -29.6927  -11.6743   17.4362 H   0  0  0  0  0  0
  -29.6984  -13.4077   17.6490 H   0  0  0  0  0  0
  -27.7743  -11.3346   18.7401 H   0  0  0  0  0  0
  -27.3664  -12.7104   17.7581 H   0  0  0  0  0  0
  -27.7058  -14.2552   19.6006 H   0  0  0  0  0  0
  -28.6918  -11.9009   21.2510 H   0  0  0  0  0  0
  -28.4831  -13.5258   21.8572 H   0  0  0  0  0  0
  -25.2618   -9.5958   22.4698 H   0  0  0  0  0  0
  -24.0037   -7.4728   22.7306 H   0  0  0  0  0  0
  -21.0804   -8.8832   19.8777 H   0  0  0  0  0  0
  -22.3535  -10.9783   19.6110 H   0  0  0  0  0  0
  -21.1931   -7.6085   23.9913 H   0  0  0  0  0  0
  -21.1411   -6.0303   25.9174 H   0  0  0  0  0  0
  -22.0577   -2.7579   23.2743 H   0  0  0  0  0  0
  -22.3622  -12.0192   22.4731 H   0  0  0  0  0  0
  -21.0950  -13.1752   22.1862 H   0  0  0  0  0  0
  -24.7096  -15.8463   20.6653 H   0  0  0  0  0  0
  -26.3489  -15.6463   20.3029 H   0  0  0  0  0  0
  -26.7021  -32.5582   23.1189 H   0  0  0  0  0  0
  -24.9861  -33.9817   25.0530 H   0  0  0  0  0  0
  -22.7086  -31.3102   21.4146 H   0  0  0  0  0  0
  -23.3790  -35.9599   23.3310 H   0  0  0  0  0  0
  -24.3550  -36.8936   22.2087 H   0  0  0  0  0  0
  -23.7060  -37.6518   23.6594 H   0  0  0  0  0  0
  -26.0530  -31.5702   20.5834 H   0  0  0  0  0  0
  -26.8314  -30.8813   21.9835 H   0  0  0  0  0  0
  -28.1061  -29.0666   21.1591 H   0  0  0  0  0  0
  -26.0041  -25.9292   19.0684 H   0  0  0  0  0  0
  -23.9498  -27.2752   19.0751 H   0  0  0  0  0  0
  -23.7428  -30.5922   19.4128 H   0  0  0  0  0  0
  -22.7447  -29.2509   19.8698 H   0  0  0  0  0  0
  -25.1187  -36.2171   25.0943 H   0  0  0  0  0  0
  -20.9975  -28.3368   24.1466 H   0  0  0  0  0  0
  -20.5571  -26.2462   23.3814 H   0  0  0  0  0  0
  -21.6582  -26.7486   22.1380 H   0  0  0  0  0  0
  -19.6787  -25.6140   21.1597 H   0  0  0  0  0  0
  -19.6514  -27.2958   20.6731 H   0  0  0  0  0  0
  -17.4101  -26.6791   21.4178 H   0  0  0  0  0  0
  -18.0212  -26.0133   22.9173 H   0  0  0  0  0  0
  -19.7929  -30.7389   24.2208 H   0  0  0  0  0  0
  -17.5069  -31.6353   24.5277 H   0  0  0  0  0  0
  -15.5378  -30.3161   23.7765 H   0  0  0  0  0  0
  -15.8630  -28.1057   22.6991 H   0  0  0  0  0  0
  -24.6074  -30.6730   25.7839 H   0  0  0  0  0  0
  -24.8858  -32.2595   26.5011 H   0  0  0  0  0  0
  -25.8271  -30.8707   27.0218 H   0  0  0  0  0  0
  -26.2717  -29.6768   24.1224 H   0  0  0  0  0  0
  -27.4176  -29.7231   25.4379 H   0  0  0  0  0  0
  -27.8491  -30.4361   23.9029 H   0  0  0  0  0  0
  -27.2759  -33.3600   26.1919 H   0  0  0  0  0  0
  -28.3829  -32.6689   25.0141 H   0  0  0  0  0  0
  -28.0764  -31.8411   26.5337 H   0  0  0  0  0  0
  -28.2644  -38.0088   24.7618 H   0  0  0  0  0  0
  -28.1075  -36.2665   24.6257 H   0  0  0  0  0  0
  -27.2362  -37.1377   25.8916 H   0  0  0  0  0  0
  -20.9278  -29.9129   21.7277 H   0  0  0  0  0  0
  -26.0283  -38.2993   24.1386 H   0  0  0  0  0  0
  -30.6609  -20.5786   19.2558 H   0  0  0  0  0  0
  -25.9235  -21.2896   23.4675 H   0  0  0  0  0  0
  -27.4338  -21.8890   22.7959 H   0  0  0  0  0  0
  -27.4405  -20.5009   23.8682 H   0  0  0  0  0  0
  -26.0978  -19.2160   22.1398 H   0  0  0  0  0  0
  -26.0959  -20.5480   21.0944 H   0  0  0  0  0  0
  -30.3488  -16.5013   22.7991 H   0  0  0  0  0  0
  -31.5566  -16.6595   21.6625 H   0  0  0  0  0  0
  -27.1343  -21.6182   19.6034 H   0  0  0  0  0  0
  -28.5442  -21.6798   18.6118 H   0  0  0  0  0  0
  -28.7887  -24.3452   18.7934 H   0  0  0  0  0  0
  -27.1765  -24.0847   19.4218 H   0  0  0  0  0  0
  -29.3339  -25.3320   21.1932 H   0  0  0  0  0  0
  -27.6150  -25.3590   21.4560 H   0  0  0  0  0  0
  -29.0120  -15.5418   20.4543 H   0  0  0  0  0  0
  -29.6432  -22.8886   20.4556 H   0  0  0  0  0  0
  -28.2333  -22.8595   21.2652 H   0  0  0  0  0  0
  1 25  1  0  0  0
  1 30  2  0  0  0
  1 83  1  0  0  0
  2  3  1  0  0  0
  2 25  1  0  0  0
  2 87  1  0  0  0
  2 88  1  0  0  0
  3  4  1  0  0  0
  3 89  1  0  0  0
  3 90  1  0  0  0
  4  5  1  0  0  0
  4 91  1  0  0  0
  4 92  1  0  0  0
  5  6  1  0  0  0
  5 26  1  0  0  0
  5 93  1  0  0  0
  6 25  1  0  0  0
  6 94  1  0  0  0
  6 95  1  0  0  0
  7  8  2  0  0  0
  7 26  1  0  0  0
  7 29  1  0  0  0
  8  9  1  0  0  0
  8 22  1  0  0  0
  9 10  1  0  0  0
  9 27  2  0  0  0
 10 11  2  0  0  0
 10 15  1  0  0  0
 11 12  1  0  0  0
 11 96  1  0  0  0
 12 13  2  0  0  0
 12 97  1  0  0  0
 13 14  1  0  0  0
 13 31  1  0  0  0
 14 15  2  0  0  0
 14 98  1  0  0  0
 15 99  1  0  0  0
 16 17  2  0  0  0
 16 21  1  0  0  0
 16 31  1  0  0  0
 17 18  1  0  0  0
 17100  1  0  0  0
 18 19  2  0  0  0
 18101  1  0  0  0
 19 20  1  0  0  0
 19 24  1  0  0  0
 20 21  2  0  0  0
 20102  1  0  0  0
 21 23  1  0  0  0
 22 28  1  0  0  0
 22 32  2  0  0  0
 26 27  1  0  0  0
 28103  1  0  0  0
 28104  1  0  0  0
 29105  1  0  0  0
 29106  1  0  0  0
 33 34  1  0  0  0
 33 66  1  0  0  0
 33 70  2  0  0  0
 34 36  1  0  0  0
 34 59  1  0  0  0
 34107  1  0  0  0
 35 44  2  0  0  0
 35 45  1  0  0  0
 35 68  1  0  0  0
 36 56  1  0  0  0
 36108  1  0  0  0
 37 39  1  0  0  0
 37 47  1  0  0  0
 37 66  1  0  0  0
 37109  1  0  0  0
 38 43  2  0  0  0
 38 46  1  0  0  0
 38 47  1  0  0  0
 39 64  1  0  0  0
 39 67  2  0  0  0
 40 52  1  0  0  0
 40 53  2  0  0  0
 40 58  1  0  0  0
 41110  1  0  0  0
 41111  1  0  0  0
 41112  1  0  0  0
 41 48  1  0  0  0
 42 43  1  0  0  0
 42 66  1  0  0  0
 42113  1  0  0  0
 42114  1  0  0  0
 43 44  1  0  0  0
 44115  1  0  0  0
 45 46  2  0  0  0
 45116  1  0  0  0
 46117  1  0  0  0
 47118  1  0  0  0
 47119  1  0  0  0
 48 56  1  0  0  0
 48 65  1  0  0  0
 48120  1  0  0  0
 49 50  1  0  0  0
 49 53  1  0  0  0
 49 64  1  0  0  0
 49121  1  0  0  0
 50 51  1  0  0  0
 50122  1  0  0  0
 50123  1  0  0  0
 51 52  1  0  0  0
 51124  1  0  0  0
 51125  1  0  0  0
 52126  1  0  0  0
 52127  1  0  0  0
 53 54  1  0  0  0
 54 55  2  0  0  0
 54128  1  0  0  0
 55 57  1  0  0  0
 55129  1  0  0  0
 56 69  2  0  0  0
 57 58  2  0  0  0
 57130  1  0  0  0
 58131  1  0  0  0
 59 60  1  0  0  0
 59 61  1  0  0  0
 59 62  1  0  0  0
 60132  1  0  0  0
 60133  1  0  0  0
 60134  1  0  0  0
 61135  1  0  0  0
 61136  1  0  0  0
 61137  1  0  0  0
 62138  1  0  0  0
 62139  1  0  0  0
 62140  1  0  0  0
 63 65  1  0  0  0
 63141  1  0  0  0
 63142  1  0  0  0
 63143  1  0  0  0
 64144  1  0  0  0
 65145  1  0  0  0
 68 82  1  0  0  0
 71 72  2  0  0  0
 71 75  1  0  0  0
 71146  1  0  0  0
 72 73  1  0  0  0
 72 80  1  0  0  0
 73 76  2  0  0  0
 73 78  1  0  0  0
 74 75  2  0  0  0
 74 76  1  0  0  0
 74 79  1  0  0  0
 75 85  1  0  0  0
 76 86  1  0  0  0
 77 78  1  0  0  0
 77147  1  0  0  0
 77148  1  0  0  0
 77149  1  0  0  0
 78150  1  0  0  0
 78151  1  0  0  0
 79 83  1  0  0  0
 79152  1  0  0  0
 79153  1  0  0  0
 80 84  1  0  0  0
 80154  1  0  0  0
 80155  1  0  0  0
 81 82  1  0  0  0
 81 84  1  0  0  0
 81156  1  0  0  0
 81157  1  0  0  0
 82158  1  0  0  0
 82159  1  0  0  0
 83160  1  0  0  0
 84161  1  0  0  0
 84162  1  0  0  0
M  CHG  1  84   1
M  ISO  4   1 100  68 101  82 101  83 100
M  END
> <chiral flag>
0

> <version>
0

> <s_m_source_file>
/data/baiqing/PycharmProjects/Reinvent-master-3.2/result/LINK_invent/BTK/process_docking_weight1_custom_product_contain_oxygen_bond_distance_aromatic_linkinvent_7_9_3/rearranged_h_0039.sdf

> <i_m_source_file_index>
21

> <r_mmod_Potential_Energy-OPLS-2005>
-183.772735595703

> <r_mmod_Stretch_Energy-OPLS-2005>
42.2746429443359

> <r_mmod_Bend_Energy-OPLS-2005>
104.307327270508

> <r_mmod_Torsional_Energy-OPLS-2005>
250.676406860352

> <r_mmod_Improper_Torsional_Energy-OPLS-2005>
3.32608199119568

> <r_mmod_Van_der_Waal_Energy-OPLS-2005>
147.26318359375

> <r_mmod_Electrostatic_Energy-OPLS-2005>
-285.44921875

> <r_mmod_Solvation_Energy-OPLS-2005>
-467.683166503906

> <b_mmod_Minimization_Converged-OPLS-2005>
0

> <r_mmod_RMS_Derivative-OPLS-2005>
17.8474140167236

$$$$
21
                    3D
 Structure written by MMmdl.
168177  0  0  1  0            999 V2000
  -30.5894  -14.6439   20.5556 C   0  0  0  0  0  0
  -30.4569  -12.4041   19.4642 C   0  0  0  0  0  0
  -29.5239  -12.5064   18.2353 C   0  0  0  0  0  0
  -28.0483  -12.3224   18.6470 C   0  0  0  0  0  0
  -27.6607  -13.1922   19.8712 C   0  0  2  0  0  0
  -28.6957  -13.0369   21.0068 C   0  0  0  0  0  0
  -25.2611  -13.8098   20.5690 C   0  0  0  0  0  0
  -24.1849  -13.0416   20.9185 C   0  0  0  0  0  0
  -24.6371  -11.6875   20.8739 C   0  0  0  0  0  0
  -23.9024  -10.4281   21.0412 C   0  0  0  0  0  0
  -24.3575   -9.4202   21.9191 C   0  0  0  0  0  0
  -23.6257   -8.2238   22.0763 C   0  0  0  0  0  0
  -22.4243   -8.0272   21.3548 C   0  0  0  0  0  0
  -21.9873   -9.0243   20.4655 C   0  0  0  0  0  0
  -22.7204  -10.2125   20.3064 C   0  0  0  0  0  0
  -21.6838   -6.0713   22.5266 C   0  0  0  0  0  0
  -21.4017   -6.5618   23.8196 C   0  0  0  0  0  0
  -21.3661   -5.6769   24.9158 C   0  0  0  0  0  0
  -21.6036   -4.3035   24.7209 C   0  0  0  0  0  0
  -21.8819   -3.8129   23.4333 C   0  0  0  0  0  0
  -21.9194   -4.6947   22.3395 C   0  0  0  0  0  0
  -22.7883  -13.5271   21.1820 C   0  0  0  0  0  0
  -22.1667   -4.2140   21.0978 F   0  0  0  0  0  0
  -21.5627   -3.4520   25.7727 F   0  0  0  0  0  0
  -30.0129  -13.4047   20.4571 N   0  0  0  0  0  0
  -26.3012  -12.9230   20.3302 N   0  0  0  0  0  0
  -25.9289  -11.6416   20.5728 N   0  0  0  0  0  0
  -22.0492  -12.8282   22.0368 N   0  0  0  0  0  0
  -25.4370  -15.1801   20.4123 N   0  0  0  0  0  0
  -31.7278  -14.8629   20.1220 O   0  0  0  0  0  0
  -21.6629   -6.8852   21.4225 O   0  0  0  0  0  0
  -22.3604  -14.5587   20.6666 O   0  0  0  0  0  0
  -24.6254  -31.8594   23.2019 C   0  0  0  0  0  0
  -25.9113  -32.4770   23.8342 C   0  0  1  0  0  0
  -27.2284  -27.3228   20.1159 C   0  0  0  0  0  0
  -25.5917  -33.8571   24.2270 N   0  0  0  0  0  0
  -23.4159  -30.4841   21.5453 C   0  0  2  0  0  0
  -24.8605  -28.9365   20.1111 C   0  0  0  0  0  0
  -22.7452  -29.4640   22.4945 C   0  0  0  0  0  0
  -18.0282  -28.1398   22.8481 C   0  0  0  0  0  0
  -24.1484  -36.7306   23.2635 C   0  0  0  0  0  0
  -25.9545  -30.7938   21.3667 C   0  0  0  0  0  0
  -26.0271  -29.4191   20.7138 C   0  0  0  0  0  0
  -27.2086  -28.6235   20.7071 C   0  0  0  0  0  0
  -26.0330  -26.8890   19.4910 C   0  0  0  0  0  0
  -24.8662  -27.6779   19.4925 C   0  0  0  0  0  0
  -23.6271  -29.8154   20.1607 C   0  0  0  0  0  0
  -25.4103  -36.3086   24.0331 C   0  0  1  0  0  0
  -20.5879  -28.3701   23.1282 C   0  0  2  0  0  0
  -20.6769  -26.9429   22.5398 C   0  0  0  0  0  0
  -19.5745  -26.6403   21.5195 C   0  0  0  0  0  0
  -18.1931  -26.7939   22.1622 C   0  0  0  0  0  0
  -19.1536  -28.8863   23.2881 C   0  0  0  0  0  0
  -18.9462  -30.1466   23.8902 C   0  0  0  0  0  0
  -17.6461  -30.6596   24.0573 C   0  0  0  0  0  0
  -25.9041  -34.9450   23.5098 C   0  0  0  0  0  0
  -16.5350  -29.9099   23.6331 C   0  0  0  0  0  0
  -16.7271  -28.6519   23.0342 C   0  0  0  0  0  0
  -26.4497  -31.6585   25.0710 C   0  0  0  0  0  0
  -25.3742  -31.3743   26.1453 C   0  0  0  0  0  0
  -27.0304  -30.3001   24.6150 C   0  0  0  0  0  0
  -27.6066  -32.4312   25.7466 C   0  0  0  0  0  0
  -27.5571  -37.1801   24.8463 C   0  0  0  0  0  0
  -21.4168  -29.3053   22.3682 N   0  0  0  0  0  0
  -26.4276  -37.3778   23.9413 N   0  0  0  0  0  0
  -24.6848  -31.0619   22.0960 N   0  0  0  0  0  0
  -23.4176  -28.8174   23.3020 O   0  0  0  0  0  0
  -28.3888  -26.5328   20.1850 O   0  0  0  0  0  0
  -26.5609  -34.8923   22.4668 O   0  0  0  0  0  0
  -23.5432  -32.1380   23.7379 O   0  0  0  0  0  0
  -30.1720  -19.3032   21.9512 C   0  0  0  0  0  0
  -29.2576  -19.9800   21.0930 C   0  0  0  0  0  0
  -28.6154  -19.1556   20.1176 C   0  0  0  0  0  0
  -29.7700  -17.0788   20.9397 C   0  0  0  0  0  0
  -30.4197  -17.9028   21.8924 C   0  0  0  0  0  0
  -28.8862  -17.7422   20.0379 C   0  0  0  0  0  0
  -30.2650  -22.7206   19.5531 C   0  0  0  0  0  0
  -33.1478  -21.0878   21.1958 C   0  0  0  0  0  0
  -31.5215  -22.3158   19.8378 C   0  0  0  0  0  0
  -32.0147  -21.7984   21.0979 C   0  0  0  0  0  0
  -29.8980  -23.5441   18.3282 C   0  0  0  0  0  0
  -29.6042  -25.0048   18.7482 C   0  0  0  0  0  0
  -28.6914  -24.0313   20.9269 C   0  0  0  0  0  0
  -28.4567  -25.1078   19.7775 C   0  0  1  0  0  0
  -27.5825  -19.7692   19.1779 C   0  0  0  0  0  0
  -28.8805  -21.4917   21.4128 C   0  0  0  0  0  0
  -29.7747  -15.6205   21.0561 N   0  0  0  0  0  0
  -29.0421  -22.6372   20.4164 N   0  3  2  0  0  0
  -31.4617  -17.2017   23.0809 Cl  0  0  0  0  0  0
  -28.0797  -16.7868   18.8404 Cl  0  0  0  0  0  0
  -31.4974  -12.5542   19.1679 H   0  0  0  0  0  0
  -30.4141  -11.4035   19.8975 H   0  0  0  0  0  0
  -29.8011  -11.7600   17.4895 H   0  0  0  0  0  0
  -29.6531  -13.4783   17.7578 H   0  0  0  0  0  0
  -27.8994  -11.2689   18.8877 H   0  0  0  0  0  0
  -27.3940  -12.5411   17.8030 H   0  0  0  0  0  0
  -27.6833  -14.2227   19.5285 H   0  0  0  0  0  0
  -28.7165  -12.0074   21.3711 H   0  0  0  0  0  0
  -28.4178  -13.6401   21.8731 H   0  0  0  0  0  0
  -25.2721   -9.5671   22.4763 H   0  0  0  0  0  0
  -23.9950   -7.4629   22.7485 H   0  0  0  0  0  0
  -21.0801   -8.8760   19.8967 H   0  0  0  0  0  0
  -22.3655  -10.9655   19.6171 H   0  0  0  0  0  0
  -21.2012   -7.6128   23.9683 H   0  0  0  0  0  0
  -21.1491   -6.0518   25.9056 H   0  0  0  0  0  0
  -22.0604   -2.7596   23.2843 H   0  0  0  0  0  0
  -22.4083  -11.9949   22.4773 H   0  0  0  0  0  0
  -21.1124  -13.1343   22.2555 H   0  0  0  0  0  0
  -24.6636  -15.8283   20.5007 H   0  0  0  0  0  0
  -26.2595  -15.6013   19.9966 H   0  0  0  0  0  0
  -26.7173  -32.5441   23.1082 H   0  0  0  0  0  0
  -25.0031  -33.9702   25.0394 H   0  0  0  0  0  0
  -22.7117  -31.3062   21.4031 H   0  0  0  0  0  0
  -23.3726  -35.9655   23.3299 H   0  0  0  0  0  0
  -24.3572  -36.8919   22.2045 H   0  0  0  0  0  0
  -23.7255  -37.6522   23.6649 H   0  0  0  0  0  0
  -26.0743  -31.5548   20.5945 H   0  0  0  0  0  0
  -26.8398  -30.8495   21.9875 H   0  0  0  0  0  0
  -28.1053  -28.9945   21.1834 H   0  0  0  0  0  0
  -25.9437  -25.9381   18.9939 H   0  0  0  0  0  0
  -23.9706  -27.3032   19.0137 H   0  0  0  0  0  0
  -23.7408  -30.5891   19.4012 H   0  0  0  0  0  0
  -22.7470  -29.2433   19.8613 H   0  0  0  0  0  0
  -25.1280  -36.1922   25.0821 H   0  0  0  0  0  0
  -20.9971  -28.3273   24.1401 H   0  0  0  0  0  0
  -20.5665  -26.2309   23.3592 H   0  0  0  0  0  0
  -21.6646  -26.7459   22.1200 H   0  0  0  0  0  0
  -19.6909  -25.6315   21.1226 H   0  0  0  0  0  0
  -19.6676  -27.3211   20.6721 H   0  0  0  0  0  0
  -17.4187  -26.6658   21.4046 H   0  0  0  0  0  0
  -18.0369  -26.0092   22.9038 H   0  0  0  0  0  0
  -19.7942  -30.7285   24.2269 H   0  0  0  0  0  0
  -17.5020  -31.6275   24.5180 H   0  0  0  0  0  0
  -15.5357  -30.3003   23.7661 H   0  0  0  0  0  0
  -15.8668  -28.0848   22.7043 H   0  0  0  0  0  0
  -24.5916  -30.7073   25.7818 H   0  0  0  0  0  0
  -24.8937  -32.2915   26.4871 H   0  0  0  0  0  0
  -25.8086  -30.8949   27.0230 H   0  0  0  0  0  0
  -26.2846  -29.6769   24.1198 H   0  0  0  0  0  0
  -27.4010  -29.7253   25.4646 H   0  0  0  0  0  0
  -27.8729  -30.4272   23.9345 H   0  0  0  0  0  0
  -27.2700  -33.3645   26.1993 H   0  0  0  0  0  0
  -28.3900  -32.6803   25.0296 H   0  0  0  0  0  0
  -28.0693  -31.8456   26.5417 H   0  0  0  0  0  0
  -28.2600  -38.0090   24.7506 H   0  0  0  0  0  0
  -28.1060  -36.2623   24.6286 H   0  0  0  0  0  0
  -27.2300  -37.1463   25.8872 H   0  0  0  0  0  0
  -20.9342  -29.8770   21.6891 H   0  0  0  0  0  0
  -26.0162  -38.2849   24.1417 H   0  0  0  0  0  0
  -30.6570  -19.8563   22.7420 H   0  0  0  0  0  0
  -33.4995  -20.7303   22.1531 H   0  0  0  0  0  0
  -33.7398  -20.8452   20.3242 H   0  0  0  0  0  0
  -32.2687  -22.5189   19.0829 H   0  0  0  0  0  0
  -31.4868  -22.0147   22.0135 H   0  0  0  0  0  0
  -29.0331  -23.1066   17.8261 H   0  0  0  0  0  0
  -30.7162  -23.5198   17.6077 H   0  0  0  0  0  0
  -29.3675  -25.6061   17.8694 H   0  0  0  0  0  0
  -30.5079  -25.4395   19.1753 H   0  0  0  0  0  0
  -27.8054  -23.9831   21.5597 H   0  0  0  0  0  0
  -29.5052  -24.3705   21.5702 H   0  0  0  0  0  0
  -27.5636  -24.7892   19.2499 H   0  0  0  0  0  0
  -27.0600  -20.6087   19.6323 H   0  0  0  0  0  0
  -26.7975  -19.0638   18.9037 H   0  0  0  0  0  0
  -28.0639  -20.1106   18.2601 H   0  0  0  0  0  0
  -29.3911  -21.7848   22.3286 H   0  0  0  0  0  0
  -27.8282  -21.4867   21.7062 H   0  0  0  0  0  0
  -28.8959  -15.2446   21.3774 H   0  0  0  0  0  0
  -28.2905  -22.4331   19.7762 H   0  0  0  0  0  0
  1 25  1  0  0  0
  1 30  2  0  0  0
  1 87  1  0  0  0
  2  3  1  0  0  0
  2 25  1  0  0  0
  2 91  1  0  0  0
  2 92  1  0  0  0
  3  4  1  0  0  0
  3 93  1  0  0  0
  3 94  1  0  0  0
  4  5  1  0  0  0
  4 95  1  0  0  0
  4 96  1  0  0  0
  5  6  1  0  0  0
  5 26  1  0  0  0
  5 97  1  0  0  0
  6 25  1  0  0  0
  6 98  1  0  0  0
  6 99  1  0  0  0
  7  8  2  0  0  0
  7 26  1  0  0  0
  7 29  1  0  0  0
  8  9  1  0  0  0
  8 22  1  0  0  0
  9 10  1  0  0  0
  9 27  2  0  0  0
 10 11  2  0  0  0
 10 15  1  0  0  0
 11 12  1  0  0  0
 11100  1  0  0  0
 12 13  2  0  0  0
 12101  1  0  0  0
 13 14  1  0  0  0
 13 31  1  0  0  0
 14 15  2  0  0  0
 14102  1  0  0  0
 15103  1  0  0  0
 16 17  2  0  0  0
 16 21  1  0  0  0
 16 31  1  0  0  0
 17 18  1  0  0  0
 17104  1  0  0  0
 18 19  2  0  0  0
 18105  1  0  0  0
 19 20  1  0  0  0
 19 24  1  0  0  0
 20 21  2  0  0  0
 20106  1  0  0  0
 21 23  1  0  0  0
 22 28  1  0  0  0
 22 32  2  0  0  0
 26 27  1  0  0  0
 28107  1  0  0  0
 28108  1  0  0  0
 29109  1  0  0  0
 29110  1  0  0  0
 33 34  1  0  0  0
 33 66  1  0  0  0
 33 70  2  0  0  0
 34 36  1  0  0  0
 34 59  1  0  0  0
 34111  1  0  0  0
 35 44  2  0  0  0
 35 45  1  0  0  0
 35 68  1  0  0  0
 36 56  1  0  0  0
 36112  1  0  0  0
 37 39  1  0  0  0
 37 47  1  0  0  0
 37 66  1  0  0  0
 37113  1  0  0  0
 38 43  2  0  0  0
 38 46  1  0  0  0
 38 47  1  0  0  0
 39 64  1  0  0  0
 39 67  2  0  0  0
 40 52  1  0  0  0
 40 53  2  0  0  0
 40 58  1  0  0  0
 41114  1  0  0  0
 41115  1  0  0  0
 41116  1  0  0  0
 41 48  1  0  0  0
 42 43  1  0  0  0
 42 66  1  0  0  0
 42117  1  0  0  0
 42118  1  0  0  0
 43 44  1  0  0  0
 44119  1  0  0  0
 45 46  2  0  0  0
 45120  1  0  0  0
 46121  1  0  0  0
 47122  1  0  0  0
 47123  1  0  0  0
 48 56  1  0  0  0
 48 65  1  0  0  0
 48124  1  0  0  0
 49 50  1  0  0  0
 49 53  1  0  0  0
 49 64  1  0  0  0
 49125  1  0  0  0
 50 51  1  0  0  0
 50126  1  0  0  0
 50127  1  0  0  0
 51 52  1  0  0  0
 51128  1  0  0  0
 51129  1  0  0  0
 52130  1  0  0  0
 52131  1  0  0  0
 53 54  1  0  0  0
 54 55  2  0  0  0
 54132  1  0  0  0
 55 57  1  0  0  0
 55133  1  0  0  0
 56 69  2  0  0  0
 57 58  2  0  0  0
 57134  1  0  0  0
 58135  1  0  0  0
 59 60  1  0  0  0
 59 61  1  0  0  0
 59 62  1  0  0  0
 60136  1  0  0  0
 60137  1  0  0  0
 60138  1  0  0  0
 61139  1  0  0  0
 61140  1  0  0  0
 61141  1  0  0  0
 62142  1  0  0  0
 62143  1  0  0  0
 62144  1  0  0  0
 63 65  1  0  0  0
 63145  1  0  0  0
 63146  1  0  0  0
 63147  1  0  0  0
 64148  1  0  0  0
 65149  1  0  0  0
 68 84  1  0  0  0
 71 72  2  0  0  0
 71 75  1  0  0  0
 71150  1  0  0  0
 72 73  1  0  0  0
 72 86  1  0  0  0
 73 76  2  0  0  0
 73 85  1  0  0  0
 74 75  2  0  0  0
 74 76  1  0  0  0
 74 87  1  0  0  0
 75 89  1  0  0  0
 76 90  1  0  0  0
 77 79  2  0  0  0
 77 81  1  0  0  0
 77 88  1  0  0  0
 78 80  2  0  0  0
 78151  1  0  0  0
 78152  1  0  0  0
 79 80  1  0  0  0
 79153  1  0  0  0
 80154  1  0  0  0
 81 82  1  0  0  0
 81155  1  0  0  0
 81156  1  0  0  0
 82 84  1  0  0  0
 82157  1  0  0  0
 82158  1  0  0  0
 83 84  1  0  0  0
 83 88  1  0  0  0
 83159  1  0  0  0
 83160  1  0  0  0
 84161  1  0  0  0
 85162  1  0  0  0
 85163  1  0  0  0
 85164  1  0  0  0
 86165  1  0  0  0
 86166  1  0  0  0
 86 88  1  0  0  0
 87167  1  0  0  0
 88168  1  0  0  0
M  CHG  1  88   1
M  ISO  4   1 100  68 101  84 101  87 100
M  END
> <chiral flag>
0

> <version>
0

> <s_m_source_file>
/data/baiqing/PycharmProjects/Reinvent-master-3.2/result/LINK_invent/BTK/process_docking_weight1_custom_product_contain_oxygen_bond_distance_aromatic_linkinvent_7_9_3/rearranged_h_0039.sdf

> <i_m_source_file_index>
22

> <r_mmod_Potential_Energy-OPLS-2005>
-23.1333541870117

> <r_mmod_Stretch_Energy-OPLS-2005>
86.1539535522461

> <r_mmod_Bend_Energy-OPLS-2005>
177.184204101562

> <r_mmod_Torsional_Energy-OPLS-2005>
261.833740234375

> <r_mmod_Improper_Torsional_Energy-OPLS-2005>
7.55657291412354

> <r_mmod_Van_der_Waal_Energy-OPLS-2005>
141.829544067383

> <r_mmod_Electrostatic_Energy-OPLS-2005>
-304.398284912109

> <r_mmod_Solvation_Energy-OPLS-2005>
-441.024658203125

> <b_mmod_Minimization_Converged-OPLS-2005>
0

> <r_mmod_RMS_Derivative-OPLS-2005>
3.01460862159729

$$$$
22
                    3D
 Structure written by MMmdl.
171180  0  0  1  0            999 V2000
  -30.8076  -14.3346   20.7026 C   0  0  0  0  0  0
  -30.4120  -12.2818   19.3980 C   0  0  0  0  0  0
  -29.4796  -12.5289   18.1978 C   0  0  0  0  0  0
  -28.0104  -12.3728   18.6231 C   0  0  0  0  0  0
  -27.6694  -13.2058   19.8851 C   0  0  2  0  0  0
  -28.7091  -12.9619   21.0040 C   0  0  0  0  0  0
  -25.2622  -13.8161   20.5697 C   0  0  0  0  0  0
  -24.1865  -13.0432   20.9169 C   0  0  0  0  0  0
  -24.6415  -11.6901   20.8733 C   0  0  0  0  0  0
  -23.9077  -10.4284   21.0403 C   0  0  0  0  0  0
  -24.3616   -9.4192   21.9185 C   0  0  0  0  0  0
  -23.6276   -8.2234   22.0747 C   0  0  0  0  0  0
  -22.4261   -8.0280   21.3538 C   0  0  0  0  0  0
  -21.9910   -9.0260   20.4644 C   0  0  0  0  0  0
  -22.7251  -10.2129   20.3050 C   0  0  0  0  0  0
  -21.6850   -6.0742   22.5285 C   0  0  0  0  0  0
  -21.4011   -6.5650   23.8217 C   0  0  0  0  0  0
  -21.3655   -5.6797   24.9181 C   0  0  0  0  0  0
  -21.6043   -4.3061   24.7224 C   0  0  0  0  0  0
  -21.8817   -3.8156   23.4347 C   0  0  0  0  0  0
  -21.9187   -4.6970   22.3409 C   0  0  0  0  0  0
  -22.7886  -13.5221   21.1847 C   0  0  0  0  0  0
  -22.1653   -4.2160   21.0980 F   0  0  0  0  0  0
  -21.5628   -3.4535   25.7730 F   0  0  0  0  0  0
  -30.0606  -13.2238   20.4716 N   0  0  0  0  0  0
  -26.3073  -12.9339   20.3423 N   0  0  0  0  0  0
  -25.9344  -11.6491   20.5771 N   0  0  0  0  0  0
  -22.0537  -12.8186   22.0394 N   0  0  0  0  0  0
  -25.4373  -15.1869   20.4106 N   0  0  0  0  0  0
  -31.7593  -14.6672   19.9902 O   0  0  0  0  0  0
  -21.6628   -6.8878   21.4243 O   0  0  0  0  0  0
  -22.3566  -14.5538   20.6712 O   0  0  0  0  0  0
  -24.6135  -31.8706   23.2119 C   0  0  0  0  0  0
  -25.9039  -32.4833   23.8405 C   0  0  1  0  0  0
  -27.2337  -27.4539   20.0977 C   0  0  0  0  0  0
  -25.5905  -33.8627   24.2349 N   0  0  0  0  0  0
  -23.3992  -30.4952   21.5514 C   0  0  2  0  0  0
  -24.8450  -28.9615   20.1175 C   0  0  0  0  0  0
  -22.7399  -29.4688   22.5006 C   0  0  0  0  0  0
  -18.0270  -28.1383   22.8511 C   0  0  0  0  0  0
  -24.1484  -36.7301   23.2634 C   0  0  0  0  0  0
  -25.9268  -30.8428   21.3608 C   0  0  0  0  0  0
  -26.0049  -29.4779   20.7104 C   0  0  0  0  0  0
  -27.2031  -28.7308   20.6986 C   0  0  0  0  0  0
  -26.0604  -26.9536   19.4893 C   0  0  0  0  0  0
  -24.8667  -27.6970   19.5042 C   0  0  0  0  0  0
  -23.6059  -29.8252   20.1666 C   0  0  0  0  0  0
  -25.4104  -36.3113   24.0350 C   0  0  1  0  0  0
  -20.5862  -28.3661   23.1337 C   0  0  2  0  0  0
  -20.6767  -26.9404   22.5423 C   0  0  0  0  0  0
  -19.5741  -26.6400   21.5224 C   0  0  0  0  0  0
  -18.1918  -26.7939   22.1632 C   0  0  0  0  0  0
  -19.1522  -28.8839   23.2920 C   0  0  0  0  0  0
  -18.9454  -30.1456   23.8915 C   0  0  0  0  0  0
  -17.6457  -30.6588   24.0574 C   0  0  0  0  0  0
  -25.9036  -34.9480   23.5146 C   0  0  0  0  0  0
  -16.5343  -29.9091   23.6335 C   0  0  0  0  0  0
  -16.7263  -28.6510   23.0353 C   0  0  0  0  0  0
  -26.4475  -31.6593   25.0714 C   0  0  0  0  0  0
  -25.3751  -31.3685   26.1469 C   0  0  0  0  0  0
  -27.0292  -30.3044   24.6044 C   0  0  0  0  0  0
  -27.6060  -32.4298   25.7471 C   0  0  0  0  0  0
  -27.5583  -37.1802   24.8468 C   0  0  0  0  0  0
  -21.4129  -29.3040   22.3749 N   0  0  0  0  0  0
  -26.4287  -37.3799   23.9416 N   0  0  0  0  0  0
  -24.6649  -31.0829   22.1000 N   0  0  0  0  0  0
  -23.4187  -28.8238   23.3040 O   0  0  0  0  0  0
  -28.4013  -26.7267   20.0877 O   0  0  0  0  0  0
  -26.5577  -34.8931   22.4699 O   0  0  0  0  0  0
  -23.5331  -32.1448   23.7532 O   0  0  0  0  0  0
  -32.6653  -18.3006   23.3894 C   0  0  0  0  0  0
  -31.4019  -17.2781   21.5743 C   0  0  0  0  0  0
  -32.1035  -18.3858   22.0978 C   0  0  0  0  0  0
  -32.4850  -17.1428   24.1750 C   0  0  0  0  0  0
  -31.2405  -16.1021   22.3427 C   0  0  0  0  0  0
  -31.7649  -16.0417   23.6539 C   0  0  0  0  0  0
  -30.2358  -23.7340   20.9969 C   0  0  0  0  0  0
  -30.8034  -21.4232   20.2344 C   0  0  0  0  0  0
  -30.2055  -20.9233   19.1381 C   0  0  0  0  0  0
  -29.4616  -24.5302   20.2259 C   0  0  0  0  0  0
  -31.3150  -22.8523   20.3836 C   0  0  0  0  0  0
  -30.1259  -23.6075   22.5105 C   0  0  0  0  0  0
  -29.8063  -22.1748   22.9684 C   0  0  0  0  0  0
  -30.9714  -21.1789   22.7792 C   0  0  0  0  0  0
  -33.0605  -17.0972   25.5795 C   0  0  0  0  0  0
  -32.2377  -19.6691   21.2814 C   0  0  0  0  0  0
  -28.2950  -25.4131   20.6447 C   0  0  0  0  0  0
  -30.5186  -14.9902   21.8327 N   0  0  0  0  0  0
  -31.0491  -20.5501   21.4290 N   0  3  2  0  0  0
  -31.5405  -14.6122   24.6056 Cl  0  0  0  0  0  0
  -31.4566  -12.3648   19.0936 H   0  0  0  0  0  0
  -30.2951  -11.2601   19.7629 H   0  0  0  0  0  0
  -29.7096  -11.8332   17.3894 H   0  0  0  0  0  0
  -29.6470  -13.5300   17.7973 H   0  0  0  0  0  0
  -27.8348  -11.3139   18.8180 H   0  0  0  0  0  0
  -27.3441  -12.6427   17.8036 H   0  0  0  0  0  0
  -27.7241  -14.2574   19.6005 H   0  0  0  0  0  0
  -28.6555  -11.9261   21.3420 H   0  0  0  0  0  0
  -28.4601  -13.5673   21.8760 H   0  0  0  0  0  0
  -25.2765   -9.5650   22.4754 H   0  0  0  0  0  0
  -23.9991   -7.4618   22.7456 H   0  0  0  0  0  0
  -21.0842   -8.8776   19.8937 H   0  0  0  0  0  0
  -22.3729  -10.9656   19.6138 H   0  0  0  0  0  0
  -21.2006   -7.6156   23.9717 H   0  0  0  0  0  0
  -21.1476   -6.0532   25.9076 H   0  0  0  0  0  0
  -22.0595   -2.7614   23.2849 H   0  0  0  0  0  0
  -22.4135  -11.9788   22.4683 H   0  0  0  0  0  0
  -21.1176  -13.1209   22.2676 H   0  0  0  0  0  0
  -24.6783  -15.8513   20.5184 H   0  0  0  0  0  0
  -26.3040  -15.6208   20.1175 H   0  0  0  0  0  0
  -26.7116  -32.5552   23.1174 H   0  0  0  0  0  0
  -25.0105  -33.9796   25.0529 H   0  0  0  0  0  0
  -22.6872  -31.3120   21.4143 H   0  0  0  0  0  0
  -23.3760  -35.9618   23.3299 H   0  0  0  0  0  0
  -24.3594  -36.8900   22.2047 H   0  0  0  0  0  0
  -23.7232  -37.6509   23.6640 H   0  0  0  0  0  0
  -26.0339  -31.6078   20.5897 H   0  0  0  0  0  0
  -26.8181  -30.8984   21.9742 H   0  0  0  0  0  0
  -28.0993  -29.1258   21.1571 H   0  0  0  0  0  0
  -26.0653  -25.9960   18.9887 H   0  0  0  0  0  0
  -23.9768  -27.2984   19.0354 H   0  0  0  0  0  0
  -23.7098  -30.5982   19.4040 H   0  0  0  0  0  0
  -22.7303  -29.2411   19.8760 H   0  0  0  0  0  0
  -25.1284  -36.1966   25.0844 H   0  0  0  0  0  0
  -20.9970  -28.3216   24.1450 H   0  0  0  0  0  0
  -20.5697  -26.2259   23.3601 H   0  0  0  0  0  0
  -21.6634  -26.7469   22.1194 H   0  0  0  0  0  0
  -19.6891  -25.6321   21.1228 H   0  0  0  0  0  0
  -19.6673  -27.3237   20.6774 H   0  0  0  0  0  0
  -17.4200  -26.6721   21.4014 H   0  0  0  0  0  0
  -18.0286  -26.0068   22.9008 H   0  0  0  0  0  0
  -19.7932  -30.7280   24.2269 H   0  0  0  0  0  0
  -17.5010  -31.6267   24.5179 H   0  0  0  0  0  0
  -15.5347  -30.2994   23.7657 H   0  0  0  0  0  0
  -15.8666  -28.0847   22.7029 H   0  0  0  0  0  0
  -24.5925  -30.7029   25.7815 H   0  0  0  0  0  0
  -24.8938  -32.2830   26.4934 H   0  0  0  0  0  0
  -25.8118  -30.8850   27.0215 H   0  0  0  0  0  0
  -26.2811  -29.6804   24.1133 H   0  0  0  0  0  0
  -27.4134  -29.7269   25.4462 H   0  0  0  0  0  0
  -27.8621  -30.4396   23.9140 H   0  0  0  0  0  0
  -27.2707  -33.3610   26.2052 H   0  0  0  0  0  0
  -28.3866  -32.6829   25.0284 H   0  0  0  0  0  0
  -28.0727  -31.8406   26.5375 H   0  0  0  0  0  0
  -28.2600  -38.0098   24.7527 H   0  0  0  0  0  0
  -28.1083  -36.2637   24.6279 H   0  0  0  0  0  0
  -27.2308  -37.1426   25.8870 H   0  0  0  0  0  0
  -20.9278  -29.8750   21.6972 H   0  0  0  0  0  0
  -26.0178  -38.2877   24.1414 H   0  0  0  0  0  0
  -33.2205  -19.1400   23.7885 H   0  0  0  0  0  0
  -30.9797  -17.3290   20.5788 H   0  0  0  0  0  0
  -30.0364  -21.5397   18.2670 H   0  0  0  0  0  0
  -29.8757  -19.8951   19.0847 H   0  0  0  0  0  0
  -29.6265  -24.5161   19.1574 H   0  0  0  0  0  0
  -32.2389  -22.8954   20.9620 H   0  0  0  0  0  0
  -31.5724  -23.2306   19.3938 H   0  0  0  0  0  0
  -29.3751  -24.2765   22.9225 H   0  0  0  0  0  0
  -31.0702  -23.9337   22.9497 H   0  0  0  0  0  0
  -28.8910  -21.8084   22.5023 H   0  0  0  0  0  0
  -29.5904  -22.2227   24.0363 H   0  0  0  0  0  0
  -30.8394  -20.3800   23.5093 H   0  0  0  0  0  0
  -31.9178  -21.6583   23.0314 H   0  0  0  0  0  0
  -33.4245  -18.0756   25.8957 H   0  0  0  0  0  0
  -33.8925  -16.3948   25.6295 H   0  0  0  0  0  0
  -32.3007  -16.7813   26.2947 H   0  0  0  0  0  0
  -32.3673  -19.3908   20.2344 H   0  0  0  0  0  0
  -33.1438  -20.2103   21.5562 H   0  0  0  0  0  0
  -28.2082  -25.5147   21.7243 H   0  0  0  0  0  0
  -27.3963  -24.8909   20.3175 H   0  0  0  0  0  0
  -29.8844  -14.5266   22.4647 H   0  0  0  0  0  0
  -30.2843  -19.8933   21.4385 H   0  0  0  0  0  0
  1 25  1  0  0  0
  1 30  2  0  0  0
  1 88  1  0  0  0
  2  3  1  0  0  0
  2 25  1  0  0  0
  2 91  1  0  0  0
  2 92  1  0  0  0
  3  4  1  0  0  0
  3 93  1  0  0  0
  3 94  1  0  0  0
  4  5  1  0  0  0
  4 95  1  0  0  0
  4 96  1  0  0  0
  5  6  1  0  0  0
  5 26  1  0  0  0
  5 97  1  0  0  0
  6 25  1  0  0  0
  6 98  1  0  0  0
  6 99  1  0  0  0
  7  8  2  0  0  0
  7 26  1  0  0  0
  7 29  1  0  0  0
  8  9  1  0  0  0
  8 22  1  0  0  0
  9 10  1  0  0  0
  9 27  2  0  0  0
 10 11  2  0  0  0
 10 15  1  0  0  0
 11 12  1  0  0  0
 11100  1  0  0  0
 12 13  2  0  0  0
 12101  1  0  0  0
 13 14  1  0  0  0
 13 31  1  0  0  0
 14 15  2  0  0  0
 14102  1  0  0  0
 15103  1  0  0  0
 16 17  2  0  0  0
 16 21  1  0  0  0
 16 31  1  0  0  0
 17 18  1  0  0  0
 17104  1  0  0  0
 18 19  2  0  0  0
 18105  1  0  0  0
 19 20  1  0  0  0
 19 24  1  0  0  0
 20 21  2  0  0  0
 20106  1  0  0  0
 21 23  1  0  0  0
 22 28  1  0  0  0
 22 32  2  0  0  0
 26 27  1  0  0  0
 28107  1  0  0  0
 28108  1  0  0  0
 29109  1  0  0  0
 29110  1  0  0  0
 33 34  1  0  0  0
 33 66  1  0  0  0
 33 70  2  0  0  0
 34 36  1  0  0  0
 34 59  1  0  0  0
 34111  1  0  0  0
 35 44  2  0  0  0
 35 45  1  0  0  0
 35 68  1  0  0  0
 36 56  1  0  0  0
 36112  1  0  0  0
 37 39  1  0  0  0
 37 47  1  0  0  0
 37 66  1  0  0  0
 37113  1  0  0  0
 38 43  2  0  0  0
 38 46  1  0  0  0
 38 47  1  0  0  0
 39 64  1  0  0  0
 39 67  2  0  0  0
 40 52  1  0  0  0
 40 53  2  0  0  0
 40 58  1  0  0  0
 41114  1  0  0  0
 41115  1  0  0  0
 41116  1  0  0  0
 41 48  1  0  0  0
 42 43  1  0  0  0
 42 66  1  0  0  0
 42117  1  0  0  0
 42118  1  0  0  0
 43 44  1  0  0  0
 44119  1  0  0  0
 45 46  2  0  0  0
 45120  1  0  0  0
 46121  1  0  0  0
 47122  1  0  0  0
 47123  1  0  0  0
 48 56  1  0  0  0
 48 65  1  0  0  0
 48124  1  0  0  0
 49 50  1  0  0  0
 49 53  1  0  0  0
 49 64  1  0  0  0
 49125  1  0  0  0
 50 51  1  0  0  0
 50126  1  0  0  0
 50127  1  0  0  0
 51 52  1  0  0  0
 51128  1  0  0  0
 51129  1  0  0  0
 52130  1  0  0  0
 52131  1  0  0  0
 53 54  1  0  0  0
 54 55  2  0  0  0
 54132  1  0  0  0
 55 57  1  0  0  0
 55133  1  0  0  0
 56 69  2  0  0  0
 57 58  2  0  0  0
 57134  1  0  0  0
 58135  1  0  0  0
 59 60  1  0  0  0
 59 61  1  0  0  0
 59 62  1  0  0  0
 60136  1  0  0  0
 60137  1  0  0  0
 60138  1  0  0  0
 61139  1  0  0  0
 61140  1  0  0  0
 61141  1  0  0  0
 62142  1  0  0  0
 62143  1  0  0  0
 62144  1  0  0  0
 63 65  1  0  0  0
 63145  1  0  0  0
 63146  1  0  0  0
 63147  1  0  0  0
 64148  1  0  0  0
 65149  1  0  0  0
 68 87  1  0  0  0
 71 73  2  0  0  0
 71 74  1  0  0  0
 71150  1  0  0  0
 72 73  1  0  0  0
 72 75  2  0  0  0
 72151  1  0  0  0
 73 86  1  0  0  0
 74 76  2  0  0  0
 74 85  1  0  0  0
 75 76  1  0  0  0
 75 88  1  0  0  0
 76 90  1  0  0  0
 77 80  2  0  0  0
 77 81  1  0  0  0
 77 82  1  0  0  0
 78 79  2  0  0  0
 78 81  1  0  0  0
 78 89  1  0  0  0
 79152  1  0  0  0
 79153  1  0  0  0
 80 87  1  0  0  0
 80154  1  0  0  0
 81155  1  0  0  0
 81156  1  0  0  0
 82 83  1  0  0  0
 82157  1  0  0  0
 82158  1  0  0  0
 83 84  1  0  0  0
 83159  1  0  0  0
 83160  1  0  0  0
 84 89  1  0  0  0
 84161  1  0  0  0
 84162  1  0  0  0
 85163  1  0  0  0
 85164  1  0  0  0
 85165  1  0  0  0
 86166  1  0  0  0
 86167  1  0  0  0
 86 89  1  0  0  0
 87168  1  0  0  0
 87169  1  0  0  0
 88170  1  0  0  0
 89171  1  0  0  0
M  CHG  1  89   1
M  ISO  4   1 100  68 101  87 101  88 100
M  END
> <chiral flag>
0

> <version>
0

> <s_m_source_file>
/data/baiqing/PycharmProjects/Reinvent-master-3.2/result/LINK_invent/BTK/process_docking_weight1_custom_product_contain_oxygen_bond_distance_aromatic_linkinvent_7_9_3/rearranged_h_0039.sdf

> <i_m_source_file_index>
23

> <r_mmod_Potential_Energy-OPLS-2005>
-154.527114868164

> <r_mmod_Stretch_Energy-OPLS-2005>
35.9596519470215

> <r_mmod_Bend_Energy-OPLS-2005>
102.875511169434

> <r_mmod_Torsional_Energy-OPLS-2005>
239.760345458984

> <r_mmod_Improper_Torsional_Energy-OPLS-2005>
3.13814830780029

> <r_mmod_Van_der_Waal_Energy-OPLS-2005>
162.374404907227

> <r_mmod_Electrostatic_Energy-OPLS-2005>
-279.867950439453

> <r_mmod_Solvation_Energy-OPLS-2005>
-426.724731445312

> <b_mmod_Minimization_Converged-OPLS-2005>
0

> <r_mmod_RMS_Derivative-OPLS-2005>
2.12175297737122

$$$$
23
                    3D
 Structure written by MMmdl.
157165  0  0  1  0            999 V2000
  -30.7277  -14.4671   20.6062 C   0  0  0  0  0  0
  -30.4223  -12.3261   19.4138 C   0  0  0  0  0  0
  -29.4887  -12.4957   18.1994 C   0  0  0  0  0  0
  -28.0121  -12.3531   18.6177 C   0  0  0  0  0  0
  -27.6548  -13.2011   19.8670 C   0  0  2  0  0  0
  -28.6989  -13.0067   20.9902 C   0  0  0  0  0  0
  -25.2562  -13.8146   20.5664 C   0  0  0  0  0  0
  -24.1826  -13.0440   20.9175 C   0  0  0  0  0  0
  -24.6370  -11.6902   20.8750 C   0  0  0  0  0  0
  -23.9034  -10.4301   21.0415 C   0  0  0  0  0  0
  -24.3596   -9.4222   21.9199 C   0  0  0  0  0  0
  -23.6286   -8.2251   22.0759 C   0  0  0  0  0  0
  -22.4267   -8.0287   21.3543 C   0  0  0  0  0  0
  -21.9893   -9.0255   20.4644 C   0  0  0  0  0  0
  -22.7209  -10.2140   20.3064 C   0  0  0  0  0  0
  -21.6852   -6.0735   22.5278 C   0  0  0  0  0  0
  -21.4017   -6.5634   23.8216 C   0  0  0  0  0  0
  -21.3657   -5.6776   24.9175 C   0  0  0  0  0  0
  -21.6046   -4.3037   24.7217 C   0  0  0  0  0  0
  -21.8832   -3.8140   23.4333 C   0  0  0  0  0  0
  -21.9203   -4.6963   22.3393 C   0  0  0  0  0  0
  -22.7852  -13.5254   21.1849 C   0  0  0  0  0  0
  -22.1661   -4.2155   21.0969 F   0  0  0  0  0  0
  -21.5626   -3.4520   25.7723 F   0  0  0  0  0  0
  -30.0262  -13.3129   20.4331 N   0  0  0  0  0  0
  -26.2989  -12.9304   20.3329 N   0  0  0  0  0  0
  -25.9293  -11.6470   20.5766 N   0  0  0  0  0  0
  -22.0474  -12.8293   22.0409 N   0  0  0  0  0  0
  -25.4222  -15.1874   20.4039 N   0  0  0  0  0  0
  -31.8483  -14.6493   20.1293 O   0  0  0  0  0  0
  -21.6629   -6.8885   21.4242 O   0  0  0  0  0  0
  -22.3548  -14.5550   20.6665 O   0  0  0  0  0  0
  -24.6202  -31.8696   23.2130 C   0  0  0  0  0  0
  -25.9095  -32.4836   23.8411 C   0  0  1  0  0  0
  -27.2170  -27.4115   20.0733 C   0  0  0  0  0  0
  -25.5944  -33.8632   24.2352 N   0  0  0  0  0  0
  -23.4041  -30.4998   21.5574 C   0  0  2  0  0  0
  -24.8437  -28.9744   20.1116 C   0  0  0  0  0  0
  -22.7420  -29.4674   22.4993 C   0  0  0  0  0  0
  -18.0284  -28.1359   22.8505 C   0  0  0  0  0  0
  -24.1495  -36.7304   23.2632 C   0  0  0  0  0  0
  -25.9411  -30.8206   21.3793 C   0  0  0  0  0  0
  -26.0085  -29.4574   20.7192 C   0  0  0  0  0  0
  -27.1950  -28.6811   20.7064 C   0  0  0  0  0  0
  -26.0332  -26.9815   19.4207 C   0  0  0  0  0  0
  -24.8523  -27.7354   19.4607 C   0  0  0  0  0  0
  -23.6089  -29.8450   20.1680 C   0  0  0  0  0  0
  -25.4121  -36.3122   24.0344 C   0  0  1  0  0  0
  -20.5880  -28.3649   23.1302 C   0  0  2  0  0  0
  -20.6779  -26.9393   22.5378 C   0  0  0  0  0  0
  -19.5725  -26.6343   21.5214 C   0  0  0  0  0  0
  -18.1913  -26.7908   22.1626 C   0  0  0  0  0  0
  -19.1540  -28.8813   23.2913 C   0  0  0  0  0  0
  -18.9469  -30.1412   23.8946 C   0  0  0  0  0  0
  -17.6476  -30.6560   24.0592 C   0  0  0  0  0  0
  -25.9049  -34.9482   23.5133 C   0  0  0  0  0  0
  -16.5368  -29.9073   23.6330 C   0  0  0  0  0  0
  -16.7281  -28.6494   23.0349 C   0  0  0  0  0  0
  -26.4476  -31.6618   25.0755 C   0  0  0  0  0  0
  -25.3702  -31.3761   26.1478 C   0  0  0  0  0  0
  -27.0320  -30.3046   24.6187 C   0  0  0  0  0  0
  -27.6060  -32.4332   25.7498 C   0  0  0  0  0  0
  -27.5586  -37.1819   24.8467 C   0  0  0  0  0  0
  -21.4145  -29.3032   22.3713 N   0  0  0  0  0  0
  -26.4307  -37.3807   23.9394 N   0  0  0  0  0  0
  -24.6728  -31.0795   22.1052 N   0  0  0  0  0  0
  -23.4199  -28.8211   23.3029 O   0  0  0  0  0  0
  -28.3688  -26.6337   20.1101 O   0  0  0  0  0  0
  -26.5587  -34.8928   22.4682 O   0  0  0  0  0  0
  -23.5396  -32.1461   23.7522 O   0  0  0  0  0  0
  -29.3160  -18.3246   22.2541 C   0  0  0  0  0  0
  -29.5463  -20.1225   20.1183 C   0  0  0  0  0  0
  -29.3181  -17.8168   20.9373 C   0  0  0  0  0  0
  -29.5210  -20.6327   21.4364 C   0  0  0  0  0  0
  -29.4419  -18.7365   19.8633 C   0  0  0  0  0  0
  -29.4171  -19.7093   22.5088 C   0  0  0  0  0  0
  -29.1867  -24.3014   20.5150 C   0  0  0  0  0  0
  -27.4041  -22.5494   20.5947 C   0  0  0  0  0  0
  -29.1178  -16.3118   20.7142 C   0  0  0  0  0  0
  -29.6191  -22.1522   21.6854 C   0  0  0  0  0  0
  -28.2610  -25.2425   19.7017 C   0  0  0  0  0  0
  -30.1453  -15.4504   21.3135 N   0  0  0  0  0  0
  -28.7710  -23.0412   20.8532 N   0  0  0  0  0  0
  -30.3025  -24.7267   20.8317 O   0  0  0  0  0  0
  -29.4546  -18.2100   18.2183 Cl  0  0  0  0  0  0
  -29.3954  -20.2297   24.1572 Cl  0  0  0  0  0  0
  -31.4607  -12.4416   19.0996 H   0  0  0  0  0  0
  -30.3428  -11.3157   19.8178 H   0  0  0  0  0  0
  -29.7320  -11.7530   17.4380 H   0  0  0  0  0  0
  -29.6528  -13.4707   17.7369 H   0  0  0  0  0  0
  -27.8271  -11.2978   18.8217 H   0  0  0  0  0  0
  -27.3588  -12.6194   17.7853 H   0  0  0  0  0  0
  -27.6824  -14.2401   19.5496 H   0  0  0  0  0  0
  -28.6881  -11.9784   21.3523 H   0  0  0  0  0  0
  -28.4541  -13.6219   21.8568 H   0  0  0  0  0  0
  -25.2741   -9.5699   22.4773 H   0  0  0  0  0  0
  -24.0002   -7.4641   22.7483 H   0  0  0  0  0  0
  -21.0824   -8.8772   19.8948 H   0  0  0  0  0  0
  -22.3664  -10.9680   19.6175 H   0  0  0  0  0  0
  -21.2004   -7.6137   23.9709 H   0  0  0  0  0  0
  -21.1457   -6.0509   25.9072 H   0  0  0  0  0  0
  -22.0614   -2.7603   23.2828 H   0  0  0  0  0  0
  -22.4022  -11.9936   22.4835 H   0  0  0  0  0  0
  -21.1084  -13.1342   22.2547 H   0  0  0  0  0  0
  -24.6494  -15.8351   20.5144 H   0  0  0  0  0  0
  -26.2610  -15.6347   20.0611 H   0  0  0  0  0  0
  -26.7176  -32.5515   23.1172 H   0  0  0  0  0  0
  -25.0161  -33.9805   25.0544 H   0  0  0  0  0  0
  -22.6948  -31.3194   21.4278 H   0  0  0  0  0  0
  -23.3756  -35.9635   23.3327 H   0  0  0  0  0  0
  -24.3580  -36.8873   22.2036 H   0  0  0  0  0  0
  -23.7247  -37.6527   23.6606 H   0  0  0  0  0  0
  -26.0779  -31.5910   20.6186 H   0  0  0  0  0  0
  -26.8204  -30.8579   22.0092 H   0  0  0  0  0  0
  -28.0859  -29.0508   21.1957 H   0  0  0  0  0  0
  -25.9783  -26.0719   18.8441 H   0  0  0  0  0  0
  -23.9659  -27.3715   18.9601 H   0  0  0  0  0  0
  -23.7156  -30.6269   19.4142 H   0  0  0  0  0  0
  -22.7275  -29.2726   19.8703 H   0  0  0  0  0  0
  -25.1305  -36.1987   25.0842 H   0  0  0  0  0  0
  -21.0011  -28.3216   24.1404 H   0  0  0  0  0  0
  -20.5748  -26.2247   23.3550 H   0  0  0  0  0  0
  -21.6626  -26.7461   22.1103 H   0  0  0  0  0  0
  -19.6874  -25.6246   21.1256 H   0  0  0  0  0  0
  -19.6641  -27.3134   20.6726 H   0  0  0  0  0  0
  -17.4185  -26.6717   21.4015 H   0  0  0  0  0  0
  -18.0267  -26.0033   22.8984 H   0  0  0  0  0  0
  -19.7954  -30.7223   24.2346 H   0  0  0  0  0  0
  -17.5035  -31.6237   24.5195 H   0  0  0  0  0  0
  -15.5369  -30.2990   23.7641 H   0  0  0  0  0  0
  -15.8683  -28.0831   22.7040 H   0  0  0  0  0  0
  -24.5852  -30.7148   25.7781 H   0  0  0  0  0  0
  -24.8922  -32.2952   26.4879 H   0  0  0  0  0  0
  -25.8006  -30.8921   27.0255 H   0  0  0  0  0  0
  -26.2911  -29.6800   24.1184 H   0  0  0  0  0  0
  -27.4007  -29.7286   25.4685 H   0  0  0  0  0  0
  -27.8784  -30.4339   23.9433 H   0  0  0  0  0  0
  -27.2681  -33.3614   26.2109 H   0  0  0  0  0  0
  -28.3835  -32.6918   25.0296 H   0  0  0  0  0  0
  -28.0769  -31.8437   26.5372 H   0  0  0  0  0  0
  -28.2645  -38.0084   24.7514 H   0  0  0  0  0  0
  -28.1063  -36.2621   24.6324 H   0  0  0  0  0  0
  -27.2300  -37.1513   25.8874 H   0  0  0  0  0  0
  -20.9292  -29.8769   21.6963 H   0  0  0  0  0  0
  -26.0204  -38.2900   24.1347 H   0  0  0  0  0  0
  -29.2112  -17.6475   23.0883 H   0  0  0  0  0  0
  -29.6370  -20.8003   19.2808 H   0  0  0  0  0  0
  -27.2225  -22.4628   19.5221 H   0  0  0  0  0  0
  -26.6503  -23.2146   21.0186 H   0  0  0  0  0  0
  -27.1985  -21.5741   21.0337 H   0  0  0  0  0  0
  -29.0208  -16.0966   19.6503 H   0  0  0  0  0  0
  -28.1577  -16.0455   21.1548 H   0  0  0  0  0  0
  -30.6764  -22.4059   21.5898 H   0  0  0  0  0  0
  -29.3649  -22.3908   22.7165 H   0  0  0  0  0  0
  -27.2533  -24.8749   19.8242 H   0  0  0  0  0  0
  -28.5061  -25.1593   18.6426 H   0  0  0  0  0  0
  -30.8385  -16.0133   21.7825 H   0  0  0  0  0  0
  1 25  1  0  0  0
  1 30  2  0  0  0
  1 82  1  0  0  0
  2  3  1  0  0  0
  2 25  1  0  0  0
  2 87  1  0  0  0
  2 88  1  0  0  0
  3  4  1  0  0  0
  3 89  1  0  0  0
  3 90  1  0  0  0
  4  5  1  0  0  0
  4 91  1  0  0  0
  4 92  1  0  0  0
  5  6  1  0  0  0
  5 26  1  0  0  0
  5 93  1  0  0  0
  6 25  1  0  0  0
  6 94  1  0  0  0
  6 95  1  0  0  0
  7  8  2  0  0  0
  7 26  1  0  0  0
  7 29  1  0  0  0
  8  9  1  0  0  0
  8 22  1  0  0  0
  9 10  1  0  0  0
  9 27  2  0  0  0
 10 11  2  0  0  0
 10 15  1  0  0  0
 11 12  1  0  0  0
 11 96  1  0  0  0
 12 13  2  0  0  0
 12 97  1  0  0  0
 13 14  1  0  0  0
 13 31  1  0  0  0
 14 15  2  0  0  0
 14 98  1  0  0  0
 15 99  1  0  0  0
 16 17  2  0  0  0
 16 21  1  0  0  0
 16 31  1  0  0  0
 17 18  1  0  0  0
 17100  1  0  0  0
 18 19  2  0  0  0
 18101  1  0  0  0
 19 20  1  0  0  0
 19 24  1  0  0  0
 20 21  2  0  0  0
 20102  1  0  0  0
 21 23  1  0  0  0
 22 28  1  0  0  0
 22 32  2  0  0  0
 26 27  1  0  0  0
 28103  1  0  0  0
 28104  1  0  0  0
 29105  1  0  0  0
 29106  1  0  0  0
 33 34  1  0  0  0
 33 66  1  0  0  0
 33 70  2  0  0  0
 34 36  1  0  0  0
 34 59  1  0  0  0
 34107  1  0  0  0
 35 44  2  0  0  0
 35 45  1  0  0  0
 35 68  1  0  0  0
 36 56  1  0  0  0
 36108  1  0  0  0
 37 39  1  0  0  0
 37 47  1  0  0  0
 37 66  1  0  0  0
 37109  1  0  0  0
 38 43  2  0  0  0
 38 46  1  0  0  0
 38 47  1  0  0  0
 39 64  1  0  0  0
 39 67  2  0  0  0
 40 52  1  0  0  0
 40 53  2  0  0  0
 40 58  1  0  0  0
 41110  1  0  0  0
 41111  1  0  0  0
 41112  1  0  0  0
 41 48  1  0  0  0
 42 43  1  0  0  0
 42 66  1  0  0  0
 42113  1  0  0  0
 42114  1  0  0  0
 43 44  1  0  0  0
 44115  1  0  0  0
 45 46  2  0  0  0
 45116  1  0  0  0
 46117  1  0  0  0
 47118  1  0  0  0
 47119  1  0  0  0
 48 56  1  0  0  0
 48 65  1  0  0  0
 48120  1  0  0  0
 49 50  1  0  0  0
 49 53  1  0  0  0
 49 64  1  0  0  0
 49121  1  0  0  0
 50 51  1  0  0  0
 50122  1  0  0  0
 50123  1  0  0  0
 51 52  1  0  0  0
 51124  1  0  0  0
 51125  1  0  0  0
 52126  1  0  0  0
 52127  1  0  0  0
 53 54  1  0  0  0
 54 55  2  0  0  0
 54128  1  0  0  0
 55 57  1  0  0  0
 55129  1  0  0  0
 56 69  2  0  0  0
 57 58  2  0  0  0
 57130  1  0  0  0
 58131  1  0  0  0
 59 60  1  0  0  0
 59 61  1  0  0  0
 59 62  1  0  0  0
 60132  1  0  0  0
 60133  1  0  0  0
 60134  1  0  0  0
 61135  1  0  0  0
 61136  1  0  0  0
 61137  1  0  0  0
 62138  1  0  0  0
 62139  1  0  0  0
 62140  1  0  0  0
 63 65  1  0  0  0
 63141  1  0  0  0
 63142  1  0  0  0
 63143  1  0  0  0
 64144  1  0  0  0
 65145  1  0  0  0
 68 81  1  0  0  0
 71 73  2  0  0  0
 71 76  1  0  0  0
 71146  1  0  0  0
 72 74  1  0  0  0
 72 75  2  0  0  0
 72147  1  0  0  0
 73 75  1  0  0  0
 73 79  1  0  0  0
 74 76  2  0  0  0
 74 80  1  0  0  0
 75 85  1  0  0  0
 76 86  1  0  0  0
 77 81  1  0  0  0
 77 83  1  0  0  0
 77 84  2  0  0  0
 78 83  1  0  0  0
 78148  1  0  0  0
 78149  1  0  0  0
 78150  1  0  0  0
 79 82  1  0  0  0
 79151  1  0  0  0
 79152  1  0  0  0
 80 83  1  0  0  0
 80153  1  0  0  0
 80154  1  0  0  0
 81155  1  0  0  0
 81156  1  0  0  0
 82157  1  0  0  0
M  ISO  4   1 100  68 101  81 101  82 100
M  END
> <chiral flag>
0

> <version>
0

> <s_m_source_file>
/data/baiqing/PycharmProjects/Reinvent-master-3.2/result/LINK_invent/BTK/process_docking_weight1_custom_product_contain_oxygen_bond_distance_aromatic_linkinvent_7_9_3/rearranged_h_0039.sdf

> <i_m_source_file_index>
24

> <r_mmod_Potential_Energy-OPLS-2005>
-4.61654186248779

> <r_mmod_Stretch_Energy-OPLS-2005>
45.7041244506836

> <r_mmod_Bend_Energy-OPLS-2005>
108.93090057373

> <r_mmod_Torsional_Energy-OPLS-2005>
267.469879150391

> <r_mmod_Improper_Torsional_Energy-OPLS-2005>
6.73676538467407

> <r_mmod_Van_der_Waal_Energy-OPLS-2005>
174.158676147461

> <r_mmod_Electrostatic_Energy-OPLS-2005>
-387.608947753906

> <r_mmod_Solvation_Energy-OPLS-2005>
-237.671325683594

> <b_mmod_Minimization_Converged-OPLS-2005>
0

> <r_mmod_RMS_Derivative-OPLS-2005>
3.1108922958374

$$$$
24
                    3D
 Structure written by MMmdl.
162170  0  0  1  0            999 V2000
  -30.7235  -14.4500   20.5818 C   0  0  0  0  0  0
  -30.4286  -12.2985   19.4307 C   0  0  0  0  0  0
  -29.5027  -12.4854   18.2134 C   0  0  0  0  0  0
  -28.0210  -12.3532   18.6200 C   0  0  0  0  0  0
  -27.6636  -13.2006   19.8694 C   0  0  2  0  0  0
  -28.7021  -12.9958   20.9943 C   0  0  0  0  0  0
  -25.2613  -13.8157   20.5637 C   0  0  0  0  0  0
  -24.1831  -13.0467   20.9150 C   0  0  0  0  0  0
  -24.6351  -11.6913   20.8718 C   0  0  0  0  0  0
  -23.8980  -10.4310   21.0402 C   0  0  0  0  0  0
  -24.3556   -9.4235   21.9167 C   0  0  0  0  0  0
  -23.6277   -8.2248   22.0732 C   0  0  0  0  0  0
  -22.4263   -8.0257   21.3526 C   0  0  0  0  0  0
  -21.9862   -9.0209   20.4631 C   0  0  0  0  0  0
  -22.7156  -10.2112   20.3050 C   0  0  0  0  0  0
  -21.6840   -6.0722   22.5265 C   0  0  0  0  0  0
  -21.4012   -6.5633   23.8196 C   0  0  0  0  0  0
  -21.3672   -5.6789   24.9157 C   0  0  0  0  0  0
  -21.6060   -4.3051   24.7214 C   0  0  0  0  0  0
  -21.8827   -3.8134   23.4335 C   0  0  0  0  0  0
  -21.9200   -4.6951   22.3391 C   0  0  0  0  0  0
  -22.7852  -13.5280   21.1832 C   0  0  0  0  0  0
  -22.1661   -4.2133   21.0967 F   0  0  0  0  0  0
  -21.5636   -3.4549   25.7732 F   0  0  0  0  0  0
  -30.0364  -13.2887   20.4412 N   0  0  0  0  0  0
  -26.3026  -12.9299   20.3336 N   0  0  0  0  0  0
  -25.9283  -11.6476   20.5742 N   0  0  0  0  0  0
  -22.0487  -12.8284   22.0393 N   0  0  0  0  0  0
  -25.4448  -15.1853   20.3994 N   0  0  0  0  0  0
  -31.8562  -14.6253   20.1261 O   0  0  0  0  0  0
  -21.6640   -6.8853   21.4220 O   0  0  0  0  0  0
  -22.3547  -14.5586   20.6681 O   0  0  0  0  0  0
  -24.6112  -31.8705   23.2129 C   0  0  0  0  0  0
  -25.9005  -32.4843   23.8424 C   0  0  1  0  0  0
  -27.2281  -27.4685   20.0851 C   0  0  0  0  0  0
  -25.5873  -33.8645   24.2365 N   0  0  0  0  0  0
  -23.3990  -30.4960   21.5503 C   0  0  2  0  0  0
  -24.8465  -28.9689   20.1093 C   0  0  0  0  0  0
  -22.7398  -29.4681   22.4971 C   0  0  0  0  0  0
  -18.0271  -28.1403   22.8491 C   0  0  0  0  0  0
  -24.1479  -36.7324   23.2638 C   0  0  0  0  0  0
  -25.9247  -30.8475   21.3592 C   0  0  0  0  0  0
  -26.0036  -29.4842   20.7051 C   0  0  0  0  0  0
  -27.2045  -28.7415   20.6892 C   0  0  0  0  0  0
  -26.0600  -26.9595   19.4828 C   0  0  0  0  0  0
  -24.8662  -27.7036   19.4956 C   0  0  0  0  0  0
  -23.6067  -29.8318   20.1631 C   0  0  0  0  0  0
  -25.4096  -36.3132   24.0352 C   0  0  1  0  0  0
  -20.5856  -28.3682   23.1323 C   0  0  2  0  0  0
  -20.6754  -26.9419   22.5414 C   0  0  0  0  0  0
  -19.5727  -26.6408   21.5212 C   0  0  0  0  0  0
  -18.1915  -26.7946   22.1628 C   0  0  0  0  0  0
  -19.1517  -28.8851   23.2917 C   0  0  0  0  0  0
  -18.9456  -30.1459   23.8937 C   0  0  0  0  0  0
  -17.6459  -30.6601   24.0589 C   0  0  0  0  0  0
  -25.9020  -34.9492   23.5146 C   0  0  0  0  0  0
  -16.5348  -29.9118   23.6326 C   0  0  0  0  0  0
  -16.7265  -28.6534   23.0343 C   0  0  0  0  0  0
  -26.4446  -31.6617   25.0734 C   0  0  0  0  0  0
  -25.3745  -31.3726   26.1510 C   0  0  0  0  0  0
  -27.0265  -30.3072   24.6073 C   0  0  0  0  0  0
  -27.6041  -32.4331   25.7472 C   0  0  0  0  0  0
  -27.5585  -37.1811   24.8471 C   0  0  0  0  0  0
  -21.4127  -29.3052   22.3723 N   0  0  0  0  0  0
  -26.4294  -37.3808   23.9413 N   0  0  0  0  0  0
  -24.6642  -31.0852   22.0999 N   0  0  0  0  0  0
  -23.4185  -28.8205   23.2999 O   0  0  0  0  0  0
  -28.3692  -26.7093   20.1017 O   0  0  0  0  0  0
  -26.5582  -34.8928   22.4715 O   0  0  0  0  0  0
  -23.5309  -32.1432   23.7538 O   0  0  0  0  0  0
  -30.3329  -17.3994   18.8396 C   0  0  0  0  0  0
  -29.4159  -19.4823   17.9977 C   0  0  0  0  0  0
  -30.1427  -17.8206   20.1751 C   0  0  0  0  0  0
  -29.2309  -19.9507   19.3157 C   0  0  0  0  0  0
  -29.6378  -19.1369   20.4168 C   0  0  0  0  0  0
  -29.9826  -18.2217   17.7578 C   0  0  0  0  0  0
  -29.5092  -19.6715   21.8402 C   0  0  0  0  0  0
  -30.5113  -16.8451   21.3100 C   0  0  0  0  0  0
  -28.5338  -21.3073   19.4845 C   0  0  0  0  0  0
  -29.1952  -24.4585   20.6307 C   0  0  0  0  0  0
  -28.7704  -23.7768   19.3152 C   0  0  0  0  0  0
  -28.2792  -25.6241   21.0257 C   0  0  0  0  0  0
  -30.0368  -15.4662   21.1253 N   0  0  0  0  0  0
  -29.4066  -22.4488   19.1377 N   0  3  0  0  0  0
  -30.2185  -17.6733   16.1375 Cl  0  0  0  0  0  0
  -31.4729  -12.4010   19.1271 H   0  0  0  0  0  0
  -30.3317  -11.2928   19.8410 H   0  0  0  0  0  0
  -29.7458  -11.7451   17.4501 H   0  0  0  0  0  0
  -29.6767  -13.4644   17.7669 H   0  0  0  0  0  0
  -27.8250  -11.2993   18.8199 H   0  0  0  0  0  0
  -27.3762  -12.6257   17.7836 H   0  0  0  0  0  0
  -27.7076  -14.2450   19.5613 H   0  0  0  0  0  0
  -28.6748  -11.9676   21.3560 H   0  0  0  0  0  0
  -28.4567  -13.6111   21.8593 H   0  0  0  0  0  0
  -25.2715   -9.5754   22.4707 H   0  0  0  0  0  0
  -24.0018   -7.4668   22.7464 H   0  0  0  0  0  0
  -21.0796   -8.8710   19.8949 H   0  0  0  0  0  0
  -22.3593  -10.9635   19.6158 H   0  0  0  0  0  0
  -21.1977   -7.6136   23.9691 H   0  0  0  0  0  0
  -21.1503   -6.0513   25.9063 H   0  0  0  0  0  0
  -22.0595   -2.7599   23.2834 H   0  0  0  0  0  0
  -22.4085  -11.9958   22.4823 H   0  0  0  0  0  0
  -21.1094  -13.1314   22.2556 H   0  0  0  0  0  0
  -24.6899  -15.8569   20.4908 H   0  0  0  0  0  0
  -26.3040  -15.6018   20.0623 H   0  0  0  0  0  0
  -26.7080  -32.5571   23.1204 H   0  0  0  0  0  0
  -25.0041  -33.9817   25.0518 H   0  0  0  0  0  0
  -22.6867  -31.3128   21.4152 H   0  0  0  0  0  0
  -23.3736  -35.9661   23.3311 H   0  0  0  0  0  0
  -24.3592  -36.8921   22.2052 H   0  0  0  0  0  0
  -23.7224  -37.6534   23.6632 H   0  0  0  0  0  0
  -26.0323  -31.6156   20.5908 H   0  0  0  0  0  0
  -26.8156  -30.9043   21.9730 H   0  0  0  0  0  0
  -28.1006  -29.1324   21.1489 H   0  0  0  0  0  0
  -26.0717  -25.9881   19.0108 H   0  0  0  0  0  0
  -23.9758  -27.3027   19.0323 H   0  0  0  0  0  0
  -23.7149  -30.6093   19.4056 H   0  0  0  0  0  0
  -22.7304  -29.2525   19.8652 H   0  0  0  0  0  0
  -25.1266  -36.2014   25.0845 H   0  0  0  0  0  0
  -20.9983  -28.3249   24.1433 H   0  0  0  0  0  0
  -20.5659  -26.2292   23.3607 H   0  0  0  0  0  0
  -21.6625  -26.7467   22.1210 H   0  0  0  0  0  0
  -19.6883  -25.6329   21.1230 H   0  0  0  0  0  0
  -19.6660  -27.3227   20.6750 H   0  0  0  0  0  0
  -17.4180  -26.6708   21.4039 H   0  0  0  0  0  0
  -18.0318  -26.0106   22.9039 H   0  0  0  0  0  0
  -19.7934  -30.7266   24.2326 H   0  0  0  0  0  0
  -17.5020  -31.6278   24.5200 H   0  0  0  0  0  0
  -15.5355  -30.3043   23.7623 H   0  0  0  0  0  0
  -15.8668  -28.0882   22.7025 H   0  0  0  0  0  0
  -24.5899  -30.7075   25.7882 H   0  0  0  0  0  0
  -24.8942  -32.2880   26.4980 H   0  0  0  0  0  0
  -25.8123  -30.8903   27.0260 H   0  0  0  0  0  0
  -26.2786  -29.6846   24.1138 H   0  0  0  0  0  0
  -27.4074  -29.7291   25.4504 H   0  0  0  0  0  0
  -27.8608  -30.4418   23.9183 H   0  0  0  0  0  0
  -27.2673  -33.3619   26.2090 H   0  0  0  0  0  0
  -28.3805  -32.6918   25.0261 H   0  0  0  0  0  0
  -28.0753  -31.8437   26.5347 H   0  0  0  0  0  0
  -28.2617  -38.0095   24.7518 H   0  0  0  0  0  0
  -28.1065  -36.2632   24.6290 H   0  0  0  0  0  0
  -27.2318  -37.1468   25.8879 H   0  0  0  0  0  0
  -20.9268  -29.8826   21.7006 H   0  0  0  0  0  0
  -26.0193  -38.2891   24.1408 H   0  0  0  0  0  0
  -30.7574  -16.4315   18.6220 H   0  0  0  0  0  0
  -29.1199  -20.0882   17.1522 H   0  0  0  0  0  0
  -28.5269  -19.4262   22.2428 H   0  0  0  0  0  0
  -29.6391  -20.7520   21.8816 H   0  0  0  0  0  0
  -30.2731  -19.2750   22.5086 H   0  0  0  0  0  0
  -30.0880  -17.1630   22.2607 H   0  0  0  0  0  0
  -31.5948  -16.8632   21.4478 H   0  0  0  0  0  0
  -28.1254  -21.4339   20.4864 H   0  0  0  0  0  0
  -27.6665  -21.3226   18.8229 H   0  0  0  0  0  0
  -30.2264  -24.8066   20.5580 H   0  0  0  0  0  0
  -29.1725  -23.7322   21.4453 H   0  0  0  0  0  0
  -29.0448  -24.4186   18.4778 H   0  0  0  0  0  0
  -27.6839  -23.6832   19.2615 H   0  0  0  0  0  0
  -28.5564  -25.9908   22.0155 H   0  0  0  0  0  0
  -27.2588  -25.2447   21.1212 H   0  0  0  0  0  0
  -29.1006  -15.2606   21.4412 H   0  0  0  0  0  0
  -29.6527  -22.3541   18.1660 H   0  0  0  0  0  0
  -30.2596  -22.3985   19.6679 H   0  0  0  0  0  0
  1 25  1  0  0  0
  1 30  2  0  0  0
  1 83  1  0  0  0
  2  3  1  0  0  0
  2 25  1  0  0  0
  2 86  1  0  0  0
  2 87  1  0  0  0
  3  4  1  0  0  0
  3 88  1  0  0  0
  3 89  1  0  0  0
  4  5  1  0  0  0
  4 90  1  0  0  0
  4 91  1  0  0  0
  5  6  1  0  0  0
  5 26  1  0  0  0
  5 92  1  0  0  0
  6 25  1  0  0  0
  6 93  1  0  0  0
  6 94  1  0  0  0
  7  8  2  0  0  0
  7 26  1  0  0  0
  7 29  1  0  0  0
  8  9  1  0  0  0
  8 22  1  0  0  0
  9 10  1  0  0  0
  9 27  2  0  0  0
 10 11  2  0  0  0
 10 15  1  0  0  0
 11 12  1  0  0  0
 11 95  1  0  0  0
 12 13  2  0  0  0
 12 96  1  0  0  0
 13 14  1  0  0  0
 13 31  1  0  0  0
 14 15  2  0  0  0
 14 97  1  0  0  0
 15 98  1  0  0  0
 16 17  2  0  0  0
 16 21  1  0  0  0
 16 31  1  0  0  0
 17 18  1  0  0  0
 17 99  1  0  0  0
 18 19  2  0  0  0
 18100  1  0  0  0
 19 20  1  0  0  0
 19 24  1  0  0  0
 20 21  2  0  0  0
 20101  1  0  0  0
 21 23  1  0  0  0
 22 28  1  0  0  0
 22 32  2  0  0  0
 26 27  1  0  0  0
 28102  1  0  0  0
 28103  1  0  0  0
 29104  1  0  0  0
 29105  1  0  0  0
 33 34  1  0  0  0
 33 66  1  0  0  0
 33 70  2  0  0  0
 34 36  1  0  0  0
 34 59  1  0  0  0
 34106  1  0  0  0
 35 44  2  0  0  0
 35 45  1  0  0  0
 35 68  1  0  0  0
 36 56  1  0  0  0
 36107  1  0  0  0
 37 39  1  0  0  0
 37 47  1  0  0  0
 37 66  1  0  0  0
 37108  1  0  0  0
 38 43  2  0  0  0
 38 46  1  0  0  0
 38 47  1  0  0  0
 39 64  1  0  0  0
 39 67  2  0  0  0
 40 52  1  0  0  0
 40 53  2  0  0  0
 40 58  1  0  0  0
 41109  1  0  0  0
 41110  1  0  0  0
 41111  1  0  0  0
 41 48  1  0  0  0
 42 43  1  0  0  0
 42 66  1  0  0  0
 42112  1  0  0  0
 42113  1  0  0  0
 43 44  1  0  0  0
 44114  1  0  0  0
 45 46  2  0  0  0
 45115  1  0  0  0
 46116  1  0  0  0
 47117  1  0  0  0
 47118  1  0  0  0
 48 56  1  0  0  0
 48 65  1  0  0  0
 48119  1  0  0  0
 49 50  1  0  0  0
 49 53  1  0  0  0
 49 64  1  0  0  0
 49120  1  0  0  0
 50 51  1  0  0  0
 50121  1  0  0  0
 50122  1  0  0  0
 51 52  1  0  0  0
 51123  1  0  0  0
 51124  1  0  0  0
 52125  1  0  0  0
 52126  1  0  0  0
 53 54  1  0  0  0
 54 55  2  0  0  0
 54127  1  0  0  0
 55 57  1  0  0  0
 55128  1  0  0  0
 56 69  2  0  0  0
 57 58  2  0  0  0
 57129  1  0  0  0
 58130  1  0  0  0
 59 60  1  0  0  0
 59 61  1  0  0  0
 59 62  1  0  0  0
 60131  1  0  0  0
 60132  1  0  0  0
 60133  1  0  0  0
 61134  1  0  0  0
 61135  1  0  0  0
 61136  1  0  0  0
 62137  1  0  0  0
 62138  1  0  0  0
 62139  1  0  0  0
 63 65  1  0  0  0
 63140  1  0  0  0
 63141  1  0  0  0
 63142  1  0  0  0
 64143  1  0  0  0
 65144  1  0  0  0
 68 82  1  0  0  0
 71 73  2  0  0  0
 71 76  1  0  0  0
 71145  1  0  0  0
 72 74  1  0  0  0
 72 76  2  0  0  0
 72146  1  0  0  0
 73 75  1  0  0  0
 73 78  1  0  0  0
 74 75  2  0  0  0
 74 79  1  0  0  0
 75 77  1  0  0  0
 76 85  1  0  0  0
 77147  1  0  0  0
 77148  1  0  0  0
 77149  1  0  0  0
 78 83  1  0  0  0
 78150  1  0  0  0
 78151  1  0  0  0
 79 84  1  0  0  0
 79152  1  0  0  0
 79153  1  0  0  0
 80 81  1  0  0  0
 80 82  1  0  0  0
 80154  1  0  0  0
 80155  1  0  0  0
 81 84  1  0  0  0
 81156  1  0  0  0
 81157  1  0  0  0
 82158  1  0  0  0
 82159  1  0  0  0
 83160  1  0  0  0
 84161  1  0  0  0
 84162  1  0  0  0
M  CHG  1  84   1
M  ISO  4   1 100  68 101  82 101  83 100
M  END
> <chiral flag>
0

> <version>
0

> <s_m_source_file>
/data/baiqing/PycharmProjects/Reinvent-master-3.2/result/LINK_invent/BTK/process_docking_weight1_custom_product_contain_oxygen_bond_distance_aromatic_linkinvent_7_9_3/rearranged_h_0039.sdf

> <i_m_source_file_index>
25

> <r_mmod_Potential_Energy-OPLS-2005>
-314.534790039062

> <r_mmod_Stretch_Energy-OPLS-2005>
36.2658348083496

> <r_mmod_Bend_Energy-OPLS-2005>
89.2816925048828

> <r_mmod_Torsional_Energy-OPLS-2005>
221.79963684082

> <r_mmod_Improper_Torsional_Energy-OPLS-2005>
3.22099447250366

> <r_mmod_Van_der_Waal_Energy-OPLS-2005>
152.56005859375

> <r_mmod_Electrostatic_Energy-OPLS-2005>
-355.306304931641

> <r_mmod_Solvation_Energy-OPLS-2005>
-474.667999267578

> <b_mmod_Minimization_Converged-OPLS-2005>
0

> <r_mmod_RMS_Derivative-OPLS-2005>
3.26108694076538

$$$$
25
                    3D
 Structure written by MMmdl.
160168  0  0  1  0            999 V2000
  -30.7454  -14.5369   20.5727 C   0  0  0  0  0  0
  -30.4099  -12.3563   19.4420 C   0  0  0  0  0  0
  -29.4910  -12.5027   18.2147 C   0  0  0  0  0  0
  -28.0188  -12.3364   18.6312 C   0  0  0  0  0  0
  -27.6473  -13.2107   19.8561 C   0  0  2  0  0  0
  -28.6927  -13.0914   20.9903 C   0  0  0  0  0  0
  -25.2546  -13.8158   20.5687 C   0  0  0  0  0  0
  -24.1814  -13.0426   20.9201 C   0  0  0  0  0  0
  -24.6380  -11.6898   20.8751 C   0  0  0  0  0  0
  -23.9052  -10.4284   21.0411 C   0  0  0  0  0  0
  -24.3607   -9.4201   21.9186 C   0  0  0  0  0  0
  -23.6285   -8.2236   22.0755 C   0  0  0  0  0  0
  -22.4268   -8.0276   21.3544 C   0  0  0  0  0  0
  -21.9904   -9.0246   20.4644 C   0  0  0  0  0  0
  -22.7230  -10.2127   20.3055 C   0  0  0  0  0  0
  -21.6848   -6.0732   22.5276 C   0  0  0  0  0  0
  -21.4011   -6.5636   23.8209 C   0  0  0  0  0  0
  -21.3658   -5.6792   24.9173 C   0  0  0  0  0  0
  -21.6044   -4.3054   24.7226 C   0  0  0  0  0  0
  -21.8820   -3.8144   23.4347 C   0  0  0  0  0  0
  -21.9191   -4.6961   22.3402 C   0  0  0  0  0  0
  -22.7840  -13.5225   21.1859 C   0  0  0  0  0  0
  -22.1661   -4.2144   21.0980 F   0  0  0  0  0  0
  -21.5630   -3.4539   25.7740 F   0  0  0  0  0  0
  -30.0189  -13.3857   20.4270 N   0  0  0  0  0  0
  -26.2957  -12.9324   20.3302 N   0  0  0  0  0  0
  -25.9301  -11.6487   20.5762 N   0  0  0  0  0  0
  -22.0478  -12.8213   22.0410 N   0  0  0  0  0  0
  -25.4249  -15.1881   20.4089 N   0  0  0  0  0  0
  -31.8766  -14.6379   20.0900 O   0  0  0  0  0  0
  -21.6635   -6.8875   21.4238 O   0  0  0  0  0  0
  -22.3529  -14.5532   20.6710 O   0  0  0  0  0  0
  -24.6215  -31.8656   23.2101 C   0  0  0  0  0  0
  -25.9088  -32.4808   23.8406 C   0  0  1  0  0  0
  -27.2200  -27.3739   20.1037 C   0  0  0  0  0  0
  -25.5934  -33.8608   24.2339 N   0  0  0  0  0  0
  -23.4107  -30.4931   21.5524 C   0  0  2  0  0  0
  -24.8548  -28.9622   20.1097 C   0  0  0  0  0  0
  -22.7447  -29.4651   22.4969 C   0  0  0  0  0  0
  -18.0281  -28.1374   22.8490 C   0  0  0  0  0  0
  -24.1489  -36.7306   23.2640 C   0  0  0  0  0  0
  -25.9475  -30.8141   21.3725 C   0  0  0  0  0  0
  -26.0212  -29.4463   20.7151 C   0  0  0  0  0  0
  -27.2059  -28.6609   20.7100 C   0  0  0  0  0  0
  -26.0339  -26.9418   19.4598 C   0  0  0  0  0  0
  -24.8598  -27.7121   19.4767 C   0  0  0  0  0  0
  -23.6210  -29.8355   20.1643 C   0  0  0  0  0  0
  -25.4111  -36.3100   24.0340 C   0  0  1  0  0  0
  -20.5878  -28.3676   23.1300 C   0  0  2  0  0  0
  -20.6774  -26.9408   22.5409 C   0  0  0  0  0  0
  -19.5751  -26.6385   21.5206 C   0  0  0  0  0  0
  -18.1927  -26.7923   22.1615 C   0  0  0  0  0  0
  -19.1532  -28.8840   23.2890 C   0  0  0  0  0  0
  -18.9457  -30.1443   23.8905 C   0  0  0  0  0  0
  -17.6460  -30.6582   24.0563 C   0  0  0  0  0  0
  -25.9040  -34.9465   23.5129 C   0  0  0  0  0  0
  -16.5350  -29.9082   23.6330 C   0  0  0  0  0  0
  -16.7268  -28.6497   23.0354 C   0  0  0  0  0  0
  -26.4503  -31.6588   25.0740 C   0  0  0  0  0  0
  -25.3766  -31.3673   26.1481 C   0  0  0  0  0  0
  -27.0350  -30.3034   24.6131 C   0  0  0  0  0  0
  -27.6079  -32.4306   25.7507 C   0  0  0  0  0  0
  -27.5581  -37.1809   24.8468 C   0  0  0  0  0  0
  -21.4168  -29.3039   22.3705 N   0  0  0  0  0  0
  -26.4293  -37.3789   23.9412 N   0  0  0  0  0  0
  -24.6786  -31.0718   22.1028 N   0  0  0  0  0  0
  -23.4199  -28.8181   23.3014 O   0  0  0  0  0  0
  -28.3496  -26.5567   20.1692 O   0  0  0  0  0  0
  -26.5589  -34.8917   22.4684 O   0  0  0  0  0  0
  -23.5392  -32.1434   23.7460 O   0  0  0  0  0  0
  -30.3627  -19.2186   18.3248 C   0  0  0  0  0  0
  -30.1898  -20.4118   19.0479 C   0  0  0  0  0  0
  -30.0738  -17.9626   18.9010 C   0  0  0  0  0  0
  -29.7326  -20.3806   20.3786 C   0  0  0  0  0  0
  -29.6255  -17.8833   20.2495 C   0  0  0  0  0  0
  -29.4683  -19.1084   20.9756 C   0  0  0  0  0  0
  -29.1413  -24.1685   20.6100 C   0  0  0  0  0  0
  -30.2365  -16.7365   18.0154 C   0  0  0  0  0  0
  -31.1390  -16.1648   22.3205 C   0  0  0  0  0  0
  -29.5851  -21.7134   21.1508 C   0  0  0  0  0  0
  -29.2006  -16.5204   20.8765 C   0  0  0  0  0  0
  -28.1536  -25.1325   19.8929 C   0  0  0  0  0  0
  -28.9592  -22.8379   20.4111 N   0  0  0  0  0  0
  -30.2469  -15.5598   21.3274 N   0  0  0  0  0  0
  -30.0139  -24.6094   21.3626 O   0  0  0  0  0  0
  -29.0370  -19.0634   22.2592 F   0  0  0  0  0  0
  -31.4548  -12.4335   19.1372 H   0  0  0  0  0  0
  -30.3066  -11.3626   19.8808 H   0  0  0  0  0  0
  -29.7503  -11.7611   17.4580 H   0  0  0  0  0  0
  -29.6396  -13.4789   17.7506 H   0  0  0  0  0  0
  -27.8581  -11.2834   18.8651 H   0  0  0  0  0  0
  -27.3607  -12.5643   17.7917 H   0  0  0  0  0  0
  -27.6507  -14.2321   19.4871 H   0  0  0  0  0  0
  -28.6863  -12.0859   21.4131 H   0  0  0  0  0  0
  -28.4404  -13.7629   21.8121 H   0  0  0  0  0  0
  -25.2750   -9.5679   22.4763 H   0  0  0  0  0  0
  -23.9993   -7.4628   22.7474 H   0  0  0  0  0  0
  -21.0838   -8.8763   19.8947 H   0  0  0  0  0  0
  -22.3688  -10.9665   19.6164 H   0  0  0  0  0  0
  -21.2000   -7.6145   23.9711 H   0  0  0  0  0  0
  -21.1479   -6.0522   25.9076 H   0  0  0  0  0  0
  -22.0601   -2.7606   23.2848 H   0  0  0  0  0  0
  -22.4089  -11.9870   22.4793 H   0  0  0  0  0  0
  -21.1094  -13.1235   22.2607 H   0  0  0  0  0  0
  -24.6554  -15.8398   20.5187 H   0  0  0  0  0  0
  -26.2700  -15.6288   20.0714 H   0  0  0  0  0  0
  -26.7155  -32.5502   23.1161 H   0  0  0  0  0  0
  -25.0114  -33.9770   25.0507 H   0  0  0  0  0  0
  -22.7015  -31.3123   21.4166 H   0  0  0  0  0  0
  -23.3746  -35.9639   23.3299 H   0  0  0  0  0  0
  -24.3583  -36.8925   22.2053 H   0  0  0  0  0  0
  -23.7240  -37.6512   23.6654 H   0  0  0  0  0  0
  -26.0667  -31.5791   20.6039 H   0  0  0  0  0  0
  -26.8336  -30.8659   21.9930 H   0  0  0  0  0  0
  -28.0994  -29.0253   21.1980 H   0  0  0  0  0  0
  -25.9776  -25.9986   18.9374 H   0  0  0  0  0  0
  -23.9670  -27.3394   18.9934 H   0  0  0  0  0  0
  -23.7363  -30.6165   19.4120 H   0  0  0  0  0  0
  -22.7418  -29.2637   19.8619 H   0  0  0  0  0  0
  -25.1284  -36.1964   25.0833 H   0  0  0  0  0  0
  -20.9965  -28.3241   24.1422 H   0  0  0  0  0  0
  -20.5680  -26.2281   23.3597 H   0  0  0  0  0  0
  -21.6644  -26.7452   22.1199 H   0  0  0  0  0  0
  -19.6918  -25.6299   21.1228 H   0  0  0  0  0  0
  -19.6691  -27.3199   20.6738 H   0  0  0  0  0  0
  -17.4204  -26.6676   21.4010 H   0  0  0  0  0  0
  -18.0323  -26.0058   22.9002 H   0  0  0  0  0  0
  -19.7935  -30.7252   24.2282 H   0  0  0  0  0  0
  -17.5017  -31.6263   24.5164 H   0  0  0  0  0  0
  -15.5350  -30.2987   23.7653 H   0  0  0  0  0  0
  -15.8665  -28.0817   22.7076 H   0  0  0  0  0  0
  -24.5980  -30.6974   25.7816 H   0  0  0  0  0  0
  -24.8904  -32.2805   26.4921 H   0  0  0  0  0  0
  -25.8136  -30.8868   27.0245 H   0  0  0  0  0  0
  -26.2905  -29.6765   24.1210 H   0  0  0  0  0  0
  -27.4156  -29.7297   25.4591 H   0  0  0  0  0  0
  -27.8719  -30.4359   23.9271 H   0  0  0  0  0  0
  -27.2729  -33.3629   26.2065 H   0  0  0  0  0  0
  -28.3907  -32.6820   25.0338 H   0  0  0  0  0  0
  -28.0721  -31.8430   26.5440 H   0  0  0  0  0  0
  -28.2593  -38.0111   24.7526 H   0  0  0  0  0  0
  -28.1085  -36.2645   24.6283 H   0  0  0  0  0  0
  -27.2298  -37.1444   25.8871 H   0  0  0  0  0  0
  -20.9333  -29.8774   21.6936 H   0  0  0  0  0  0
  -26.0177  -38.2866   24.1412 H   0  0  0  0  0  0
  -30.7112  -19.2779   17.3023 H   0  0  0  0  0  0
  -30.4183  -21.3569   18.5753 H   0  0  0  0  0  0
  -30.1759  -17.0099   16.9615 H   0  0  0  0  0  0
  -29.4639  -15.9889   18.1847 H   0  0  0  0  0  0
  -31.2131  -16.2806   18.1725 H   0  0  0  0  0  0
  -30.5784  -16.7409   23.0574 H   0  0  0  0  0  0
  -31.8552  -16.8336   21.8409 H   0  0  0  0  0  0
  -31.7012  -15.4033   22.8643 H   0  0  0  0  0  0
  -30.5828  -22.0065   21.4818 H   0  0  0  0  0  0
  -29.0059  -21.5417   22.0588 H   0  0  0  0  0  0
  -28.5291  -16.0361   20.1766 H   0  0  0  0  0  0
  -28.5636  -16.7239   21.7378 H   0  0  0  0  0  0
  -27.1766  -24.7988   20.2454 H   0  0  0  0  0  0
  -28.1975  -24.9601   18.8169 H   0  0  0  0  0  0
  -28.2250  -22.5810   19.7651 H   0  0  0  0  0  0
  1 25  1  0  0  0
  1 30  2  0  0  0
  1 84  1  0  0  0
  2  3  1  0  0  0
  2 25  1  0  0  0
  2 87  1  0  0  0
  2 88  1  0  0  0
  3  4  1  0  0  0
  3 89  1  0  0  0
  3 90  1  0  0  0
  4  5  1  0  0  0
  4 91  1  0  0  0
  4 92  1  0  0  0
  5  6  1  0  0  0
  5 26  1  0  0  0
  5 93  1  0  0  0
  6 25  1  0  0  0
  6 94  1  0  0  0
  6 95  1  0  0  0
  7  8  2  0  0  0
  7 26  1  0  0  0
  7 29  1  0  0  0
  8  9  1  0  0  0
  8 22  1  0  0  0
  9 10  1  0  0  0
  9 27  2  0  0  0
 10 11  2  0  0  0
 10 15  1  0  0  0
 11 12  1  0  0  0
 11 96  1  0  0  0
 12 13  2  0  0  0
 12 97  1  0  0  0
 13 14  1  0  0  0
 13 31  1  0  0  0
 14 15  2  0  0  0
 14 98  1  0  0  0
 15 99  1  0  0  0
 16 17  2  0  0  0
 16 21  1  0  0  0
 16 31  1  0  0  0
 17 18  1  0  0  0
 17100  1  0  0  0
 18 19  2  0  0  0
 18101  1  0  0  0
 19 20  1  0  0  0
 19 24  1  0  0  0
 20 21  2  0  0  0
 20102  1  0  0  0
 21 23  1  0  0  0
 22 28  1  0  0  0
 22 32  2  0  0  0
 26 27  1  0  0  0
 28103  1  0  0  0
 28104  1  0  0  0
 29105  1  0  0  0
 29106  1  0  0  0
 33 34  1  0  0  0
 33 66  1  0  0  0
 33 70  2  0  0  0
 34 36  1  0  0  0
 34 59  1  0  0  0
 34107  1  0  0  0
 35 44  2  0  0  0
 35 45  1  0  0  0
 35 68  1  0  0  0
 36 56  1  0  0  0
 36108  1  0  0  0
 37 39  1  0  0  0
 37 47  1  0  0  0
 37 66  1  0  0  0
 37109  1  0  0  0
 38 43  2  0  0  0
 38 46  1  0  0  0
 38 47  1  0  0  0
 39 64  1  0  0  0
 39 67  2  0  0  0
 40 52  1  0  0  0
 40 53  2  0  0  0
 40 58  1  0  0  0
 41110  1  0  0  0
 41111  1  0  0  0
 41112  1  0  0  0
 41 48  1  0  0  0
 42 43  1  0  0  0
 42 66  1  0  0  0
 42113  1  0  0  0
 42114  1  0  0  0
 43 44  1  0  0  0
 44115  1  0  0  0
 45 46  2  0  0  0
 45116  1  0  0  0
 46117  1  0  0  0
 47118  1  0  0  0
 47119  1  0  0  0
 48 56  1  0  0  0
 48 65  1  0  0  0
 48120  1  0  0  0
 49 50  1  0  0  0
 49 53  1  0  0  0
 49 64  1  0  0  0
 49121  1  0  0  0
 50 51  1  0  0  0
 50122  1  0  0  0
 50123  1  0  0  0
 51 52  1  0  0  0
 51124  1  0  0  0
 51125  1  0  0  0
 52126  1  0  0  0
 52127  1  0  0  0
 53 54  1  0  0  0
 54 55  2  0  0  0
 54128  1  0  0  0
 55 57  1  0  0  0
 55129  1  0  0  0
 56 69  2  0  0  0
 57 58  2  0  0  0
 57130  1  0  0  0
 58131  1  0  0  0
 59 60  1  0  0  0
 59 61  1  0  0  0
 59 62  1  0  0  0
 60132  1  0  0  0
 60133  1  0  0  0
 60134  1  0  0  0
 61135  1  0  0  0
 61136  1  0  0  0
 61137  1  0  0  0
 62138  1  0  0  0
 62139  1  0  0  0
 62140  1  0  0  0
 63 65  1  0  0  0
 63141  1  0  0  0
 63142  1  0  0  0
 63143  1  0  0  0
 64144  1  0  0  0
 65145  1  0  0  0
 68 82  1  0  0  0
 71 72  2  0  0  0
 71 73  1  0  0  0
 71146  1  0  0  0
 72 74  1  0  0  0
 72147  1  0  0  0
 73 75  2  0  0  0
 73 78  1  0  0  0
 74 76  2  0  0  0
 74 80  1  0  0  0
 75 76  1  0  0  0
 75 81  1  0  0  0
 76 86  1  0  0  0
 77 82  1  0  0  0
 77 83  1  0  0  0
 77 85  2  0  0  0
 78148  1  0  0  0
 78149  1  0  0  0
 78150  1  0  0  0
 79 84  1  0  0  0
 79151  1  0  0  0
 79152  1  0  0  0
 79153  1  0  0  0
 80 83  1  0  0  0
 80154  1  0  0  0
 80155  1  0  0  0
 81 84  1  0  0  0
 81156  1  0  0  0
 81157  1  0  0  0
 82158  1  0  0  0
 82159  1  0  0  0
 83160  1  0  0  0
M  ISO  4   1 100  68 101  82 101  84 100
M  END
> <chiral flag>
0

> <version>
0

> <s_m_source_file>
/data/baiqing/PycharmProjects/Reinvent-master-3.2/result/LINK_invent/BTK/process_docking_weight1_custom_product_contain_oxygen_bond_distance_aromatic_linkinvent_7_9_3/rearranged_h_0039.sdf

> <i_m_source_file_index>
26

> <r_mmod_Potential_Energy-OPLS-2005>
66.474006652832

> <r_mmod_Stretch_Energy-OPLS-2005>
57.2592010498047

> <r_mmod_Bend_Energy-OPLS-2005>
118.37621307373

> <r_mmod_Torsional_Energy-OPLS-2005>
264.328491210938

> <r_mmod_Improper_Torsional_Energy-OPLS-2005>
4.83090782165527

> <r_mmod_Van_der_Waal_Energy-OPLS-2005>
149.721282958984

> <r_mmod_Electrostatic_Energy-OPLS-2005>
-326.114501953125

> <r_mmod_Solvation_Energy-OPLS-2005>
-231.083251953125

> <b_mmod_Minimization_Converged-OPLS-2005>
0

> <r_mmod_RMS_Derivative-OPLS-2005>
0.675865411758423

$$$$
26
                    3D
 Structure written by MMmdl.
163171  0  0  1  0            999 V2000
  -30.7350  -14.4339   20.6502 C   0  0  0  0  0  0
  -30.4207  -12.3076   19.4358 C   0  0  0  0  0  0
  -29.4945  -12.5107   18.2219 C   0  0  0  0  0  0
  -28.0199  -12.3582   18.6390 C   0  0  0  0  0  0
  -27.6624  -13.1994   19.8909 C   0  0  2  0  0  0
  -28.6978  -12.9908   21.0225 C   0  0  0  0  0  0
  -25.2518  -13.8083   20.5583 C   0  0  0  0  0  0
  -24.1809  -13.0420   20.9187 C   0  0  0  0  0  0
  -24.6358  -11.6875   20.8828 C   0  0  0  0  0  0
  -23.9000  -10.4282   21.0476 C   0  0  0  0  0  0
  -24.3568   -9.4198   21.9245 C   0  0  0  0  0  0
  -23.6246   -8.2237   22.0810 C   0  0  0  0  0  0
  -22.4242   -8.0265   21.3564 C   0  0  0  0  0  0
  -21.9859   -9.0244   20.4678 C   0  0  0  0  0  0
  -22.7181  -10.2127   20.3100 C   0  0  0  0  0  0
  -21.6837   -6.0704   22.5251 C   0  0  0  0  0  0
  -21.4013   -6.5617   23.8182 C   0  0  0  0  0  0
  -21.3681   -5.6786   24.9150 C   0  0  0  0  0  0
  -21.6057   -4.3049   24.7210 C   0  0  0  0  0  0
  -21.8809   -3.8121   23.4338 C   0  0  0  0  0  0
  -21.9182   -4.6931   22.3384 C   0  0  0  0  0  0
  -22.7821  -13.5228   21.1825 C   0  0  0  0  0  0
  -22.1645   -4.2113   21.0963 F   0  0  0  0  0  0
  -21.5642   -3.4539   25.7737 F   0  0  0  0  0  0
  -30.0353  -13.2795   20.4734 N   0  0  0  0  0  0
  -26.2998  -12.9268   20.3434 N   0  0  0  0  0  0
  -25.9302  -11.6452   20.5920 N   0  0  0  0  0  0
  -22.0471  -12.8250   22.0395 N   0  0  0  0  0  0
  -25.4192  -15.1752   20.3659 N   0  0  0  0  0  0
  -31.7867  -14.6699   20.0513 O   0  0  0  0  0  0
  -21.6643   -6.8839   21.4206 O   0  0  0  0  0  0
  -22.3517  -14.5550   20.6681 O   0  0  0  0  0  0
  -24.6155  -31.8693   23.2073 C   0  0  0  0  0  0
  -25.9049  -32.4836   23.8369 C   0  0  1  0  0  0
  -27.2550  -27.4582   20.0893 C   0  0  0  0  0  0
  -25.5917  -33.8620   24.2314 N   0  0  0  0  0  0
  -23.4042  -30.4879   21.5479 C   0  0  2  0  0  0
  -24.8560  -28.9390   20.1351 C   0  0  0  0  0  0
  -22.7422  -29.4664   22.4988 C   0  0  0  0  0  0
  -18.0316  -28.1410   22.8508 C   0  0  0  0  0  0
  -24.1484  -36.7296   23.2626 C   0  0  0  0  0  0
  -25.9311  -30.8355   21.3573 C   0  0  0  0  0  0
  -26.0140  -29.4657   20.7214 C   0  0  0  0  0  0
  -27.2196  -28.7316   20.6940 C   0  0  0  0  0  0
  -26.0850  -26.9314   19.5080 C   0  0  0  0  0  0
  -24.8842  -27.6675   19.5325 C   0  0  0  0  0  0
  -23.6156  -29.8028   20.1714 C   0  0  0  0  0  0
  -25.4106  -36.3088   24.0315 C   0  0  1  0  0  0
  -20.5891  -28.3702   23.1336 C   0  0  2  0  0  0
  -20.6806  -26.9442   22.5421 C   0  0  0  0  0  0
  -19.5794  -26.6426   21.5212 C   0  0  0  0  0  0
  -18.1971  -26.7978   22.1621 C   0  0  0  0  0  0
  -19.1563  -28.8873   23.2930 C   0  0  0  0  0  0
  -18.9479  -30.1489   23.8938 C   0  0  0  0  0  0
  -17.6469  -30.6623   24.0564 C   0  0  0  0  0  0
  -25.9033  -34.9466   23.5112 C   0  0  0  0  0  0
  -16.5368  -29.9104   23.6325 C   0  0  0  0  0  0
  -16.7306  -28.6529   23.0349 C   0  0  0  0  0  0
  -26.4495  -31.6611   25.0695 C   0  0  0  0  0  0
  -25.3747  -31.3717   26.1425 C   0  0  0  0  0  0
  -27.0327  -30.3065   24.6061 C   0  0  0  0  0  0
  -27.6113  -32.4294   25.7453 C   0  0  0  0  0  0
  -27.5566  -37.1790   24.8468 C   0  0  0  0  0  0
  -21.4144  -29.3081   22.3743 N   0  0  0  0  0  0
  -26.4286  -37.3773   23.9408 N   0  0  0  0  0  0
  -24.6686  -31.0786   22.0966 N   0  0  0  0  0  0
  -23.4204  -28.8158   23.2979 O   0  0  0  0  0  0
  -28.4398  -26.7705   20.0024 O   0  0  0  0  0  0
  -26.5595  -34.8944   22.4673 O   0  0  0  0  0  0
  -23.5351  -32.1397   23.7492 O   0  0  0  0  0  0
  -28.0902  -19.3623   21.5281 C   0  0  0  0  0  0
  -30.8596  -19.0559   21.4089 C   0  0  0  0  0  0
  -28.6591  -18.0769   21.6917 C   0  0  0  0  0  0
  -28.8936  -20.5117   21.3640 C   0  0  0  0  0  0
  -30.0702  -17.9068   21.6416 C   0  0  0  0  0  0
  -30.2943  -20.3409   21.2891 C   0  0  0  0  0  0
  -28.1795  -23.5001   19.4117 C   0  0  0  0  0  0
  -27.7209  -16.9222   21.9508 C   0  0  0  0  0  0
  -26.6122  -21.6256   19.5460 C   0  0  0  0  0  0
  -28.2436  -21.9031   21.3779 C   0  0  0  0  0  0
  -30.8224  -16.5903   21.9327 C   0  0  0  0  0  0
  -29.2127  -24.4544   20.0312 C   0  0  0  0  0  0
  -28.5592  -25.6078   20.8196 C   0  0  0  0  0  0
  -30.2159  -15.3139   21.5238 N   0  0  0  0  0  0
  -27.7479  -22.3924   20.0751 N   0  0  0  0  0  0
  -27.7378  -23.8017   18.2986 O   0  0  0  0  0  0
  -31.3560  -21.6937   21.1357 Cl  0  0  0  0  0  0
  -31.4643  -12.4053   19.1302 H   0  0  0  0  0  0
  -30.3320  -11.2946   19.8322 H   0  0  0  0  0  0
  -29.7405  -11.7943   17.4365 H   0  0  0  0  0  0
  -29.6613  -13.5020   17.7987 H   0  0  0  0  0  0
  -27.8444  -11.3033   18.8548 H   0  0  0  0  0  0
  -27.3623  -12.6203   17.8109 H   0  0  0  0  0  0
  -27.7099  -14.2466   19.5928 H   0  0  0  0  0  0
  -28.6743  -11.9700   21.4078 H   0  0  0  0  0  0
  -28.4369  -13.6127   21.8791 H   0  0  0  0  0  0
  -25.2739   -9.5671   22.4781 H   0  0  0  0  0  0
  -23.9971   -7.4618   22.7526 H   0  0  0  0  0  0
  -21.0796   -8.8725   19.8958 H   0  0  0  0  0  0
  -22.3651  -10.9641   19.6180 H   0  0  0  0  0  0
  -21.2004   -7.6126   23.9661 H   0  0  0  0  0  0
  -21.1531   -6.0537   25.9053 H   0  0  0  0  0  0
  -22.0578   -2.7585   23.2837 H   0  0  0  0  0  0
  -22.4133  -11.9934   22.4800 H   0  0  0  0  0  0
  -21.1097  -13.1261   22.2623 H   0  0  0  0  0  0
  -24.6626  -15.8421   20.4545 H   0  0  0  0  0  0
  -26.2549  -15.5744   19.9639 H   0  0  0  0  0  0
  -26.7112  -32.5598   23.1131 H   0  0  0  0  0  0
  -25.0138  -33.9770   25.0505 H   0  0  0  0  0  0
  -22.6954  -31.3050   21.3992 H   0  0  0  0  0  0
  -23.3749  -35.9628   23.3327 H   0  0  0  0  0  0
  -24.3555  -36.8893   22.2034 H   0  0  0  0  0  0
  -23.7251  -37.6517   23.6622 H   0  0  0  0  0  0
  -26.0366  -31.5812   20.5675 H   0  0  0  0  0  0
  -26.8248  -30.9090   21.9667 H   0  0  0  0  0  0
  -28.1285  -29.1373   21.1187 H   0  0  0  0  0  0
  -26.1133  -25.9673   19.0177 H   0  0  0  0  0  0
  -23.9932  -27.2561   19.0806 H   0  0  0  0  0  0
  -23.7308  -30.5684   19.4040 H   0  0  0  0  0  0
  -22.7430  -29.2133   19.8783 H   0  0  0  0  0  0
  -25.1275  -36.1933   25.0796 H   0  0  0  0  0  0
  -21.0044  -28.3282   24.1438 H   0  0  0  0  0  0
  -20.5696  -26.2351   23.3633 H   0  0  0  0  0  0
  -21.6687  -26.7484   22.1222 H   0  0  0  0  0  0
  -19.6963  -25.6328   21.1246 H   0  0  0  0  0  0
  -19.6754  -27.3250   20.6741 H   0  0  0  0  0  0
  -17.4233  -26.6766   21.4030 H   0  0  0  0  0  0
  -18.0399  -26.0119   22.9020 H   0  0  0  0  0  0
  -19.7918  -30.7324   24.2361 H   0  0  0  0  0  0
  -17.5004  -31.6328   24.5125 H   0  0  0  0  0  0
  -15.5367  -30.3012   23.7584 H   0  0  0  0  0  0
  -15.8730  -28.0822   22.7058 H   0  0  0  0  0  0
  -24.5911  -30.7102   25.7715 H   0  0  0  0  0  0
  -24.8945  -32.2879   26.4869 H   0  0  0  0  0  0
  -25.8050  -30.8844   27.0182 H   0  0  0  0  0  0
  -26.2864  -29.6839   24.1119 H   0  0  0  0  0  0
  -27.4143  -29.7287   25.4495 H   0  0  0  0  0  0
  -27.8673  -30.4444   23.9187 H   0  0  0  0  0  0
  -27.2800  -33.3582   26.2116 H   0  0  0  0  0  0
  -28.3885  -32.6879   25.0241 H   0  0  0  0  0  0
  -28.0836  -31.8349   26.5291 H   0  0  0  0  0  0
  -28.2585  -38.0081   24.7467 H   0  0  0  0  0  0
  -28.1053  -36.2601   24.6328 H   0  0  0  0  0  0
  -27.2274  -37.1477   25.8872 H   0  0  0  0  0  0
  -20.9281  -29.8893   21.7043 H   0  0  0  0  0  0
  -26.0179  -38.2850   24.1431 H   0  0  0  0  0  0
  -27.0172  -19.4744   21.5821 H   0  0  0  0  0  0
  -31.9370  -18.9680   21.3751 H   0  0  0  0  0  0
  -28.0157  -16.3820   22.8499 H   0  0  0  0  0  0
  -26.6921  -17.2553   22.0933 H   0  0  0  0  0  0
  -27.7456  -16.2509   21.0935 H   0  0  0  0  0  0
  -26.9660  -20.7551   18.9943 H   0  0  0  0  0  0
  -25.9760  -22.2061   18.8776 H   0  0  0  0  0  0
  -25.9513  -21.2846   20.3422 H   0  0  0  0  0  0
  -28.9000  -22.6053   21.8863 H   0  0  0  0  0  0
  -27.3895  -21.8571   22.0549 H   0  0  0  0  0  0
  -30.9841  -16.5436   23.0098 H   0  0  0  0  0  0
  -31.8276  -16.6712   21.5151 H   0  0  0  0  0  0
  -29.8176  -24.8691   19.2224 H   0  0  0  0  0  0
  -29.9288  -23.9342   20.6586 H   0  0  0  0  0  0
  -29.1972  -25.8726   21.6630 H   0  0  0  0  0  0
  -27.6060  -25.2954   21.2515 H   0  0  0  0  0  0
  -29.3847  -15.0262   22.0142 H   0  0  0  0  0  0
  1 25  1  0  0  0
  1 30  2  0  0  0
  1 84  1  0  0  0
  2  3  1  0  0  0
  2 25  1  0  0  0
  2 88  1  0  0  0
  2 89  1  0  0  0
  3  4  1  0  0  0
  3 90  1  0  0  0
  3 91  1  0  0  0
  4  5  1  0  0  0
  4 92  1  0  0  0
  4 93  1  0  0  0
  5  6  1  0  0  0
  5 26  1  0  0  0
  5 94  1  0  0  0
  6 25  1  0  0  0
  6 95  1  0  0  0
  6 96  1  0  0  0
  7  8  2  0  0  0
  7 26  1  0  0  0
  7 29  1  0  0  0
  8  9  1  0  0  0
  8 22  1  0  0  0
  9 10  1  0  0  0
  9 27  2  0  0  0
 10 11  2  0  0  0
 10 15  1  0  0  0
 11 12  1  0  0  0
 11 97  1  0  0  0
 12 13  2  0  0  0
 12 98  1  0  0  0
 13 14  1  0  0  0
 13 31  1  0  0  0
 14 15  2  0  0  0
 14 99  1  0  0  0
 15100  1  0  0  0
 16 17  2  0  0  0
 16 21  1  0  0  0
 16 31  1  0  0  0
 17 18  1  0  0  0
 17101  1  0  0  0
 18 19  2  0  0  0
 18102  1  0  0  0
 19 20  1  0  0  0
 19 24  1  0  0  0
 20 21  2  0  0  0
 20103  1  0  0  0
 21 23  1  0  0  0
 22 28  1  0  0  0
 22 32  2  0  0  0
 26 27  1  0  0  0
 28104  1  0  0  0
 28105  1  0  0  0
 29106  1  0  0  0
 29107  1  0  0  0
 33 34  1  0  0  0
 33 66  1  0  0  0
 33 70  2  0  0  0
 34 36  1  0  0  0
 34 59  1  0  0  0
 34108  1  0  0  0
 35 44  2  0  0  0
 35 45  1  0  0  0
 35 68  1  0  0  0
 36 56  1  0  0  0
 36109  1  0  0  0
 37 39  1  0  0  0
 37 47  1  0  0  0
 37 66  1  0  0  0
 37110  1  0  0  0
 38 43  2  0  0  0
 38 46  1  0  0  0
 38 47  1  0  0  0
 39 64  1  0  0  0
 39 67  2  0  0  0
 40 52  1  0  0  0
 40 53  2  0  0  0
 40 58  1  0  0  0
 41111  1  0  0  0
 41112  1  0  0  0
 41113  1  0  0  0
 41 48  1  0  0  0
 42 43  1  0  0  0
 42 66  1  0  0  0
 42114  1  0  0  0
 42115  1  0  0  0
 43 44  1  0  0  0
 44116  1  0  0  0
 45 46  2  0  0  0
 45117  1  0  0  0
 46118  1  0  0  0
 47119  1  0  0  0
 47120  1  0  0  0
 48 56  1  0  0  0
 48 65  1  0  0  0
 48121  1  0  0  0
 49 50  1  0  0  0
 49 53  1  0  0  0
 49 64  1  0  0  0
 49122  1  0  0  0
 50 51  1  0  0  0
 50123  1  0  0  0
 50124  1  0  0  0
 51 52  1  0  0  0
 51125  1  0  0  0
 51126  1  0  0  0
 52127  1  0  0  0
 52128  1  0  0  0
 53 54  1  0  0  0
 54 55  2  0  0  0
 54129  1  0  0  0
 55 57  1  0  0  0
 55130  1  0  0  0
 56 69  2  0  0  0
 57 58  2  0  0  0
 57131  1  0  0  0
 58132  1  0  0  0
 59 60  1  0  0  0
 59 61  1  0  0  0
 59 62  1  0  0  0
 60133  1  0  0  0
 60134  1  0  0  0
 60135  1  0  0  0
 61136  1  0  0  0
 61137  1  0  0  0
 61138  1  0  0  0
 62139  1  0  0  0
 62140  1  0  0  0
 62141  1  0  0  0
 63 65  1  0  0  0
 63142  1  0  0  0
 63143  1  0  0  0
 63144  1  0  0  0
 64145  1  0  0  0
 65146  1  0  0  0
 68 83  1  0  0  0
 71 73  2  0  0  0
 71 74  1  0  0  0
 71147  1  0  0  0
 72 75  2  0  0  0
 72 76  1  0  0  0
 72148  1  0  0  0
 73 75  1  0  0  0
 73 78  1  0  0  0
 74 76  2  0  0  0
 74 80  1  0  0  0
 75 81  1  0  0  0
 76 87  1  0  0  0
 77 82  1  0  0  0
 77 85  1  0  0  0
 77 86  2  0  0  0
 78149  1  0  0  0
 78150  1  0  0  0
 78151  1  0  0  0
 79 85  1  0  0  0
 79152  1  0  0  0
 79153  1  0  0  0
 79154  1  0  0  0
 80 85  1  0  0  0
 80155  1  0  0  0
 80156  1  0  0  0
 81 84  1  0  0  0
 81157  1  0  0  0
 81158  1  0  0  0
 82 83  1  0  0  0
 82159  1  0  0  0
 82160  1  0  0  0
 83161  1  0  0  0
 83162  1  0  0  0
 84163  1  0  0  0
M  ISO  4   1 100  68 101  83 101  84 100
M  END
> <chiral flag>
0

> <version>
0

> <s_m_source_file>
/data/baiqing/PycharmProjects/Reinvent-master-3.2/result/LINK_invent/BTK/process_docking_weight1_custom_product_contain_oxygen_bond_distance_aromatic_linkinvent_7_9_3/rearranged_h_0039.sdf

> <i_m_source_file_index>
27

> <r_mmod_Potential_Energy-OPLS-2005>
-108.168121337891

> <r_mmod_Stretch_Energy-OPLS-2005>
38.9864692687988

> <r_mmod_Bend_Energy-OPLS-2005>
106.950439453125

> <r_mmod_Torsional_Energy-OPLS-2005>
237.488525390625

> <r_mmod_Improper_Torsional_Energy-OPLS-2005>
3.18412351608276

> <r_mmod_Van_der_Waal_Energy-OPLS-2005>
157.658874511719

> <r_mmod_Electrostatic_Energy-OPLS-2005>
-434.381988525391

> <r_mmod_Solvation_Energy-OPLS-2005>
-227.557342529297

> <b_mmod_Minimization_Converged-OPLS-2005>
0

> <r_mmod_RMS_Derivative-OPLS-2005>
4.76188611984253

$$$$
27
                    3D
 Structure written by MMmdl.
183191  0  0  1  0            999 V2000
  -30.7453  -14.3973   20.6531 C   0  0  0  0  0  0
  -30.4135  -12.2972   19.3984 C   0  0  0  0  0  0
  -29.4825  -12.5223   18.1926 C   0  0  0  0  0  0
  -28.0073  -12.3808   18.6088 C   0  0  0  0  0  0
  -27.6621  -13.2055   19.8771 C   0  0  2  0  0  0
  -28.6998  -12.9557   20.9927 C   0  0  0  0  0  0
  -25.2585  -13.8165   20.5662 C   0  0  0  0  0  0
  -24.1836  -13.0434   20.9159 C   0  0  0  0  0  0
  -24.6389  -11.6906   20.8727 C   0  0  0  0  0  0
  -23.9069  -10.4290   21.0403 C   0  0  0  0  0  0
  -24.3624   -9.4207   21.9180 C   0  0  0  0  0  0
  -23.6293   -8.2248   22.0752 C   0  0  0  0  0  0
  -22.4274   -8.0287   21.3546 C   0  0  0  0  0  0
  -21.9916   -9.0260   20.4645 C   0  0  0  0  0  0
  -22.7249  -10.2138   20.3048 C   0  0  0  0  0  0
  -21.6852   -6.0741   22.5280 C   0  0  0  0  0  0
  -21.4014   -6.5643   23.8213 C   0  0  0  0  0  0
  -21.3660   -5.6797   24.9174 C   0  0  0  0  0  0
  -21.6045   -4.3056   24.7229 C   0  0  0  0  0  0
  -21.8821   -3.8151   23.4345 C   0  0  0  0  0  0
  -21.9194   -4.6969   22.3403 C   0  0  0  0  0  0
  -22.7860  -13.5234   21.1828 C   0  0  0  0  0  0
  -22.1661   -4.2150   21.0981 F   0  0  0  0  0  0
  -21.5633   -3.4538   25.7744 F   0  0  0  0  0  0
  -30.0374  -13.2561   20.4497 N   0  0  0  0  0  0
  -26.3013  -12.9331   20.3355 N   0  0  0  0  0  0
  -25.9311  -11.6486   20.5751 N   0  0  0  0  0  0
  -22.0508  -12.8218   22.0382 N   0  0  0  0  0  0
  -25.4312  -15.1888   20.4092 N   0  0  0  0  0  0
  -31.8044  -14.6423   20.0681 O   0  0  0  0  0  0
  -21.6636   -6.8887   21.4237 O   0  0  0  0  0  0
  -22.3548  -14.5542   20.6693 O   0  0  0  0  0  0
  -24.6095  -31.8701   23.2125 C   0  0  0  0  0  0
  -25.9016  -32.4824   23.8393 C   0  0  1  0  0  0
  -27.2400  -27.4597   20.1042 C   0  0  0  0  0  0
  -25.5897  -33.8626   24.2338 N   0  0  0  0  0  0
  -23.3952  -30.4927   21.5536 C   0  0  2  0  0  0
  -24.8443  -28.9568   20.1203 C   0  0  0  0  0  0
  -22.7368  -29.4667   22.5030 C   0  0  0  0  0  0
  -18.0270  -28.1355   22.8502 C   0  0  0  0  0  0
  -24.1494  -36.7319   23.2637 C   0  0  0  0  0  0
  -25.9174  -30.8446   21.3605 C   0  0  0  0  0  0
  -25.9985  -29.4761   20.7184 C   0  0  0  0  0  0
  -27.1997  -28.7348   20.7156 C   0  0  0  0  0  0
  -26.0751  -26.9547   19.4920 C   0  0  0  0  0  0
  -24.8736  -27.6900   19.5084 C   0  0  0  0  0  0
  -23.6027  -29.8210   20.1678 C   0  0  0  0  0  0
  -25.4107  -36.3115   24.0336 C   0  0  1  0  0  0
  -20.5849  -28.3643   23.1341 C   0  0  2  0  0  0
  -20.6770  -26.9394   22.5430 C   0  0  0  0  0  0
  -19.5754  -26.6385   21.5217 C   0  0  0  0  0  0
  -18.1926  -26.7908   22.1618 C   0  0  0  0  0  0
  -19.1514  -28.8812   23.2922 C   0  0  0  0  0  0
  -18.9446  -30.1424   23.8930 C   0  0  0  0  0  0
  -17.6449  -30.6584   24.0547 C   0  0  0  0  0  0
  -25.9021  -34.9484   23.5131 C   0  0  0  0  0  0
  -16.5342  -29.9076   23.6312 C   0  0  0  0  0  0
  -16.7259  -28.6480   23.0353 C   0  0  0  0  0  0
  -26.4467  -31.6591   25.0700 C   0  0  0  0  0  0
  -25.3748  -31.3683   26.1460 C   0  0  0  0  0  0
  -27.0297  -30.3041   24.6035 C   0  0  0  0  0  0
  -27.6028  -32.4313   25.7471 C   0  0  0  0  0  0
  -27.5582  -37.1818   24.8462 C   0  0  0  0  0  0
  -21.4109  -29.3016   22.3753 N   0  0  0  0  0  0
  -26.4298  -37.3790   23.9396 N   0  0  0  0  0  0
  -24.6592  -31.0815   22.1020 N   0  0  0  0  0  0
  -23.4169  -28.8231   23.3067 O   0  0  0  0  0  0
  -28.3824  -26.6972   20.0178 O   0  0  0  0  0  0
  -26.5574  -34.8931   22.4689 O   0  0  0  0  0  0
  -23.5302  -32.1460   23.7552 O   0  0  0  0  0  0
  -30.0272  -18.4807   20.7843 C   0  0  0  0  0  0
  -29.3647  -19.7171   20.6904 C   0  0  0  0  0  0
  -30.0083  -17.7314   21.9697 C   0  0  0  0  0  0
  -29.2571  -18.1982   23.0773 C   0  0  0  0  0  0
  -28.6805  -20.2566   21.8168 C   0  0  0  0  0  0
  -28.6297  -19.4856   23.0272 C   0  0  0  0  0  0
  -29.4300  -20.4366   19.3487 C   0  0  0  0  0  0
  -29.1673  -17.3077   24.3209 C   0  0  0  0  0  0
  -30.9578  -19.4925   27.4969 C   0  0  0  0  0  0
  -29.9672  -21.8064   27.9084 C   0  0  0  0  0  0
  -30.8749  -16.4716   22.0299 C   0  0  0  0  0  0
  -28.0366  -21.6542   21.6741 C   0  0  0  0  0  0
  -27.9565  -20.0164   24.3054 C   0  0  0  0  0  0
  -28.7575  -25.2400   21.9519 C   0  0  0  0  0  0
  -28.9837  -23.9450   21.1356 C   0  0  0  0  0  0
  -28.5573  -20.0138   26.7268 C   0  0  0  0  0  0
  -29.1630  -26.5247   21.1995 C   0  0  0  0  0  0
  -29.6734  -20.3036   27.7555 C   0  0  0  0  0  0
  -30.2204  -15.2565   21.5403 N   0  0  0  0  0  0
  -29.0184  -22.7239   21.9820 N   0  3  0  0  0  0
  -28.9780  -20.2957   25.3365 N   0  3  0  0  0  0
  -31.4563  -12.3968   19.0925 H   0  0  0  0  0  0
  -30.3139  -11.2769   19.7720 H   0  0  0  0  0  0
  -29.7142  -11.8131   17.3964 H   0  0  0  0  0  0
  -29.6526  -13.5161   17.7752 H   0  0  0  0  0  0
  -27.8132  -11.3228   18.7902 H   0  0  0  0  0  0
  -27.3544  -12.6699   17.7846 H   0  0  0  0  0  0
  -27.7184  -14.2593   19.6009 H   0  0  0  0  0  0
  -28.6646  -11.9128   21.3112 H   0  0  0  0  0  0
  -28.4491  -13.5339   21.8827 H   0  0  0  0  0  0
  -25.2769   -9.5678   22.4748 H   0  0  0  0  0  0
  -23.9998   -7.4641   22.7473 H   0  0  0  0  0  0
  -21.0846   -8.8789   19.8947 H   0  0  0  0  0  0
  -22.3714  -10.9679   19.6155 H   0  0  0  0  0  0
  -21.2007   -7.6152   23.9719 H   0  0  0  0  0  0
  -21.1478   -6.0527   25.9084 H   0  0  0  0  0  0
  -22.0604   -2.7609   23.2851 H   0  0  0  0  0  0
  -22.4132  -11.9873   22.4754 H   0  0  0  0  0  0
  -21.1122  -13.1231   22.2592 H   0  0  0  0  0  0
  -24.6676  -15.8467   20.5218 H   0  0  0  0  0  0
  -26.2955  -15.6288   20.1172 H   0  0  0  0  0  0
  -26.7094  -32.5546   23.1159 H   0  0  0  0  0  0
  -25.0098  -33.9788   25.0522 H   0  0  0  0  0  0
  -22.6796  -31.3075   21.4150 H   0  0  0  0  0  0
  -23.3754  -35.9664   23.3300 H   0  0  0  0  0  0
  -24.3596  -36.8923   22.2056 H   0  0  0  0  0  0
  -23.7257  -37.6525   23.6653 H   0  0  0  0  0  0
  -26.0174  -31.6101   20.5901 H   0  0  0  0  0  0
  -26.8087  -30.9039   21.9732 H   0  0  0  0  0  0
  -28.0869  -29.1598   21.1602 H   0  0  0  0  0  0
  -26.1030  -25.9884   19.0067 H   0  0  0  0  0  0
  -23.9857  -27.2845   19.0421 H   0  0  0  0  0  0
  -23.7063  -30.5978   19.4090 H   0  0  0  0  0  0
  -22.7286  -29.2366   19.8750 H   0  0  0  0  0  0
  -25.1287  -36.1982   25.0824 H   0  0  0  0  0  0
  -20.9929  -28.3240   24.1464 H   0  0  0  0  0  0
  -20.5712  -26.2254   23.3623 H   0  0  0  0  0  0
  -21.6646  -26.7485   22.1202 H   0  0  0  0  0  0
  -19.6937  -25.6304   21.1234 H   0  0  0  0  0  0
  -19.6699  -27.3214   20.6760 H   0  0  0  0  0  0
  -17.4202  -26.6678   21.3998 H   0  0  0  0  0  0
  -18.0286  -26.0044   22.8989 H   0  0  0  0  0  0
  -19.7932  -30.7209   24.2350 H   0  0  0  0  0  0
  -17.5010  -31.6279   24.5125 H   0  0  0  0  0  0
  -15.5340  -30.2970   23.7637 H   0  0  0  0  0  0
  -15.8656  -28.0805   22.7053 H   0  0  0  0  0  0
  -24.5941  -30.6990   25.7815 H   0  0  0  0  0  0
  -24.8924  -32.2836   26.4898 H   0  0  0  0  0  0
  -25.8128  -30.8889   27.0223 H   0  0  0  0  0  0
  -26.2825  -29.6798   24.1110 H   0  0  0  0  0  0
  -27.4099  -29.7267   25.4469 H   0  0  0  0  0  0
  -27.8648  -30.4352   23.9146 H   0  0  0  0  0  0
  -27.2622  -33.3602   26.2061 H   0  0  0  0  0  0
  -28.3841  -32.6882   25.0304 H   0  0  0  0  0  0
  -28.0690  -31.8422   26.5380 H   0  0  0  0  0  0
  -28.2598  -38.0118   24.7493 H   0  0  0  0  0  0
  -28.1070  -36.2632   24.6299 H   0  0  0  0  0  0
  -27.2290  -37.1481   25.8866 H   0  0  0  0  0  0
  -20.9271  -29.8693   21.6945 H   0  0  0  0  0  0
  -26.0193  -38.2870   24.1397 H   0  0  0  0  0  0
  -30.5813  -18.1030   19.9346 H   0  0  0  0  0  0
  -30.1035  -19.9294   18.6561 H   0  0  0  0  0  0
  -29.7896  -21.4593   19.4525 H   0  0  0  0  0  0
  -28.4473  -20.4554   18.8764 H   0  0  0  0  0  0
  -29.1933  -16.2497   24.0625 H   0  0  0  0  0  0
  -28.2366  -17.4232   24.8710 H   0  0  0  0  0  0
  -29.9988  -17.5003   24.9983 H   0  0  0  0  0  0
  -31.6499  -19.5827   28.3346 H   0  0  0  0  0  0
  -31.4884  -19.8311   26.6063 H   0  0  0  0  0  0
  -30.7430  -18.4298   27.3740 H   0  0  0  0  0  0
  -30.6234  -21.9887   28.7605 H   0  0  0  0  0  0
  -29.0519  -22.3744   28.0815 H   0  0  0  0  0  0
  -30.4563  -22.2219   27.0274 H   0  0  0  0  0  0
  -31.2289  -16.2945   23.0451 H   0  0  0  0  0  0
  -31.7888  -16.6781   21.4701 H   0  0  0  0  0  0
  -27.1374  -21.7840   22.2738 H   0  0  0  0  0  0
  -27.6610  -21.7617   20.6572 H   0  0  0  0  0  0
  -27.2226  -19.2891   24.6540 H   0  0  0  0  0  0
  -27.3754  -20.9221   24.1613 H   0  0  0  0  0  0
  -29.3517  -25.2077   22.8662 H   0  0  0  0  0  0
  -27.7156  -25.3046   22.2667 H   0  0  0  0  0  0
  -29.9492  -24.0059   20.6305 H   0  0  0  0  0  0
  -28.2374  -23.8756   20.3437 H   0  0  0  0  0  0
  -27.6645  -20.5925   26.9692 H   0  0  0  0  0  0
  -28.2683  -18.9649   26.8063 H   0  0  0  0  0  0
  -30.2102  -26.4511   20.9053 H   0  0  0  0  0  0
  -29.1070  -27.3794   21.8738 H   0  0  0  0  0  0
  -29.2849  -19.9682   28.7193 H   0  0  0  0  0  0
  -29.3390  -15.0022   21.9586 H   0  0  0  0  0  0
  -29.9299  -22.3124   21.8614 H   0  0  0  0  0  0
  -28.9369  -22.9951   22.9463 H   0  0  0  0  0  0
  -29.2698  -21.2552   25.2671 H   0  0  0  0  0  0
  -29.7737  -19.7170   25.1242 H   0  0  0  0  0  0
  1 25  1  0  0  0
  1 30  2  0  0  0
  1 89  1  0  0  0
  2  3  1  0  0  0
  2 25  1  0  0  0
  2 92  1  0  0  0
  2 93  1  0  0  0
  3  4  1  0  0  0
  3 94  1  0  0  0
  3 95  1  0  0  0
  4  5  1  0  0  0
  4 96  1  0  0  0
  4 97  1  0  0  0
  5  6  1  0  0  0
  5 26  1  0  0  0
  5 98  1  0  0  0
  6 25  1  0  0  0
  6 99  1  0  0  0
  6100  1  0  0  0
  7  8  2  0  0  0
  7 26  1  0  0  0
  7 29  1  0  0  0
  8  9  1  0  0  0
  8 22  1  0  0  0
  9 10  1  0  0  0
  9 27  2  0  0  0
 10 11  2  0  0  0
 10 15  1  0  0  0
 11 12  1  0  0  0
 11101  1  0  0  0
 12 13  2  0  0  0
 12102  1  0  0  0
 13 14  1  0  0  0
 13 31  1  0  0  0
 14 15  2  0  0  0
 14103  1  0  0  0
 15104  1  0  0  0
 16 17  2  0  0  0
 16 21  1  0  0  0
 16 31  1  0  0  0
 17 18  1  0  0  0
 17105  1  0  0  0
 18 19  2  0  0  0
 18106  1  0  0  0
 19 20  1  0  0  0
 19 24  1  0  0  0
 20 21  2  0  0  0
 20107  1  0  0  0
 21 23  1  0  0  0
 22 28  1  0  0  0
 22 32  2  0  0  0
 26 27  1  0  0  0
 28108  1  0  0  0
 28109  1  0  0  0
 29110  1  0  0  0
 29111  1  0  0  0
 33 34  1  0  0  0
 33 66  1  0  0  0
 33 70  2  0  0  0
 34 36  1  0  0  0
 34 59  1  0  0  0
 34112  1  0  0  0
 35 44  2  0  0  0
 35 45  1  0  0  0
 35 68  1  0  0  0
 36 56  1  0  0  0
 36113  1  0  0  0
 37 39  1  0  0  0
 37 47  1  0  0  0
 37 66  1  0  0  0
 37114  1  0  0  0
 38 43  2  0  0  0
 38 46  1  0  0  0
 38 47  1  0  0  0
 39 64  1  0  0  0
 39 67  2  0  0  0
 40 52  1  0  0  0
 40 53  2  0  0  0
 40 58  1  0  0  0
 41115  1  0  0  0
 41116  1  0  0  0
 41117  1  0  0  0
 41 48  1  0  0  0
 42 43  1  0  0  0
 42 66  1  0  0  0
 42118  1  0  0  0
 42119  1  0  0  0
 43 44  1  0  0  0
 44120  1  0  0  0
 45 46  2  0  0  0
 45121  1  0  0  0
 46122  1  0  0  0
 47123  1  0  0  0
 47124  1  0  0  0
 48 56  1  0  0  0
 48 65  1  0  0  0
 48125  1  0  0  0
 49 50  1  0  0  0
 49 53  1  0  0  0
 49 64  1  0  0  0
 49126  1  0  0  0
 50 51  1  0  0  0
 50127  1  0  0  0
 50128  1  0  0  0
 51 52  1  0  0  0
 51129  1  0  0  0
 51130  1  0  0  0
 52131  1  0  0  0
 52132  1  0  0  0
 53 54  1  0  0  0
 54 55  2  0  0  0
 54133  1  0  0  0
 55 57  1  0  0  0
 55134  1  0  0  0
 56 69  2  0  0  0
 57 58  2  0  0  0
 57135  1  0  0  0
 58136  1  0  0  0
 59 60  1  0  0  0
 59 61  1  0  0  0
 59 62  1  0  0  0
 60137  1  0  0  0
 60138  1  0  0  0
 60139  1  0  0  0
 61140  1  0  0  0
 61141  1  0  0  0
 61142  1  0  0  0
 62143  1  0  0  0
 62144  1  0  0  0
 62145  1  0  0  0
 63 65  1  0  0  0
 63146  1  0  0  0
 63147  1  0  0  0
 63148  1  0  0  0
 64149  1  0  0  0
 65150  1  0  0  0
 68 87  1  0  0  0
 71 72  2  0  0  0
 71 73  1  0  0  0
 71151  1  0  0  0
 72 75  1  0  0  0
 72 77  1  0  0  0
 73 74  2  0  0  0
 73 81  1  0  0  0
 74 76  1  0  0  0
 74 78  1  0  0  0
 75 76  2  0  0  0
 75 82  1  0  0  0
 76 83  1  0  0  0
 77152  1  0  0  0
 77153  1  0  0  0
 77154  1  0  0  0
 78155  1  0  0  0
 78156  1  0  0  0
 78157  1  0  0  0
 79158  1  0  0  0
 79159  1  0  0  0
 79160  1  0  0  0
 79 88  1  0  0  0
 80 88  1  0  0  0
 80161  1  0  0  0
 80162  1  0  0  0
 80163  1  0  0  0
 81 89  1  0  0  0
 81164  1  0  0  0
 81165  1  0  0  0
 82 90  1  0  0  0
 82166  1  0  0  0
 82167  1  0  0  0
 83 91  1  0  0  0
 83168  1  0  0  0
 83169  1  0  0  0
 84 85  1  0  0  0
 84 87  1  0  0  0
 84170  1  0  0  0
 84171  1  0  0  0
 85 90  1  0  0  0
 85172  1  0  0  0
 85173  1  0  0  0
 86 88  1  0  0  0
 86 91  1  0  0  0
 86174  1  0  0  0
 86175  1  0  0  0
 87176  1  0  0  0
 87177  1  0  0  0
 88178  1  0  0  0
 89179  1  0  0  0
 90180  1  0  0  0
 90181  1  0  0  0
 91182  1  0  0  0
 91183  1  0  0  0
M  CHG  2  90   1  91   1
M  ISO  4   1 100  68 101  87 101  89 100
M  END
> <chiral flag>
0

> <version>
0

> <s_m_source_file>
/data/baiqing/PycharmProjects/Reinvent-master-3.2/result/LINK_invent/BTK/process_docking_weight1_custom_product_contain_oxygen_bond_distance_aromatic_linkinvent_7_9_3/rearranged_h_0039.sdf

> <i_m_source_file_index>
28

> <r_mmod_Potential_Energy-OPLS-2005>
-448.227203369141

> <r_mmod_Stretch_Energy-OPLS-2005>
42.1569900512695

> <r_mmod_Bend_Energy-OPLS-2005>
107.915390014648

> <r_mmod_Torsional_Energy-OPLS-2005>
234.766082763672

> <r_mmod_Improper_Torsional_Energy-OPLS-2005>
1.97839057445526

> <r_mmod_Van_der_Waal_Energy-OPLS-2005>
157.571136474609

> <r_mmod_Electrostatic_Energy-OPLS-2005>
-23.6872005462646

> <r_mmod_Solvation_Energy-OPLS-2005>
-975.516723632812

> <b_mmod_Minimization_Converged-OPLS-2005>
0

> <r_mmod_RMS_Derivative-OPLS-2005>
2.3793408870697

$$$$
28
                    3D
 Structure written by MMmdl.
156164  0  0  1  0            999 V2000
  -30.7147  -14.4861   20.6115 C   0  0  0  0  0  0
  -30.4201  -12.3405   19.4206 C   0  0  0  0  0  0
  -29.4906  -12.5103   18.2028 C   0  0  0  0  0  0
  -28.0134  -12.3462   18.6147 C   0  0  0  0  0  0
  -27.6556  -13.1880   19.8672 C   0  0  2  0  0  0
  -28.6965  -12.9721   20.9911 C   0  0  0  0  0  0
  -25.2567  -13.8113   20.5651 C   0  0  0  0  0  0
  -24.1818  -13.0410   20.9194 C   0  0  0  0  0  0
  -24.6348  -11.6872   20.8780 C   0  0  0  0  0  0
  -23.9025  -10.4271   21.0450 C   0  0  0  0  0  0
  -24.3579   -9.4171   21.9212 C   0  0  0  0  0  0
  -23.6254   -8.2203   22.0761 C   0  0  0  0  0  0
  -22.4242   -8.0253   21.3543 C   0  0  0  0  0  0
  -21.9882   -9.0240   20.4657 C   0  0  0  0  0  0
  -22.7211  -10.2121   20.3091 C   0  0  0  0  0  0
  -21.6826   -6.0715   22.5292 C   0  0  0  0  0  0
  -21.3992   -6.5623   23.8227 C   0  0  0  0  0  0
  -21.3669   -5.6777   24.9193 C   0  0  0  0  0  0
  -21.6044   -4.3039   24.7238 C   0  0  0  0  0  0
  -21.8811   -3.8130   23.4362 C   0  0  0  0  0  0
  -21.9174   -4.6945   22.3419 C   0  0  0  0  0  0
  -22.7860  -13.5264   21.1855 C   0  0  0  0  0  0
  -22.1651   -4.2132   21.0995 F   0  0  0  0  0  0
  -21.5635   -3.4518   25.7748 F   0  0  0  0  0  0
  -30.0161  -13.3221   20.4486 N   0  0  0  0  0  0
  -26.2968  -12.9234   20.3314 N   0  0  0  0  0  0
  -25.9257  -11.6425   20.5775 N   0  0  0  0  0  0
  -22.0432  -12.8314   22.0407 N   0  0  0  0  0  0
  -25.4294  -15.1826   20.4008 N   0  0  0  0  0  0
  -31.8129  -14.6565   20.0801 O   0  0  0  0  0  0
  -21.6602   -6.8853   21.4248 O   0  0  0  0  0  0
  -22.3605  -14.5585   20.6687 O   0  0  0  0  0  0
  -24.6159  -31.8674   23.2074 C   0  0  0  0  0  0
  -25.9062  -32.4811   23.8371 C   0  0  1  0  0  0
  -27.2231  -27.4070   20.1150 C   0  0  0  0  0  0
  -25.5932  -33.8609   24.2303 N   0  0  0  0  0  0
  -23.4039  -30.4895   21.5484 C   0  0  2  0  0  0
  -24.8493  -28.9476   20.1177 C   0  0  0  0  0  0
  -22.7413  -29.4652   22.4983 C   0  0  0  0  0  0
  -18.0283  -28.1358   22.8483 C   0  0  0  0  0  0
  -24.1485  -36.7307   23.2632 C   0  0  0  0  0  0
  -25.9322  -30.8248   21.3634 C   0  0  0  0  0  0
  -26.0094  -29.4553   20.7165 C   0  0  0  0  0  0
  -27.2020  -28.6928   20.7084 C   0  0  0  0  0  0
  -26.0508  -26.9231   19.5014 C   0  0  0  0  0  0
  -24.8655  -27.6820   19.5061 C   0  0  0  0  0  0
  -23.6136  -29.8190   20.1630 C   0  0  0  0  0  0
  -25.4110  -36.3103   24.0324 C   0  0  1  0  0  0
  -20.5869  -28.3649   23.1320 C   0  0  2  0  0  0
  -20.6772  -26.9377   22.5405 C   0  0  0  0  0  0
  -19.5748  -26.6341   21.5210 C   0  0  0  0  0  0
  -18.1923  -26.7904   22.1608 C   0  0  0  0  0  0
  -19.1523  -28.8823   23.2908 C   0  0  0  0  0  0
  -18.9448  -30.1433   23.8906 C   0  0  0  0  0  0
  -17.6438  -30.6559   24.0568 C   0  0  0  0  0  0
  -25.9047  -34.9469   23.5109 C   0  0  0  0  0  0
  -16.5340  -29.9055   23.6302 C   0  0  0  0  0  0
  -16.7271  -28.6481   23.0316 C   0  0  0  0  0  0
  -26.4472  -31.6597   25.0704 C   0  0  0  0  0  0
  -25.3746  -31.3725   26.1465 C   0  0  0  0  0  0
  -27.0281  -30.3037   24.6075 C   0  0  0  0  0  0
  -27.6033  -32.4319   25.7476 C   0  0  0  0  0  0
  -27.5580  -37.1809   24.8464 C   0  0  0  0  0  0
  -21.4139  -29.3047   22.3746 N   0  0  0  0  0  0
  -26.4294  -37.3791   23.9402 N   0  0  0  0  0  0
  -24.6685  -31.0753   22.0983 N   0  0  0  0  0  0
  -23.4184  -28.8195   23.3018 O   0  0  0  0  0  0
  -28.3808  -26.6562   20.0917 O   0  0  0  0  0  0
  -26.5588  -34.8926   22.4658 O   0  0  0  0  0  0
  -23.5363  -32.1440   23.7483 O   0  0  0  0  0  0
  -29.5899  -18.1533   20.2847 C   0  0  0  0  0  0
  -27.5759  -19.6917   21.4846 C   0  0  0  0  0  0
  -28.8014  -17.5605   21.2970 C   0  0  0  0  0  0
  -28.3352  -20.2712   20.4429 C   0  0  0  0  0  0
  -27.7987  -18.3610   21.9082 C   0  0  0  0  0  0
  -29.3693  -19.4881   19.8643 C   0  0  0  0  0  0
  -28.9568  -16.0712   21.6712 C   0  0  0  0  0  0
  -27.9271  -21.6514   19.8822 C   0  0  0  0  0  0
  -27.9260  -24.1513   20.0578 C   0  0  0  0  0  0
  -28.3797  -25.4193   20.8439 C   0  0  0  0  0  0
  -30.2786  -15.4564   21.4450 N   0  0  0  0  0  0
  -28.3822  -22.8480   20.6470 N   0  3  0  0  0  0
  -26.7929  -17.7241   23.1607 Cl  0  0  0  0  0  0
  -30.3640  -20.1179   18.5997 Cl  0  0  0  0  0  0
  -31.4601  -12.4533   19.1100 H   0  0  0  0  0  0
  -30.3467  -11.3283   19.8181 H   0  0  0  0  0  0
  -29.7441  -11.7819   17.4322 H   0  0  0  0  0  0
  -29.6444  -13.4953   17.7593 H   0  0  0  0  0  0
  -27.8374  -11.2885   18.8124 H   0  0  0  0  0  0
  -27.3585  -12.6104   17.7826 H   0  0  0  0  0  0
  -27.6948  -14.2256   19.5393 H   0  0  0  0  0  0
  -28.6920  -11.9246   21.2987 H   0  0  0  0  0  0
  -28.4510  -13.5221   21.8959 H   0  0  0  0  0  0
  -25.2725   -9.5626   22.4784 H   0  0  0  0  0  0
  -23.9935   -7.4584   22.7484 H   0  0  0  0  0  0
  -21.0806   -8.8798   19.8966 H   0  0  0  0  0  0
  -22.3699  -10.9668   19.6208 H   0  0  0  0  0  0
  -21.1978   -7.6128   23.9733 H   0  0  0  0  0  0
  -21.1513   -6.0503   25.9098 H   0  0  0  0  0  0
  -22.0578   -2.7582   23.2879 H   0  0  0  0  0  0
  -22.3955  -11.9972   22.4882 H   0  0  0  0  0  0
  -21.1076  -13.1457   22.2575 H   0  0  0  0  0  0
  -24.6576  -15.8309   20.5018 H   0  0  0  0  0  0
  -26.2654  -15.6162   20.0337 H   0  0  0  0  0  0
  -26.7124  -32.5490   23.1123 H   0  0  0  0  0  0
  -25.0131  -33.9772   25.0490 H   0  0  0  0  0  0
  -22.6954  -31.3086   21.4064 H   0  0  0  0  0  0
  -23.3738  -35.9644   23.3304 H   0  0  0  0  0  0
  -24.3596  -36.8915   22.2044 H   0  0  0  0  0  0
  -23.7239  -37.6518   23.6642 H   0  0  0  0  0  0
  -26.0466  -31.5871   20.5914 H   0  0  0  0  0  0
  -26.8201  -30.8807   21.9803 H   0  0  0  0  0  0
  -28.1003  -29.0790   21.1694 H   0  0  0  0  0  0
  -26.0484  -25.9675   19.0004 H   0  0  0  0  0  0
  -23.9764  -27.2874   19.0335 H   0  0  0  0  0  0
  -23.7296  -30.5909   19.4017 H   0  0  0  0  0  0
  -22.7359  -29.2414   19.8664 H   0  0  0  0  0  0
  -25.1289  -36.1961   25.0815 H   0  0  0  0  0  0
  -20.9978  -28.3205   24.1437 H   0  0  0  0  0  0
  -20.5705  -26.2252   23.3593 H   0  0  0  0  0  0
  -21.6640  -26.7417   22.1184 H   0  0  0  0  0  0
  -19.6913  -25.6246   21.1266 H   0  0  0  0  0  0
  -19.6686  -27.3104   20.6703 H   0  0  0  0  0  0
  -17.4207  -26.6678   21.3989 H   0  0  0  0  0  0
  -18.0299  -26.0018   22.8979 H   0  0  0  0  0  0
  -19.7929  -30.7239   24.2276 H   0  0  0  0  0  0
  -17.4988  -31.6226   24.5185 H   0  0  0  0  0  0
  -15.5341  -30.2947   23.7611 H   0  0  0  0  0  0
  -15.8679  -28.0810   22.6986 H   0  0  0  0  0  0
  -24.5916  -30.7071   25.7833 H   0  0  0  0  0  0
  -24.8954  -32.2893   26.4909 H   0  0  0  0  0  0
  -25.8135  -30.8919   27.0221 H   0  0  0  0  0  0
  -26.2822  -29.6825   24.1112 H   0  0  0  0  0  0
  -27.4032  -29.7252   25.4524 H   0  0  0  0  0  0
  -27.8662  -30.4351   23.9227 H   0  0  0  0  0  0
  -27.2638  -33.3602   26.2082 H   0  0  0  0  0  0
  -28.3838  -32.6914   25.0316 H   0  0  0  0  0  0
  -28.0692  -31.8425   26.5384 H   0  0  0  0  0  0
  -28.2598  -38.0105   24.7508 H   0  0  0  0  0  0
  -28.1076  -36.2635   24.6289 H   0  0  0  0  0  0
  -27.2304  -37.1456   25.8872 H   0  0  0  0  0  0
  -20.9291  -29.8824   21.7017 H   0  0  0  0  0  0
  -26.0173  -38.2864   24.1424 H   0  0  0  0  0  0
  -30.3567  -17.5743   19.7905 H   0  0  0  0  0  0
  -26.7744  -20.2567   21.9410 H   0  0  0  0  0  0
  -28.1659  -15.5593   21.1383 H   0  0  0  0  0  0
  -28.7424  -15.9370   22.7307 H   0  0  0  0  0  0
  -26.8367  -21.6742   19.8245 H   0  0  0  0  0  0
  -28.2589  -21.7438   18.8476 H   0  0  0  0  0  0
  -28.2983  -24.2124   19.0349 H   0  0  0  0  0  0
  -26.8382  -24.1379   19.9953 H   0  0  0  0  0  0
  -29.4097  -25.2755   21.1721 H   0  0  0  0  0  0
  -27.7928  -25.5285   21.7570 H   0  0  0  0  0  0
  -31.0287  -16.0949   21.6601 H   0  0  0  0  0  0
  -29.3900  -22.8337   20.6896 H   0  0  0  0  0  0
  -28.0386  -22.7675   21.5919 H   0  0  0  0  0  0
  1 25  1  0  0  0
  1 30  2  0  0  0
  1 81  1  0  0  0
  2  3  1  0  0  0
  2 25  1  0  0  0
  2 85  1  0  0  0
  2 86  1  0  0  0
  3  4  1  0  0  0
  3 87  1  0  0  0
  3 88  1  0  0  0
  4  5  1  0  0  0
  4 89  1  0  0  0
  4 90  1  0  0  0
  5  6  1  0  0  0
  5 26  1  0  0  0
  5 91  1  0  0  0
  6 25  1  0  0  0
  6 92  1  0  0  0
  6 93  1  0  0  0
  7  8  2  0  0  0
  7 26  1  0  0  0
  7 29  1  0  0  0
  8  9  1  0  0  0
  8 22  1  0  0  0
  9 10  1  0  0  0
  9 27  2  0  0  0
 10 11  2  0  0  0
 10 15  1  0  0  0
 11 12  1  0  0  0
 11 94  1  0  0  0
 12 13  2  0  0  0
 12 95  1  0  0  0
 13 14  1  0  0  0
 13 31  1  0  0  0
 14 15  2  0  0  0
 14 96  1  0  0  0
 15 97  1  0  0  0
 16 17  2  0  0  0
 16 21  1  0  0  0
 16 31  1  0  0  0
 17 18  1  0  0  0
 17 98  1  0  0  0
 18 19  2  0  0  0
 18 99  1  0  0  0
 19 20  1  0  0  0
 19 24  1  0  0  0
 20 21  2  0  0  0
 20100  1  0  0  0
 21 23  1  0  0  0
 22 28  1  0  0  0
 22 32  2  0  0  0
 26 27  1  0  0  0
 28101  1  0  0  0
 28102  1  0  0  0
 29103  1  0  0  0
 29104  1  0  0  0
 33 34  1  0  0  0
 33 66  1  0  0  0
 33 70  2  0  0  0
 34 36  1  0  0  0
 34 59  1  0  0  0
 34105  1  0  0  0
 35 44  2  0  0  0
 35 45  1  0  0  0
 35 68  1  0  0  0
 36 56  1  0  0  0
 36106  1  0  0  0
 37 39  1  0  0  0
 37 47  1  0  0  0
 37 66  1  0  0  0
 37107  1  0  0  0
 38 43  2  0  0  0
 38 46  1  0  0  0
 38 47  1  0  0  0
 39 64  1  0  0  0
 39 67  2  0  0  0
 40 52  1  0  0  0
 40 53  2  0  0  0
 40 58  1  0  0  0
 41108  1  0  0  0
 41109  1  0  0  0
 41110  1  0  0  0
 41 48  1  0  0  0
 42 43  1  0  0  0
 42 66  1  0  0  0
 42111  1  0  0  0
 42112  1  0  0  0
 43 44  1  0  0  0
 44113  1  0  0  0
 45 46  2  0  0  0
 45114  1  0  0  0
 46115  1  0  0  0
 47116  1  0  0  0
 47117  1  0  0  0
 48 56  1  0  0  0
 48 65  1  0  0  0
 48118  1  0  0  0
 49 50  1  0  0  0
 49 53  1  0  0  0
 49 64  1  0  0  0
 49119  1  0  0  0
 50 51  1  0  0  0
 50120  1  0  0  0
 50121  1  0  0  0
 51 52  1  0  0  0
 51122  1  0  0  0
 51123  1  0  0  0
 52124  1  0  0  0
 52125  1  0  0  0
 53 54  1  0  0  0
 54 55  2  0  0  0
 54126  1  0  0  0
 55 57  1  0  0  0
 55127  1  0  0  0
 56 69  2  0  0  0
 57 58  2  0  0  0
 57128  1  0  0  0
 58129  1  0  0  0
 59 60  1  0  0  0
 59 61  1  0  0  0
 59 62  1  0  0  0
 60130  1  0  0  0
 60131  1  0  0  0
 60132  1  0  0  0
 61133  1  0  0  0
 61134  1  0  0  0
 61135  1  0  0  0
 62136  1  0  0  0
 62137  1  0  0  0
 62138  1  0  0  0
 63 65  1  0  0  0
 63139  1  0  0  0
 63140  1  0  0  0
 63141  1  0  0  0
 64142  1  0  0  0
 65143  1  0  0  0
 68 80  1  0  0  0
 71 73  2  0  0  0
 71 76  1  0  0  0
 71144  1  0  0  0
 72 74  1  0  0  0
 72 75  2  0  0  0
 72145  1  0  0  0
 73 75  1  0  0  0
 73 77  1  0  0  0
 74 76  2  0  0  0
 74 78  1  0  0  0
 75 83  1  0  0  0
 76 84  1  0  0  0
 77 81  1  0  0  0
 77146  1  0  0  0
 77147  1  0  0  0
 78 82  1  0  0  0
 78148  1  0  0  0
 78149  1  0  0  0
 79 80  1  0  0  0
 79 82  1  0  0  0
 79150  1  0  0  0
 79151  1  0  0  0
 80152  1  0  0  0
 80153  1  0  0  0
 81154  1  0  0  0
 82155  1  0  0  0
 82156  1  0  0  0
M  CHG  1  82   1
M  ISO  4   1 100  68 101  80 101  81 100
M  END
> <chiral flag>
0

> <version>
0

> <s_m_source_file>
/data/baiqing/PycharmProjects/Reinvent-master-3.2/result/LINK_invent/BTK/process_docking_weight1_custom_product_contain_oxygen_bond_distance_aromatic_linkinvent_7_9_3/rearranged_h_0039.sdf

> <i_m_source_file_index>
29

> <r_mmod_Potential_Energy-OPLS-2005>
-220.431732177734

> <r_mmod_Stretch_Energy-OPLS-2005>
43.6197319030762

> <r_mmod_Bend_Energy-OPLS-2005>
126.763580322266

> <r_mmod_Torsional_Energy-OPLS-2005>
249.385482788086

> <r_mmod_Improper_Torsional_Energy-OPLS-2005>
4.98998880386353

> <r_mmod_Van_der_Waal_Energy-OPLS-2005>
141.418334960938

> <r_mmod_Electrostatic_Energy-OPLS-2005>
-333.249328613281

> <r_mmod_Solvation_Energy-OPLS-2005>
-467.997222900391

> <b_mmod_Minimization_Converged-OPLS-2005>
0

> <r_mmod_RMS_Derivative-OPLS-2005>
2.94629812240601

$$$$
29
                    3D
 Structure written by MMmdl.
173182  0  0  1  0            999 V2000
  -30.6640  -14.6620   20.4291 C   0  0  0  0  0  0
  -30.4250  -12.3894   19.4770 C   0  0  0  0  0  0
  -29.5039  -12.4254   18.2379 C   0  0  0  0  0  0
  -28.0227  -12.3118   18.6433 C   0  0  0  0  0  0
  -27.6396  -13.2303   19.8346 C   0  0  2  0  0  0
  -28.6813  -13.1757   20.9679 C   0  0  0  0  0  0
  -25.2520  -13.8226   20.5669 C   0  0  0  0  0  0
  -24.1811  -13.0471   20.9189 C   0  0  0  0  0  0
  -24.6398  -11.6941   20.8747 C   0  0  0  0  0  0
  -23.9085  -10.4311   21.0409 C   0  0  0  0  0  0
  -24.3639   -9.4221   21.9187 C   0  0  0  0  0  0
  -23.6314   -8.2253   22.0753 C   0  0  0  0  0  0
  -22.4298   -8.0288   21.3541 C   0  0  0  0  0  0
  -21.9933   -9.0264   20.4648 C   0  0  0  0  0  0
  -22.7255  -10.2145   20.3058 C   0  0  0  0  0  0
  -21.6859   -6.0745   22.5277 C   0  0  0  0  0  0
  -21.4014   -6.5647   23.8212 C   0  0  0  0  0  0
  -21.3657   -5.6797   24.9174 C   0  0  0  0  0  0
  -21.6048   -4.3061   24.7223 C   0  0  0  0  0  0
  -21.8822   -3.8150   23.4345 C   0  0  0  0  0  0
  -21.9195   -4.6970   22.3402 C   0  0  0  0  0  0
  -22.7835  -13.5245   21.1846 C   0  0  0  0  0  0
  -22.1654   -4.2157   21.0977 F   0  0  0  0  0  0
  -21.5636   -3.4544   25.7738 F   0  0  0  0  0  0
  -29.9936  -13.4680   20.3893 N   0  0  0  0  0  0
  -26.2937  -12.9427   20.3221 N   0  0  0  0  0  0
  -25.9324  -11.6575   20.5755 N   0  0  0  0  0  0
  -22.0483  -12.8221   22.0395 N   0  0  0  0  0  0
  -25.4256  -15.1941   20.4107 N   0  0  0  0  0  0
  -31.8840  -14.6892   20.2591 O   0  0  0  0  0  0
  -21.6652   -6.8888   21.4240 O   0  0  0  0  0  0
  -22.3508  -14.5542   20.6693 O   0  0  0  0  0  0
  -24.6259  -31.8613   23.2033 C   0  0  0  0  0  0
  -25.9112  -32.4787   23.8360 C   0  0  1  0  0  0
  -27.2091  -27.3103   20.1389 C   0  0  0  0  0  0
  -25.5943  -33.8588   24.2296 N   0  0  0  0  0  0
  -23.4181  -30.4875   21.5454 C   0  0  2  0  0  0
  -24.8605  -28.9387   20.1174 C   0  0  0  0  0  0
  -22.7468  -29.4647   22.4927 C   0  0  0  0  0  0
  -18.0295  -28.1398   22.8487 C   0  0  0  0  0  0
  -24.1481  -36.7267   23.2636 C   0  0  0  0  0  0
  -25.9594  -30.7910   21.3744 C   0  0  0  0  0  0
  -26.0297  -29.4164   20.7225 C   0  0  0  0  0  0
  -27.2090  -28.6141   20.7223 C   0  0  0  0  0  0
  -26.0204  -26.8897   19.5061 C   0  0  0  0  0  0
  -24.8571  -27.6791   19.5018 C   0  0  0  0  0  0
  -23.6324  -29.8236   20.1602 C   0  0  0  0  0  0
  -25.4111  -36.3084   24.0338 C   0  0  1  0  0  0
  -20.5894  -28.3696   23.1278 C   0  0  2  0  0  0
  -20.6785  -26.9423   22.5404 C   0  0  0  0  0  0
  -19.5757  -26.6398   21.5210 C   0  0  0  0  0  0
  -18.1940  -26.7942   22.1627 C   0  0  0  0  0  0
  -19.1546  -28.8862   23.2879 C   0  0  0  0  0  0
  -18.9472  -30.1459   23.8898 C   0  0  0  0  0  0
  -17.6476  -30.6598   24.0569 C   0  0  0  0  0  0
  -25.9055  -34.9456   23.5113 C   0  0  0  0  0  0
  -16.5362  -29.9104   23.6337 C   0  0  0  0  0  0
  -16.7282  -28.6522   23.0355 C   0  0  0  0  0  0
  -26.4495  -31.6594   25.0722 C   0  0  0  0  0  0
  -25.3743  -31.3720   26.1461 C   0  0  0  0  0  0
  -27.0334  -30.3031   24.6147 C   0  0  0  0  0  0
  -27.6058  -32.4323   25.7490 C   0  0  0  0  0  0
  -27.5579  -37.1787   24.8470 C   0  0  0  0  0  0
  -21.4185  -29.3051   22.3666 N   0  0  0  0  0  0
  -26.4277  -37.3793   23.9434 N   0  0  0  0  0  0
  -24.6866  -31.0641   22.0982 N   0  0  0  0  0  0
  -23.4200  -28.8188   23.3000 O   0  0  0  0  0  0
  -28.3305  -26.4708   20.1524 O   0  0  0  0  0  0
  -26.5608  -34.8925   22.4670 O   0  0  0  0  0  0
  -23.5423  -32.1397   23.7376 O   0  0  0  0  0  0
  -29.5232  -16.8261   21.3364 C   0  0  0  0  0  0
  -29.9468  -16.0277   20.2395 C   0  0  0  0  0  0
  -29.8651  -16.6591   18.9532 C   0  0  0  0  0  0
  -29.2923  -17.9748   18.7781 C   0  0  0  0  0  0
  -28.9652  -18.8026   19.9109 C   0  0  0  0  0  0
  -29.0656  -18.1743   21.1855 C   0  0  0  0  0  0
  -29.6779  -23.2569   21.9185 C   0  0  0  0  0  0
  -29.5595  -24.6974   21.3245 C   0  0  0  0  0  0
  -27.8608  -23.9261   19.6627 C   0  0  0  0  0  0
  -29.7251  -22.0542   20.9175 C   0  0  0  0  0  0
  -28.2083  -25.0830   20.6729 C   0  0  2  0  0  0
  -27.3556  -22.5209   20.2248 C   0  0  2  0  0  0
  -30.4477  -15.9492   17.7260 C   0  0  0  0  0  0
  -25.0431  -23.4779   20.9341 C   0  0  0  0  0  0
  -28.3916  -20.2672   19.6592 C   0  0  0  0  0  0
  -26.2668  -22.6310   21.3229 C   0  0  0  0  0  0
  -29.0344  -18.5210   17.3449 C   0  0  0  0  0  0
  -28.3895  -21.4642   20.6088 N   0  3  1  0  0  0
  -28.8839  -17.5957   16.4001 F   0  0  0  0  0  0
  -27.9023  -19.2185   17.2607 F   0  0  0  0  0  0
  -30.0505  -19.3102   16.9972 F   0  0  0  0  0  0
  -28.6059  -19.0418   22.6074 Cl  0  0  0  0  0  0
  -31.4660  -12.4969   19.1654 H   0  0  0  0  0  0
  -30.3610  -11.4241   19.9808 H   0  0  0  0  0  0
  -29.7615  -11.6094   17.5615 H   0  0  0  0  0  0
  -29.6627  -13.3374   17.6716 H   0  0  0  0  0  0
  -27.8453  -11.2695   18.9095 H   0  0  0  0  0  0
  -27.3790  -12.5171   17.7871 H   0  0  0  0  0  0
  -27.6378  -14.2484   19.4449 H   0  0  0  0  0  0
  -28.6898  -12.1931   21.4428 H   0  0  0  0  0  0
  -28.4376  -13.8992   21.7476 H   0  0  0  0  0  0
  -25.2781   -9.5702   22.4769 H   0  0  0  0  0  0
  -24.0029   -7.4648   22.7481 H   0  0  0  0  0  0
  -21.0859   -8.8780   19.8966 H   0  0  0  0  0  0
  -22.3701  -10.9686   19.6177 H   0  0  0  0  0  0
  -21.1990   -7.6154   23.9714 H   0  0  0  0  0  0
  -21.1477   -6.0524   25.9077 H   0  0  0  0  0  0
  -22.0598   -2.7613   23.2837 H   0  0  0  0  0  0
  -22.4114  -11.9878   22.4755 H   0  0  0  0  0  0
  -21.1105  -13.1240   22.2627 H   0  0  0  0  0  0
  -24.6652  -15.8541   20.5328 H   0  0  0  0  0  0
  -26.2905  -15.6327   20.1212 H   0  0  0  0  0  0
  -26.7172  -32.5456   23.1101 H   0  0  0  0  0  0
  -25.0162  -33.9739   25.0487 H   0  0  0  0  0  0
  -22.7115  -31.3078   21.4036 H   0  0  0  0  0  0
  -23.3768  -35.9570   23.3284 H   0  0  0  0  0  0
  -24.3580  -36.8895   22.2053 H   0  0  0  0  0  0
  -23.7200  -37.6454   23.6654 H   0  0  0  0  0  0
  -26.0901  -31.5494   20.6017 H   0  0  0  0  0  0
  -26.8414  -30.8407   22.0011 H   0  0  0  0  0  0
  -28.1069  -28.9746   21.2038 H   0  0  0  0  0  0
  -25.9582  -25.9439   19.0009 H   0  0  0  0  0  0
  -23.9623  -27.3060   19.0215 H   0  0  0  0  0  0
  -23.7594  -30.5998   19.4048 H   0  0  0  0  0  0
  -22.7512  -29.2562   19.8548 H   0  0  0  0  0  0
  -25.1287  -36.1921   25.0828 H   0  0  0  0  0  0
  -20.9995  -28.3273   24.1394 H   0  0  0  0  0  0
  -20.5690  -26.2314   23.3605 H   0  0  0  0  0  0
  -21.6657  -26.7463   22.1191 H   0  0  0  0  0  0
  -19.6919  -25.6310   21.1237 H   0  0  0  0  0  0
  -19.6691  -27.3211   20.6738 H   0  0  0  0  0  0
  -17.4211  -26.6689   21.4028 H   0  0  0  0  0  0
  -18.0336  -26.0080   22.9018 H   0  0  0  0  0  0
  -19.7951  -30.7275   24.2261 H   0  0  0  0  0  0
  -17.5040  -31.6276   24.5176 H   0  0  0  0  0  0
  -15.5365  -30.3013   23.7661 H   0  0  0  0  0  0
  -15.8685  -28.0851   22.7061 H   0  0  0  0  0  0
  -24.5928  -30.7049   25.7807 H   0  0  0  0  0  0
  -24.8916  -32.2873   26.4890 H   0  0  0  0  0  0
  -25.8089  -30.8920   27.0238 H   0  0  0  0  0  0
  -26.2901  -29.6795   24.1170 H   0  0  0  0  0  0
  -27.4058  -29.7268   25.4623 H   0  0  0  0  0  0
  -27.8755  -30.4345   23.9352 H   0  0  0  0  0  0
  -27.2679  -33.3635   26.2046 H   0  0  0  0  0  0
  -28.3874  -32.6864   25.0318 H   0  0  0  0  0  0
  -28.0709  -31.8463   26.5424 H   0  0  0  0  0  0
  -28.2578  -38.0104   24.7570 H   0  0  0  0  0  0
  -28.1096  -36.2647   24.6227 H   0  0  0  0  0  0
  -27.2310  -37.1348   25.8873 H   0  0  0  0  0  0
  -20.9358  -29.8779   21.6886 H   0  0  0  0  0  0
  -26.0150  -38.2851   24.1486 H   0  0  0  0  0  0
  -29.5986  -16.4178   22.3347 H   0  0  0  0  0  0
  -28.9253  -23.0965   22.6902 H   0  0  0  0  0  0
  -30.6223  -23.2368   22.4632 H   0  0  0  0  0  0
  -30.3608  -24.8415   20.5997 H   0  0  0  0  0  0
  -29.7638  -25.4127   22.1225 H   0  0  0  0  0  0
  -28.6972  -23.7771   18.9805 H   0  0  0  0  0  0
  -27.0744  -24.2694   19.0011 H   0  0  0  0  0  0
  -30.3316  -21.2619   21.3576 H   0  0  0  0  0  0
  -30.2415  -22.3415   20.0015 H   0  0  0  0  0  0
  -27.4563  -25.1130   21.4613 H   0  0  0  0  0  0
  -26.8181  -22.1139   19.3673 H   0  0  0  0  0  0
  -31.1960  -15.1885   17.9319 H   0  0  0  0  0  0
  -30.9654  -16.6615   17.0829 H   0  0  0  0  0  0
  -29.6525  -15.4767   17.1509 H   0  0  0  0  0  0
  -24.2565  -23.3795   21.6834 H   0  0  0  0  0  0
  -24.6233  -23.1704   19.9762 H   0  0  0  0  0  0
  -25.2849  -24.5367   20.8678 H   0  0  0  0  0  0
  -27.3470  -20.0681   19.4159 H   0  0  0  0  0  0
  -28.8616  -20.6714   18.7648 H   0  0  0  0  0  0
  -26.6842  -23.0223   22.2501 H   0  0  0  0  0  0
  -25.9061  -21.6299   21.5650 H   0  0  0  0  0  0
  -28.0627  -21.0690   21.4808 H   0  0  0  0  0  0
  1 25  1  0  0  0
  1 30  2  0  0  0
  1 72  1  0  0  0
  2  3  1  0  0  0
  2 25  1  0  0  0
  2 93  1  0  0  0
  2 94  1  0  0  0
  3  4  1  0  0  0
  3 95  1  0  0  0
  3 96  1  0  0  0
  4  5  1  0  0  0
  4 97  1  0  0  0
  4 98  1  0  0  0
  5  6  1  0  0  0
  5 26  1  0  0  0
  5 99  1  0  0  0
  6 25  1  0  0  0
  6100  1  0  0  0
  6101  1  0  0  0
  7  8  2  0  0  0
  7 26  1  0  0  0
  7 29  1  0  0  0
  8  9  1  0  0  0
  8 22  1  0  0  0
  9 10  1  0  0  0
  9 27  2  0  0  0
 10 11  2  0  0  0
 10 15  1  0  0  0
 11 12  1  0  0  0
 11102  1  0  0  0
 12 13  2  0  0  0
 12103  1  0  0  0
 13 14  1  0  0  0
 13 31  1  0  0  0
 14 15  2  0  0  0
 14104  1  0  0  0
 15105  1  0  0  0
 16 17  2  0  0  0
 16 21  1  0  0  0
 16 31  1  0  0  0
 17 18  1  0  0  0
 17106  1  0  0  0
 18 19  2  0  0  0
 18107  1  0  0  0
 19 20  1  0  0  0
 19 24  1  0  0  0
 20 21  2  0  0  0
 20108  1  0  0  0
 21 23  1  0  0  0
 22 28  1  0  0  0
 22 32  2  0  0  0
 26 27  1  0  0  0
 28109  1  0  0  0
 28110  1  0  0  0
 29111  1  0  0  0
 29112  1  0  0  0
 33 34  1  0  0  0
 33 66  1  0  0  0
 33 70  2  0  0  0
 34 36  1  0  0  0
 34 59  1  0  0  0
 34113  1  0  0  0
 35 44  2  0  0  0
 35 45  1  0  0  0
 35 68  1  0  0  0
 36 56  1  0  0  0
 36114  1  0  0  0
 37 39  1  0  0  0
 37 47  1  0  0  0
 37 66  1  0  0  0
 37115  1  0  0  0
 38 43  2  0  0  0
 38 46  1  0  0  0
 38 47  1  0  0  0
 39 64  1  0  0  0
 39 67  2  0  0  0
 40 52  1  0  0  0
 40 53  2  0  0  0
 40 58  1  0  0  0
 41116  1  0  0  0
 41117  1  0  0  0
 41118  1  0  0  0
 41 48  1  0  0  0
 42 43  1  0  0  0
 42 66  1  0  0  0
 42119  1  0  0  0
 42120  1  0  0  0
 43 44  1  0  0  0
 44121  1  0  0  0
 45 46  2  0  0  0
 45122  1  0  0  0
 46123  1  0  0  0
 47124  1  0  0  0
 47125  1  0  0  0
 48 56  1  0  0  0
 48 65  1  0  0  0
 48126  1  0  0  0
 49 50  1  0  0  0
 49 53  1  0  0  0
 49 64  1  0  0  0
 49127  1  0  0  0
 50 51  1  0  0  0
 50128  1  0  0  0
 50129  1  0  0  0
 51 52  1  0  0  0
 51130  1  0  0  0
 51131  1  0  0  0
 52132  1  0  0  0
 52133  1  0  0  0
 53 54  1  0  0  0
 54 55  2  0  0  0
 54134  1  0  0  0
 55 57  1  0  0  0
 55135  1  0  0  0
 56 69  2  0  0  0
 57 58  2  0  0  0
 57136  1  0  0  0
 58137  1  0  0  0
 59 60  1  0  0  0
 59 61  1  0  0  0
 59 62  1  0  0  0
 60138  1  0  0  0
 60139  1  0  0  0
 60140  1  0  0  0
 61141  1  0  0  0
 61142  1  0  0  0
 61143  1  0  0  0
 62144  1  0  0  0
 62145  1  0  0  0
 62146  1  0  0  0
 63 65  1  0  0  0
 63147  1  0  0  0
 63148  1  0  0  0
 63149  1  0  0  0
 64150  1  0  0  0
 65151  1  0  0  0
 68 81  1  0  0  0
 71 72  2  0  0  0
 71 76  1  0  0  0
 71152  1  0  0  0
 72 73  1  0  0  0
 73 74  2  0  0  0
 73 83  1  0  0  0
 74 75  1  0  0  0
 74 87  1  0  0  0
 75 76  2  0  0  0
 75 85  1  0  0  0
 76 92  1  0  0  0
 77 78  1  0  0  0
 77 80  1  0  0  0
 77153  1  0  0  0
 77154  1  0  0  0
 78 81  1  0  0  0
 78155  1  0  0  0
 78156  1  0  0  0
 79 81  1  0  0  0
 79 82  1  0  0  0
 79157  1  0  0  0
 79158  1  0  0  0
 80 88  1  0  0  0
 80159  1  0  0  0
 80160  1  0  0  0
 81161  1  0  0  0
 82 86  1  0  0  0
 82 88  1  0  0  0
 82162  1  0  0  0
 83163  1  0  0  0
 83164  1  0  0  0
 83165  1  0  0  0
 84 86  1  0  0  0
 84166  1  0  0  0
 84167  1  0  0  0
 84168  1  0  0  0
 85169  1  0  0  0
 85170  1  0  0  0
 85 88  1  0  0  0
 86171  1  0  0  0
 86172  1  0  0  0
 87 89  1  0  0  0
 87 90  1  0  0  0
 87 91  1  0  0  0
 88173  1  0  0  0
M  CHG  1  88   1
M  ISO  4   1 100  68 101  72 100  81 101
M  END
> <chiral flag>
0

> <version>
0

> <s_m_source_file>
/data/baiqing/PycharmProjects/Reinvent-master-3.2/result/LINK_invent/BTK/process_docking_weight1_custom_product_contain_oxygen_bond_distance_aromatic_linkinvent_7_9_3/rearranged_h_0039.sdf

> <i_m_source_file_index>
30

> <r_mmod_Potential_Energy-OPLS-2005>
176.594848632812

> <r_mmod_Stretch_Energy-OPLS-2005>
98.7157974243164

> <r_mmod_Bend_Energy-OPLS-2005>
191.33610534668

> <r_mmod_Torsional_Energy-OPLS-2005>
296.14892578125

> <r_mmod_Improper_Torsional_Energy-OPLS-2005>
11.967432975769

> <r_mmod_Van_der_Waal_Energy-OPLS-2005>
160.829605102539

> <r_mmod_Electrostatic_Energy-OPLS-2005>
-245.241012573242

> <r_mmod_Solvation_Energy-OPLS-2005>
-401.371337890625

> <b_mmod_Minimization_Converged-OPLS-2005>
0

> <r_mmod_RMS_Derivative-OPLS-2005>
1.6882301568985

$$$$
30
                    3D
 Structure written by MMmdl.
159167  0  0  1  0            999 V2000
  -30.6739  -14.4560   20.5647 C   0  0  0  0  0  0
  -30.4350  -12.2887   19.4241 C   0  0  0  0  0  0
  -29.5017  -12.5054   18.2123 C   0  0  0  0  0  0
  -28.0178  -12.3933   18.6151 C   0  0  0  0  0  0
  -27.6760  -13.1996   19.8961 C   0  0  2  0  0  0
  -28.7171  -12.9240   21.0093 C   0  0  0  0  0  0
  -25.2609  -13.8209   20.5507 C   0  0  0  0  0  0
  -24.1913  -13.0507   20.9144 C   0  0  0  0  0  0
  -24.6431  -11.6972   20.8742 C   0  0  0  0  0  0
  -23.9062  -10.4342   21.0405 C   0  0  0  0  0  0
  -24.3620   -9.4261   21.9170 C   0  0  0  0  0  0
  -23.6318   -8.2289   22.0750 C   0  0  0  0  0  0
  -22.4302   -8.0296   21.3543 C   0  0  0  0  0  0
  -21.9897   -9.0273   20.4668 C   0  0  0  0  0  0
  -22.7209  -10.2163   20.3072 C   0  0  0  0  0  0
  -21.6867   -6.0737   22.5268 C   0  0  0  0  0  0
  -21.4031   -6.5644   23.8195 C   0  0  0  0  0  0
  -21.3684   -5.6792   24.9154 C   0  0  0  0  0  0
  -21.6074   -4.3048   24.7226 C   0  0  0  0  0  0
  -21.8847   -3.8140   23.4327 C   0  0  0  0  0  0
  -21.9225   -4.6977   22.3391 C   0  0  0  0  0  0
  -22.7911  -13.5279   21.1844 C   0  0  0  0  0  0
  -22.1696   -4.2173   21.0962 F   0  0  0  0  0  0
  -21.5632   -3.4525   25.7714 F   0  0  0  0  0  0
  -30.0489  -13.2474   20.4730 N   0  0  0  0  0  0
  -26.3101  -12.9337   20.3456 N   0  0  0  0  0  0
  -25.9373  -11.6530   20.5865 N   0  0  0  0  0  0
  -22.0582  -12.8261   22.0419 N   0  0  0  0  0  0
  -25.4237  -15.1917   20.3534 N   0  0  0  0  0  0
  -31.7743  -14.6900   20.0579 O   0  0  0  0  0  0
  -21.6701   -6.8885   21.4215 O   0  0  0  0  0  0
  -22.3603  -14.5605   20.6709 O   0  0  0  0  0  0
  -24.6075  -31.8704   23.2101 C   0  0  0  0  0  0
  -25.8967  -32.4831   23.8408 C   0  0  1  0  0  0
  -27.2493  -27.4656   20.1079 C   0  0  0  0  0  0
  -25.5860  -33.8635   24.2302 N   0  0  0  0  0  0
  -23.3991  -30.4900   21.5471 C   0  0  2  0  0  0
  -24.8563  -28.9567   20.1212 C   0  0  0  0  0  0
  -22.7388  -29.4635   22.4975 C   0  0  0  0  0  0
  -18.0260  -28.1364   22.8506 C   0  0  0  0  0  0
  -24.1473  -36.7308   23.2627 C   0  0  0  0  0  0
  -25.9215  -30.8484   21.3587 C   0  0  0  0  0  0
  -26.0083  -29.4766   20.7252 C   0  0  0  0  0  0
  -27.2091  -28.7348   20.7245 C   0  0  0  0  0  0
  -26.0923  -26.9561   19.4894 C   0  0  0  0  0  0
  -24.8947  -27.6945   19.4988 C   0  0  0  0  0  0
  -23.6136  -29.8173   20.1637 C   0  0  0  0  0  0
  -25.4119  -36.3110   24.0301 C   0  0  1  0  0  0
  -20.5857  -28.3648   23.1341 C   0  0  2  0  0  0
  -20.6727  -26.9371   22.5454 C   0  0  0  0  0  0
  -19.5721  -26.6358   21.5229 C   0  0  0  0  0  0
  -18.1890  -26.7920   22.1616 C   0  0  0  0  0  0
  -19.1517  -28.8821   23.2917 C   0  0  0  0  0  0
  -18.9432  -30.1432   23.8920 C   0  0  0  0  0  0
  -17.6431  -30.6567   24.0573 C   0  0  0  0  0  0
  -25.9049  -34.9487   23.5109 C   0  0  0  0  0  0
  -16.5326  -29.9087   23.6315 C   0  0  0  0  0  0
  -16.7258  -28.6486   23.0373 C   0  0  0  0  0  0
  -26.4417  -31.6571   25.0698 C   0  0  0  0  0  0
  -25.3669  -31.3670   26.1455 C   0  0  0  0  0  0
  -27.0201  -30.3017   24.5961 C   0  0  0  0  0  0
  -27.6010  -32.4296   25.7450 C   0  0  0  0  0  0
  -27.5577  -37.1817   24.8473 C   0  0  0  0  0  0
  -21.4099  -29.3038   22.3751 N   0  0  0  0  0  0
  -26.4298  -37.3808   23.9402 N   0  0  0  0  0  0
  -24.6590  -31.0858   22.0987 N   0  0  0  0  0  0
  -23.4188  -28.8111   23.2955 O   0  0  0  0  0  0
  -28.4024  -26.7275   20.0479 O   0  0  0  0  0  0
  -26.5648  -34.8935   22.4691 O   0  0  0  0  0  0
  -23.5268  -32.1443   23.7502 O   0  0  0  0  0  0
  -31.5247  -17.9784   21.1892 C   0  0  0  0  0  0
  -30.2428  -17.9944   20.6009 C   0  0  0  0  0  0
  -29.6561  -19.2498   20.2328 C   0  0  0  0  0  0
  -30.4024  -20.4613   20.4117 C   0  0  0  0  0  0
  -32.2451  -19.1648   21.3933 C   0  0  0  0  0  0
  -31.6996  -20.4022   20.9952 C   0  0  0  0  0  0
  -28.8140  -23.7548   20.6325 C   0  0  0  0  0  0
  -28.2389  -19.2820   19.6304 C   0  0  0  0  0  0
  -29.8795  -21.8241   19.9190 C   0  0  0  0  0  0
  -29.5665  -16.6519   20.2642 C   0  0  0  0  0  0
  -28.3036  -24.8102   21.5986 C   0  0  0  0  0  0
  -28.8725  -26.2127   21.2940 C   0  0  0  0  0  0
  -29.2737  -22.6169   20.9845 N   0  0  0  0  0  0
  -29.9073  -15.4492   21.0521 N   0  0  0  0  0  0
  -33.8276  -19.0638   22.0900 Cl  0  0  0  0  0  0
  -32.6632  -21.8357   21.1912 Cl  0  0  0  0  0  0
  -31.4757  -12.4107   19.1187 H   0  0  0  0  0  0
  -30.3495  -11.2641   19.7897 H   0  0  0  0  0  0
  -29.7256  -11.7815   17.4280 H   0  0  0  0  0  0
  -29.6974  -13.4900   17.7840 H   0  0  0  0  0  0
  -27.7948  -11.3343   18.7691 H   0  0  0  0  0  0
  -27.3842  -12.7202   17.7888 H   0  0  0  0  0  0
  -27.7304  -14.2572   19.6325 H   0  0  0  0  0  0
  -28.6830  -11.8690   21.2920 H   0  0  0  0  0  0
  -28.4924  -13.4771   21.9233 H   0  0  0  0  0  0
  -25.2799   -9.5807   22.4685 H   0  0  0  0  0  0
  -24.0072   -7.4717   22.7463 H   0  0  0  0  0  0
  -21.0821   -8.8779   19.8978 H   0  0  0  0  0  0
  -22.3631  -10.9692   19.6185 H   0  0  0  0  0  0
  -21.1990   -7.6152   23.9709 H   0  0  0  0  0  0
  -21.1495   -6.0512   25.9072 H   0  0  0  0  0  0
  -22.0602   -2.7603   23.2814 H   0  0  0  0  0  0
  -22.4168  -11.9843   22.4718 H   0  0  0  0  0  0
  -21.1201  -13.1278   22.2693 H   0  0  0  0  0  0
  -24.6140  -15.8023   20.3291 H   0  0  0  0  0  0
  -26.2364  -15.6022   19.9091 H   0  0  0  0  0  0
  -26.7028  -32.5614   23.1187 H   0  0  0  0  0  0
  -25.0004  -33.9805   25.0443 H   0  0  0  0  0  0
  -22.6824  -31.3006   21.3975 H   0  0  0  0  0  0
  -23.3737  -35.9643   23.3335 H   0  0  0  0  0  0
  -24.3544  -36.8923   22.2029 H   0  0  0  0  0  0
  -23.7215  -37.6512   23.6646 H   0  0  0  0  0  0
  -26.0220  -31.6021   20.5760 H   0  0  0  0  0  0
  -26.8106  -30.9272   21.9714 H   0  0  0  0  0  0
  -28.1033  -29.1323   21.1832 H   0  0  0  0  0  0
  -26.1294  -25.9891   19.0115 H   0  0  0  0  0  0
  -24.0169  -27.2923   19.0171 H   0  0  0  0  0  0
  -23.7197  -30.5884   19.4018 H   0  0  0  0  0  0
  -22.7421  -29.2336   19.8619 H   0  0  0  0  0  0
  -25.1270  -36.1990   25.0782 H   0  0  0  0  0  0
  -20.9949  -28.3198   24.1456 H   0  0  0  0  0  0
  -20.5586  -26.2239   23.3637 H   0  0  0  0  0  0
  -21.6600  -26.7392   22.1246 H   0  0  0  0  0  0
  -19.6876  -25.6301   21.1221 H   0  0  0  0  0  0
  -19.6672  -27.3196   20.6770 H   0  0  0  0  0  0
  -17.4164  -26.6714   21.3997 H   0  0  0  0  0  0
  -18.0286  -26.0044   22.8967 H   0  0  0  0  0  0
  -19.7929  -30.7255   24.2260 H   0  0  0  0  0  0
  -17.5004  -31.6232   24.5205 H   0  0  0  0  0  0
  -15.5341  -30.2989   23.7643 H   0  0  0  0  0  0
  -15.8650  -28.0794   22.7125 H   0  0  0  0  0  0
  -24.5948  -30.6866   25.7837 H   0  0  0  0  0  0
  -24.8704  -32.2789   26.4759 H   0  0  0  0  0  0
  -25.8046  -30.9004   27.0283 H   0  0  0  0  0  0
  -26.2715  -29.6895   24.0917 H   0  0  0  0  0  0
  -27.3892  -29.7112   25.4350 H   0  0  0  0  0  0
  -27.8573  -30.4323   23.9112 H   0  0  0  0  0  0
  -27.2638  -33.3640   26.1937 H   0  0  0  0  0  0
  -28.3858  -32.6795   25.0297 H   0  0  0  0  0  0
  -28.0596  -31.8461   26.5424 H   0  0  0  0  0  0
  -28.2598  -38.0109   24.7555 H   0  0  0  0  0  0
  -28.1050  -36.2645   24.6268 H   0  0  0  0  0  0
  -27.2275  -37.1464   25.8868 H   0  0  0  0  0  0
  -20.9255  -29.8808   21.7025 H   0  0  0  0  0  0
  -26.0175  -38.2871   24.1478 H   0  0  0  0  0  0
  -31.9983  -17.0498   21.4780 H   0  0  0  0  0  0
  -28.7713  -24.0691   19.5846 H   0  0  0  0  0  0
  -28.2377  -18.8791   18.6145 H   0  0  0  0  0  0
  -27.7847  -20.2707   19.5763 H   0  0  0  0  0  0
  -27.5206  -18.7171   20.2266 H   0  0  0  0  0  0
  -29.2069  -21.7102   19.0719 H   0  0  0  0  0  0
  -30.7111  -22.3780   19.4747 H   0  0  0  0  0  0
  -29.7767  -16.4562   19.2095 H   0  0  0  0  0  0
  -28.4841  -16.7489   20.3379 H   0  0  0  0  0  0
  -28.5808  -24.5287   22.6163 H   0  0  0  0  0  0
  -27.2160  -24.8232   21.5777 H   0  0  0  0  0  0
  -29.9597  -26.1623   21.2414 H   0  0  0  0  0  0
  -28.6474  -26.8919   22.1175 H   0  0  0  0  0  0
  -29.1634  -15.1429   21.6631 H   0  0  0  0  0  0
  1 25  1  0  0  0
  1 30  2  0  0  0
  1 84  1  0  0  0
  2  3  1  0  0  0
  2 25  1  0  0  0
  2 87  1  0  0  0
  2 88  1  0  0  0
  3  4  1  0  0  0
  3 89  1  0  0  0
  3 90  1  0  0  0
  4  5  1  0  0  0
  4 91  1  0  0  0
  4 92  1  0  0  0
  5  6  1  0  0  0
  5 26  1  0  0  0
  5 93  1  0  0  0
  6 25  1  0  0  0
  6 94  1  0  0  0
  6 95  1  0  0  0
  7  8  2  0  0  0
  7 26  1  0  0  0
  7 29  1  0  0  0
  8  9  1  0  0  0
  8 22  1  0  0  0
  9 10  1  0  0  0
  9 27  2  0  0  0
 10 11  2  0  0  0
 10 15  1  0  0  0
 11 12  1  0  0  0
 11 96  1  0  0  0
 12 13  2  0  0  0
 12 97  1  0  0  0
 13 14  1  0  0  0
 13 31  1  0  0  0
 14 15  2  0  0  0
 14 98  1  0  0  0
 15 99  1  0  0  0
 16 17  2  0  0  0
 16 21  1  0  0  0
 16 31  1  0  0  0
 17 18  1  0  0  0
 17100  1  0  0  0
 18 19  2  0  0  0
 18101  1  0  0  0
 19 20  1  0  0  0
 19 24  1  0  0  0
 20 21  2  0  0  0
 20102  1  0  0  0
 21 23  1  0  0  0
 22 28  1  0  0  0
 22 32  2  0  0  0
 26 27  1  0  0  0
 28103  1  0  0  0
 28104  1  0  0  0
 29105  1  0  0  0
 29106  1  0  0  0
 33 34  1  0  0  0
 33 66  1  0  0  0
 33 70  2  0  0  0
 34 36  1  0  0  0
 34 59  1  0  0  0
 34107  1  0  0  0
 35 44  2  0  0  0
 35 45  1  0  0  0
 35 68  1  0  0  0
 36 56  1  0  0  0
 36108  1  0  0  0
 37 39  1  0  0  0
 37 47  1  0  0  0
 37 66  1  0  0  0
 37109  1  0  0  0
 38 43  2  0  0  0
 38 46  1  0  0  0
 38 47  1  0  0  0
 39 64  1  0  0  0
 39 67  2  0  0  0
 40 52  1  0  0  0
 40 53  2  0  0  0
 40 58  1  0  0  0
 41110  1  0  0  0
 41111  1  0  0  0
 41112  1  0  0  0
 41 48  1  0  0  0
 42 43  1  0  0  0
 42 66  1  0  0  0
 42113  1  0  0  0
 42114  1  0  0  0
 43 44  1  0  0  0
 44115  1  0  0  0
 45 46  2  0  0  0
 45116  1  0  0  0
 46117  1  0  0  0
 47118  1  0  0  0
 47119  1  0  0  0
 48 56  1  0  0  0
 48 65  1  0  0  0
 48120  1  0  0  0
 49 50  1  0  0  0
 49 53  1  0  0  0
 49 64  1  0  0  0
 49121  1  0  0  0
 50 51  1  0  0  0
 50122  1  0  0  0
 50123  1  0  0  0
 51 52  1  0  0  0
 51124  1  0  0  0
 51125  1  0  0  0
 52126  1  0  0  0
 52127  1  0  0  0
 53 54  1  0  0  0
 54 55  2  0  0  0
 54128  1  0  0  0
 55 57  1  0  0  0
 55129  1  0  0  0
 56 69  2  0  0  0
 57 58  2  0  0  0
 57130  1  0  0  0
 58131  1  0  0  0
 59 60  1  0  0  0
 59 61  1  0  0  0
 59 62  1  0  0  0
 60132  1  0  0  0
 60133  1  0  0  0
 60134  1  0  0  0
 61135  1  0  0  0
 61136  1  0  0  0
 61137  1  0  0  0
 62138  1  0  0  0
 62139  1  0  0  0
 62140  1  0  0  0
 63 65  1  0  0  0
 63141  1  0  0  0
 63142  1  0  0  0
 63143  1  0  0  0
 64144  1  0  0  0
 65145  1  0  0  0
 68 82  1  0  0  0
 71 72  2  0  0  0
 71 75  1  0  0  0
 71146  1  0  0  0
 72 73  1  0  0  0
 72 80  1  0  0  0
 73 74  2  0  0  0
 73 78  1  0  0  0
 74 76  1  0  0  0
 74 79  1  0  0  0
 75 76  2  0  0  0
 75 85  1  0  0  0
 76 86  1  0  0  0
 77 81  1  0  0  0
 77 83  2  0  0  0
 77147  1  0  0  0
 78148  1  0  0  0
 78149  1  0  0  0
 78150  1  0  0  0
 79 83  1  0  0  0
 79151  1  0  0  0
 79152  1  0  0  0
 80 84  1  0  0  0
 80153  1  0  0  0
 80154  1  0  0  0
 81 82  1  0  0  0
 81155  1  0  0  0
 81156  1  0  0  0
 82157  1  0  0  0
 82158  1  0  0  0
 84159  1  0  0  0
M  ISO  4   1 100  68 101  82 101  84 100
M  END
> <chiral flag>
0

> <version>
0

> <s_m_source_file>
/data/baiqing/PycharmProjects/Reinvent-master-3.2/result/LINK_invent/BTK/process_docking_weight1_custom_product_contain_oxygen_bond_distance_aromatic_linkinvent_7_9_3/rearranged_h_0039.sdf

> <i_m_source_file_index>
31

> <r_mmod_Potential_Energy-OPLS-2005>
-39.0464935302734

> <r_mmod_Stretch_Energy-OPLS-2005>
43.3652992248535

> <r_mmod_Bend_Energy-OPLS-2005>
96.0561828613281

> <r_mmod_Torsional_Energy-OPLS-2005>
250.718475341797

> <r_mmod_Improper_Torsional_Energy-OPLS-2005>
10.019627571106

> <r_mmod_Van_der_Waal_Energy-OPLS-2005>
155.101455688477

> <r_mmod_Electrostatic_Energy-OPLS-2005>
-379.754119873047

> <r_mmod_Solvation_Energy-OPLS-2005>
-224.200485229492

> <b_mmod_Minimization_Converged-OPLS-2005>
0

> <r_mmod_RMS_Derivative-OPLS-2005>
6.9797043800354

$$$$
31
                    3D
 Structure written by MMmdl.
167176  0  0  1  0            999 V2000
  -30.6038  -14.5992   20.6744 C   0  0  0  0  0  0
  -30.4419  -12.4325   19.4501 C   0  0  0  0  0  0
  -29.4940  -12.5216   18.2325 C   0  0  0  0  0  0
  -28.0215  -12.3365   18.6424 C   0  0  0  0  0  0
  -27.6442  -13.1982   19.8715 C   0  0  2  0  0  0
  -28.6671  -13.0229   21.0060 C   0  0  0  0  0  0
  -25.2529  -13.8091   20.5619 C   0  0  0  0  0  0
  -24.1790  -13.0364   20.9112 C   0  0  0  0  0  0
  -24.6328  -11.6846   20.8724 C   0  0  0  0  0  0
  -23.9063  -10.4277   21.0386 C   0  0  0  0  0  0
  -24.3618   -9.4225   21.9189 C   0  0  0  0  0  0
  -23.6316   -8.2224   22.0784 C   0  0  0  0  0  0
  -22.4332   -8.0229   21.3521 C   0  0  0  0  0  0
  -21.9950   -9.0242   20.4656 C   0  0  0  0  0  0
  -22.7258  -10.2106   20.3075 C   0  0  0  0  0  0
  -21.6871   -6.0751   22.5263 C   0  0  0  0  0  0
  -21.4054   -6.5659   23.8199 C   0  0  0  0  0  0
  -21.3671   -5.6814   24.9156 C   0  0  0  0  0  0
  -21.5989   -4.3066   24.7220 C   0  0  0  0  0  0
  -21.8851   -3.8158   23.4351 C   0  0  0  0  0  0
  -21.9237   -4.6981   22.3387 C   0  0  0  0  0  0
  -22.7855  -13.5275   21.1694 C   0  0  0  0  0  0
  -22.1693   -4.2144   21.0978 F   0  0  0  0  0  0
  -21.5620   -3.4566   25.7733 F   0  0  0  0  0  0
  -29.9774  -13.4012   20.4660 N   0  0  0  0  0  0
  -26.2949  -12.9240   20.3313 N   0  0  0  0  0  0
  -25.9245  -11.6426   20.5739 N   0  0  0  0  0  0
  -22.0480  -12.8323   22.0259 N   0  0  0  0  0  0
  -25.4088  -15.1759   20.3896 N   0  0  0  0  0  0
  -31.7272  -14.8258   20.2057 O   0  0  0  0  0  0
  -21.6663   -6.8851   21.4205 O   0  0  0  0  0  0
  -22.3632  -14.5619   20.6561 O   0  0  0  0  0  0
  -24.6146  -31.8668   23.2058 C   0  0  0  0  0  0
  -25.9049  -32.4790   23.8378 C   0  0  1  0  0  0
  -27.2130  -27.3832   20.1494 C   0  0  0  0  0  0
  -25.5905  -33.8609   24.2284 N   0  0  0  0  0  0
  -23.4059  -30.4944   21.5411 C   0  0  2  0  0  0
  -24.8639  -28.9607   20.1067 C   0  0  0  0  0  0
  -22.7398  -29.4652   22.4870 C   0  0  0  0  0  0
  -18.0230  -28.1451   22.8292 C   0  0  0  0  0  0
  -24.1514  -36.7298   23.2644 C   0  0  0  0  0  0
  -25.9457  -30.8156   21.3826 C   0  0  0  0  0  0
  -26.0230  -29.4493   20.7272 C   0  0  0  0  0  0
  -27.2012  -28.6597   20.7658 C   0  0  0  0  0  0
  -26.0657  -26.9525   19.4613 C   0  0  0  0  0  0
  -24.8815  -27.7083   19.4719 C   0  0  0  0  0  0
  -23.6276  -29.8303   20.1552 C   0  0  0  0  0  0
  -25.4126  -36.3092   24.0335 C   0  0  1  0  0  0
  -20.5816  -28.3696   23.1275 C   0  0  2  0  0  0
  -20.6605  -26.9364   22.5473 C   0  0  0  0  0  0
  -19.5731  -26.6373   21.5101 C   0  0  0  0  0  0
  -18.1820  -26.8098   22.1297 C   0  0  0  0  0  0
  -19.1457  -28.8901   23.2886 C   0  0  0  0  0  0
  -18.9245  -30.1445   23.9025 C   0  0  0  0  0  0
  -17.6171  -30.6454   24.0650 C   0  0  0  0  0  0
  -25.9054  -34.9457   23.5099 C   0  0  0  0  0  0
  -16.5133  -29.8968   23.6259 C   0  0  0  0  0  0
  -16.7163  -28.6487   23.0127 C   0  0  0  0  0  0
  -26.4491  -31.6598   25.0723 C   0  0  0  0  0  0
  -25.3750  -31.3733   26.1441 C   0  0  0  0  0  0
  -27.0336  -30.3008   24.6195 C   0  0  0  0  0  0
  -27.6017  -32.4379   25.7502 C   0  0  0  0  0  0
  -27.5574  -37.1788   24.8471 C   0  0  0  0  0  0
  -21.4134  -29.2955   22.3562 N   0  0  0  0  0  0
  -26.4307  -37.3765   23.9399 N   0  0  0  0  0  0
  -24.6686  -31.0789   22.0958 N   0  0  0  0  0  0
  -23.4084  -28.8312   23.3046 O   0  0  0  0  0  0
  -28.2804  -26.5073   20.2146 O   0  0  0  0  0  0
  -26.5627  -34.8912   22.4686 O   0  0  0  0  0  0
  -23.5312  -32.1399   23.7407 O   0  0  0  0  0  0
  -28.3852  -18.0196   22.8476 C   0  0  0  0  0  0
  -28.7644  -17.9038   21.4953 C   0  0  0  0  0  0
  -28.9047  -19.1333   20.7603 C   0  0  0  0  0  0
  -28.7174  -20.4400   21.3718 C   0  0  0  0  0  0
  -28.3749  -20.4822   22.7607 C   0  0  0  0  0  0
  -28.1999  -19.2630   23.4755 C   0  0  0  0  0  0
  -29.0756  -24.2504   21.0926 C   0  0  0  0  0  0
  -26.1133  -24.1763   21.3270 C   0  0  0  0  0  0
  -26.9602  -25.2307   22.0708 C   0  0  0  0  0  0
  -26.9396  -23.1627   20.5040 C   0  0  0  0  0  0
  -28.2978  -25.5901   21.3689 C   0  0  2  0  0  0
  -29.2511  -19.0733   19.2750 C   0  0  0  0  0  0
  -28.2297  -21.8145   23.5112 C   0  0  0  0  0  0
  -28.9908  -21.7590   20.5302 C   0  0  0  0  0  0
  -28.8828  -16.4455   20.9115 C   0  0  0  0  0  0
  -28.3674  -23.0939   20.8391 N   0  0  0  0  0  0
  -29.9485  -15.5382   21.4277 N   0  0  0  0  0  0
  -30.3026  -24.2526   21.1925 O   0  0  0  0  0  0
  -27.7564  -19.2304   25.1515 Cl  0  0  0  0  0  0
  -31.4617  -12.6478   19.1274 H   0  0  0  0  0  0
  -30.4691  -11.4214   19.8671 H   0  0  0  0  0  0
  -29.7678  -11.7701   17.4925 H   0  0  0  0  0  0
  -29.6017  -13.4906   17.7416 H   0  0  0  0  0  0
  -27.8508  -11.2871   18.8816 H   0  0  0  0  0  0
  -27.3635  -12.5697   17.8046 H   0  0  0  0  0  0
  -27.6746  -14.2362   19.5443 H   0  0  0  0  0  0
  -28.6800  -11.9978   21.3823 H   0  0  0  0  0  0
  -28.3718  -13.6287   21.8605 H   0  0  0  0  0  0
  -25.2697   -9.5757   22.4850 H   0  0  0  0  0  0
  -24.0006   -7.4698   22.7580 H   0  0  0  0  0  0
  -21.0877   -8.8844   19.9001 H   0  0  0  0  0  0
  -22.3716  -10.9709   19.6290 H   0  0  0  0  0  0
  -21.2076   -7.6163   23.9716 H   0  0  0  0  0  0
  -21.1420   -6.0514   25.9042 H   0  0  0  0  0  0
  -22.0617   -2.7628   23.2840 H   0  0  0  0  0  0
  -22.4179  -12.0023   22.4640 H   0  0  0  0  0  0
  -21.1121  -13.1446   22.2433 H   0  0  0  0  0  0
  -24.6175  -15.8056   20.4747 H   0  0  0  0  0  0
  -26.2323  -15.6142   19.9976 H   0  0  0  0  0  0
  -26.7132  -32.5444   23.1144 H   0  0  0  0  0  0
  -25.0089  -33.9816   25.0433 H   0  0  0  0  0  0
  -22.6837  -31.3003   21.4002 H   0  0  0  0  0  0
  -23.3754  -35.9660   23.3359 H   0  0  0  0  0  0
  -24.3600  -36.8849   22.2042 H   0  0  0  0  0  0
  -23.7283  -37.6526   23.6646 H   0  0  0  0  0  0
  -26.0891  -31.5885   20.6246 H   0  0  0  0  0  0
  -26.8152  -30.8472   22.0256 H   0  0  0  0  0  0
  -28.0697  -29.0096   21.3079 H   0  0  0  0  0  0
  -26.0728  -25.9975   18.9604 H   0  0  0  0  0  0
  -23.9958  -27.3158   18.9951 H   0  0  0  0  0  0
  -23.7596  -30.6092   19.4070 H   0  0  0  0  0  0
  -22.7494  -29.2667   19.8348 H   0  0  0  0  0  0
  -25.1312  -36.1975   25.0824 H   0  0  0  0  0  0
  -20.9933  -28.3269   24.1355 H   0  0  0  0  0  0
  -21.6562  -26.7297   22.1509 H   0  0  0  0  0  0
  -20.5228  -26.2368   23.3710 H   0  0  0  0  0  0
  -19.6790  -25.6265   21.1204 H   0  0  0  0  0  0
  -19.6896  -27.3112   20.6617 H   0  0  0  0  0  0
  -17.4136  -26.7163   21.3627 H   0  0  0  0  0  0
  -17.9908  -26.0193   22.8557 H   0  0  0  0  0  0
  -19.7573  -30.7336   24.2584 H   0  0  0  0  0  0
  -17.4548  -31.6023   24.5325 H   0  0  0  0  0  0
  -15.5039  -30.2727   23.7542 H   0  0  0  0  0  0
  -15.8627  -28.0827   22.6598 H   0  0  0  0  0  0
  -24.5882  -30.7170   25.7724 H   0  0  0  0  0  0
  -24.9034  -32.2919   26.4946 H   0  0  0  0  0  0
  -25.8068  -30.8793   27.0140 H   0  0  0  0  0  0
  -26.2901  -29.6712   24.1287 H   0  0  0  0  0  0
  -27.4049  -29.7344   25.4739 H   0  0  0  0  0  0
  -27.8791  -30.4240   23.9417 H   0  0  0  0  0  0
  -27.2558  -33.3610   26.2173 H   0  0  0  0  0  0
  -28.3786  -32.7043   25.0337 H   0  0  0  0  0  0
  -28.0773  -31.8475   26.5329 H   0  0  0  0  0  0
  -28.2618  -38.0051   24.7458 H   0  0  0  0  0  0
  -28.1028  -36.2559   24.6408 H   0  0  0  0  0  0
  -27.2269  -37.1586   25.8868 H   0  0  0  0  0  0
  -20.9398  -29.8324   21.6476 H   0  0  0  0  0  0
  -26.0190  -38.2852   24.1385 H   0  0  0  0  0  0
  -28.2057  -17.1297   23.4336 H   0  0  0  0  0  0
  -25.3916  -24.6470   20.6536 H   0  0  0  0  0  0
  -25.4961  -23.6519   22.0532 H   0  0  0  0  0  0
  -26.3698  -26.1120   22.3315 H   0  0  0  0  0  0
  -27.2291  -24.7982   23.0370 H   0  0  0  0  0  0
  -26.8760  -23.4465   19.4542 H   0  0  0  0  0  0
  -26.4724  -22.1779   20.5750 H   0  0  0  0  0  0
  -28.8818  -26.1240   22.1198 H   0  0  0  0  0  0
  -30.2505  -19.4690   19.1057 H   0  0  0  0  0  0
  -28.5351  -19.6224   18.6638 H   0  0  0  0  0  0
  -29.2636  -18.0810   18.8469 H   0  0  0  0  0  0
  -28.1698  -21.7026   24.5922 H   0  0  0  0  0  0
  -27.3137  -22.3334   23.2224 H   0  0  0  0  0  0
  -29.0829  -22.4669   23.3352 H   0  0  0  0  0  0
  -28.6848  -21.5822   19.4990 H   0  0  0  0  0  0
  -30.0744  -21.8617   20.4725 H   0  0  0  0  0  0
  -27.9489  -15.9635   21.2052 H   0  0  0  0  0  0
  -28.8863  -16.3862   19.8229 H   0  0  0  0  0  0
  -30.5498  -16.0162   22.0813 H   0  0  0  0  0  0
  1 25  1  0  0  0
  1 30  2  0  0  0
  1 87  1  0  0  0
  2  3  1  0  0  0
  2 25  1  0  0  0
  2 90  1  0  0  0
  2 91  1  0  0  0
  3  4  1  0  0  0
  3 92  1  0  0  0
  3 93  1  0  0  0
  4  5  1  0  0  0
  4 94  1  0  0  0
  4 95  1  0  0  0
  5  6  1  0  0  0
  5 26  1  0  0  0
  5 96  1  0  0  0
  6 25  1  0  0  0
  6 97  1  0  0  0
  6 98  1  0  0  0
  7  8  2  0  0  0
  7 26  1  0  0  0
  7 29  1  0  0  0
  8  9  1  0  0  0
  8 22  1  0  0  0
  9 10  1  0  0  0
  9 27  2  0  0  0
 10 11  2  0  0  0
 10 15  1  0  0  0
 11 12  1  0  0  0
 11 99  1  0  0  0
 12 13  2  0  0  0
 12100  1  0  0  0
 13 14  1  0  0  0
 13 31  1  0  0  0
 14 15  2  0  0  0
 14101  1  0  0  0
 15102  1  0  0  0
 16 17  2  0  0  0
 16 21  1  0  0  0
 16 31  1  0  0  0
 17 18  1  0  0  0
 17103  1  0  0  0
 18 19  2  0  0  0
 18104  1  0  0  0
 19 20  1  0  0  0
 19 24  1  0  0  0
 20 21  2  0  0  0
 20105  1  0  0  0
 21 23  1  0  0  0
 22 28  1  0  0  0
 22 32  2  0  0  0
 26 27  1  0  0  0
 28106  1  0  0  0
 28107  1  0  0  0
 29108  1  0  0  0
 29109  1  0  0  0
 33 34  1  0  0  0
 33 66  1  0  0  0
 33 70  2  0  0  0
 34 36  1  0  0  0
 34 59  1  0  0  0
 34110  1  0  0  0
 35 44  2  0  0  0
 35 45  1  0  0  0
 35 68  1  0  0  0
 36 56  1  0  0  0
 36111  1  0  0  0
 37 39  1  0  0  0
 37 47  1  0  0  0
 37 66  1  0  0  0
 37112  1  0  0  0
 38 43  2  0  0  0
 38 46  1  0  0  0
 38 47  1  0  0  0
 39 64  1  0  0  0
 39 67  2  0  0  0
 40 52  1  0  0  0
 40 53  2  0  0  0
 40 58  1  0  0  0
 41113  1  0  0  0
 41114  1  0  0  0
 41115  1  0  0  0
 41 48  1  0  0  0
 42 43  1  0  0  0
 42 66  1  0  0  0
 42116  1  0  0  0
 42117  1  0  0  0
 43 44  1  0  0  0
 44118  1  0  0  0
 45 46  2  0  0  0
 45119  1  0  0  0
 46120  1  0  0  0
 47121  1  0  0  0
 47122  1  0  0  0
 48 56  1  0  0  0
 48 65  1  0  0  0
 48123  1  0  0  0
 49 50  1  0  0  0
 49 53  1  0  0  0
 49 64  1  0  0  0
 49124  1  0  0  0
 50 51  1  0  0  0
 50125  1  0  0  0
 50126  1  0  0  0
 51 52  1  0  0  0
 51127  1  0  0  0
 51128  1  0  0  0
 52129  1  0  0  0
 52130  1  0  0  0
 53 54  1  0  0  0
 54 55  2  0  0  0
 54131  1  0  0  0
 55 57  1  0  0  0
 55132  1  0  0  0
 56 69  2  0  0  0
 57 58  2  0  0  0
 57133  1  0  0  0
 58134  1  0  0  0
 59 60  1  0  0  0
 59 61  1  0  0  0
 59 62  1  0  0  0
 60135  1  0  0  0
 60136  1  0  0  0
 60137  1  0  0  0
 61138  1  0  0  0
 61139  1  0  0  0
 61140  1  0  0  0
 62141  1  0  0  0
 62142  1  0  0  0
 62143  1  0  0  0
 63 65  1  0  0  0
 63144  1  0  0  0
 63145  1  0  0  0
 63146  1  0  0  0
 64147  1  0  0  0
 65148  1  0  0  0
 68 81  1  0  0  0
 71 72  2  0  0  0
 71 76  1  0  0  0
 71149  1  0  0  0
 72 73  1  0  0  0
 72 85  1  0  0  0
 73 74  2  0  0  0
 73 82  1  0  0  0
 74 75  1  0  0  0
 74 84  1  0  0  0
 75 76  2  0  0  0
 75 83  1  0  0  0
 76 89  1  0  0  0
 77 81  1  0  0  0
 77 86  1  0  0  0
 77 88  2  0  0  0
 78 79  1  0  0  0
 78 80  1  0  0  0
 78150  1  0  0  0
 78151  1  0  0  0
 79 81  1  0  0  0
 79152  1  0  0  0
 79153  1  0  0  0
 80 86  1  0  0  0
 80154  1  0  0  0
 80155  1  0  0  0
 81156  1  0  0  0
 82157  1  0  0  0
 82158  1  0  0  0
 82159  1  0  0  0
 83160  1  0  0  0
 83161  1  0  0  0
 83162  1  0  0  0
 84 86  1  0  0  0
 84163  1  0  0  0
 84164  1  0  0  0
 85 87  1  0  0  0
 85165  1  0  0  0
 85166  1  0  0  0
 87167  1  0  0  0
M  ISO  4   1 100  68 101  81 101  87 100
M  END
> <chiral flag>
0

> <version>
0

> <s_m_source_file>
/data/baiqing/PycharmProjects/Reinvent-master-3.2/result/LINK_invent/BTK/process_docking_weight1_custom_product_contain_oxygen_bond_distance_aromatic_linkinvent_7_9_3/rearranged_h_0039.sdf

> <i_m_source_file_index>
32

> <r_mmod_Potential_Energy-OPLS-2005>
157.087829589844

> <r_mmod_Stretch_Energy-OPLS-2005>
83.2589569091797

> <r_mmod_Bend_Energy-OPLS-2005>
151.200546264648

> <r_mmod_Torsional_Energy-OPLS-2005>
330.705413818359

> <r_mmod_Improper_Torsional_Energy-OPLS-2005>
7.08220386505127

> <r_mmod_Van_der_Waal_Energy-OPLS-2005>
162.533355712891

> <r_mmod_Electrostatic_Energy-OPLS-2005>
-400.158538818359

> <r_mmod_Solvation_Energy-OPLS-2005>
-221.72038269043

> <b_mmod_Minimization_Converged-OPLS-2005>
0

> <r_mmod_RMS_Derivative-OPLS-2005>
11.6701879501343

$$$$
32
                    3D
 Structure written by MMmdl.
155163  0  0  1  0            999 V2000
  -30.6277  -14.5600   20.5589 C   0  0  0  0  0  0
  -30.4281  -12.3593   19.4291 C   0  0  0  0  0  0
  -29.4984  -12.5091   18.2056 C   0  0  0  0  0  0
  -28.0140  -12.3740   18.6089 C   0  0  0  0  0  0
  -27.6488  -13.2124   19.8640 C   0  0  2  0  0  0
  -28.6890  -13.0157   20.9863 C   0  0  0  0  0  0
  -25.2517  -13.8174   20.5639 C   0  0  0  0  0  0
  -24.1793  -13.0432   20.9194 C   0  0  0  0  0  0
  -24.6363  -11.6904   20.8736 C   0  0  0  0  0  0
  -23.9047  -10.4290   21.0391 C   0  0  0  0  0  0
  -24.3604   -9.4216   21.9175 C   0  0  0  0  0  0
  -23.6288   -8.2246   22.0738 C   0  0  0  0  0  0
  -22.4270   -8.0274   21.3531 C   0  0  0  0  0  0
  -21.9901   -9.0247   20.4637 C   0  0  0  0  0  0
  -22.7217  -10.2132   20.3052 C   0  0  0  0  0  0
  -21.6861   -6.0731   22.5279 C   0  0  0  0  0  0
  -21.4017   -6.5638   23.8209 C   0  0  0  0  0  0
  -21.3660   -5.6785   24.9173 C   0  0  0  0  0  0
  -21.6040   -4.3050   24.7229 C   0  0  0  0  0  0
  -21.8825   -3.8143   23.4355 C   0  0  0  0  0  0
  -21.9195   -4.6954   22.3409 C   0  0  0  0  0  0
  -22.7821  -13.5216   21.1863 C   0  0  0  0  0  0
  -22.1656   -4.2144   21.0982 F   0  0  0  0  0  0
  -21.5638   -3.4528   25.7746 F   0  0  0  0  0  0
  -30.0028  -13.3558   20.4264 N   0  0  0  0  0  0
  -26.2938  -12.9342   20.3292 N   0  0  0  0  0  0
  -25.9286  -11.6500   20.5747 N   0  0  0  0  0  0
  -22.0461  -12.8217   22.0429 N   0  0  0  0  0  0
  -25.4201  -15.1888   20.3979 N   0  0  0  0  0  0
  -31.7987  -14.7309   20.2081 O   0  0  0  0  0  0
  -21.6640   -6.8869   21.4235 O   0  0  0  0  0  0
  -22.3509  -14.5519   20.6692 O   0  0  0  0  0  0
  -24.6146  -31.8659   23.2090 C   0  0  0  0  0  0
  -25.9040  -32.4807   23.8386 C   0  0  1  0  0  0
  -27.2378  -27.4067   20.1215 C   0  0  0  0  0  0
  -25.5920  -33.8614   24.2326 N   0  0  0  0  0  0
  -23.4052  -30.4871   21.5483 C   0  0  2  0  0  0
  -24.8560  -28.9422   20.1241 C   0  0  0  0  0  0
  -22.7407  -29.4642   22.5003 C   0  0  0  0  0  0
  -18.0271  -28.1369   22.8477 C   0  0  0  0  0  0
  -24.1473  -36.7292   23.2635 C   0  0  0  0  0  0
  -25.9322  -30.8256   21.3620 C   0  0  0  0  0  0
  -26.0125  -29.4503   20.7281 C   0  0  0  0  0  0
  -27.2075  -28.6875   20.7266 C   0  0  0  0  0  0
  -26.0684  -26.9169   19.5090 C   0  0  0  0  0  0
  -24.8794  -27.6754   19.5116 C   0  0  0  0  0  0
  -23.6153  -29.8102   20.1657 C   0  0  0  0  0  0
  -25.4105  -36.3109   24.0329 C   0  0  1  0  0  0
  -20.5863  -28.3650   23.1330 C   0  0  2  0  0  0
  -20.6761  -26.9389   22.5427 C   0  0  0  0  0  0
  -19.5754  -26.6379   21.5207 C   0  0  0  0  0  0
  -18.1928  -26.7923   22.1603 C   0  0  0  0  0  0
  -19.1524  -28.8827   23.2893 C   0  0  0  0  0  0
  -18.9446  -30.1432   23.8901 C   0  0  0  0  0  0
  -17.6448  -30.6573   24.0560 C   0  0  0  0  0  0
  -25.9040  -34.9466   23.5127 C   0  0  0  0  0  0
  -16.5338  -29.9082   23.6327 C   0  0  0  0  0  0
  -16.7256  -28.6499   23.0338 C   0  0  0  0  0  0
  -26.4488  -31.6592   25.0714 C   0  0  0  0  0  0
  -25.3763  -31.3652   26.1466 C   0  0  0  0  0  0
  -27.0314  -30.3048   24.6050 C   0  0  0  0  0  0
  -27.6093  -32.4284   25.7439 C   0  0  0  0  0  0
  -27.5574  -37.1781   24.8462 C   0  0  0  0  0  0
  -21.4134  -29.3012   22.3726 N   0  0  0  0  0  0
  -26.4278  -37.3810   23.9433 N   0  0  0  0  0  0
  -24.6693  -31.0739   22.0997 N   0  0  0  0  0  0
  -23.4174  -28.8187   23.3060 O   0  0  0  0  0  0
  -28.4107  -26.6865   20.0105 O   0  0  0  0  0  0
  -26.5576  -34.8929   22.4673 O   0  0  0  0  0  0
  -23.5339  -32.1400   23.7482 O   0  0  0  0  0  0
  -28.9924  -20.6615   19.2573 C   0  0  0  0  0  0
  -29.4711  -19.5493   18.5450 C   0  0  0  0  0  0
  -29.6959  -18.2289   20.6110 C   0  0  0  0  0  0
  -28.8449  -20.5929   20.6520 C   0  0  0  0  0  0
  -29.8323  -18.3563   19.2027 C   0  0  0  0  0  0
  -29.1800  -19.3705   21.3223 C   0  0  0  0  0  0
  -30.2446  -16.9687   21.3599 C   0  0  0  0  0  0
  -28.1780  -24.1929   20.5799 C   0  0  0  0  0  0
  -29.0252  -23.0322   21.2073 C   0  0  0  0  0  0
  -28.6787  -25.6294   20.9554 C   0  0  0  0  0  0
  -28.3453  -21.7248   21.3447 N   0  0  0  0  0  0
  -29.8372  -15.5911   20.9615 N   0  0  0  0  0  0
  -30.4925  -17.0963   18.2231 Cl  0  0  0  0  0  0
  -28.9760  -19.3224   23.0429 Cl  0  0  0  0  0  0
  -31.4693  -12.4912   19.1297 H   0  0  0  0  0  0
  -30.3590  -11.3530   19.8456 H   0  0  0  0  0  0
  -29.7474  -11.7642   17.4491 H   0  0  0  0  0  0
  -29.6666  -13.4826   17.7414 H   0  0  0  0  0  0
  -27.8111  -11.3178   18.7909 H   0  0  0  0  0  0
  -27.3764  -12.6608   17.7723 H   0  0  0  0  0  0
  -27.6813  -14.2596   19.5603 H   0  0  0  0  0  0
  -28.6896  -11.9786   21.3251 H   0  0  0  0  0  0
  -28.4433  -13.6117   21.8674 H   0  0  0  0  0  0
  -25.2743   -9.5721   22.4746 H   0  0  0  0  0  0
  -24.0017   -7.4647   22.7451 H   0  0  0  0  0  0
  -21.0841   -8.8746   19.8944 H   0  0  0  0  0  0
  -22.3645  -10.9668   19.6170 H   0  0  0  0  0  0
  -21.1992   -7.6140   23.9716 H   0  0  0  0  0  0
  -21.1476   -6.0512   25.9077 H   0  0  0  0  0  0
  -22.0600   -2.7603   23.2852 H   0  0  0  0  0  0
  -22.4063  -11.9893   22.4866 H   0  0  0  0  0  0
  -21.1062  -13.1232   22.2584 H   0  0  0  0  0  0
  -24.6420  -15.8352   20.4866 H   0  0  0  0  0  0
  -26.2515  -15.6238   20.0205 H   0  0  0  0  0  0
  -26.7100  -32.5540   23.1139 H   0  0  0  0  0  0
  -25.0174  -33.9795   25.0541 H   0  0  0  0  0  0
  -22.6930  -31.3025   21.4043 H   0  0  0  0  0  0
  -23.3757  -35.9602   23.3301 H   0  0  0  0  0  0
  -24.3561  -36.8906   22.2044 H   0  0  0  0  0  0
  -23.7176  -37.6483   23.6643 H   0  0  0  0  0  0
  -26.0329  -31.5777   20.5791 H   0  0  0  0  0  0
  -26.8247  -30.8958   21.9705 H   0  0  0  0  0  0
  -28.1062  -29.0832   21.1779 H   0  0  0  0  0  0
  -26.0840  -25.9569   19.0127 H   0  0  0  0  0  0
  -23.9925  -27.2872   19.0300 H   0  0  0  0  0  0
  -23.7142  -30.5788   19.3983 H   0  0  0  0  0  0
  -22.7422  -29.2212   19.8808 H   0  0  0  0  0  0
  -25.1257  -36.1973   25.0812 H   0  0  0  0  0  0
  -20.9938  -28.3203   24.1460 H   0  0  0  0  0  0
  -20.5677  -26.2239   23.3602 H   0  0  0  0  0  0
  -21.6634  -26.7451   22.1213 H   0  0  0  0  0  0
  -19.6934  -25.6301   21.1220 H   0  0  0  0  0  0
  -19.6719  -27.3206   20.6757 H   0  0  0  0  0  0
  -17.4205  -26.6657   21.3997 H   0  0  0  0  0  0
  -18.0334  -26.0063   22.9001 H   0  0  0  0  0  0
  -19.7920  -30.7243   24.2279 H   0  0  0  0  0  0
  -17.5001  -31.6270   24.5144 H   0  0  0  0  0  0
  -15.5340  -30.2974   23.7658 H   0  0  0  0  0  0
  -15.8653  -28.0823   22.7050 H   0  0  0  0  0  0
  -24.5984  -30.6944   25.7795 H   0  0  0  0  0  0
  -24.8904  -32.2780   26.4924 H   0  0  0  0  0  0
  -25.8152  -30.8831   27.0212 H   0  0  0  0  0  0
  -26.2849  -29.6794   24.1151 H   0  0  0  0  0  0
  -27.4158  -29.7290   25.4475 H   0  0  0  0  0  0
  -27.8644  -30.4387   23.9144 H   0  0  0  0  0  0
  -27.2791  -33.3617   26.1998 H   0  0  0  0  0  0
  -28.3909  -32.6769   25.0246 H   0  0  0  0  0  0
  -28.0750  -31.8395   26.5347 H   0  0  0  0  0  0
  -28.2572  -38.0105   24.7600 H   0  0  0  0  0  0
  -28.1081  -36.2642   24.6176 H   0  0  0  0  0  0
  -27.2297  -37.1305   25.8865 H   0  0  0  0  0  0
  -20.9295  -29.8685   21.6908 H   0  0  0  0  0  0
  -26.0157  -38.2868   24.1527 H   0  0  0  0  0  0
  -28.7241  -21.5621   18.7240 H   0  0  0  0  0  0
  -29.5848  -19.6213   17.4735 H   0  0  0  0  0  0
  -29.9906  -17.0318   22.4159 H   0  0  0  0  0  0
  -31.3326  -17.0427   21.3391 H   0  0  0  0  0  0
  -27.1327  -24.1094   20.8786 H   0  0  0  0  0  0
  -28.1932  -24.0765   19.4957 H   0  0  0  0  0  0
  -29.3233  -23.3342   22.2138 H   0  0  0  0  0  0
  -29.9603  -22.9203   20.6549 H   0  0  0  0  0  0
  -29.7674  -25.6016   21.0469 H   0  0  0  0  0  0
  -28.3151  -25.9101   21.9444 H   0  0  0  0  0  0
  -28.1300  -21.5021   22.3148 H   0  0  0  0  0  0
  -28.8761  -15.3485   21.1498 H   0  0  0  0  0  0
  1 25  1  0  0  0
  1 30  2  0  0  0
  1 82  1  0  0  0
  2  3  1  0  0  0
  2 25  1  0  0  0
  2 85  1  0  0  0
  2 86  1  0  0  0
  3  4  1  0  0  0
  3 87  1  0  0  0
  3 88  1  0  0  0
  4  5  1  0  0  0
  4 89  1  0  0  0
  4 90  1  0  0  0
  5  6  1  0  0  0
  5 26  1  0  0  0
  5 91  1  0  0  0
  6 25  1  0  0  0
  6 92  1  0  0  0
  6 93  1  0  0  0
  7  8  2  0  0  0
  7 26  1  0  0  0
  7 29  1  0  0  0
  8  9  1  0  0  0
  8 22  1  0  0  0
  9 10  1  0  0  0
  9 27  2  0  0  0
 10 11  2  0  0  0
 10 15  1  0  0  0
 11 12  1  0  0  0
 11 94  1  0  0  0
 12 13  2  0  0  0
 12 95  1  0  0  0
 13 14  1  0  0  0
 13 31  1  0  0  0
 14 15  2  0  0  0
 14 96  1  0  0  0
 15 97  1  0  0  0
 16 17  2  0  0  0
 16 21  1  0  0  0
 16 31  1  0  0  0
 17 18  1  0  0  0
 17 98  1  0  0  0
 18 19  2  0  0  0
 18 99  1  0  0  0
 19 20  1  0  0  0
 19 24  1  0  0  0
 20 21  2  0  0  0
 20100  1  0  0  0
 21 23  1  0  0  0
 22 28  1  0  0  0
 22 32  2  0  0  0
 26 27  1  0  0  0
 28101  1  0  0  0
 28102  1  0  0  0
 29103  1  0  0  0
 29104  1  0  0  0
 33 34  1  0  0  0
 33 66  1  0  0  0
 33 70  2  0  0  0
 34 36  1  0  0  0
 34 59  1  0  0  0
 34105  1  0  0  0
 35 44  2  0  0  0
 35 45  1  0  0  0
 35 68  1  0  0  0
 36 56  1  0  0  0
 36106  1  0  0  0
 37 39  1  0  0  0
 37 47  1  0  0  0
 37 66  1  0  0  0
 37107  1  0  0  0
 38 43  2  0  0  0
 38 46  1  0  0  0
 38 47  1  0  0  0
 39 64  1  0  0  0
 39 67  2  0  0  0
 40 52  1  0  0  0
 40 53  2  0  0  0
 40 58  1  0  0  0
 41108  1  0  0  0
 41109  1  0  0  0
 41110  1  0  0  0
 41 48  1  0  0  0
 42 43  1  0  0  0
 42 66  1  0  0  0
 42111  1  0  0  0
 42112  1  0  0  0
 43 44  1  0  0  0
 44113  1  0  0  0
 45 46  2  0  0  0
 45114  1  0  0  0
 46115  1  0  0  0
 47116  1  0  0  0
 47117  1  0  0  0
 48 56  1  0  0  0
 48 65  1  0  0  0
 48118  1  0  0  0
 49 50  1  0  0  0
 49 53  1  0  0  0
 49 64  1  0  0  0
 49119  1  0  0  0
 50 51  1  0  0  0
 50120  1  0  0  0
 50121  1  0  0  0
 51 52  1  0  0  0
 51122  1  0  0  0
 51123  1  0  0  0
 52124  1  0  0  0
 52125  1  0  0  0
 53 54  1  0  0  0
 54 55  2  0  0  0
 54126  1  0  0  0
 55 57  1  0  0  0
 55127  1  0  0  0
 56 69  2  0  0  0
 57 58  2  0  0  0
 57128  1  0  0  0
 58129  1  0  0  0
 59 60  1  0  0  0
 59 61  1  0  0  0
 59 62  1  0  0  0
 60130  1  0  0  0
 60131  1  0  0  0
 60132  1  0  0  0
 61133  1  0  0  0
 61134  1  0  0  0
 61135  1  0  0  0
 62136  1  0  0  0
 62137  1  0  0  0
 62138  1  0  0  0
 63 65  1  0  0  0
 63139  1  0  0  0
 63140  1  0  0  0
 63141  1  0  0  0
 64142  1  0  0  0
 65143  1  0  0  0
 68 80  1  0  0  0
 71 72  2  0  0  0
 71 74  1  0  0  0
 71144  1  0  0  0
 72 75  1  0  0  0
 72145  1  0  0  0
 73 75  2  0  0  0
 73 76  1  0  0  0
 73 77  1  0  0  0
 74 76  2  0  0  0
 74 81  1  0  0  0
 75 83  1  0  0  0
 76 84  1  0  0  0
 77 82  1  0  0  0
 77146  1  0  0  0
 77147  1  0  0  0
 78 79  1  0  0  0
 78 80  1  0  0  0
 78148  1  0  0  0
 78149  1  0  0  0
 79 81  1  0  0  0
 79150  1  0  0  0
 79151  1  0  0  0
 80152  1  0  0  0
 80153  1  0  0  0
 81154  1  0  0  0
 82155  1  0  0  0
M  ISO  4   1 100  68 101  80 101  82 100
M  END
> <chiral flag>
0

> <version>
0

> <s_m_source_file>
/data/baiqing/PycharmProjects/Reinvent-master-3.2/result/LINK_invent/BTK/process_docking_weight1_custom_product_contain_oxygen_bond_distance_aromatic_linkinvent_7_9_3/rearranged_h_0039.sdf

> <i_m_source_file_index>
33

> <r_mmod_Potential_Energy-OPLS-2005>
-7.12842321395874

> <r_mmod_Stretch_Energy-OPLS-2005>
52.7879447937012

> <r_mmod_Bend_Energy-OPLS-2005>
117.269798278809

> <r_mmod_Torsional_Energy-OPLS-2005>
240.699905395508

> <r_mmod_Improper_Torsional_Energy-OPLS-2005>
8.98214435577393

> <r_mmod_Van_der_Waal_Energy-OPLS-2005>
140.474533081055

> <r_mmod_Electrostatic_Energy-OPLS-2005>
-375.972839355469

> <r_mmod_Solvation_Energy-OPLS-2005>
-213.805313110352

> <b_mmod_Minimization_Converged-OPLS-2005>
0

> <r_mmod_RMS_Derivative-OPLS-2005>
3.21532678604126

$$$$
33
                    3D
 Structure written by MMmdl.
167176  0  0  1  0            999 V2000
  -30.6008  -14.7435   20.4587 C   0  0  0  0  0  0
  -30.4395  -12.4573   19.4513 C   0  0  0  0  0  0
  -29.5075  -12.4985   18.2214 C   0  0  0  0  0  0
  -28.0344  -12.3211   18.6443 C   0  0  0  0  0  0
  -27.6396  -13.2254   19.8431 C   0  0  2  0  0  0
  -28.6910  -13.1651   20.9708 C   0  0  0  0  0  0
  -25.2511  -13.8183   20.5703 C   0  0  0  0  0  0
  -24.1800  -13.0431   20.9217 C   0  0  0  0  0  0
  -24.6389  -11.6910   20.8757 C   0  0  0  0  0  0
  -23.9064  -10.4289   21.0412 C   0  0  0  0  0  0
  -24.3617   -9.4204   21.9187 C   0  0  0  0  0  0
  -23.6291   -8.2240   22.0754 C   0  0  0  0  0  0
  -22.4271   -8.0279   21.3545 C   0  0  0  0  0  0
  -21.9911   -9.0255   20.4647 C   0  0  0  0  0  0
  -22.7241  -10.2133   20.3057 C   0  0  0  0  0  0
  -21.6853   -6.0731   22.5281 C   0  0  0  0  0  0
  -21.4016   -6.5638   23.8215 C   0  0  0  0  0  0
  -21.3661   -5.6790   24.9177 C   0  0  0  0  0  0
  -21.6042   -4.3053   24.7230 C   0  0  0  0  0  0
  -21.8817   -3.8145   23.4352 C   0  0  0  0  0  0
  -21.9193   -4.6959   22.3407 C   0  0  0  0  0  0
  -22.7821  -13.5215   21.1877 C   0  0  0  0  0  0
  -22.1658   -4.2143   21.0984 F   0  0  0  0  0  0
  -21.5630   -3.4538   25.7745 F   0  0  0  0  0  0
  -29.9829  -13.5190   20.3707 N   0  0  0  0  0  0
  -26.2935  -12.9378   20.3273 N   0  0  0  0  0  0
  -25.9317  -11.6528   20.5754 N   0  0  0  0  0  0
  -22.0461  -12.8208   22.0431 N   0  0  0  0  0  0
  -25.4174  -15.1915   20.4137 N   0  0  0  0  0  0
  -31.8138  -14.8430   20.2567 O   0  0  0  0  0  0
  -21.6636   -6.8874   21.4242 O   0  0  0  0  0  0
  -22.3511  -14.5522   20.6721 O   0  0  0  0  0  0
  -24.6299  -31.8564   23.1960 C   0  0  0  0  0  0
  -25.9123  -32.4767   23.8309 C   0  0  1  0  0  0
  -27.2283  -27.2713   20.1440 C   0  0  0  0  0  0
  -25.5917  -33.8563   24.2243 N   0  0  0  0  0  0
  -23.4258  -30.4775   21.5391 C   0  0  2  0  0  0
  -24.8733  -28.9098   20.1256 C   0  0  0  0  0  0
  -22.7485  -29.4632   22.4914 C   0  0  0  0  0  0
  -18.0297  -28.1404   22.8489 C   0  0  0  0  0  0
  -24.1480  -36.7290   23.2642 C   0  0  0  0  0  0
  -25.9683  -30.7738   21.3700 C   0  0  0  0  0  0
  -26.0440  -29.3899   20.7269 C   0  0  0  0  0  0
  -27.2272  -28.5866   20.7168 C   0  0  0  0  0  0
  -26.0300  -26.8379   19.5422 C   0  0  0  0  0  0
  -24.8691  -27.6395   19.5251 C   0  0  0  0  0  0
  -23.6460  -29.8012   20.1589 C   0  0  0  0  0  0
  -25.4111  -36.3079   24.0326 C   0  0  1  0  0  0
  -20.5898  -28.3722   23.1269 C   0  0  2  0  0  0
  -20.6788  -26.9439   22.5407 C   0  0  0  0  0  0
  -19.5761  -26.6400   21.5214 C   0  0  0  0  0  0
  -18.1945  -26.7948   22.1627 C   0  0  0  0  0  0
  -19.1549  -28.8874   23.2878 C   0  0  0  0  0  0
  -18.9475  -30.1472   23.8899 C   0  0  0  0  0  0
  -17.6475  -30.6604   24.0574 C   0  0  0  0  0  0
  -25.9049  -34.9453   23.5093 C   0  0  0  0  0  0
  -16.5365  -29.9104   23.6335 C   0  0  0  0  0  0
  -16.7287  -28.6524   23.0352 C   0  0  0  0  0  0
  -26.4496  -31.6585   25.0696 C   0  0  0  0  0  0
  -25.3723  -31.3738   26.1422 C   0  0  0  0  0  0
  -27.0337  -30.3010   24.6157 C   0  0  0  0  0  0
  -27.6051  -32.4317   25.7479 C   0  0  0  0  0  0
  -27.5573  -37.1803   24.8471 C   0  0  0  0  0  0
  -21.4196  -29.3067   22.3654 N   0  0  0  0  0  0
  -26.4284  -37.3778   23.9414 N   0  0  0  0  0  0
  -24.6945  -31.0534   22.0924 N   0  0  0  0  0  0
  -23.4188  -28.8191   23.3029 O   0  0  0  0  0  0
  -28.3710  -26.4568   20.0328 O   0  0  0  0  0  0
  -26.5628  -34.8936   22.4663 O   0  0  0  0  0  0
  -23.5449  -32.1372   23.7268 O   0  0  0  0  0  0
  -30.4624  -17.3732   22.2407 C   0  0  0  0  0  0
  -29.4428  -18.4585   20.3301 C   0  0  0  0  0  0
  -30.3729  -18.5907   22.9458 C   0  0  0  0  0  0
  -29.3841  -19.7590   20.9938 C   0  0  0  0  0  0
  -29.7648  -19.7460   22.3744 C   0  0  0  0  0  0
  -29.9378  -17.2357   20.9457 C   0  0  0  0  0  0
  -28.4119  -23.7747   19.9754 C   0  0  0  0  0  0
  -27.9063  -23.6549   18.7345 C   0  0  0  0  0  0
  -30.6288  -24.0384   21.8698 C   0  0  0  0  0  0
  -29.9977  -25.3132   21.2816 C   0  0  0  0  0  0
  -30.5118  -22.8384   20.9099 C   0  0  0  0  0  0
  -28.5493  -25.1591   20.7571 C   0  0  1  0  0  0
  -30.9044  -18.6036   24.3726 C   0  0  0  0  0  0
  -29.4767  -20.9150   23.3147 C   0  0  0  0  0  0
  -28.8258  -21.0739   20.2337 C   0  0  0  0  0  0
  -29.7839  -15.8651   20.4072 N   0  0  0  0  0  0
  -29.0808  -22.5353   20.6915 N   0  3  2  0  0  0
  -31.4770  -12.6000   19.1447 H   0  0  0  0  0  0
  -30.3980  -11.4825   19.9397 H   0  0  0  0  0  0
  -29.7874  -11.7217   17.5087 H   0  0  0  0  0  0
  -29.6279  -13.4498   17.7003 H   0  0  0  0  0  0
  -27.8970  -11.2734   18.9147 H   0  0  0  0  0  0
  -27.3723  -12.5044   17.7976 H   0  0  0  0  0  0
  -27.6275  -14.2438   19.4556 H   0  0  0  0  0  0
  -28.7329  -12.1711   21.4187 H   0  0  0  0  0  0
  -28.4340  -13.8576   21.7749 H   0  0  0  0  0  0
  -25.2762   -9.5675   22.4762 H   0  0  0  0  0  0
  -23.9999   -7.4627   22.7471 H   0  0  0  0  0  0
  -21.0845   -8.8778   19.8950 H   0  0  0  0  0  0
  -22.3707  -10.9672   19.6164 H   0  0  0  0  0  0
  -21.2006   -7.6145   23.9718 H   0  0  0  0  0  0
  -21.1485   -6.0520   25.9079 H   0  0  0  0  0  0
  -22.0592   -2.7607   23.2857 H   0  0  0  0  0  0
  -22.4078  -11.9876   22.4831 H   0  0  0  0  0  0
  -21.1072  -13.1226   22.2617 H   0  0  0  0  0  0
  -24.6472  -15.8397   20.5338 H   0  0  0  0  0  0
  -26.2658  -15.6448   20.1023 H   0  0  0  0  0  0
  -26.7193  -32.5438   23.1053 H   0  0  0  0  0  0
  -25.0048  -33.9696   25.0379 H   0  0  0  0  0  0
  -22.7226  -31.3000   21.3882 H   0  0  0  0  0  0
  -23.3749  -35.9614   23.3306 H   0  0  0  0  0  0
  -24.3565  -36.8912   22.2053 H   0  0  0  0  0  0
  -23.7227  -37.6489   23.6668 H   0  0  0  0  0  0
  -26.0930  -31.5262   20.5901 H   0  0  0  0  0  0
  -26.8510  -30.8362   21.9953 H   0  0  0  0  0  0
  -28.1366  -28.9657   21.1616 H   0  0  0  0  0  0
  -25.9868  -25.8677   19.0709 H   0  0  0  0  0  0
  -23.9711  -27.2652   19.0529 H   0  0  0  0  0  0
  -23.7768  -30.5712   19.3974 H   0  0  0  0  0  0
  -22.7633  -29.2360   19.8543 H   0  0  0  0  0  0
  -25.1292  -36.1922   25.0817 H   0  0  0  0  0  0
  -21.0000  -28.3307   24.1384 H   0  0  0  0  0  0
  -20.5690  -26.2335   23.3614 H   0  0  0  0  0  0
  -21.6659  -26.7466   22.1195 H   0  0  0  0  0  0
  -19.6920  -25.6305   21.1250 H   0  0  0  0  0  0
  -19.6696  -27.3209   20.6742 H   0  0  0  0  0  0
  -17.4209  -26.6701   21.4035 H   0  0  0  0  0  0
  -18.0348  -26.0093   22.9025 H   0  0  0  0  0  0
  -19.7950  -30.7295   24.2268 H   0  0  0  0  0  0
  -17.5031  -31.6284   24.5180 H   0  0  0  0  0  0
  -15.5369  -30.3012   23.7649 H   0  0  0  0  0  0
  -15.8693  -28.0849   22.7053 H   0  0  0  0  0  0
  -24.5885  -30.7101   25.7752 H   0  0  0  0  0  0
  -24.8936  -32.2918   26.4847 H   0  0  0  0  0  0
  -25.8042  -30.8910   27.0198 H   0  0  0  0  0  0
  -26.2914  -29.6767   24.1171 H   0  0  0  0  0  0
  -27.4027  -29.7261   25.4661 H   0  0  0  0  0  0
  -27.8786  -30.4299   23.9386 H   0  0  0  0  0  0
  -27.2652  -33.3610   26.2062 H   0  0  0  0  0  0
  -28.3868  -32.6884   25.0315 H   0  0  0  0  0  0
  -28.0712  -31.8433   26.5392 H   0  0  0  0  0  0
  -28.2602  -38.0090   24.7515 H   0  0  0  0  0  0
  -28.1054  -36.2626   24.6299 H   0  0  0  0  0  0
  -27.2294  -37.1458   25.8874 H   0  0  0  0  0  0
  -20.9380  -29.8772   21.6848 H   0  0  0  0  0  0
  -26.0164  -38.2848   24.1427 H   0  0  0  0  0  0
  -30.8608  -16.5048   22.7476 H   0  0  0  0  0  0
  -29.0608  -18.3919   19.3209 H   0  0  0  0  0  0
  -27.5224  -24.5161   18.2093 H   0  0  0  0  0  0
  -27.8794  -22.7137   18.2058 H   0  0  0  0  0  0
  -30.1672  -23.8110   22.8314 H   0  0  0  0  0  0
  -31.6813  -24.2261   22.0852 H   0  0  0  0  0  0
  -30.6309  -25.6421   20.4556 H   0  0  0  0  0  0
  -30.0343  -26.1152   22.0198 H   0  0  0  0  0  0
  -31.0485  -21.9841   21.3179 H   0  0  0  0  0  0
  -30.9892  -23.0582   19.9538 H   0  0  0  0  0  0
  -27.8625  -25.1265   21.6047 H   0  0  0  0  0  0
  -31.6165  -17.7937   24.5370 H   0  0  0  0  0  0
  -30.0889  -18.4793   25.0853 H   0  0  0  0  0  0
  -31.4246  -19.5346   24.5974 H   0  0  0  0  0  0
  -30.3675  -21.5202   23.4844 H   0  0  0  0  0  0
  -29.1521  -20.5475   24.2879 H   0  0  0  0  0  0
  -28.6545  -21.5417   22.9808 H   0  0  0  0  0  0
  -27.7440  -20.9537   20.1696 H   0  0  0  0  0  0
  -29.1840  -21.0030   19.2063 H   0  0  0  0  0  0
  -28.8454  -15.6473   20.1135 H   0  0  0  0  0  0
  -28.6964  -22.5151   21.6229 H   0  0  0  0  0  0
  1 25  1  0  0  0
  1 30  2  0  0  0
  1 86  1  0  0  0
  2  3  1  0  0  0
  2 25  1  0  0  0
  2 88  1  0  0  0
  2 89  1  0  0  0
  3  4  1  0  0  0
  3 90  1  0  0  0
  3 91  1  0  0  0
  4  5  1  0  0  0
  4 92  1  0  0  0
  4 93  1  0  0  0
  5  6  1  0  0  0
  5 26  1  0  0  0
  5 94  1  0  0  0
  6 25  1  0  0  0
  6 95  1  0  0  0
  6 96  1  0  0  0
  7  8  2  0  0  0
  7 26  1  0  0  0
  7 29  1  0  0  0
  8  9  1  0  0  0
  8 22  1  0  0  0
  9 10  1  0  0  0
  9 27  2  0  0  0
 10 11  2  0  0  0
 10 15  1  0  0  0
 11 12  1  0  0  0
 11 97  1  0  0  0
 12 13  2  0  0  0
 12 98  1  0  0  0
 13 14  1  0  0  0
 13 31  1  0  0  0
 14 15  2  0  0  0
 14 99  1  0  0  0
 15100  1  0  0  0
 16 17  2  0  0  0
 16 21  1  0  0  0
 16 31  1  0  0  0
 17 18  1  0  0  0
 17101  1  0  0  0
 18 19  2  0  0  0
 18102  1  0  0  0
 19 20  1  0  0  0
 19 24  1  0  0  0
 20 21  2  0  0  0
 20103  1  0  0  0
 21 23  1  0  0  0
 22 28  1  0  0  0
 22 32  2  0  0  0
 26 27  1  0  0  0
 28104  1  0  0  0
 28105  1  0  0  0
 29106  1  0  0  0
 29107  1  0  0  0
 33 34  1  0  0  0
 33 66  1  0  0  0
 33 70  2  0  0  0
 34 36  1  0  0  0
 34 59  1  0  0  0
 34108  1  0  0  0
 35 44  2  0  0  0
 35 45  1  0  0  0
 35 68  1  0  0  0
 36 56  1  0  0  0
 36109  1  0  0  0
 37 39  1  0  0  0
 37 47  1  0  0  0
 37 66  1  0  0  0
 37110  1  0  0  0
 38 43  2  0  0  0
 38 46  1  0  0  0
 38 47  1  0  0  0
 39 64  1  0  0  0
 39 67  2  0  0  0
 40 52  1  0  0  0
 40 53  2  0  0  0
 40 58  1  0  0  0
 41111  1  0  0  0
 41112  1  0  0  0
 41113  1  0  0  0
 41 48  1  0  0  0
 42 43  1  0  0  0
 42 66  1  0  0  0
 42114  1  0  0  0
 42115  1  0  0  0
 43 44  1  0  0  0
 44116  1  0  0  0
 45 46  2  0  0  0
 45117  1  0  0  0
 46118  1  0  0  0
 47119  1  0  0  0
 47120  1  0  0  0
 48 56  1  0  0  0
 48 65  1  0  0  0
 48121  1  0  0  0
 49 50  1  0  0  0
 49 53  1  0  0  0
 49 64  1  0  0  0
 49122  1  0  0  0
 50 51  1  0  0  0
 50123  1  0  0  0
 50124  1  0  0  0
 51 52  1  0  0  0
 51125  1  0  0  0
 51126  1  0  0  0
 52127  1  0  0  0
 52128  1  0  0  0
 53 54  1  0  0  0
 54 55  2  0  0  0
 54129  1  0  0  0
 55 57  1  0  0  0
 55130  1  0  0  0
 56 69  2  0  0  0
 57 58  2  0  0  0
 57131  1  0  0  0
 58132  1  0  0  0
 59 60  1  0  0  0
 59 61  1  0  0  0
 59 62  1  0  0  0
 60133  1  0  0  0
 60134  1  0  0  0
 60135  1  0  0  0
 61136  1  0  0  0
 61137  1  0  0  0
 61138  1  0  0  0
 62139  1  0  0  0
 62140  1  0  0  0
 62141  1  0  0  0
 63 65  1  0  0  0
 63142  1  0  0  0
 63143  1  0  0  0
 63144  1  0  0  0
 64145  1  0  0  0
 65146  1  0  0  0
 68 82  1  0  0  0
 71 73  2  0  0  0
 71 76  1  0  0  0
 71147  1  0  0  0
 72 74  1  0  0  0
 72 76  2  0  0  0
 72148  1  0  0  0
 73 75  1  0  0  0
 73 83  1  0  0  0
 74 75  2  0  0  0
 74 85  1  0  0  0
 75 84  1  0  0  0
 76 86  1  0  0  0
 77 78  2  0  0  0
 77 82  1  0  0  0
 77 87  1  0  0  0
 78149  1  0  0  0
 78150  1  0  0  0
 79 80  1  0  0  0
 79 81  1  0  0  0
 79151  1  0  0  0
 79152  1  0  0  0
 80 82  1  0  0  0
 80153  1  0  0  0
 80154  1  0  0  0
 81 87  1  0  0  0
 81155  1  0  0  0
 81156  1  0  0  0
 82157  1  0  0  0
 83158  1  0  0  0
 83159  1  0  0  0
 83160  1  0  0  0
 84161  1  0  0  0
 84162  1  0  0  0
 84163  1  0  0  0
 85164  1  0  0  0
 85165  1  0  0  0
 85 87  1  0  0  0
 86166  1  0  0  0
 87167  1  0  0  0
M  CHG  1  87   1
M  ISO  4   1 100  68 101  82 101  86 100
M  END
> <chiral flag>
0

> <version>
0

> <s_m_source_file>
/data/baiqing/PycharmProjects/Reinvent-master-3.2/result/LINK_invent/BTK/process_docking_weight1_custom_product_contain_oxygen_bond_distance_aromatic_linkinvent_7_9_3/rearranged_h_0039.sdf

> <i_m_source_file_index>
34

> <r_mmod_Potential_Energy-OPLS-2005>
119.909217834473

> <r_mmod_Stretch_Energy-OPLS-2005>
132.002182006836

> <r_mmod_Bend_Energy-OPLS-2005>
188.243377685547

> <r_mmod_Torsional_Energy-OPLS-2005>
286.980987548828

> <r_mmod_Improper_Torsional_Energy-OPLS-2005>
11.6231708526611

> <r_mmod_Van_der_Waal_Energy-OPLS-2005>
138.578704833984

> <r_mmod_Electrostatic_Energy-OPLS-2005>
-281.501373291016

> <r_mmod_Solvation_Energy-OPLS-2005>
-435.648986816406

> <b_mmod_Minimization_Converged-OPLS-2005>
0

> <r_mmod_RMS_Derivative-OPLS-2005>
1.33025968074799

$$$$
34
                    3D
 Structure written by MMmdl.
167176  0  0  1  0            999 V2000
  -30.6519  -14.6156   20.4462 C   0  0  0  0  0  0
  -30.4189  -12.3731   19.4566 C   0  0  0  0  0  0
  -29.5057  -12.4960   18.2222 C   0  0  0  0  0  0
  -28.0289  -12.3269   18.6342 C   0  0  0  0  0  0
  -27.6425  -13.2222   19.8479 C   0  0  2  0  0  0
  -28.6855  -13.1200   20.9872 C   0  0  0  0  0  0
  -25.2476  -13.8154   20.5626 C   0  0  0  0  0  0
  -24.1784  -13.0424   20.9188 C   0  0  0  0  0  0
  -24.6352  -11.6896   20.8735 C   0  0  0  0  0  0
  -23.9029  -10.4297   21.0403 C   0  0  0  0  0  0
  -24.3604   -9.4214   21.9164 C   0  0  0  0  0  0
  -23.6283   -8.2238   22.0721 C   0  0  0  0  0  0
  -22.4267   -8.0254   21.3524 C   0  0  0  0  0  0
  -21.9906   -9.0228   20.4639 C   0  0  0  0  0  0
  -22.7221  -10.2131   20.3053 C   0  0  0  0  0  0
  -21.6857   -6.0724   22.5261 C   0  0  0  0  0  0
  -21.4022   -6.5598   23.8207 C   0  0  0  0  0  0
  -21.3660   -5.6723   24.9152 C   0  0  0  0  0  0
  -21.6061   -4.3000   24.7186 C   0  0  0  0  0  0
  -21.8820   -3.8115   23.4303 C   0  0  0  0  0  0
  -21.9184   -4.6940   22.3377 C   0  0  0  0  0  0
  -22.7823  -13.5245   21.1825 C   0  0  0  0  0  0
  -22.1665   -4.2134   21.0959 F   0  0  0  0  0  0
  -21.5624   -3.4472   25.7709 F   0  0  0  0  0  0
  -30.0002  -13.4194   20.4044 N   0  0  0  0  0  0
  -26.2910  -12.9358   20.3262 N   0  0  0  0  0  0
  -25.9305  -11.6518   20.5744 N   0  0  0  0  0  0
  -22.0466  -12.8281   22.0426 N   0  0  0  0  0  0
  -25.4133  -15.1878   20.3988 N   0  0  0  0  0  0
  -31.8463  -14.7023   20.1443 O   0  0  0  0  0  0
  -21.6628   -6.8853   21.4226 O   0  0  0  0  0  0
  -22.3531  -14.5531   20.6601 O   0  0  0  0  0  0
  -24.6200  -31.8630   23.2088 C   0  0  0  0  0  0
  -25.9068  -32.4796   23.8341 C   0  0  1  0  0  0
  -27.2554  -27.3979   20.0528 C   0  0  0  0  0  0
  -25.5956  -33.8591   24.2296 N   0  0  0  0  0  0
  -23.4119  -30.4856   21.5550 C   0  0  2  0  0  0
  -24.8644  -28.9310   20.1421 C   0  0  0  0  0  0
  -22.7428  -29.4659   22.5030 C   0  0  0  0  0  0
  -18.0254  -28.1397   22.8497 C   0  0  0  0  0  0
  -24.1502  -36.7275   23.2637 C   0  0  0  0  0  0
  -25.9512  -30.7997   21.3803 C   0  0  0  0  0  0
  -26.0344  -29.4258   20.7393 C   0  0  0  0  0  0
  -27.2379  -28.6631   20.7073 C   0  0  0  0  0  0
  -26.0604  -26.9267   19.4754 C   0  0  0  0  0  0
  -24.8699  -27.6722   19.5258 C   0  0  0  0  0  0
  -23.6292  -29.8097   20.1780 C   0  0  0  0  0  0
  -25.4132  -36.3089   24.0335 C   0  0  1  0  0  0
  -20.5850  -28.3681   23.1334 C   0  0  2  0  0  0
  -20.6760  -26.9417   22.5427 C   0  0  0  0  0  0
  -19.5741  -26.6396   21.5219 C   0  0  0  0  0  0
  -18.1924  -26.7941   22.1628 C   0  0  0  0  0  0
  -19.1502  -28.8853   23.2909 C   0  0  0  0  0  0
  -18.9448  -30.1476   23.8877 C   0  0  0  0  0  0
  -17.6448  -30.6609   24.0560 C   0  0  0  0  0  0
  -25.9062  -34.9459   23.5105 C   0  0  0  0  0  0
  -16.5336  -29.9108   23.6338 C   0  0  0  0  0  0
  -16.7244  -28.6537   23.0334 C   0  0  0  0  0  0
  -26.4482  -31.6582   25.0678 C   0  0  0  0  0  0
  -25.3723  -31.3721   26.1424 C   0  0  0  0  0  0
  -27.0312  -30.3005   24.6088 C   0  0  0  0  0  0
  -27.6059  -32.4306   25.7446 C   0  0  0  0  0  0
  -27.5594  -37.1795   24.8477 C   0  0  0  0  0  0
  -21.4149  -29.3045   22.3746 N   0  0  0  0  0  0
  -26.4313  -37.3779   23.9409 N   0  0  0  0  0  0
  -24.6795  -31.0648   22.1051 N   0  0  0  0  0  0
  -23.4159  -28.8164   23.3068 O   0  0  0  0  0  0
  -28.3601  -26.6209   19.7427 O   0  0  0  0  0  0
  -26.5607  -34.8930   22.4654 O   0  0  0  0  0  0
  -23.5387  -32.1437   23.7451 O   0  0  0  0  0  0
  -28.2340  -18.3584   20.0081 C   0  0  0  0  0  0
  -27.4766  -19.5405   19.8713 C   0  0  0  0  0  0
  -29.6271  -18.4234   20.2457 C   0  0  0  0  0  0
  -30.2286  -19.7324   20.3108 C   0  0  0  0  0  0
  -29.4593  -20.9573   20.2082 C   0  0  0  0  0  0
  -28.0571  -20.8233   19.9853 C   0  0  0  0  0  0
  -29.3049  -24.6543   20.9513 C   0  0  0  0  0  0
  -31.0720  -26.2819   18.6214 C   0  0  0  0  0  0
  -31.1642  -24.7716   18.3403 C   0  0  0  0  0  0
  -30.7554  -26.6596   20.0918 C   0  0  0  0  0  0
  -29.8417  -24.0174   18.6020 C   0  0  0  0  0  0
  -29.3768  -26.2037   20.6539 C   0  0  1  0  0  0
  -31.7466  -19.8365   20.4909 C   0  0  0  0  0  0
  -30.1786  -22.3433   20.4319 C   0  0  0  0  0  0
  -30.4881  -17.1176   20.3915 C   0  0  0  0  0  0
  -29.6514  -23.6969   20.0275 N   0  0  0  0  0  0
  -29.9013  -15.7501   20.5680 N   0  0  0  0  0  0
  -29.0004  -24.3260   22.1036 O   0  0  0  0  0  0
  -26.9907  -22.1830   19.8695 Cl  0  0  0  0  0  0
  -31.4652  -12.4715   19.1615 H   0  0  0  0  0  0
  -30.3303  -11.3895   19.9214 H   0  0  0  0  0  0
  -29.7905  -11.7651   17.4644 H   0  0  0  0  0  0
  -29.6344  -13.4795   17.7675 H   0  0  0  0  0  0
  -27.8823  -11.2744   18.8909 H   0  0  0  0  0  0
  -27.3698  -12.5277   17.7888 H   0  0  0  0  0  0
  -27.6462  -14.2501   19.4812 H   0  0  0  0  0  0
  -28.6923  -12.1271   21.4353 H   0  0  0  0  0  0
  -28.4388  -13.8169   21.7939 H   0  0  0  0  0  0
  -25.2773   -9.5653   22.4712 H   0  0  0  0  0  0
  -23.9965   -7.4632   22.7467 H   0  0  0  0  0  0
  -21.0815   -8.8753   19.8987 H   0  0  0  0  0  0
  -22.3673  -10.9632   19.6117 H   0  0  0  0  0  0
  -21.2050   -7.6120   23.9720 H   0  0  0  0  0  0
  -21.1488   -6.0450   25.9054 H   0  0  0  0  0  0
  -22.0624   -2.7578   23.2796 H   0  0  0  0  0  0
  -22.4008  -11.9924   22.4827 H   0  0  0  0  0  0
  -21.1120  -13.1383   22.2655 H   0  0  0  0  0  0
  -24.6279  -15.8262   20.4718 H   0  0  0  0  0  0
  -26.2418  -15.6229   20.0101 H   0  0  0  0  0  0
  -26.7114  -32.5504   23.1073 H   0  0  0  0  0  0
  -25.0132  -33.9732   25.0460 H   0  0  0  0  0  0
  -22.7055  -31.3075   21.4085 H   0  0  0  0  0  0
  -23.3786  -35.9588   23.3321 H   0  0  0  0  0  0
  -24.3572  -36.8857   22.2042 H   0  0  0  0  0  0
  -23.7235  -37.6483   23.6619 H   0  0  0  0  0  0
  -26.0774  -31.5600   20.6096 H   0  0  0  0  0  0
  -26.8345  -30.8529   22.0044 H   0  0  0  0  0  0
  -28.1484  -29.0677   21.1261 H   0  0  0  0  0  0
  -26.0569  -25.9832   18.9474 H   0  0  0  0  0  0
  -23.9722  -27.2829   19.0660 H   0  0  0  0  0  0
  -23.7591  -30.5813   19.4189 H   0  0  0  0  0  0
  -22.7485  -29.2442   19.8695 H   0  0  0  0  0  0
  -25.1323  -36.1935   25.0828 H   0  0  0  0  0  0
  -20.9921  -28.3232   24.1462 H   0  0  0  0  0  0
  -20.5686  -26.2271   23.3593 H   0  0  0  0  0  0
  -21.6630  -26.7495   22.1196 H   0  0  0  0  0  0
  -19.6916  -25.6311   21.1245 H   0  0  0  0  0  0
  -19.6702  -27.3197   20.6735 H   0  0  0  0  0  0
  -17.4198  -26.6673   21.4030 H   0  0  0  0  0  0
  -18.0354  -26.0086   22.9031 H   0  0  0  0  0  0
  -19.7928  -30.7302   24.2219 H   0  0  0  0  0  0
  -17.5009  -31.6274   24.5198 H   0  0  0  0  0  0
  -15.5340  -30.2995   23.7687 H   0  0  0  0  0  0
  -15.8649  -28.0859   22.7024 H   0  0  0  0  0  0
  -24.5918  -30.7047   25.7761 H   0  0  0  0  0  0
  -24.8891  -32.2893   26.4807 H   0  0  0  0  0  0
  -25.8067  -30.8934   27.0210 H   0  0  0  0  0  0
  -26.2844  -29.6772   24.1162 H   0  0  0  0  0  0
  -27.4093  -29.7253   25.4549 H   0  0  0  0  0  0
  -27.8686  -30.4322   23.9230 H   0  0  0  0  0  0
  -27.2703  -33.3661   26.1935 H   0  0  0  0  0  0
  -28.3910  -32.6769   25.0283 H   0  0  0  0  0  0
  -28.0655  -31.8461   26.5431 H   0  0  0  0  0  0
  -28.2639  -38.0070   24.7526 H   0  0  0  0  0  0
  -28.1078  -36.2604   24.6333 H   0  0  0  0  0  0
  -27.2297  -37.1477   25.8877 H   0  0  0  0  0  0
  -20.9322  -29.8773   21.6957 H   0  0  0  0  0  0
  -26.0216  -38.2870   24.1383 H   0  0  0  0  0  0
  -27.7274  -17.4071   19.9179 H   0  0  0  0  0  0
  -26.4115  -19.4679   19.6861 H   0  0  0  0  0  0
  -30.3418  -26.7276   17.9441 H   0  0  0  0  0  0
  -32.0249  -26.7397   18.3457 H   0  0  0  0  0  0
  -31.9820  -24.3293   18.9119 H   0  0  0  0  0  0
  -31.4485  -24.6379   17.2932 H   0  0  0  0  0  0
  -30.8081  -27.7463   20.1615 H   0  0  0  0  0  0
  -31.5581  -26.3015   20.7389 H   0  0  0  0  0  0
  -29.8160  -23.0947   18.0205 H   0  0  0  0  0  0
  -28.9970  -24.5998   18.2269 H   0  0  0  0  0  0
  -29.2390  -26.7327   21.6009 H   0  0  0  0  0  0
  -32.2848  -18.8948   20.4273 H   0  0  0  0  0  0
  -31.9877  -20.2685   21.4636 H   0  0  0  0  0  0
  -32.1958  -20.4427   19.7052 H   0  0  0  0  0  0
  -31.1416  -22.2912   19.9297 H   0  0  0  0  0  0
  -30.4499  -22.3675   21.4863 H   0  0  0  0  0  0
  -31.1493  -17.2418   21.2498 H   0  0  0  0  0  0
  -31.1260  -17.0899   19.5063 H   0  0  0  0  0  0
  -28.9120  -15.6664   20.7582 H   0  0  0  0  0  0
  1 25  1  0  0  0
  1 30  2  0  0  0
  1 87  1  0  0  0
  2  3  1  0  0  0
  2 25  1  0  0  0
  2 90  1  0  0  0
  2 91  1  0  0  0
  3  4  1  0  0  0
  3 92  1  0  0  0
  3 93  1  0  0  0
  4  5  1  0  0  0
  4 94  1  0  0  0
  4 95  1  0  0  0
  5  6  1  0  0  0
  5 26  1  0  0  0
  5 96  1  0  0  0
  6 25  1  0  0  0
  6 97  1  0  0  0
  6 98  1  0  0  0
  7  8  2  0  0  0
  7 26  1  0  0  0
  7 29  1  0  0  0
  8  9  1  0  0  0
  8 22  1  0  0  0
  9 10  1  0  0  0
  9 27  2  0  0  0
 10 11  2  0  0  0
 10 15  1  0  0  0
 11 12  1  0  0  0
 11 99  1  0  0  0
 12 13  2  0  0  0
 12100  1  0  0  0
 13 14  1  0  0  0
 13 31  1  0  0  0
 14 15  2  0  0  0
 14101  1  0  0  0
 15102  1  0  0  0
 16 17  2  0  0  0
 16 21  1  0  0  0
 16 31  1  0  0  0
 17 18  1  0  0  0
 17103  1  0  0  0
 18 19  2  0  0  0
 18104  1  0  0  0
 19 20  1  0  0  0
 19 24  1  0  0  0
 20 21  2  0  0  0
 20105  1  0  0  0
 21 23  1  0  0  0
 22 28  1  0  0  0
 22 32  2  0  0  0
 26 27  1  0  0  0
 28106  1  0  0  0
 28107  1  0  0  0
 29108  1  0  0  0
 29109  1  0  0  0
 33 34  1  0  0  0
 33 66  1  0  0  0
 33 70  2  0  0  0
 34 36  1  0  0  0
 34 59  1  0  0  0
 34110  1  0  0  0
 35 44  2  0  0  0
 35 45  1  0  0  0
 35 68  1  0  0  0
 36 56  1  0  0  0
 36111  1  0  0  0
 37 39  1  0  0  0
 37 47  1  0  0  0
 37 66  1  0  0  0
 37112  1  0  0  0
 38 43  2  0  0  0
 38 46  1  0  0  0
 38 47  1  0  0  0
 39 64  1  0  0  0
 39 67  2  0  0  0
 40 52  1  0  0  0
 40 53  2  0  0  0
 40 58  1  0  0  0
 41113  1  0  0  0
 41114  1  0  0  0
 41115  1  0  0  0
 41 48  1  0  0  0
 42 43  1  0  0  0
 42 66  1  0  0  0
 42116  1  0  0  0
 42117  1  0  0  0
 43 44  1  0  0  0
 44118  1  0  0  0
 45 46  2  0  0  0
 45119  1  0  0  0
 46120  1  0  0  0
 47121  1  0  0  0
 47122  1  0  0  0
 48 56  1  0  0  0
 48 65  1  0  0  0
 48123  1  0  0  0
 49 50  1  0  0  0
 49 53  1  0  0  0
 49 64  1  0  0  0
 49124  1  0  0  0
 50 51  1  0  0  0
 50125  1  0  0  0
 50126  1  0  0  0
 51 52  1  0  0  0
 51127  1  0  0  0
 51128  1  0  0  0
 52129  1  0  0  0
 52130  1  0  0  0
 53 54  1  0  0  0
 54 55  2  0  0  0
 54131  1  0  0  0
 55 57  1  0  0  0
 55132  1  0  0  0
 56 69  2  0  0  0
 57 58  2  0  0  0
 57133  1  0  0  0
 58134  1  0  0  0
 59 60  1  0  0  0
 59 61  1  0  0  0
 59 62  1  0  0  0
 60135  1  0  0  0
 60136  1  0  0  0
 60137  1  0  0  0
 61138  1  0  0  0
 61139  1  0  0  0
 61140  1  0  0  0
 62141  1  0  0  0
 62142  1  0  0  0
 62143  1  0  0  0
 63 65  1  0  0  0
 63144  1  0  0  0
 63145  1  0  0  0
 63146  1  0  0  0
 64147  1  0  0  0
 65148  1  0  0  0
 68 82  1  0  0  0
 71 72  2  0  0  0
 71 73  1  0  0  0
 71149  1  0  0  0
 72 76  1  0  0  0
 72150  1  0  0  0
 73 74  2  0  0  0
 73 85  1  0  0  0
 74 75  1  0  0  0
 74 83  1  0  0  0
 75 76  2  0  0  0
 75 84  1  0  0  0
 76 89  1  0  0  0
 77 82  1  0  0  0
 77 86  1  0  0  0
 77 88  2  0  0  0
 78 79  1  0  0  0
 78 80  1  0  0  0
 78151  1  0  0  0
 78152  1  0  0  0
 79 81  1  0  0  0
 79153  1  0  0  0
 79154  1  0  0  0
 80 82  1  0  0  0
 80155  1  0  0  0
 80156  1  0  0  0
 81 86  1  0  0  0
 81157  1  0  0  0
 81158  1  0  0  0
 82159  1  0  0  0
 83160  1  0  0  0
 83161  1  0  0  0
 83162  1  0  0  0
 84 86  1  0  0  0
 84163  1  0  0  0
 84164  1  0  0  0
 85 87  1  0  0  0
 85165  1  0  0  0
 85166  1  0  0  0
 87167  1  0  0  0
M  ISO  4   1 100  68 101  82 101  87 100
M  END
> <chiral flag>
0

> <version>
0

> <s_m_source_file>
/data/baiqing/PycharmProjects/Reinvent-master-3.2/result/LINK_invent/BTK/process_docking_weight1_custom_product_contain_oxygen_bond_distance_aromatic_linkinvent_7_9_3/rearranged_h_0039.sdf

> <i_m_source_file_index>
35

> <r_mmod_Potential_Energy-OPLS-2005>
137.884460449219

> <r_mmod_Stretch_Energy-OPLS-2005>
75.506591796875

> <r_mmod_Bend_Energy-OPLS-2005>
173.867691040039

> <r_mmod_Torsional_Energy-OPLS-2005>
264.707977294922

> <r_mmod_Improper_Torsional_Energy-OPLS-2005>
8.79990768432617

> <r_mmod_Van_der_Waal_Energy-OPLS-2005>
148.237167358398

> <r_mmod_Electrostatic_Energy-OPLS-2005>
-358.152313232422

> <r_mmod_Solvation_Energy-OPLS-2005>
-219.291854858398

> <b_mmod_Minimization_Converged-OPLS-2005>
0

> <r_mmod_RMS_Derivative-OPLS-2005>
6.62612867355347

$$$$
35
                    3D
 Structure written by MMmdl.
156164  0  0  1  0            999 V2000
  -30.7076  -14.3947   20.6465 C   0  0  0  0  0  0
  -30.4240  -12.2725   19.4258 C   0  0  0  0  0  0
  -29.5095  -12.5218   18.2120 C   0  0  0  0  0  0
  -28.0254  -12.3792   18.6048 C   0  0  0  0  0  0
  -27.6672  -13.1940   19.8754 C   0  0  2  0  0  0
  -28.6908  -12.9326   20.9998 C   0  0  0  0  0  0
  -25.2640  -13.8146   20.5717 C   0  0  0  0  0  0
  -24.1861  -13.0454   20.9181 C   0  0  0  0  0  0
  -24.6377  -11.6905   20.8682 C   0  0  0  0  0  0
  -23.9027  -10.4303   21.0378 C   0  0  0  0  0  0
  -24.3598   -9.4237   21.9174 C   0  0  0  0  0  0
  -23.6288   -8.2275   22.0750 C   0  0  0  0  0  0
  -22.4270   -8.0289   21.3545 C   0  0  0  0  0  0
  -21.9892   -9.0245   20.4644 C   0  0  0  0  0  0
  -22.7206  -10.2135   20.3040 C   0  0  0  0  0  0
  -21.6854   -6.0735   22.5283 C   0  0  0  0  0  0
  -21.4012   -6.5635   23.8216 C   0  0  0  0  0  0
  -21.3660   -5.6784   24.9176 C   0  0  0  0  0  0
  -21.6037   -4.3052   24.7199 C   0  0  0  0  0  0
  -21.8826   -3.8140   23.4317 C   0  0  0  0  0  0
  -21.9209   -4.6968   22.3387 C   0  0  0  0  0  0
  -22.7897  -13.5292   21.1830 C   0  0  0  0  0  0
  -22.1668   -4.2171   21.0951 F   0  0  0  0  0  0
  -21.5637   -3.4518   25.7709 F   0  0  0  0  0  0
  -30.0453  -13.2210   20.4827 N   0  0  0  0  0  0
  -26.3025  -12.9278   20.3264 N   0  0  0  0  0  0
  -25.9287  -11.6448   20.5634 N   0  0  0  0  0  0
  -22.0461  -12.8313   22.0335 N   0  0  0  0  0  0
  -25.4380  -15.1866   20.4331 N   0  0  0  0  0  0
  -31.7416  -14.6911   20.0379 O   0  0  0  0  0  0
  -21.6637   -6.8882   21.4249 O   0  0  0  0  0  0
  -22.3621  -14.5599   20.6660 O   0  0  0  0  0  0
  -24.6119  -31.8694   23.2095 C   0  0  0  0  0  0
  -25.9028  -32.4837   23.8389 C   0  0  1  0  0  0
  -27.2468  -27.4549   20.1169 C   0  0  0  0  0  0
  -25.5896  -33.8640   24.2336 N   0  0  0  0  0  0
  -23.4038  -30.4853   21.5476 C   0  0  2  0  0  0
  -24.8576  -28.9514   20.1156 C   0  0  0  0  0  0
  -22.7391  -29.4651   22.4966 C   0  0  0  0  0  0
  -18.0269  -28.1377   22.8508 C   0  0  0  0  0  0
  -24.1467  -36.7303   23.2647 C   0  0  0  0  0  0
  -25.9262  -30.8387   21.3637 C   0  0  0  0  0  0
  -26.0095  -29.4705   20.7237 C   0  0  0  0  0  0
  -27.2078  -28.7238   20.7300 C   0  0  0  0  0  0
  -26.0875  -26.9449   19.4961 C   0  0  0  0  0  0
  -24.8906  -27.6894   19.4958 C   0  0  0  0  0  0
  -23.6154  -29.8126   20.1623 C   0  0  0  0  0  0
  -25.4103  -36.3116   24.0342 C   0  0  1  0  0  0
  -20.5857  -28.3687   23.1342 C   0  0  2  0  0  0
  -20.6806  -26.9431   22.5386 C   0  0  0  0  0  0
  -19.5757  -26.6356   21.5224 C   0  0  0  0  0  0
  -18.1920  -26.7923   22.1620 C   0  0  0  0  0  0
  -19.1510  -28.8838   23.2931 C   0  0  0  0  0  0
  -18.9425  -30.1452   23.8924 C   0  0  0  0  0  0
  -17.6419  -30.6576   24.0584 C   0  0  0  0  0  0
  -25.9028  -34.9491   23.5129 C   0  0  0  0  0  0
  -16.5336  -29.9083   23.6297 C   0  0  0  0  0  0
  -16.7259  -28.6505   23.0312 C   0  0  0  0  0  0
  -26.4457  -31.6591   25.0683 C   0  0  0  0  0  0
  -25.3751  -31.3641   26.1430 C   0  0  0  0  0  0
  -27.0296  -30.3062   24.6008 C   0  0  0  0  0  0
  -27.6027  -32.4302   25.7440 C   0  0  0  0  0  0
  -27.5566  -37.1812   24.8469 C   0  0  0  0  0  0
  -21.4117  -29.3059   22.3733 N   0  0  0  0  0  0
  -26.4277  -37.3811   23.9397 N   0  0  0  0  0  0
  -24.6652  -31.0780   22.1006 N   0  0  0  0  0  0
  -23.4170  -28.8183   23.2984 O   0  0  0  0  0  0
  -28.4071  -26.7220   20.0886 O   0  0  0  0  0  0
  -26.5557  -34.8941   22.4663 O   0  0  0  0  0  0
  -23.5307  -32.1458   23.7472 O   0  0  0  0  0  0
  -30.5450  -18.8597   22.2334 C   0  0  0  0  0  0
  -29.0473  -17.1687   20.5666 C   0  0  0  0  0  0
  -29.4890  -19.4039   21.4657 C   0  0  0  0  0  0
  -30.0430  -16.6193   21.4064 C   0  0  0  0  0  0
  -30.8112  -17.4765   22.2201 C   0  0  0  0  0  0
  -28.7758  -18.5541   20.5838 C   0  0  0  0  0  0
  -29.0152  -20.8276   21.7620 C   0  0  0  0  0  0
  -29.0611  -24.3827   20.4217 C   0  0  0  0  0  0
  -29.2452  -23.2549   21.4655 C   0  0  0  0  0  0
  -28.4667  -25.6644   21.0524 C   0  0  0  0  0  0
  -30.1531  -15.2144   21.5439 N   0  0  0  0  0  0
  -29.5278  -21.9122   20.8904 N   0  3  0  0  0  0
  -32.0267  -16.8413   23.2719 Cl  0  0  0  0  0  0
  -27.5153  -19.1693   19.5740 Cl  0  0  0  0  0  0
  -31.4743  -12.3651   19.1450 H   0  0  0  0  0  0
  -30.3050  -11.2477   19.7846 H   0  0  0  0  0  0
  -29.7512  -11.8290   17.4054 H   0  0  0  0  0  0
  -29.6980  -13.5218   17.8161 H   0  0  0  0  0  0
  -27.8262  -11.3201   18.7730 H   0  0  0  0  0  0
  -27.3897  -12.6828   17.7699 H   0  0  0  0  0  0
  -27.7242  -14.2467   19.6020 H   0  0  0  0  0  0
  -28.6395  -11.8926   21.3255 H   0  0  0  0  0  0
  -28.4218  -13.5145   21.8848 H   0  0  0  0  0  0
  -25.2730   -9.5740   22.4746 H   0  0  0  0  0  0
  -24.0008   -7.4665   22.7475 H   0  0  0  0  0  0
  -21.0815   -8.8712   19.8959 H   0  0  0  0  0  0
  -22.3619  -10.9646   19.6134 H   0  0  0  0  0  0
  -21.1980   -7.6148   23.9729 H   0  0  0  0  0  0
  -21.1488   -6.0499   25.9090 H   0  0  0  0  0  0
  -22.0612   -2.7605   23.2779 H   0  0  0  0  0  0
  -22.4010  -11.9968   22.4742 H   0  0  0  0  0  0
  -21.1059  -13.1347   22.2448 H   0  0  0  0  0  0
  -24.6827  -15.8389   20.6114 H   0  0  0  0  0  0
  -26.2847  -15.6386   20.1161 H   0  0  0  0  0  0
  -26.7132  -32.5609   23.1192 H   0  0  0  0  0  0
  -25.0104  -33.9797   25.0520 H   0  0  0  0  0  0
  -22.6965  -31.3045   21.4047 H   0  0  0  0  0  0
  -23.3751  -35.9612   23.3320 H   0  0  0  0  0  0
  -24.3561  -36.8888   22.2049 H   0  0  0  0  0  0
  -23.7184  -37.6506   23.6640 H   0  0  0  0  0  0
  -26.0284  -31.5972   20.5881 H   0  0  0  0  0  0
  -26.8189  -30.9089   21.9718 H   0  0  0  0  0  0
  -28.0963  -29.1125   21.2088 H   0  0  0  0  0  0
  -26.1211  -25.9794   19.0108 H   0  0  0  0  0  0
  -24.0138  -27.2904   19.0058 H   0  0  0  0  0  0
  -23.7179  -30.5829   19.3968 H   0  0  0  0  0  0
  -22.7451  -29.2181   19.8754 H   0  0  0  0  0  0
  -25.1295  -36.1984   25.0841 H   0  0  0  0  0  0
  -21.0013  -28.3239   24.1444 H   0  0  0  0  0  0
  -20.5835  -26.2259   23.3542 H   0  0  0  0  0  0
  -21.6668  -26.7553   22.1153 H   0  0  0  0  0  0
  -19.6948  -25.6254   21.1279 H   0  0  0  0  0  0
  -19.6637  -27.3133   20.6727 H   0  0  0  0  0  0
  -17.4239  -26.6710   21.3988 H   0  0  0  0  0  0
  -18.0291  -26.0054   22.8986 H   0  0  0  0  0  0
  -19.7877  -30.7322   24.2266 H   0  0  0  0  0  0
  -17.4933  -31.6261   24.5182 H   0  0  0  0  0  0
  -15.5333  -30.2993   23.7569 H   0  0  0  0  0  0
  -15.8665  -28.0868   22.6947 H   0  0  0  0  0  0
  -24.5961  -30.6963   25.7742 H   0  0  0  0  0  0
  -24.8910  -32.2764   26.4905 H   0  0  0  0  0  0
  -25.8136  -30.8781   27.0160 H   0  0  0  0  0  0
  -26.2841  -29.6844   24.1053 H   0  0  0  0  0  0
  -27.4102  -29.7236   25.4408 H   0  0  0  0  0  0
  -27.8621  -30.4410   23.9120 H   0  0  0  0  0  0
  -27.2678  -33.3626   26.1995 H   0  0  0  0  0  0
  -28.3842  -32.6830   25.0269 H   0  0  0  0  0  0
  -28.0698  -31.8451   26.5372 H   0  0  0  0  0  0
  -28.2614  -38.0091   24.7555 H   0  0  0  0  0  0
  -28.1053  -36.2630   24.6295 H   0  0  0  0  0  0
  -27.2283  -37.1444   25.8878 H   0  0  0  0  0  0
  -20.9250  -29.8822   21.7021 H   0  0  0  0  0  0
  -26.0172  -38.2881   24.1449 H   0  0  0  0  0  0
  -31.1047  -19.4831   22.9166 H   0  0  0  0  0  0
  -28.4468  -16.5263   19.9414 H   0  0  0  0  0  0
  -29.2930  -21.0442   22.7933 H   0  0  0  0  0  0
  -27.9243  -20.8406   21.7500 H   0  0  0  0  0  0
  -28.3951  -24.0488   19.6281 H   0  0  0  0  0  0
  -30.0186  -24.6110   19.9520 H   0  0  0  0  0  0
  -28.3387  -23.1978   22.0685 H   0  0  0  0  0  0
  -30.0469  -23.5158   22.1599 H   0  0  0  0  0  0
  -29.0873  -25.9915   21.8865 H   0  0  0  0  0  0
  -27.4827  -25.4445   21.4795 H   0  0  0  0  0  0
  -29.4323  -14.7798   22.1004 H   0  0  0  0  0  0
  -29.0873  -21.8346   19.9888 H   0  0  0  0  0  0
  -30.5218  -21.8051   20.7663 H   0  0  0  0  0  0
  1 25  1  0  0  0
  1 30  2  0  0  0
  1 81  1  0  0  0
  2  3  1  0  0  0
  2 25  1  0  0  0
  2 85  1  0  0  0
  2 86  1  0  0  0
  3  4  1  0  0  0
  3 87  1  0  0  0
  3 88  1  0  0  0
  4  5  1  0  0  0
  4 89  1  0  0  0
  4 90  1  0  0  0
  5  6  1  0  0  0
  5 26  1  0  0  0
  5 91  1  0  0  0
  6 25  1  0  0  0
  6 92  1  0  0  0
  6 93  1  0  0  0
  7  8  2  0  0  0
  7 26  1  0  0  0
  7 29  1  0  0  0
  8  9  1  0  0  0
  8 22  1  0  0  0
  9 10  1  0  0  0
  9 27  2  0  0  0
 10 11  2  0  0  0
 10 15  1  0  0  0
 11 12  1  0  0  0
 11 94  1  0  0  0
 12 13  2  0  0  0
 12 95  1  0  0  0
 13 14  1  0  0  0
 13 31  1  0  0  0
 14 15  2  0  0  0
 14 96  1  0  0  0
 15 97  1  0  0  0
 16 17  2  0  0  0
 16 21  1  0  0  0
 16 31  1  0  0  0
 17 18  1  0  0  0
 17 98  1  0  0  0
 18 19  2  0  0  0
 18 99  1  0  0  0
 19 20  1  0  0  0
 19 24  1  0  0  0
 20 21  2  0  0  0
 20100  1  0  0  0
 21 23  1  0  0  0
 22 28  1  0  0  0
 22 32  2  0  0  0
 26 27  1  0  0  0
 28101  1  0  0  0
 28102  1  0  0  0
 29103  1  0  0  0
 29104  1  0  0  0
 33 34  1  0  0  0
 33 66  1  0  0  0
 33 70  2  0  0  0
 34 36  1  0  0  0
 34 59  1  0  0  0
 34105  1  0  0  0
 35 44  2  0  0  0
 35 45  1  0  0  0
 35 68  1  0  0  0
 36 56  1  0  0  0
 36106  1  0  0  0
 37 39  1  0  0  0
 37 47  1  0  0  0
 37 66  1  0  0  0
 37107  1  0  0  0
 38 43  2  0  0  0
 38 46  1  0  0  0
 38 47  1  0  0  0
 39 64  1  0  0  0
 39 67  2  0  0  0
 40 52  1  0  0  0
 40 53  2  0  0  0
 40 58  1  0  0  0
 41108  1  0  0  0
 41109  1  0  0  0
 41110  1  0  0  0
 41 48  1  0  0  0
 42 43  1  0  0  0
 42 66  1  0  0  0
 42111  1  0  0  0
 42112  1  0  0  0
 43 44  1  0  0  0
 44113  1  0  0  0
 45 46  2  0  0  0
 45114  1  0  0  0
 46115  1  0  0  0
 47116  1  0  0  0
 47117  1  0  0  0
 48 56  1  0  0  0
 48 65  1  0  0  0
 48118  1  0  0  0
 49 50  1  0  0  0
 49 53  1  0  0  0
 49 64  1  0  0  0
 49119  1  0  0  0
 50 51  1  0  0  0
 50120  1  0  0  0
 50121  1  0  0  0
 51 52  1  0  0  0
 51122  1  0  0  0
 51123  1  0  0  0
 52124  1  0  0  0
 52125  1  0  0  0
 53 54  1  0  0  0
 54 55  2  0  0  0
 54126  1  0  0  0
 55 57  1  0  0  0
 55127  1  0  0  0
 56 69  2  0  0  0
 57 58  2  0  0  0
 57128  1  0  0  0
 58129  1  0  0  0
 59 60  1  0  0  0
 59 61  1  0  0  0
 59 62  1  0  0  0
 60130  1  0  0  0
 60131  1  0  0  0
 60132  1  0  0  0
 61133  1  0  0  0
 61134  1  0  0  0
 61135  1  0  0  0
 62136  1  0  0  0
 62137  1  0  0  0
 62138  1  0  0  0
 63 65  1  0  0  0
 63139  1  0  0  0
 63140  1  0  0  0
 63141  1  0  0  0
 64142  1  0  0  0
 65143  1  0  0  0
 68 80  1  0  0  0
 71 73  2  0  0  0
 71 75  1  0  0  0
 71144  1  0  0  0
 72 74  1  0  0  0
 72 76  2  0  0  0
 72145  1  0  0  0
 73 76  1  0  0  0
 73 77  1  0  0  0
 74 75  2  0  0  0
 74 81  1  0  0  0
 75 83  1  0  0  0
 76 84  1  0  0  0
 77 82  1  0  0  0
 77146  1  0  0  0
 77147  1  0  0  0
 78 79  1  0  0  0
 78 80  1  0  0  0
 78148  1  0  0  0
 78149  1  0  0  0
 79 82  1  0  0  0
 79150  1  0  0  0
 79151  1  0  0  0
 80152  1  0  0  0
 80153  1  0  0  0
 81154  1  0  0  0
 82155  1  0  0  0
 82156  1  0  0  0
M  CHG  1  82   1
M  ISO  4   1 100  68 101  80 101  81 100
M  END
> <chiral flag>
0

> <version>
0

> <s_m_source_file>
/data/baiqing/PycharmProjects/Reinvent-master-3.2/result/LINK_invent/BTK/process_docking_weight1_custom_product_contain_oxygen_bond_distance_aromatic_linkinvent_7_9_3/rearranged_h_0039.sdf

> <i_m_source_file_index>
36

> <r_mmod_Potential_Energy-OPLS-2005>
-268.102478027344

> <r_mmod_Stretch_Energy-OPLS-2005>
33.4702491760254

> <r_mmod_Bend_Energy-OPLS-2005>
88.6516799926758

> <r_mmod_Torsional_Energy-OPLS-2005>
269.980621337891

> <r_mmod_Improper_Torsional_Energy-OPLS-2005>
5.75085401535034

> <r_mmod_Van_der_Waal_Energy-OPLS-2005>
143.211822509766

> <r_mmod_Electrostatic_Energy-OPLS-2005>
-322.545745849609

> <r_mmod_Solvation_Energy-OPLS-2005>
-494.585601806641

> <b_mmod_Minimization_Converged-OPLS-2005>
0

> <r_mmod_RMS_Derivative-OPLS-2005>
4.74846315383911

$$$$
36
                    3D
 Structure written by MMmdl.
169178  0  0  1  0            999 V2000
  -30.7177  -14.5600   20.5615 C   0  0  0  0  0  0
  -30.4264  -12.3682   19.4351 C   0  0  0  0  0  0
  -29.4945  -12.5130   18.2127 C   0  0  0  0  0  0
  -28.0201  -12.3705   18.6330 C   0  0  0  0  0  0
  -27.6579  -13.2292   19.8746 C   0  0  2  0  0  0
  -28.7073  -13.0777   20.9995 C   0  0  0  0  0  0
  -25.2553  -13.8268   20.5728 C   0  0  0  0  0  0
  -24.1813  -13.0482   20.9238 C   0  0  0  0  0  0
  -24.6393  -11.6961   20.8771 C   0  0  0  0  0  0
  -23.9065  -10.4315   21.0394 C   0  0  0  0  0  0
  -24.3623   -9.4214   21.9162 C   0  0  0  0  0  0
  -23.6298   -8.2259   22.0734 C   0  0  0  0  0  0
  -22.4283   -8.0259   21.3532 C   0  0  0  0  0  0
  -21.9896   -9.0246   20.4658 C   0  0  0  0  0  0
  -22.7231  -10.2119   20.3044 C   0  0  0  0  0  0
  -21.6869   -6.0694   22.5264 C   0  0  0  0  0  0
  -21.4023   -6.5608   23.8184 C   0  0  0  0  0  0
  -21.3691   -5.6776   24.9171 C   0  0  0  0  0  0
  -21.6050   -4.3035   24.7221 C   0  0  0  0  0  0
  -21.8845   -3.8113   23.4357 C   0  0  0  0  0  0
  -21.9217   -4.6929   22.3402 C   0  0  0  0  0  0
  -22.7838  -13.5229   21.1894 C   0  0  0  0  0  0
  -22.1675   -4.2111   21.0975 F   0  0  0  0  0  0
  -21.5635   -3.4500   25.7737 F   0  0  0  0  0  0
  -30.0283  -13.3878   20.4272 N   0  0  0  0  0  0
  -26.2996  -12.9457   20.3401 N   0  0  0  0  0  0
  -25.9330  -11.6596   20.5816 N   0  0  0  0  0  0
  -22.0470  -12.8191   22.0440 N   0  0  0  0  0  0
  -25.4283  -15.1994   20.4164 N   0  0  0  0  0  0
  -31.8407  -14.7165   20.0779 O   0  0  0  0  0  0
  -21.6685   -6.8830   21.4215 O   0  0  0  0  0  0
  -22.3499  -14.5521   20.6739 O   0  0  0  0  0  0
  -24.6241  -31.8656   23.2060 C   0  0  0  0  0  0
  -25.9100  -32.4842   23.8378 C   0  0  1  0  0  0
  -27.2389  -27.3691   20.1270 C   0  0  0  0  0  0
  -25.5934  -33.8638   24.2307 N   0  0  0  0  0  0
  -23.4179  -30.4922   21.5483 C   0  0  2  0  0  0
  -24.8661  -28.9406   20.1299 C   0  0  0  0  0  0
  -22.7469  -29.4696   22.4956 C   0  0  0  0  0  0
  -18.0300  -28.1439   22.8525 C   0  0  0  0  0  0
  -24.1466  -36.7270   23.2649 C   0  0  0  0  0  0
  -25.9562  -30.8056   21.3767 C   0  0  0  0  0  0
  -26.0323  -29.4282   20.7394 C   0  0  0  0  0  0
  -27.2231  -28.6497   20.7424 C   0  0  0  0  0  0
  -26.0585  -26.9172   19.5042 C   0  0  0  0  0  0
  -24.8774  -27.6827   19.5098 C   0  0  0  0  0  0
  -23.6330  -29.8221   20.1650 C   0  0  0  0  0  0
  -25.4110  -36.3117   24.0346 C   0  0  1  0  0  0
  -20.5901  -28.3728   23.1304 C   0  0  2  0  0  0
  -20.6799  -26.9447   22.5437 C   0  0  0  0  0  0
  -19.5758  -26.6421   21.5257 C   0  0  0  0  0  0
  -18.1933  -26.7995   22.1644 C   0  0  0  0  0  0
  -19.1557  -28.8894   23.2924 C   0  0  0  0  0  0
  -18.9496  -30.1498   23.8933 C   0  0  0  0  0  0
  -17.6501  -30.6642   24.0600 C   0  0  0  0  0  0
  -25.9053  -34.9495   23.5128 C   0  0  0  0  0  0
  -16.5382  -29.9156   23.6361 C   0  0  0  0  0  0
  -16.7291  -28.6572   23.0380 C   0  0  0  0  0  0
  -26.4479  -31.6655   25.0728 C   0  0  0  0  0  0
  -25.3693  -31.3831   26.1437 C   0  0  0  0  0  0
  -27.0295  -30.3083   24.6161 C   0  0  0  0  0  0
  -27.6051  -32.4389   25.7502 C   0  0  0  0  0  0
  -27.5582  -37.1806   24.8476 C   0  0  0  0  0  0
  -21.4189  -29.3059   22.3666 N   0  0  0  0  0  0
  -26.4283  -37.3823   23.9434 N   0  0  0  0  0  0
  -24.6851  -31.0724   22.1002 N   0  0  0  0  0  0
  -23.4207  -28.8219   23.3019 O   0  0  0  0  0  0
  -28.3561  -26.5672   19.9346 O   0  0  0  0  0  0
  -26.5623  -34.8977   22.4685 O   0  0  0  0  0  0
  -23.5413  -32.1412   23.7414 O   0  0  0  0  0  0
  -29.2676  -20.0335   22.5024 C   0  0  0  0  0  0
  -29.9400  -20.9998   21.7092 C   0  0  0  0  0  0
  -30.5072  -20.5152   20.4817 C   0  0  0  0  0  0
  -30.3632  -19.1209   20.1025 C   0  0  0  0  0  0
  -29.6756  -18.1788   20.9346 C   0  0  0  0  0  0
  -29.1451  -18.6703   22.1483 C   0  0  0  0  0  0
  -31.5857  -25.9397   21.6793 C   0  0  0  0  0  0
  -30.5761  -26.3873   20.6168 C   0  0  0  0  0  0
  -31.1264  -24.7003   22.4867 C   0  0  0  0  0  0
  -29.0648  -24.4203   21.1255 C   0  0  0  0  0  0
  -29.1436  -26.0086   21.0082 C   0  0  2  0  0  0
  -31.2979  -21.4455   19.5587 C   0  0  0  0  0  0
  -30.9265  -18.5954   18.7754 C   0  0  0  0  0  0
  -29.3963  -16.6925   20.5024 C   0  0  0  0  0  0
  -30.1157  -22.4126   22.3992 C   0  0  0  0  0  0
  -30.1151  -15.5945   21.1989 N   0  0  0  0  0  0
  -30.3076  -23.7391   21.6760 N   0  3  2  0  0  0
  -28.3285  -17.6119   23.2448 Cl  0  0  0  0  0  0
  -31.4726  -12.4618   19.1306 H   0  0  0  0  0  0
  -30.3303  -11.3662   19.8547 H   0  0  0  0  0  0
  -29.7291  -11.7650   17.4549 H   0  0  0  0  0  0
  -29.6590  -13.4824   17.7442 H   0  0  0  0  0  0
  -27.8561  -11.3196   18.8571 H   0  0  0  0  0  0
  -27.3572  -12.6089   17.7989 H   0  0  0  0  0  0
  -27.6843  -14.2698   19.5537 H   0  0  0  0  0  0
  -28.6991  -12.0626   21.3991 H   0  0  0  0  0  0
  -28.4657  -13.7325   21.8390 H   0  0  0  0  0  0
  -25.2734   -9.5705   22.4775 H   0  0  0  0  0  0
  -24.0039   -7.4652   22.7421 H   0  0  0  0  0  0
  -21.0833   -8.8729   19.8964 H   0  0  0  0  0  0
  -22.3651  -10.9658   19.6172 H   0  0  0  0  0  0
  -21.1991   -7.6120   23.9667 H   0  0  0  0  0  0
  -21.1502   -6.0514   25.9073 H   0  0  0  0  0  0
  -22.0605   -2.7573   23.2866 H   0  0  0  0  0  0
  -22.4089  -11.9873   22.4852 H   0  0  0  0  0  0
  -21.1079  -13.1170   22.2663 H   0  0  0  0  0  0
  -24.6712  -15.8584   20.5559 H   0  0  0  0  0  0
  -26.2852  -15.6394   20.1015 H   0  0  0  0  0  0
  -26.7171  -32.5542   23.1144 H   0  0  0  0  0  0
  -25.0108  -33.9784   25.0479 H   0  0  0  0  0  0
  -22.7109  -31.3122   21.4057 H   0  0  0  0  0  0
  -23.3757  -35.9566   23.3339 H   0  0  0  0  0  0
  -24.3541  -36.8830   22.2043 H   0  0  0  0  0  0
  -23.7159  -37.6479   23.6609 H   0  0  0  0  0  0
  -26.0937  -31.5629   20.6016 H   0  0  0  0  0  0
  -26.8354  -30.8548   22.0070 H   0  0  0  0  0  0
  -28.1277  -29.0407   21.1862 H   0  0  0  0  0  0
  -26.0572  -25.9645   18.9943 H   0  0  0  0  0  0
  -23.9910  -27.3031   19.0201 H   0  0  0  0  0  0
  -23.7523  -30.5922   19.4015 H   0  0  0  0  0  0
  -22.7549  -29.2488   19.8651 H   0  0  0  0  0  0
  -25.1301  -36.1981   25.0841 H   0  0  0  0  0  0
  -21.0047  -28.3314   24.1410 H   0  0  0  0  0  0
  -20.5755  -26.2339   23.3639 H   0  0  0  0  0  0
  -21.6673  -26.7512   22.1202 H   0  0  0  0  0  0
  -19.6919  -25.6335   21.1282 H   0  0  0  0  0  0
  -19.6707  -27.3250   20.6790 H   0  0  0  0  0  0
  -17.4230  -26.6792   21.4010 H   0  0  0  0  0  0
  -18.0273  -26.0144   22.9027 H   0  0  0  0  0  0
  -19.7971  -30.7312   24.2300 H   0  0  0  0  0  0
  -17.5066  -31.6324   24.5191 H   0  0  0  0  0  0
  -15.5398  -30.3079   23.7687 H   0  0  0  0  0  0
  -15.8677  -28.0908   22.7084 H   0  0  0  0  0  0
  -24.5890  -30.7157   25.7793 H   0  0  0  0  0  0
  -24.8856  -32.3005   26.4804 H   0  0  0  0  0  0
  -25.8003  -30.9084   27.0251 H   0  0  0  0  0  0
  -26.2862  -29.6893   24.1134 H   0  0  0  0  0  0
  -27.3944  -29.7305   25.4669 H   0  0  0  0  0  0
  -27.8761  -30.4412   23.9418 H   0  0  0  0  0  0
  -27.2678  -33.3709   26.2066 H   0  0  0  0  0  0
  -28.3872  -32.6926   25.0331 H   0  0  0  0  0  0
  -28.0672  -31.8500   26.5426 H   0  0  0  0  0  0
  -28.2660  -38.0064   24.7582 H   0  0  0  0  0  0
  -28.1032  -36.2622   24.6252 H   0  0  0  0  0  0
  -27.2315  -37.1411   25.8885 H   0  0  0  0  0  0
  -20.9348  -29.8743   21.6857 H   0  0  0  0  0  0
  -26.0164  -38.2909   24.1448 H   0  0  0  0  0  0
  -28.8672  -20.3217   23.4644 H   0  0  0  0  0  0
  -31.7653  -26.7690   22.3685 H   0  0  0  0  0  0
  -32.5472  -25.7581   21.1961 H   0  0  0  0  0  0
  -30.6781  -27.4541   20.4118 H   0  0  0  0  0  0
  -30.8087  -25.8879   19.6760 H   0  0  0  0  0  0
  -30.5416  -25.0470   23.3406 H   0  0  0  0  0  0
  -32.0115  -24.2190   22.9080 H   0  0  0  0  0  0
  -28.8904  -23.9913   20.1393 H   0  0  0  0  0  0
  -28.2036  -24.1608   21.7367 H   0  0  0  0  0  0
  -28.8756  -26.4813   21.9550 H   0  0  0  0  0  0
  -32.3676  -21.2312   19.6177 H   0  0  0  0  0  0
  -31.1493  -22.5078   19.7314 H   0  0  0  0  0  0
  -30.9983  -21.3049   18.5231 H   0  0  0  0  0  0
  -30.1008  -18.4020   18.0880 H   0  0  0  0  0  0
  -31.4603  -17.6517   18.9125 H   0  0  0  0  0  0
  -31.6265  -19.2537   18.2677 H   0  0  0  0  0  0
  -29.5291  -16.5768   19.4296 H   0  0  0  0  0  0
  -28.3296  -16.5025   20.6417 H   0  0  0  0  0  0
  -30.9741  -22.2581   23.0561 H   0  0  0  0  0  0
  -29.2860  -22.5578   23.0976 H   0  0  0  0  0  0
  -30.7366  -15.9967   21.8853 H   0  0  0  0  0  0
  -30.9052  -23.5206   20.8953 H   0  0  0  0  0  0
  1 25  1  0  0  0
  1 30  2  0  0  0
  1 86  1  0  0  0
  2  3  1  0  0  0
  2 25  1  0  0  0
  2 89  1  0  0  0
  2 90  1  0  0  0
  3  4  1  0  0  0
  3 91  1  0  0  0
  3 92  1  0  0  0
  4  5  1  0  0  0
  4 93  1  0  0  0
  4 94  1  0  0  0
  5  6  1  0  0  0
  5 26  1  0  0  0
  5 95  1  0  0  0
  6 25  1  0  0  0
  6 96  1  0  0  0
  6 97  1  0  0  0
  7  8  2  0  0  0
  7 26  1  0  0  0
  7 29  1  0  0  0
  8  9  1  0  0  0
  8 22  1  0  0  0
  9 10  1  0  0  0
  9 27  2  0  0  0
 10 11  2  0  0  0
 10 15  1  0  0  0
 11 12  1  0  0  0
 11 98  1  0  0  0
 12 13  2  0  0  0
 12 99  1  0  0  0
 13 14  1  0  0  0
 13 31  1  0  0  0
 14 15  2  0  0  0
 14100  1  0  0  0
 15101  1  0  0  0
 16 17  2  0  0  0
 16 21  1  0  0  0
 16 31  1  0  0  0
 17 18  1  0  0  0
 17102  1  0  0  0
 18 19  2  0  0  0
 18103  1  0  0  0
 19 20  1  0  0  0
 19 24  1  0  0  0
 20 21  2  0  0  0
 20104  1  0  0  0
 21 23  1  0  0  0
 22 28  1  0  0  0
 22 32  2  0  0  0
 26 27  1  0  0  0
 28105  1  0  0  0
 28106  1  0  0  0
 29107  1  0  0  0
 29108  1  0  0  0
 33 34  1  0  0  0
 33 66  1  0  0  0
 33 70  2  0  0  0
 34 36  1  0  0  0
 34 59  1  0  0  0
 34109  1  0  0  0
 35 44  2  0  0  0
 35 45  1  0  0  0
 35 68  1  0  0  0
 36 56  1  0  0  0
 36110  1  0  0  0
 37 39  1  0  0  0
 37 47  1  0  0  0
 37 66  1  0  0  0
 37111  1  0  0  0
 38 43  2  0  0  0
 38 46  1  0  0  0
 38 47  1  0  0  0
 39 64  1  0  0  0
 39 67  2  0  0  0
 40 52  1  0  0  0
 40 53  2  0  0  0
 40 58  1  0  0  0
 41112  1  0  0  0
 41113  1  0  0  0
 41114  1  0  0  0
 41 48  1  0  0  0
 42 43  1  0  0  0
 42 66  1  0  0  0
 42115  1  0  0  0
 42116  1  0  0  0
 43 44  1  0  0  0
 44117  1  0  0  0
 45 46  2  0  0  0
 45118  1  0  0  0
 46119  1  0  0  0
 47120  1  0  0  0
 47121  1  0  0  0
 48 56  1  0  0  0
 48 65  1  0  0  0
 48122  1  0  0  0
 49 50  1  0  0  0
 49 53  1  0  0  0
 49 64  1  0  0  0
 49123  1  0  0  0
 50 51  1  0  0  0
 50124  1  0  0  0
 50125  1  0  0  0
 51 52  1  0  0  0
 51126  1  0  0  0
 51127  1  0  0  0
 52128  1  0  0  0
 52129  1  0  0  0
 53 54  1  0  0  0
 54 55  2  0  0  0
 54130  1  0  0  0
 55 57  1  0  0  0
 55131  1  0  0  0
 56 69  2  0  0  0
 57 58  2  0  0  0
 57132  1  0  0  0
 58133  1  0  0  0
 59 60  1  0  0  0
 59 61  1  0  0  0
 59 62  1  0  0  0
 60134  1  0  0  0
 60135  1  0  0  0
 60136  1  0  0  0
 61137  1  0  0  0
 61138  1  0  0  0
 61139  1  0  0  0
 62140  1  0  0  0
 62141  1  0  0  0
 62142  1  0  0  0
 63 65  1  0  0  0
 63143  1  0  0  0
 63144  1  0  0  0
 63145  1  0  0  0
 64146  1  0  0  0
 65147  1  0  0  0
 68 81  1  0  0  0
 71 72  2  0  0  0
 71 76  1  0  0  0
 71148  1  0  0  0
 72 73  1  0  0  0
 72 85  1  0  0  0
 73 74  2  0  0  0
 73 82  1  0  0  0
 74 75  1  0  0  0
 74 83  1  0  0  0
 75 76  2  0  0  0
 75 84  1  0  0  0
 76 88  1  0  0  0
 77 78  1  0  0  0
 77 79  1  0  0  0
 77149  1  0  0  0
 77150  1  0  0  0
 78 81  1  0  0  0
 78151  1  0  0  0
 78152  1  0  0  0
 79 87  1  0  0  0
 79153  1  0  0  0
 79154  1  0  0  0
 80 81  1  0  0  0
 80 87  1  0  0  0
 80155  1  0  0  0
 80156  1  0  0  0
 81157  1  0  0  0
 82158  1  0  0  0
 82159  1  0  0  0
 82160  1  0  0  0
 83161  1  0  0  0
 83162  1  0  0  0
 83163  1  0  0  0
 84 86  1  0  0  0
 84164  1  0  0  0
 84165  1  0  0  0
 85166  1  0  0  0
 85167  1  0  0  0
 85 87  1  0  0  0
 86168  1  0  0  0
 87169  1  0  0  0
M  CHG  1  87   1
M  ISO  4   1 100  68 101  81 101  86 100
M  END
> <chiral flag>
0

> <version>
0

> <s_m_source_file>
/data/baiqing/PycharmProjects/Reinvent-master-3.2/result/LINK_invent/BTK/process_docking_weight1_custom_product_contain_oxygen_bond_distance_aromatic_linkinvent_7_9_3/rearranged_h_0039.sdf

> <i_m_source_file_index>
37

> <r_mmod_Potential_Energy-OPLS-2005>
74.3521041870117

> <r_mmod_Stretch_Energy-OPLS-2005>
77.0242309570312

> <r_mmod_Bend_Energy-OPLS-2005>
180.742614746094

> <r_mmod_Torsional_Energy-OPLS-2005>
342.251861572266

> <r_mmod_Improper_Torsional_Energy-OPLS-2005>
8.17658710479736

> <r_mmod_Van_der_Waal_Energy-OPLS-2005>
149.787643432617

> <r_mmod_Electrostatic_Energy-OPLS-2005>
-287.918670654297

> <r_mmod_Solvation_Energy-OPLS-2005>
-423.556488037109

> <b_mmod_Minimization_Converged-OPLS-2005>
0

> <r_mmod_RMS_Derivative-OPLS-2005>
6.48822832107544

$$$$
37
                    3D
 Structure written by MMmdl.
159167  0  0  1  0            999 V2000
  -30.6729  -14.4844   20.6307 C   0  0  0  0  0  0
  -30.4438  -12.3381   19.4142 C   0  0  0  0  0  0
  -29.5003  -12.5218   18.2070 C   0  0  0  0  0  0
  -28.0250  -12.3569   18.6211 C   0  0  0  0  0  0
  -27.6656  -13.1906   19.8772 C   0  0  2  0  0  0
  -28.7048  -12.9445   20.9946 C   0  0  0  0  0  0
  -25.2562  -13.8072   20.5596 C   0  0  0  0  0  0
  -24.1842  -13.0389   20.9211 C   0  0  0  0  0  0
  -24.6376  -11.6862   20.8742 C   0  0  0  0  0  0
  -23.9033  -10.4268   21.0399 C   0  0  0  0  0  0
  -24.3593   -9.4189   21.9178 C   0  0  0  0  0  0
  -23.6272   -8.2230   22.0741 C   0  0  0  0  0  0
  -22.4257   -8.0267   21.3535 C   0  0  0  0  0  0
  -21.9886   -9.0231   20.4639 C   0  0  0  0  0  0
  -22.7204  -10.2113   20.3045 C   0  0  0  0  0  0
  -21.6839   -6.0722   22.5278 C   0  0  0  0  0  0
  -21.4006   -6.5629   23.8208 C   0  0  0  0  0  0
  -21.3662   -5.6790   24.9175 C   0  0  0  0  0  0
  -21.6045   -4.3051   24.7229 C   0  0  0  0  0  0
  -21.8821   -3.8138   23.4351 C   0  0  0  0  0  0
  -21.9193   -4.6953   22.3404 C   0  0  0  0  0  0
  -22.7871  -13.5194   21.1889 C   0  0  0  0  0  0
  -22.1662   -4.2136   21.0982 F   0  0  0  0  0  0
  -21.5637   -3.4535   25.7741 F   0  0  0  0  0  0
  -30.0423  -13.2864   20.4654 N   0  0  0  0  0  0
  -26.3020  -12.9237   20.3319 N   0  0  0  0  0  0
  -25.9295  -11.6415   20.5762 N   0  0  0  0  0  0
  -22.0479  -12.8203   22.0429 N   0  0  0  0  0  0
  -25.4199  -15.1774   20.3793 N   0  0  0  0  0  0
  -31.7426  -14.7657   20.0782 O   0  0  0  0  0  0
  -21.6626   -6.8868   21.4240 O   0  0  0  0  0  0
  -22.3584  -14.5505   20.6741 O   0  0  0  0  0  0
  -24.6149  -31.8658   23.2083 C   0  0  0  0  0  0
  -25.9041  -32.4797   23.8384 C   0  0  1  0  0  0
  -27.2368  -27.4073   20.1052 C   0  0  0  0  0  0
  -25.5897  -33.8604   24.2307 N   0  0  0  0  0  0
  -23.4048  -30.4882   21.5495 C   0  0  2  0  0  0
  -24.8496  -28.9459   20.1227 C   0  0  0  0  0  0
  -22.7423  -29.4673   22.5011 C   0  0  0  0  0  0
  -18.0278  -28.1348   22.8491 C   0  0  0  0  0  0
  -24.1493  -36.7325   23.2638 C   0  0  0  0  0  0
  -25.9359  -30.8251   21.3645 C   0  0  0  0  0  0
  -26.0128  -29.4572   20.7106 C   0  0  0  0  0  0
  -27.2059  -28.6959   20.6943 C   0  0  0  0  0  0
  -26.0490  -26.9134   19.5166 C   0  0  0  0  0  0
  -24.8646  -27.6759   19.5236 C   0  0  0  0  0  0
  -23.6126  -29.8127   20.1671 C   0  0  0  0  0  0
  -25.4117  -36.3102   24.0318 C   0  0  1  0  0  0
  -20.5858  -28.3672   23.1372 C   0  0  2  0  0  0
  -20.6826  -26.9469   22.5358 C   0  0  0  0  0  0
  -19.5789  -26.6488   21.5160 C   0  0  0  0  0  0
  -18.1961  -26.7918   22.1556 C   0  0  0  0  0  0
  -19.1503  -28.8809   23.2960 C   0  0  0  0  0  0
  -18.9399  -30.1389   23.9013 C   0  0  0  0  0  0
  -17.6391  -30.6494   24.0652 C   0  0  0  0  0  0
  -25.9050  -34.9465   23.5113 C   0  0  0  0  0  0
  -16.5299  -29.9005   23.6318 C   0  0  0  0  0  0
  -16.7264  -28.6457   23.0290 C   0  0  0  0  0  0
  -26.4448  -31.6601   25.0745 C   0  0  0  0  0  0
  -25.3701  -31.3769   26.1494 C   0  0  0  0  0  0
  -27.0283  -30.3021   24.6180 C   0  0  0  0  0  0
  -27.5980  -32.4361   25.7527 C   0  0  0  0  0  0
  -27.5576  -37.1823   24.8451 C   0  0  0  0  0  0
  -21.4124  -29.3157   22.3885 N   0  0  0  0  0  0
  -26.4285  -37.3788   23.9405 N   0  0  0  0  0  0
  -24.6700  -31.0767   22.0979 N   0  0  0  0  0  0
  -23.4212  -28.8123   23.2946 O   0  0  0  0  0  0
  -28.4288  -26.7011   20.1249 O   0  0  0  0  0  0
  -26.5613  -34.8894   22.4683 O   0  0  0  0  0  0
  -23.5348  -32.1374   23.7504 O   0  0  0  0  0  0
  -28.5059  -17.1544   20.8646 C   0  0  0  0  0  0
  -30.7251  -17.7214   21.6553 C   0  0  0  0  0  0
  -29.0377  -19.5032   21.3523 C   0  0  0  0  0  0
  -28.1170  -18.5149   20.9015 C   0  0  0  0  0  0
  -29.7942  -16.7360   21.2617 C   0  0  0  0  0  0
  -30.3542  -19.0904   21.7057 C   0  0  0  0  0  0
  -28.5624  -20.8867   21.6083 C   0  0  0  0  0  0
  -26.6759  -18.8589   20.5349 C   0  0  0  0  0  0
  -28.1343  -24.3632   21.0148 C   0  0  0  0  0  0
  -27.4991  -22.9952   20.6412 C   0  0  0  0  0  0
  -28.4649  -25.2911   19.8133 C   0  0  0  0  0  0
  -28.1853  -21.2030   22.8457 N   0  0  0  0  0  0
  -30.0232  -15.3367   21.4459 N   0  0  0  0  0  0
  -28.3929  -21.8000   20.6277 N   0  3  0  0  0  0
  -31.5320  -20.2355   22.2511 Cl  0  0  0  0  0  0
  -31.4780  -12.4840   19.1039 H   0  0  0  0  0  0
  -30.3886  -11.3161   19.7936 H   0  0  0  0  0  0
  -29.7513  -11.8042   17.4246 H   0  0  0  0  0  0
  -29.6483  -13.5108   17.7721 H   0  0  0  0  0  0
  -27.8546  -11.2994   18.8226 H   0  0  0  0  0  0
  -27.3692  -12.6183   17.7883 H   0  0  0  0  0  0
  -27.7173  -14.2401   19.5899 H   0  0  0  0  0  0
  -28.6958  -11.8946   21.2912 H   0  0  0  0  0  0
  -28.4346  -13.4859   21.9013 H   0  0  0  0  0  0
  -25.2729   -9.5682   22.4756 H   0  0  0  0  0  0
  -23.9977   -7.4626   22.7462 H   0  0  0  0  0  0
  -21.0815   -8.8745   19.8952 H   0  0  0  0  0  0
  -22.3648  -10.9654   19.6163 H   0  0  0  0  0  0
  -21.1990   -7.6133   23.9707 H   0  0  0  0  0  0
  -21.1481   -6.0516   25.9076 H   0  0  0  0  0  0
  -22.0603   -2.7598   23.2851 H   0  0  0  0  0  0
  -22.4046  -11.9855   22.4841 H   0  0  0  0  0  0
  -21.1087  -13.1258   22.2579 H   0  0  0  0  0  0
  -24.6082  -15.7854   20.4068 H   0  0  0  0  0  0
  -26.1740  -15.5554   19.8235 H   0  0  0  0  0  0
  -26.7147  -32.5478   23.1180 H   0  0  0  0  0  0
  -25.0015  -33.9784   25.0428 H   0  0  0  0  0  0
  -22.6947  -31.3047   21.4062 H   0  0  0  0  0  0
  -23.3713  -35.9696   23.3308 H   0  0  0  0  0  0
  -24.3572  -36.8940   22.2048 H   0  0  0  0  0  0
  -23.7270  -37.6547   23.6651 H   0  0  0  0  0  0
  -26.0592  -31.5933   20.6005 H   0  0  0  0  0  0
  -26.8252  -30.8761   21.9821 H   0  0  0  0  0  0
  -28.1077  -29.0946   21.1376 H   0  0  0  0  0  0
  -25.9971  -25.9412   19.0526 H   0  0  0  0  0  0
  -23.9619  -27.2775   19.0810 H   0  0  0  0  0  0
  -23.7240  -30.5817   19.4024 H   0  0  0  0  0  0
  -22.7365  -29.2309   19.8742 H   0  0  0  0  0  0
  -25.1293  -36.1969   25.0800 H   0  0  0  0  0  0
  -20.9906  -28.3116   24.1518 H   0  0  0  0  0  0
  -20.5836  -26.2274   23.3511 H   0  0  0  0  0  0
  -21.6690  -26.7616   22.1100 H   0  0  0  0  0  0
  -19.6989  -25.6479   21.1020 H   0  0  0  0  0  0
  -19.6708  -27.3429   20.6798 H   0  0  0  0  0  0
  -17.4238  -26.6751   21.3917 H   0  0  0  0  0  0
  -18.0367  -26.0006   22.8900 H   0  0  0  0  0  0
  -19.7856  -30.7175   24.2476 H   0  0  0  0  0  0
  -17.4905  -31.6132   24.5334 H   0  0  0  0  0  0
  -15.5288  -30.2866   23.7606 H   0  0  0  0  0  0
  -15.8687  -28.0755   22.6954 H   0  0  0  0  0  0
  -24.5839  -30.7145   25.7858 H   0  0  0  0  0  0
  -24.8936  -32.2968   26.4905 H   0  0  0  0  0  0
  -25.8039  -30.8959   27.0268 H   0  0  0  0  0  0
  -26.2864  -29.6817   24.1132 H   0  0  0  0  0  0
  -27.3908  -29.7229   25.4683 H   0  0  0  0  0  0
  -27.8755  -30.4292   23.9428 H   0  0  0  0  0  0
  -27.2514  -33.3611   26.2138 H   0  0  0  0  0  0
  -28.3772  -32.7011   25.0376 H   0  0  0  0  0  0
  -28.0661  -31.8485   26.5432 H   0  0  0  0  0  0
  -28.2590  -38.0125   24.7486 H   0  0  0  0  0  0
  -28.1077  -36.2648   24.6297 H   0  0  0  0  0  0
  -27.2283  -37.1495   25.8850 H   0  0  0  0  0  0
  -20.9220  -29.9087   21.7328 H   0  0  0  0  0  0
  -26.0164  -38.2853   24.1425 H   0  0  0  0  0  0
  -27.7774  -16.4093   20.5871 H   0  0  0  0  0  0
  -31.7075  -17.4301   21.9937 H   0  0  0  0  0  0
  -26.1568  -18.0103   20.0896 H   0  0  0  0  0  0
  -26.6291  -19.6751   19.8136 H   0  0  0  0  0  0
  -26.1163  -19.1514   21.4251 H   0  0  0  0  0  0
  -29.0256  -24.2212   21.6263 H   0  0  0  0  0  0
  -27.4269  -24.8793   21.6660 H   0  0  0  0  0  0
  -27.0082  -23.0738   19.6704 H   0  0  0  0  0  0
  -26.6821  -22.7930   21.3397 H   0  0  0  0  0  0
  -27.8668  -25.0511   18.9387 H   0  0  0  0  0  0
  -29.4872  -25.0711   19.4992 H   0  0  0  0  0  0
  -28.2327  -20.4978   23.5657 H   0  0  0  0  0  0
  -27.8635  -22.1224   23.0986 H   0  0  0  0  0  0
  -29.2574  -14.8673   21.9035 H   0  0  0  0  0  0
  -28.8074  -21.5665   19.7324 H   0  0  0  0  0  0
  1 25  1  0  0  0
  1 30  2  0  0  0
  1 83  1  0  0  0
  2  3  1  0  0  0
  2 25  1  0  0  0
  2 86  1  0  0  0
  2 87  1  0  0  0
  3  4  1  0  0  0
  3 88  1  0  0  0
  3 89  1  0  0  0
  4  5  1  0  0  0
  4 90  1  0  0  0
  4 91  1  0  0  0
  5  6  1  0  0  0
  5 26  1  0  0  0
  5 92  1  0  0  0
  6 25  1  0  0  0
  6 93  1  0  0  0
  6 94  1  0  0  0
  7  8  2  0  0  0
  7 26  1  0  0  0
  7 29  1  0  0  0
  8  9  1  0  0  0
  8 22  1  0  0  0
  9 10  1  0  0  0
  9 27  2  0  0  0
 10 11  2  0  0  0
 10 15  1  0  0  0
 11 12  1  0  0  0
 11 95  1  0  0  0
 12 13  2  0  0  0
 12 96  1  0  0  0
 13 14  1  0  0  0
 13 31  1  0  0  0
 14 15  2  0  0  0
 14 97  1  0  0  0
 15 98  1  0  0  0
 16 17  2  0  0  0
 16 21  1  0  0  0
 16 31  1  0  0  0
 17 18  1  0  0  0
 17 99  1  0  0  0
 18 19  2  0  0  0
 18100  1  0  0  0
 19 20  1  0  0  0
 19 24  1  0  0  0
 20 21  2  0  0  0
 20101  1  0  0  0
 21 23  1  0  0  0
 22 28  1  0  0  0
 22 32  2  0  0  0
 26 27  1  0  0  0
 28102  1  0  0  0
 28103  1  0  0  0
 29104  1  0  0  0
 29105  1  0  0  0
 33 34  1  0  0  0
 33 66  1  0  0  0
 33 70  2  0  0  0
 34 36  1  0  0  0
 34 59  1  0  0  0
 34106  1  0  0  0
 35 44  2  0  0  0
 35 45  1  0  0  0
 35 68  1  0  0  0
 36 56  1  0  0  0
 36107  1  0  0  0
 37 39  1  0  0  0
 37 47  1  0  0  0
 37 66  1  0  0  0
 37108  1  0  0  0
 38 43  2  0  0  0
 38 46  1  0  0  0
 38 47  1  0  0  0
 39 64  1  0  0  0
 39 67  2  0  0  0
 40 52  1  0  0  0
 40 53  2  0  0  0
 40 58  1  0  0  0
 41109  1  0  0  0
 41110  1  0  0  0
 41111  1  0  0  0
 41 48  1  0  0  0
 42 43  1  0  0  0
 42 66  1  0  0  0
 42112  1  0  0  0
 42113  1  0  0  0
 43 44  1  0  0  0
 44114  1  0  0  0
 45 46  2  0  0  0
 45115  1  0  0  0
 46116  1  0  0  0
 47117  1  0  0  0
 47118  1  0  0  0
 48 56  1  0  0  0
 48 65  1  0  0  0
 48119  1  0  0  0
 49 50  1  0  0  0
 49 53  1  0  0  0
 49 64  1  0  0  0
 49120  1  0  0  0
 50 51  1  0  0  0
 50121  1  0  0  0
 50122  1  0  0  0
 51 52  1  0  0  0
 51123  1  0  0  0
 51124  1  0  0  0
 52125  1  0  0  0
 52126  1  0  0  0
 53 54  1  0  0  0
 54 55  2  0  0  0
 54127  1  0  0  0
 55 57  1  0  0  0
 55128  1  0  0  0
 56 69  2  0  0  0
 57 58  2  0  0  0
 57129  1  0  0  0
 58130  1  0  0  0
 59 60  1  0  0  0
 59 61  1  0  0  0
 59 62  1  0  0  0
 60131  1  0  0  0
 60132  1  0  0  0
 60133  1  0  0  0
 61134  1  0  0  0
 61135  1  0  0  0
 61136  1  0  0  0
 62137  1  0  0  0
 62138  1  0  0  0
 62139  1  0  0  0
 63 65  1  0  0  0
 63140  1  0  0  0
 63141  1  0  0  0
 63142  1  0  0  0
 64143  1  0  0  0
 65144  1  0  0  0
 68 81  1  0  0  0
 71 74  2  0  0  0
 71 75  1  0  0  0
 71145  1  0  0  0
 72 75  2  0  0  0
 72 76  1  0  0  0
 72146  1  0  0  0
 73 74  1  0  0  0
 73 76  2  0  0  0
 73 77  1  0  0  0
 74 78  1  0  0  0
 75 83  1  0  0  0
 76 85  1  0  0  0
 77 82  1  0  0  0
 77 84  2  0  0  0
 78147  1  0  0  0
 78148  1  0  0  0
 78149  1  0  0  0
 79 80  1  0  0  0
 79 81  1  0  0  0
 79150  1  0  0  0
 79151  1  0  0  0
 80 84  1  0  0  0
 80152  1  0  0  0
 80153  1  0  0  0
 81154  1  0  0  0
 81155  1  0  0  0
 82156  1  0  0  0
 82157  1  0  0  0
 83158  1  0  0  0
 84159  1  0  0  0
M  CHG  1  84   1
M  ISO  4   1 100  68 101  81 101  83 100
M  END
> <chiral flag>
0

> <version>
0

> <s_m_source_file>
/data/baiqing/PycharmProjects/Reinvent-master-3.2/result/LINK_invent/BTK/process_docking_weight1_custom_product_contain_oxygen_bond_distance_aromatic_linkinvent_7_9_3/rearranged_h_0039.sdf

> <i_m_source_file_index>
38

> <r_mmod_Potential_Energy-OPLS-2005>
-93.0949554443359

> <r_mmod_Stretch_Energy-OPLS-2005>
43.0844917297363

> <r_mmod_Bend_Energy-OPLS-2005>
112.847045898438

> <r_mmod_Torsional_Energy-OPLS-2005>
278.243713378906

> <r_mmod_Improper_Torsional_Energy-OPLS-2005>
9.67313289642334

> <r_mmod_Van_der_Waal_Energy-OPLS-2005>
147.506698608398

> <r_mmod_Electrostatic_Energy-OPLS-2005>
-281.986907958984

> <r_mmod_Solvation_Energy-OPLS-2005>
-418.040832519531

> <b_mmod_Minimization_Converged-OPLS-2005>
0

> <r_mmod_RMS_Derivative-OPLS-2005>
3.89852094650269

$$$$
38
                    3D
 Structure written by MMmdl.
170179  0  0  1  0            999 V2000
  -30.6598  -14.5419   20.5358 C   0  0  0  0  0  0
  -30.4306  -12.3441   19.4222 C   0  0  0  0  0  0
  -29.4974  -12.4995   18.2030 C   0  0  0  0  0  0
  -28.0187  -12.3511   18.6180 C   0  0  0  0  0  0
  -27.6552  -13.2075   19.8608 C   0  0  2  0  0  0
  -28.7003  -13.0215   20.9823 C   0  0  0  0  0  0
  -25.2581  -13.8149   20.5673 C   0  0  0  0  0  0
  -24.1836  -13.0435   20.9191 C   0  0  0  0  0  0
  -24.6382  -11.6897   20.8724 C   0  0  0  0  0  0
  -23.9038  -10.4296   21.0404 C   0  0  0  0  0  0
  -24.3603   -9.4216   21.9181 C   0  0  0  0  0  0
  -23.6290   -8.2241   22.0750 C   0  0  0  0  0  0
  -22.4273   -8.0278   21.3545 C   0  0  0  0  0  0
  -21.9899   -9.0244   20.4640 C   0  0  0  0  0  0
  -22.7209  -10.2129   20.3048 C   0  0  0  0  0  0
  -21.6850   -6.0736   22.5279 C   0  0  0  0  0  0
  -21.4006   -6.5636   23.8212 C   0  0  0  0  0  0
  -21.3660   -5.6788   24.9177 C   0  0  0  0  0  0
  -21.6050   -4.3051   24.7222 C   0  0  0  0  0  0
  -21.8820   -3.8143   23.4338 C   0  0  0  0  0  0
  -21.9190   -4.6961   22.3397 C   0  0  0  0  0  0
  -22.7860  -13.5244   21.1847 C   0  0  0  0  0  0
  -22.1668   -4.2147   21.0976 F   0  0  0  0  0  0
  -21.5633   -3.4533   25.7734 F   0  0  0  0  0  0
  -30.0185  -13.3456   20.4172 N   0  0  0  0  0  0
  -26.2999  -12.9312   20.3298 N   0  0  0  0  0  0
  -25.9305  -11.6477   20.5731 N   0  0  0  0  0  0
  -22.0483  -12.8243   22.0400 N   0  0  0  0  0  0
  -25.4286  -15.1867   20.4095 N   0  0  0  0  0  0
  -31.8202  -14.7127   20.1567 O   0  0  0  0  0  0
  -21.6634   -6.8875   21.4242 O   0  0  0  0  0  0
  -22.3548  -14.5549   20.6684 O   0  0  0  0  0  0
  -24.6166  -31.8667   23.2057 C   0  0  0  0  0  0
  -25.9056  -32.4807   23.8373 C   0  0  1  0  0  0
  -27.2245  -27.3982   20.1035 C   0  0  0  0  0  0
  -25.5907  -33.8608   24.2310 N   0  0  0  0  0  0
  -23.4067  -30.4907   21.5455 C   0  0  2  0  0  0
  -24.8541  -28.9495   20.1148 C   0  0  0  0  0  0
  -22.7426  -29.4669   22.4950 C   0  0  0  0  0  0
  -18.0283  -28.1397   22.8506 C   0  0  0  0  0  0
  -24.1488  -36.7304   23.2643 C   0  0  0  0  0  0
  -25.9395  -30.8204   21.3641 C   0  0  0  0  0  0
  -26.0176  -29.4512   20.7126 C   0  0  0  0  0  0
  -27.2112  -28.6844   20.7030 C   0  0  0  0  0  0
  -26.0462  -26.9208   19.4959 C   0  0  0  0  0  0
  -24.8647  -27.6843   19.5034 C   0  0  0  0  0  0
  -23.6181  -29.8217   20.1603 C   0  0  0  0  0  0
  -25.4115  -36.3101   24.0338 C   0  0  1  0  0  0
  -20.5880  -28.3683   23.1319 C   0  0  2  0  0  0
  -20.6779  -26.9419   22.5412 C   0  0  0  0  0  0
  -19.5755  -26.6402   21.5216 C   0  0  0  0  0  0
  -18.1935  -26.7943   22.1629 C   0  0  0  0  0  0
  -19.1537  -28.8857   23.2914 C   0  0  0  0  0  0
  -18.9458  -30.1467   23.8919 C   0  0  0  0  0  0
  -17.6461  -30.6599   24.0589 C   0  0  0  0  0  0
  -25.9050  -34.9472   23.5120 C   0  0  0  0  0  0
  -16.5354  -29.9106   23.6343 C   0  0  0  0  0  0
  -16.7276  -28.6530   23.0356 C   0  0  0  0  0  0
  -26.4470  -31.6587   25.0703 C   0  0  0  0  0  0
  -25.3725  -31.3717   26.1443 C   0  0  0  0  0  0
  -27.0302  -30.3029   24.6080 C   0  0  0  0  0  0
  -27.6043  -32.4305   25.7473 C   0  0  0  0  0  0
  -27.5586  -37.1817   24.8471 C   0  0  0  0  0  0
  -21.4148  -29.3045   22.3711 N   0  0  0  0  0  0
  -26.4295  -37.3790   23.9417 N   0  0  0  0  0  0
  -24.6728  -31.0750   22.0961 N   0  0  0  0  0  0
  -23.4201  -28.8203   23.2984 O   0  0  0  0  0  0
  -28.3446  -26.5862   20.0956 O   0  0  0  0  0  0
  -26.5597  -34.8917   22.4679 O   0  0  0  0  0  0
  -23.5352  -32.1427   23.7433 O   0  0  0  0  0  0
  -29.4848  -18.0747   19.2408 C   0  0  0  0  0  0
  -28.6006  -20.3535   19.1856 C   0  0  0  0  0  0
  -29.6997  -18.1582   20.6318 C   0  0  0  0  0  0
  -28.7641  -20.4867   20.5803 C   0  0  0  0  0  0
  -29.3749  -19.3956   21.2936 C   0  0  0  0  0  0
  -28.9629  -19.1662   18.5210 C   0  0  0  0  0  0
  -27.9850  -21.9138   24.8201 C   0  0  0  0  0  0
  -28.9046  -22.5218   24.0535 C   0  0  0  0  0  0
  -29.3984  -24.7958   23.2313 C   0  0  0  0  0  0
  -29.1981  -25.9124   22.1981 C   0  0  0  0  0  0
  -28.7374  -24.0660   20.4995 C   0  0  0  0  0  0
  -28.5951  -23.5094   22.9412 C   0  0  1  0  0  0
  -28.2993  -25.4820   21.0373 C   0  0  2  0  0  0
  -29.6773  -19.5683   22.7725 C   0  0  0  0  0  0
  -30.3240  -16.9318   21.3593 C   0  0  0  0  0  0
  -28.0724  -21.7085   21.2652 C   0  0  0  0  0  0
  -29.8907  -15.5742   20.9559 N   0  0  0  0  0  0
  -28.8535  -22.9734   21.5565 N   0  3  1  0  0  0
  -28.7235  -19.0307   16.8174 Cl  0  0  0  0  0  0
  -31.4725  -12.4634   19.1198 H   0  0  0  0  0  0
  -30.3563  -11.3395   19.8422 H   0  0  0  0  0  0
  -29.7482  -11.7608   17.4406 H   0  0  0  0  0  0
  -29.6509  -13.4767   17.7436 H   0  0  0  0  0  0
  -27.8417  -11.2962   18.8330 H   0  0  0  0  0  0
  -27.3646  -12.6036   17.7824 H   0  0  0  0  0  0
  -27.6862  -14.2489   19.5389 H   0  0  0  0  0  0
  -28.6952  -11.9911   21.3403 H   0  0  0  0  0  0
  -28.4581  -13.6343   21.8520 H   0  0  0  0  0  0
  -25.2751   -9.5695   22.4757 H   0  0  0  0  0  0
  -24.0003   -7.4628   22.7468 H   0  0  0  0  0  0
  -21.0830   -8.8745   19.8947 H   0  0  0  0  0  0
  -22.3662  -10.9665   19.6154 H   0  0  0  0  0  0
  -21.1991   -7.6144   23.9714 H   0  0  0  0  0  0
  -21.1492   -6.0521   25.9083 H   0  0  0  0  0  0
  -22.0597   -2.7603   23.2831 H   0  0  0  0  0  0
  -22.4087  -11.9909   22.4805 H   0  0  0  0  0  0
  -21.1095  -13.1267   22.2571 H   0  0  0  0  0  0
  -24.6561  -15.8358   20.5143 H   0  0  0  0  0  0
  -26.2725  -15.6279   20.0663 H   0  0  0  0  0  0
  -26.7124  -32.5516   23.1136 H   0  0  0  0  0  0
  -25.0061  -33.9763   25.0454 H   0  0  0  0  0  0
  -22.6961  -31.3087   21.4056 H   0  0  0  0  0  0
  -23.3742  -35.9643   23.3301 H   0  0  0  0  0  0
  -24.3585  -36.8906   22.2057 H   0  0  0  0  0  0
  -23.7219  -37.6505   23.6646 H   0  0  0  0  0  0
  -26.0556  -31.5816   20.5919 H   0  0  0  0  0  0
  -26.8271  -30.8755   21.9840 H   0  0  0  0  0  0
  -28.1073  -29.0640   21.1747 H   0  0  0  0  0  0
  -26.0394  -25.9486   19.0226 H   0  0  0  0  0  0
  -23.9697  -27.2956   19.0377 H   0  0  0  0  0  0
  -23.7290  -30.5964   19.4000 H   0  0  0  0  0  0
  -22.7403  -29.2444   19.8630 H   0  0  0  0  0  0
  -25.1287  -36.1970   25.0826 H   0  0  0  0  0  0
  -21.0000  -28.3246   24.1434 H   0  0  0  0  0  0
  -20.5698  -26.2286   23.3596 H   0  0  0  0  0  0
  -21.6653  -26.7479   22.1206 H   0  0  0  0  0  0
  -19.6904  -25.6312   21.1238 H   0  0  0  0  0  0
  -19.6692  -27.3232   20.6758 H   0  0  0  0  0  0
  -17.4213  -26.6726   21.4020 H   0  0  0  0  0  0
  -18.0343  -26.0060   22.9008 H   0  0  0  0  0  0
  -19.7927  -30.7305   24.2281 H   0  0  0  0  0  0
  -17.5006  -31.6280   24.5193 H   0  0  0  0  0  0
  -15.5359  -30.3027   23.7631 H   0  0  0  0  0  0
  -15.8678  -28.0862   22.7042 H   0  0  0  0  0  0
  -24.5905  -30.7047   25.7783 H   0  0  0  0  0  0
  -24.8912  -32.2886   26.4864 H   0  0  0  0  0  0
  -25.8074  -30.8910   27.0217 H   0  0  0  0  0  0
  -26.2854  -29.6795   24.1117 H   0  0  0  0  0  0
  -27.4047  -29.7249   25.4538 H   0  0  0  0  0  0
  -27.8692  -30.4339   23.9244 H   0  0  0  0  0  0
  -27.2671  -33.3610   26.2056 H   0  0  0  0  0  0
  -28.3864  -32.6856   25.0309 H   0  0  0  0  0  0
  -28.0690  -31.8415   26.5388 H   0  0  0  0  0  0
  -28.2617  -38.0109   24.7532 H   0  0  0  0  0  0
  -28.1067  -36.2643   24.6283 H   0  0  0  0  0  0
  -27.2312  -37.1450   25.8876 H   0  0  0  0  0  0
  -20.9293  -29.8752   21.6933 H   0  0  0  0  0  0
  -26.0173  -38.2863   24.1416 H   0  0  0  0  0  0
  -29.7361  -17.1689   18.7078 H   0  0  0  0  0  0
  -28.1439  -21.1499   18.6167 H   0  0  0  0  0  0
  -28.2793  -21.2286   25.6028 H   0  0  0  0  0  0
  -26.9252  -22.0843   24.6825 H   0  0  0  0  0  0
  -29.9504  -22.3221   24.2364 H   0  0  0  0  0  0
  -29.1237  -25.1764   24.2163 H   0  0  0  0  0  0
  -30.4608  -24.5566   23.2970 H   0  0  0  0  0  0
  -30.1704  -26.2127   21.8066 H   0  0  0  0  0  0
  -28.7822  -26.7999   22.6770 H   0  0  0  0  0  0
  -29.7132  -24.1584   20.0223 H   0  0  0  0  0  0
  -28.0501  -23.7691   19.7070 H   0  0  0  0  0  0
  -27.5286  -23.7366   23.0147 H   0  0  0  0  0  0
  -27.2814  -25.3748   21.4193 H   0  0  0  0  0  0
  -30.4173  -18.8758   23.1649 H   0  0  0  0  0  0
  -28.7705  -19.4869   23.3724 H   0  0  0  0  0  0
  -30.1288  -20.5426   22.9223 H   0  0  0  0  0  0
  -30.0855  -16.9613   22.4201 H   0  0  0  0  0  0
  -31.4085  -17.0182   21.2902 H   0  0  0  0  0  0
  -27.6239  -21.3134   22.1741 H   0  0  0  0  0  0
  -27.1902  -21.9751   20.6814 H   0  0  0  0  0  0
  -28.9303  -15.3424   21.1590 H   0  0  0  0  0  0
  -29.8212  -22.6898   21.5502 H   0  0  0  0  0  0
  1 25  1  0  0  0
  1 30  2  0  0  0
  1 87  1  0  0  0
  2  3  1  0  0  0
  2 25  1  0  0  0
  2 90  1  0  0  0
  2 91  1  0  0  0
  3  4  1  0  0  0
  3 92  1  0  0  0
  3 93  1  0  0  0
  4  5  1  0  0  0
  4 94  1  0  0  0
  4 95  1  0  0  0
  5  6  1  0  0  0
  5 26  1  0  0  0
  5 96  1  0  0  0
  6 25  1  0  0  0
  6 97  1  0  0  0
  6 98  1  0  0  0
  7  8  2  0  0  0
  7 26  1  0  0  0
  7 29  1  0  0  0
  8  9  1  0  0  0
  8 22  1  0  0  0
  9 10  1  0  0  0
  9 27  2  0  0  0
 10 11  2  0  0  0
 10 15  1  0  0  0
 11 12  1  0  0  0
 11 99  1  0  0  0
 12 13  2  0  0  0
 12100  1  0  0  0
 13 14  1  0  0  0
 13 31  1  0  0  0
 14 15  2  0  0  0
 14101  1  0  0  0
 15102  1  0  0  0
 16 17  2  0  0  0
 16 21  1  0  0  0
 16 31  1  0  0  0
 17 18  1  0  0  0
 17103  1  0  0  0
 18 19  2  0  0  0
 18104  1  0  0  0
 19 20  1  0  0  0
 19 24  1  0  0  0
 20 21  2  0  0  0
 20105  1  0  0  0
 21 23  1  0  0  0
 22 28  1  0  0  0
 22 32  2  0  0  0
 26 27  1  0  0  0
 28106  1  0  0  0
 28107  1  0  0  0
 29108  1  0  0  0
 29109  1  0  0  0
 33 34  1  0  0  0
 33 66  1  0  0  0
 33 70  2  0  0  0
 34 36  1  0  0  0
 34 59  1  0  0  0
 34110  1  0  0  0
 35 44  2  0  0  0
 35 45  1  0  0  0
 35 68  1  0  0  0
 36 56  1  0  0  0
 36111  1  0  0  0
 37 39  1  0  0  0
 37 47  1  0  0  0
 37 66  1  0  0  0
 37112  1  0  0  0
 38 43  2  0  0  0
 38 46  1  0  0  0
 38 47  1  0  0  0
 39 64  1  0  0  0
 39 67  2  0  0  0
 40 52  1  0  0  0
 40 53  2  0  0  0
 40 58  1  0  0  0
 41113  1  0  0  0
 41114  1  0  0  0
 41115  1  0  0  0
 41 48  1  0  0  0
 42 43  1  0  0  0
 42 66  1  0  0  0
 42116  1  0  0  0
 42117  1  0  0  0
 43 44  1  0  0  0
 44118  1  0  0  0
 45 46  2  0  0  0
 45119  1  0  0  0
 46120  1  0  0  0
 47121  1  0  0  0
 47122  1  0  0  0
 48 56  1  0  0  0
 48 65  1  0  0  0
 48123  1  0  0  0
 49 50  1  0  0  0
 49 53  1  0  0  0
 49 64  1  0  0  0
 49124  1  0  0  0
 50 51  1  0  0  0
 50125  1  0  0  0
 50126  1  0  0  0
 51 52  1  0  0  0
 51127  1  0  0  0
 51128  1  0  0  0
 52129  1  0  0  0
 52130  1  0  0  0
 53 54  1  0  0  0
 54 55  2  0  0  0
 54131  1  0  0  0
 55 57  1  0  0  0
 55132  1  0  0  0
 56 69  2  0  0  0
 57 58  2  0  0  0
 57133  1  0  0  0
 58134  1  0  0  0
 59 60  1  0  0  0
 59 61  1  0  0  0
 59 62  1  0  0  0
 60135  1  0  0  0
 60136  1  0  0  0
 60137  1  0  0  0
 61138  1  0  0  0
 61139  1  0  0  0
 61140  1  0  0  0
 62141  1  0  0  0
 62142  1  0  0  0
 62143  1  0  0  0
 63 65  1  0  0  0
 63144  1  0  0  0
 63145  1  0  0  0
 63146  1  0  0  0
 64147  1  0  0  0
 65148  1  0  0  0
 68 83  1  0  0  0
 71 73  2  0  0  0
 71 76  1  0  0  0
 71149  1  0  0  0
 72 74  1  0  0  0
 72 76  2  0  0  0
 72150  1  0  0  0
 73 75  1  0  0  0
 73 85  1  0  0  0
 74 75  2  0  0  0
 74 86  1  0  0  0
 75 84  1  0  0  0
 76 89  1  0  0  0
 77 78  2  0  0  0
 77151  1  0  0  0
 77152  1  0  0  0
 78153  1  0  0  0
 78 82  1  0  0  0
 79 80  1  0  0  0
 79 82  1  0  0  0
 79154  1  0  0  0
 79155  1  0  0  0
 80 83  1  0  0  0
 80156  1  0  0  0
 80157  1  0  0  0
 81 83  1  0  0  0
 81 88  1  0  0  0
 81158  1  0  0  0
 81159  1  0  0  0
 82 88  1  0  0  0
 82160  1  0  0  0
 83161  1  0  0  0
 84162  1  0  0  0
 84163  1  0  0  0
 84164  1  0  0  0
 85 87  1  0  0  0
 85165  1  0  0  0
 85166  1  0  0  0
 86167  1  0  0  0
 86168  1  0  0  0
 86 88  1  0  0  0
 87169  1  0  0  0
 88170  1  0  0  0
M  CHG  1  88   1
M  ISO  4   1 100  68 101  83 101  87 100
M  END
> <chiral flag>
0

> <version>
0

> <s_m_source_file>
/data/baiqing/PycharmProjects/Reinvent-master-3.2/result/LINK_invent/BTK/process_docking_weight1_custom_product_contain_oxygen_bond_distance_aromatic_linkinvent_7_9_3/rearranged_h_0039.sdf

> <i_m_source_file_index>
39

> <r_mmod_Potential_Energy-OPLS-2005>
-76.4908142089844

> <r_mmod_Stretch_Energy-OPLS-2005>
61.4117660522461

> <r_mmod_Bend_Energy-OPLS-2005>
124.455558776855

> <r_mmod_Torsional_Energy-OPLS-2005>
273.986511230469

> <r_mmod_Improper_Torsional_Energy-OPLS-2005>
4.72407341003418

> <r_mmod_Van_der_Waal_Energy-OPLS-2005>
157.276397705078

> <r_mmod_Electrostatic_Energy-OPLS-2005>
-299.635498046875

> <r_mmod_Solvation_Energy-OPLS-2005>
-422.362762451172

> <b_mmod_Minimization_Converged-OPLS-2005>
0

> <r_mmod_RMS_Derivative-OPLS-2005>
2.19113326072693

$$$$
39
                    3D
 Structure written by MMmdl.
164173  0  0  1  0            999 V2000
  -30.6229  -14.6680   20.4882 C   0  0  0  0  0  0
  -30.4388  -12.4078   19.4584 C   0  0  0  0  0  0
  -29.5109  -12.5077   18.2273 C   0  0  0  0  0  0
  -28.0341  -12.3431   18.6381 C   0  0  0  0  0  0
  -27.6499  -13.2203   19.8592 C   0  0  2  0  0  0
  -28.6960  -13.0971   20.9906 C   0  0  0  0  0  0
  -25.2465  -13.8064   20.5590 C   0  0  0  0  0  0
  -24.1787  -13.0352   20.9215 C   0  0  0  0  0  0
  -24.6406  -11.6850   20.8781 C   0  0  0  0  0  0
  -23.9080  -10.4246   21.0433 C   0  0  0  0  0  0
  -24.3623   -9.4161   21.9210 C   0  0  0  0  0  0
  -23.6286   -8.2204   22.0765 C   0  0  0  0  0  0
  -22.4269   -8.0261   21.3546 C   0  0  0  0  0  0
  -21.9914   -9.0240   20.4648 C   0  0  0  0  0  0
  -22.7256  -10.2111   20.3068 C   0  0  0  0  0  0
  -21.6838   -6.0731   22.5280 C   0  0  0  0  0  0
  -21.4006   -6.5640   23.8218 C   0  0  0  0  0  0
  -21.3657   -5.6789   24.9182 C   0  0  0  0  0  0
  -21.6043   -4.3051   24.7231 C   0  0  0  0  0  0
  -21.8819   -3.8144   23.4350 C   0  0  0  0  0  0
  -21.9192   -4.6960   22.3404 C   0  0  0  0  0  0
  -22.7816  -13.5166   21.1861 C   0  0  0  0  0  0
  -22.1660   -4.2149   21.0977 F   0  0  0  0  0  0
  -21.5633   -3.4530   25.7745 F   0  0  0  0  0  0
  -30.0102  -13.4408   20.4243 N   0  0  0  0  0  0
  -26.2966  -12.9318   20.3291 N   0  0  0  0  0  0
  -25.9347  -11.6474   20.5798 N   0  0  0  0  0  0
  -22.0451  -12.8185   22.0427 N   0  0  0  0  0  0
  -25.3977  -15.1726   20.3758 N   0  0  0  0  0  0
  -31.7936  -14.8081   20.1232 O   0  0  0  0  0  0
  -21.6621   -6.8871   21.4241 O   0  0  0  0  0  0
  -22.3520  -14.5475   20.6695 O   0  0  0  0  0  0
  -24.6219  -31.8599   23.2015 C   0  0  0  0  0  0
  -25.9071  -32.4780   23.8349 C   0  0  1  0  0  0
  -27.2280  -27.3240   20.1342 C   0  0  0  0  0  0
  -25.5904  -33.8580   24.2279 N   0  0  0  0  0  0
  -23.4182  -30.4807   21.5422 C   0  0  2  0  0  0
  -24.8680  -28.9309   20.1170 C   0  0  0  0  0  0
  -22.7460  -29.4614   22.4921 C   0  0  0  0  0  0
  -18.0288  -28.1388   22.8506 C   0  0  0  0  0  0
  -24.1484  -36.7291   23.2637 C   0  0  0  0  0  0
  -25.9564  -30.7911   21.3732 C   0  0  0  0  0  0
  -26.0327  -29.4137   20.7280 C   0  0  0  0  0  0
  -27.2157  -28.6198   20.7322 C   0  0  0  0  0  0
  -26.0529  -26.8991   19.4793 C   0  0  0  0  0  0
  -24.8782  -27.6762   19.4852 C   0  0  0  0  0  0
  -23.6364  -29.8108   20.1588 C   0  0  0  0  0  0
  -25.4112  -36.3081   24.0327 C   0  0  1  0  0  0
  -20.5892  -28.3683   23.1293 C   0  0  2  0  0  0
  -20.6783  -26.9410   22.5414 C   0  0  0  0  0  0
  -19.5758  -26.6394   21.5215 C   0  0  0  0  0  0
  -18.1935  -26.7945   22.1623 C   0  0  0  0  0  0
  -19.1545  -28.8853   23.2902 C   0  0  0  0  0  0
  -18.9465  -30.1465   23.8904 C   0  0  0  0  0  0
  -17.6465  -30.6595   24.0578 C   0  0  0  0  0  0
  -25.9049  -34.9450   23.5109 C   0  0  0  0  0  0
  -16.5355  -29.9099   23.6336 C   0  0  0  0  0  0
  -16.7278  -28.6517   23.0357 C   0  0  0  0  0  0
  -26.4475  -31.6580   25.0699 C   0  0  0  0  0  0
  -25.3721  -31.3728   26.1432 C   0  0  0  0  0  0
  -27.0308  -30.3010   24.6124 C   0  0  0  0  0  0
  -27.6036  -32.4313   25.7479 C   0  0  0  0  0  0
  -27.5588  -37.1799   24.8460 C   0  0  0  0  0  0
  -21.4179  -29.3038   22.3684 N   0  0  0  0  0  0
  -26.4287  -37.3778   23.9419 N   0  0  0  0  0  0
  -24.6837  -31.0617   22.0961 N   0  0  0  0  0  0
  -23.4189  -28.8160   23.2993 O   0  0  0  0  0  0
  -28.3616  -26.5044   20.1038 O   0  0  0  0  0  0
  -26.5616  -34.8917   22.4675 O   0  0  0  0  0  0
  -23.5389  -32.1378   23.7356 O   0  0  0  0  0  0
  -28.8360  -19.4498   20.6167 C   0  0  0  0  0  0
  -31.1284  -17.8779   20.3187 C   0  0  0  0  0  0
  -30.0284  -20.1335   20.2843 C   0  0  0  0  0  0
  -28.7855  -18.0363   20.8160 C   0  0  0  0  0  0
  -31.1830  -19.2976   20.1403 C   0  0  0  0  0  0
  -29.9289  -17.1928   20.6473 C   0  0  0  0  0  0
  -29.1238  -24.0324   19.9864 C   0  0  0  0  0  0
  -27.2526  -23.2351   22.0659 C   0  0  0  0  0  0
  -27.0686  -24.6026   21.3550 C   0  0  0  0  0  0
  -28.6580  -22.5993   21.8953 C   0  0  0  0  0  0
  -28.3879  -25.1810   20.7871 C   0  0  2  0  0  0
  -27.4333  -17.4637   21.1879 C   0  0  0  0  0  0
  -32.5234  -19.8993   19.7460 C   0  0  0  0  0  0
  -30.0875  -21.6866   19.9568 C   0  0  0  0  0  0
  -29.1948  -22.7651   20.5372 N   0  0  0  0  0  0
  -29.8112  -15.7323   20.8063 N   0  0  0  0  0  0
  -29.6426  -24.3037   18.8980 O   0  0  0  0  0  0
  -31.4799  -12.5332   19.1556 H   0  0  0  0  0  0
  -30.3773  -11.4164   19.9100 H   0  0  0  0  0  0
  -29.7809  -11.7503   17.4902 H   0  0  0  0  0  0
  -29.6523  -13.4725   17.7381 H   0  0  0  0  0  0
  -27.8763  -11.2913   18.8773 H   0  0  0  0  0  0
  -27.3800  -12.5629   17.7936 H   0  0  0  0  0  0
  -27.6595  -14.2531   19.5098 H   0  0  0  0  0  0
  -28.7122  -12.0824   21.3915 H   0  0  0  0  0  0
  -28.4390  -13.7448   21.8303 H   0  0  0  0  0  0
  -25.2768   -9.5634   22.4790 H   0  0  0  0  0  0
  -23.9986   -7.4592   22.7485 H   0  0  0  0  0  0
  -21.0848   -8.8768   19.8952 H   0  0  0  0  0  0
  -22.3728  -10.9657   19.6176 H   0  0  0  0  0  0
  -21.1987   -7.6148   23.9724 H   0  0  0  0  0  0
  -21.1482   -6.0519   25.9087 H   0  0  0  0  0  0
  -22.0600   -2.7606   23.2847 H   0  0  0  0  0  0
  -22.4039  -11.9835   22.4811 H   0  0  0  0  0  0
  -21.1080  -13.1238   22.2631 H   0  0  0  0  0  0
  -24.6063  -15.8035   20.4447 H   0  0  0  0  0  0
  -26.2069  -15.5936   19.9415 H   0  0  0  0  0  0
  -26.7139  -32.5470   23.1101 H   0  0  0  0  0  0
  -25.0065  -33.9731   25.0437 H   0  0  0  0  0  0
  -22.7125  -31.3008   21.3974 H   0  0  0  0  0  0
  -23.3745  -35.9620   23.3280 H   0  0  0  0  0  0
  -24.3588  -36.8917   22.2054 H   0  0  0  0  0  0
  -23.7226  -37.6491   23.6660 H   0  0  0  0  0  0
  -26.0820  -31.5467   20.5963 H   0  0  0  0  0  0
  -26.8396  -30.8486   21.9980 H   0  0  0  0  0  0
  -28.1119  -28.9894   21.2133 H   0  0  0  0  0  0
  -26.0404  -25.9542   18.9559 H   0  0  0  0  0  0
  -23.9887  -27.3068   18.9919 H   0  0  0  0  0  0
  -23.7600  -30.5831   19.3984 H   0  0  0  0  0  0
  -22.7579  -29.2371   19.8577 H   0  0  0  0  0  0
  -25.1290  -36.1927   25.0817 H   0  0  0  0  0  0
  -21.0003  -28.3237   24.1404 H   0  0  0  0  0  0
  -20.5678  -26.2282   23.3602 H   0  0  0  0  0  0
  -21.6656  -26.7449   22.1207 H   0  0  0  0  0  0
  -19.6904  -25.6303   21.1238 H   0  0  0  0  0  0
  -19.6698  -27.3219   20.6758 H   0  0  0  0  0  0
  -17.4218  -26.6715   21.4008 H   0  0  0  0  0  0
  -18.0326  -26.0081   22.9016 H   0  0  0  0  0  0
  -19.7935  -30.7303   24.2248 H   0  0  0  0  0  0
  -17.5015  -31.6269   24.5197 H   0  0  0  0  0  0
  -15.5359  -30.3008   23.7649 H   0  0  0  0  0  0
  -15.8686  -28.0843   22.7048 H   0  0  0  0  0  0
  -24.5905  -30.7058   25.7783 H   0  0  0  0  0  0
  -24.8901  -32.2897   26.4831 H   0  0  0  0  0  0
  -25.8057  -30.8944   27.0221 H   0  0  0  0  0  0
  -26.2872  -29.6781   24.1135 H   0  0  0  0  0  0
  -27.4020  -29.7226   25.4594 H   0  0  0  0  0  0
  -27.8731  -30.4315   23.9331 H   0  0  0  0  0  0
  -27.2645  -33.3615   26.2054 H   0  0  0  0  0  0
  -28.3860  -32.6863   25.0320 H   0  0  0  0  0  0
  -28.0681  -31.8430   26.5402 H   0  0  0  0  0  0
  -28.2582  -38.0124   24.7559 H   0  0  0  0  0  0
  -28.1111  -36.2659   24.6220 H   0  0  0  0  0  0
  -27.2321  -37.1369   25.8866 H   0  0  0  0  0  0
  -20.9334  -29.8769   21.6925 H   0  0  0  0  0  0
  -26.0152  -38.2840   24.1459 H   0  0  0  0  0  0
  -27.9209  -20.0193   20.6992 H   0  0  0  0  0  0
  -32.0372  -17.3082   20.1874 H   0  0  0  0  0  0
  -26.4998  -22.5417   21.6869 H   0  0  0  0  0  0
  -27.0385  -23.3412   23.1305 H   0  0  0  0  0  0
  -26.6105  -25.3144   22.0429 H   0  0  0  0  0  0
  -26.3561  -24.4559   20.5459 H   0  0  0  0  0  0
  -28.6314  -21.5570   22.2050 H   0  0  0  0  0  0
  -29.3550  -23.0824   22.5832 H   0  0  0  0  0  0
  -29.0269  -25.3695   21.6522 H   0  0  0  0  0  0
  -26.9243  -18.1171   21.8974 H   0  0  0  0  0  0
  -27.4955  -16.4788   21.6486 H   0  0  0  0  0  0
  -26.8152  -17.4066   20.2930 H   0  0  0  0  0  0
  -33.3037  -19.1399   19.6813 H   0  0  0  0  0  0
  -32.8551  -20.6374   20.4766 H   0  0  0  0  0  0
  -32.4550  -20.3812   18.7705 H   0  0  0  0  0  0
  -30.0069  -21.7453   18.8695 H   0  0  0  0  0  0
  -31.0940  -22.0361   20.1812 H   0  0  0  0  0  0
  -28.8920  -15.4272   21.0832 H   0  0  0  0  0  0
  1 25  1  0  0  0
  1 30  2  0  0  0
  1 86  1  0  0  0
  2  3  1  0  0  0
  2 25  1  0  0  0
  2 88  1  0  0  0
  2 89  1  0  0  0
  3  4  1  0  0  0
  3 90  1  0  0  0
  3 91  1  0  0  0
  4  5  1  0  0  0
  4 92  1  0  0  0
  4 93  1  0  0  0
  5  6  1  0  0  0
  5 26  1  0  0  0
  5 94  1  0  0  0
  6 25  1  0  0  0
  6 95  1  0  0  0
  6 96  1  0  0  0
  7  8  2  0  0  0
  7 26  1  0  0  0
  7 29  1  0  0  0
  8  9  1  0  0  0
  8 22  1  0  0  0
  9 10  1  0  0  0
  9 27  2  0  0  0
 10 11  2  0  0  0
 10 15  1  0  0  0
 11 12  1  0  0  0
 11 97  1  0  0  0
 12 13  2  0  0  0
 12 98  1  0  0  0
 13 14  1  0  0  0
 13 31  1  0  0  0
 14 15  2  0  0  0
 14 99  1  0  0  0
 15100  1  0  0  0
 16 17  2  0  0  0
 16 21  1  0  0  0
 16 31  1  0  0  0
 17 18  1  0  0  0
 17101  1  0  0  0
 18 19  2  0  0  0
 18102  1  0  0  0
 19 20  1  0  0  0
 19 24  1  0  0  0
 20 21  2  0  0  0
 20103  1  0  0  0
 21 23  1  0  0  0
 22 28  1  0  0  0
 22 32  2  0  0  0
 26 27  1  0  0  0
 28104  1  0  0  0
 28105  1  0  0  0
 29106  1  0  0  0
 29107  1  0  0  0
 33 34  1  0  0  0
 33 66  1  0  0  0
 33 70  2  0  0  0
 34 36  1  0  0  0
 34 59  1  0  0  0
 34108  1  0  0  0
 35 44  2  0  0  0
 35 45  1  0  0  0
 35 68  1  0  0  0
 36 56  1  0  0  0
 36109  1  0  0  0
 37 39  1  0  0  0
 37 47  1  0  0  0
 37 66  1  0  0  0
 37110  1  0  0  0
 38 43  2  0  0  0
 38 46  1  0  0  0
 38 47  1  0  0  0
 39 64  1  0  0  0
 39 67  2  0  0  0
 40 52  1  0  0  0
 40 53  2  0  0  0
 40 58  1  0  0  0
 41111  1  0  0  0
 41112  1  0  0  0
 41113  1  0  0  0
 41 48  1  0  0  0
 42 43  1  0  0  0
 42 66  1  0  0  0
 42114  1  0  0  0
 42115  1  0  0  0
 43 44  1  0  0  0
 44116  1  0  0  0
 45 46  2  0  0  0
 45117  1  0  0  0
 46118  1  0  0  0
 47119  1  0  0  0
 47120  1  0  0  0
 48 56  1  0  0  0
 48 65  1  0  0  0
 48121  1  0  0  0
 49 50  1  0  0  0
 49 53  1  0  0  0
 49 64  1  0  0  0
 49122  1  0  0  0
 50 51  1  0  0  0
 50123  1  0  0  0
 50124  1  0  0  0
 51 52  1  0  0  0
 51125  1  0  0  0
 51126  1  0  0  0
 52127  1  0  0  0
 52128  1  0  0  0
 53 54  1  0  0  0
 54 55  2  0  0  0
 54129  1  0  0  0
 55 57  1  0  0  0
 55130  1  0  0  0
 56 69  2  0  0  0
 57 58  2  0  0  0
 57131  1  0  0  0
 58132  1  0  0  0
 59 60  1  0  0  0
 59 61  1  0  0  0
 59 62  1  0  0  0
 60133  1  0  0  0
 60134  1  0  0  0
 60135  1  0  0  0
 61136  1  0  0  0
 61137  1  0  0  0
 61138  1  0  0  0
 62139  1  0  0  0
 62140  1  0  0  0
 62141  1  0  0  0
 63 65  1  0  0  0
 63142  1  0  0  0
 63143  1  0  0  0
 63144  1  0  0  0
 64145  1  0  0  0
 65146  1  0  0  0
 68 81  1  0  0  0
 71 73  2  0  0  0
 71 74  1  0  0  0
 71147  1  0  0  0
 72 75  2  0  0  0
 72 76  1  0  0  0
 72148  1  0  0  0
 73 75  1  0  0  0
 73 84  1  0  0  0
 74 76  2  0  0  0
 74 82  1  0  0  0
 75 83  1  0  0  0
 76 86  1  0  0  0
 77 81  1  0  0  0
 77 85  1  0  0  0
 77 87  2  0  0  0
 78 79  1  0  0  0
 78 80  1  0  0  0
 78149  1  0  0  0
 78150  1  0  0  0
 79 81  1  0  0  0
 79151  1  0  0  0
 79152  1  0  0  0
 80 85  1  0  0  0
 80153  1  0  0  0
 80154  1  0  0  0
 81155  1  0  0  0
 82156  1  0  0  0
 82157  1  0  0  0
 82158  1  0  0  0
 83159  1  0  0  0
 83160  1  0  0  0
 83161  1  0  0  0
 84 85  1  0  0  0
 84162  1  0  0  0
 84163  1  0  0  0
 86164  1  0  0  0
M  ISO  4   1 100  68 101  81 101  86 100
M  END
> <chiral flag>
0

> <version>
0

> <s_m_source_file>
/data/baiqing/PycharmProjects/Reinvent-master-3.2/result/LINK_invent/BTK/process_docking_weight1_custom_product_contain_oxygen_bond_distance_aromatic_linkinvent_7_9_3/rearranged_h_0039.sdf

> <i_m_source_file_index>
40

> <r_mmod_Potential_Energy-OPLS-2005>
151.832641601562

> <r_mmod_Stretch_Energy-OPLS-2005>
90.8957901000977

> <r_mmod_Bend_Energy-OPLS-2005>
164.626556396484

> <r_mmod_Torsional_Energy-OPLS-2005>
268.000061035156

> <r_mmod_Improper_Torsional_Energy-OPLS-2005>
5.95022201538086

> <r_mmod_Van_der_Waal_Energy-OPLS-2005>
158.429351806641

> <r_mmod_Electrostatic_Energy-OPLS-2005>
-357.691772460938

> <r_mmod_Solvation_Energy-OPLS-2005>
-228.165954589844

> <b_mmod_Minimization_Converged-OPLS-2005>
0

> <r_mmod_RMS_Derivative-OPLS-2005>
1.87905216217041

$$$$
40
                    3D
 Structure written by MMmdl.
167176  0  0  1  0            999 V2000
  -30.6278  -14.6401   20.5249 C   0  0  0  0  0  0
  -30.4326  -12.3992   19.4531 C   0  0  0  0  0  0
  -29.5100  -12.5264   18.2231 C   0  0  0  0  0  0
  -28.0272  -12.3720   18.6157 C   0  0  0  0  0  0
  -27.6491  -13.2229   19.8597 C   0  0  2  0  0  0
  -28.6919  -13.0659   20.9892 C   0  0  0  0  0  0
  -25.2481  -13.8134   20.5655 C   0  0  0  0  0  0
  -24.1776  -13.0389   20.9159 C   0  0  0  0  0  0
  -24.6350  -11.6883   20.8661 C   0  0  0  0  0  0
  -23.8982  -10.4294   21.0336 C   0  0  0  0  0  0
  -24.3565   -9.4240   21.9127 C   0  0  0  0  0  0
  -23.6284   -8.2254   22.0710 C   0  0  0  0  0  0
  -22.4262   -8.0247   21.3525 C   0  0  0  0  0  0
  -21.9851   -9.0177   20.4605 C   0  0  0  0  0  0
  -22.7133  -10.2092   20.2992 C   0  0  0  0  0  0
  -21.6877   -6.0694   22.5256 C   0  0  0  0  0  0
  -21.4034   -6.5601   23.8174 C   0  0  0  0  0  0
  -21.3676   -5.6771   24.9147 C   0  0  0  0  0  0
  -21.6065   -4.3032   24.7208 C   0  0  0  0  0  0
  -21.8827   -3.8104   23.4343 C   0  0  0  0  0  0
  -21.9209   -4.6911   22.3386 C   0  0  0  0  0  0
  -22.7787  -13.5172   21.1841 C   0  0  0  0  0  0
  -22.1664   -4.2084   21.0974 F   0  0  0  0  0  0
  -21.5638   -3.4529   25.7733 F   0  0  0  0  0  0
  -30.0133  -13.4175   20.4394 N   0  0  0  0  0  0
  -26.2944  -12.9343   20.3284 N   0  0  0  0  0  0
  -25.9291  -11.6486   20.5695 N   0  0  0  0  0  0
  -22.0459  -12.8172   22.0426 N   0  0  0  0  0  0
  -25.4139  -15.1842   20.4152 N   0  0  0  0  0  0
  -31.7691  -14.8046   20.0839 O   0  0  0  0  0  0
  -21.6661   -6.8816   21.4200 O   0  0  0  0  0  0
  -22.3445  -14.5457   20.6679 O   0  0  0  0  0  0
  -24.6233  -31.8559   23.2041 C   0  0  0  0  0  0
  -25.9087  -32.4736   23.8364 C   0  0  1  0  0  0
  -27.2381  -27.3321   20.1337 C   0  0  0  0  0  0
  -25.5912  -33.8544   24.2297 N   0  0  0  0  0  0
  -23.4171  -30.4778   21.5441 C   0  0  2  0  0  0
  -24.8693  -28.9271   20.1162 C   0  0  0  0  0  0
  -22.7448  -29.4592   22.4950 C   0  0  0  0  0  0
  -18.0298  -28.1374   22.8503 C   0  0  0  0  0  0
  -24.1489  -36.7268   23.2659 C   0  0  0  0  0  0
  -25.9541  -30.7952   21.3716 C   0  0  0  0  0  0
  -26.0343  -29.4207   20.7159 C   0  0  0  0  0  0
  -27.2236  -28.6376   20.7092 C   0  0  0  0  0  0
  -26.0517  -26.8757   19.5232 C   0  0  0  0  0  0
  -24.8801  -27.6616   19.5058 C   0  0  0  0  0  0
  -23.6296  -29.8017   20.1625 C   0  0  0  0  0  0
  -25.4115  -36.3046   24.0345 C   0  0  1  0  0  0
  -20.5893  -28.3670   23.1323 C   0  0  2  0  0  0
  -20.6784  -26.9396   22.5430 C   0  0  0  0  0  0
  -19.5766  -26.6375   21.5227 C   0  0  0  0  0  0
  -18.1942  -26.7926   22.1610 C   0  0  0  0  0  0
  -19.1534  -28.8846   23.2922 C   0  0  0  0  0  0
  -18.9432  -30.1457   23.8923 C   0  0  0  0  0  0
  -17.6425  -30.6574   24.0584 C   0  0  0  0  0  0
  -25.9036  -34.9409   23.5114 C   0  0  0  0  0  0
  -16.5333  -29.9053   23.6349 C   0  0  0  0  0  0
  -16.7281  -28.6476   23.0369 C   0  0  0  0  0  0
  -26.4503  -31.6550   25.0716 C   0  0  0  0  0  0
  -25.3766  -31.3701   26.1471 C   0  0  0  0  0  0
  -27.0388  -30.2988   24.6162 C   0  0  0  0  0  0
  -27.6051  -32.4317   25.7455 C   0  0  0  0  0  0
  -27.5585  -37.1786   24.8459 C   0  0  0  0  0  0
  -21.4170  -29.2991   22.3666 N   0  0  0  0  0  0
  -26.4294  -37.3732   23.9399 N   0  0  0  0  0  0
  -24.6834  -31.0579   22.0967 N   0  0  0  0  0  0
  -23.4170  -28.8163   23.3056 O   0  0  0  0  0  0
  -28.3825  -26.5340   20.0944 O   0  0  0  0  0  0
  -26.5596  -34.8857   22.4678 O   0  0  0  0  0  0
  -23.5397  -32.1360   23.7378 O   0  0  0  0  0  0
  -28.4179  -19.0465   20.1227 C   0  0  0  0  0  0
  -29.4635  -19.9919   20.2579 C   0  0  0  0  0  0
  -30.7257  -19.4592   20.6944 C   0  0  0  0  0  0
  -30.9183  -18.0466   20.9463 C   0  0  0  0  0  0
  -29.8505  -17.1111   20.7497 C   0  0  0  0  0  0
  -28.6064  -17.6588   20.3631 C   0  0  0  0  0  0
  -29.1933  -22.7047   21.9923 C   0  0  0  0  0  0
  -28.7809  -21.8646   22.9571 C   0  0  0  0  0  0
  -30.1358  -23.8907   22.2091 C   0  0  0  0  0  0
  -29.7028  -25.2395   21.5776 C   0  0  0  0  0  0
  -28.5050  -23.9159   19.8502 C   0  0  0  0  0  0
  -28.4015  -25.2097   20.7534 C   0  0  2  0  0  0
  -31.9219  -20.3867   20.8771 C   0  0  0  0  0  0
  -32.2778  -17.5370   21.4289 C   0  0  0  0  0  0
  -29.2344  -21.4751   19.7355 C   0  0  0  0  0  0
  -29.8665  -15.6680   21.0146 N   0  0  0  0  0  0
  -28.6506  -22.5897   20.5963 N   0  3  2  0  0  0
  -27.5594  -16.8223   20.1889 F   0  0  0  0  0  0
  -31.4726  -12.5191   19.1477 H   0  0  0  0  0  0
  -30.3642  -11.4015   19.8891 H   0  0  0  0  0  0
  -29.7830  -11.7876   17.4694 H   0  0  0  0  0  0
  -29.6608  -13.5029   17.7601 H   0  0  0  0  0  0
  -27.8498  -11.3143   18.8113 H   0  0  0  0  0  0
  -27.3858  -12.6289   17.7706 H   0  0  0  0  0  0
  -27.6651  -14.2651   19.5408 H   0  0  0  0  0  0
  -28.7090  -12.0362   21.3477 H   0  0  0  0  0  0
  -28.4250  -13.6770   21.8514 H   0  0  0  0  0  0
  -25.2699   -9.5764   22.4681 H   0  0  0  0  0  0
  -24.0022   -7.4658   22.7420 H   0  0  0  0  0  0
  -21.0778   -8.8614   19.8930 H   0  0  0  0  0  0
  -22.3513  -10.9581   19.6091 H   0  0  0  0  0  0
  -21.2029   -7.6113   23.9648 H   0  0  0  0  0  0
  -21.1505   -6.0515   25.9048 H   0  0  0  0  0  0
  -22.0609   -2.7550   23.2856 H   0  0  0  0  0  0
  -22.4109  -11.9912   22.4930 H   0  0  0  0  0  0
  -21.1020  -13.1108   22.2505 H   0  0  0  0  0  0
  -24.6682  -15.8479   20.5879 H   0  0  0  0  0  0
  -26.2883  -15.6436   20.1764 H   0  0  0  0  0  0
  -26.7147  -32.5381   23.1108 H   0  0  0  0  0  0
  -25.0144  -33.9702   25.0496 H   0  0  0  0  0  0
  -22.7134  -31.2999   21.4006 H   0  0  0  0  0  0
  -23.3720  -35.9620   23.3300 H   0  0  0  0  0  0
  -24.3632  -36.8904   22.2080 H   0  0  0  0  0  0
  -23.7231  -37.6472   23.6679 H   0  0  0  0  0  0
  -26.0924  -31.5646   20.6114 H   0  0  0  0  0  0
  -26.8284  -30.8340   22.0093 H   0  0  0  0  0  0
  -28.1253  -29.0236   21.1666 H   0  0  0  0  0  0
  -26.0305  -25.9040   19.0531 H   0  0  0  0  0  0
  -23.9891  -27.2845   19.0248 H   0  0  0  0  0  0
  -23.7384  -30.5712   19.3991 H   0  0  0  0  0  0
  -22.7500  -29.2253   19.8677 H   0  0  0  0  0  0
  -25.1296  -36.1926   25.0842 H   0  0  0  0  0  0
  -21.0048  -28.3211   24.1430 H   0  0  0  0  0  0
  -20.5761  -26.2241   23.3606 H   0  0  0  0  0  0
  -21.6650  -26.7470   22.1191 H   0  0  0  0  0  0
  -19.6955  -25.6294   21.1235 H   0  0  0  0  0  0
  -19.6726  -27.3219   20.6785 H   0  0  0  0  0  0
  -17.4263  -26.6757   21.3958 H   0  0  0  0  0  0
  -18.0287  -26.0033   22.8956 H   0  0  0  0  0  0
  -19.7909  -30.7298   24.2261 H   0  0  0  0  0  0
  -17.4959  -31.6276   24.5155 H   0  0  0  0  0  0
  -15.5321  -30.2952   23.7642 H   0  0  0  0  0  0
  -15.8688  -28.0792   22.7066 H   0  0  0  0  0  0
  -24.5860  -30.7154   25.7796 H   0  0  0  0  0  0
  -24.9070  -32.2892   26.4975 H   0  0  0  0  0  0
  -25.8105  -30.8792   27.0194 H   0  0  0  0  0  0
  -26.2998  -29.6652   24.1253 H   0  0  0  0  0  0
  -27.4202  -29.7307   25.4654 H   0  0  0  0  0  0
  -27.8783  -30.4295   23.9335 H   0  0  0  0  0  0
  -27.2630  -33.3541   26.2155 H   0  0  0  0  0  0
  -28.3765  -32.7035   25.0236 H   0  0  0  0  0  0
  -28.0839  -31.8409   26.5270 H   0  0  0  0  0  0
  -28.2592  -38.0090   24.7516 H   0  0  0  0  0  0
  -28.1096  -36.2630   24.6276 H   0  0  0  0  0  0
  -27.2331  -37.1434   25.8869 H   0  0  0  0  0  0
  -20.9344  -29.8609   21.6790 H   0  0  0  0  0  0
  -26.0168  -38.2809   24.1377 H   0  0  0  0  0  0
  -27.4473  -19.3674   19.7716 H   0  0  0  0  0  0
  -29.1355  -21.9568   23.9748 H   0  0  0  0  0  0
  -28.0775  -21.0694   22.7526 H   0  0  0  0  0  0
  -31.1217  -23.6066   21.8403 H   0  0  0  0  0  0
  -30.2584  -24.0419   23.2833 H   0  0  0  0  0  0
  -30.5128  -25.5626   20.9222 H   0  0  0  0  0  0
  -29.6395  -26.0174   22.3399 H   0  0  0  0  0  0
  -29.3804  -24.0440   19.2118 H   0  0  0  0  0  0
  -27.6507  -23.8419   19.1737 H   0  0  0  0  0  0
  -27.5476  -25.1210   21.4312 H   0  0  0  0  0  0
  -31.7675  -21.4110   20.5520 H   0  0  0  0  0  0
  -32.7776  -19.9936   20.3254 H   0  0  0  0  0  0
  -32.1928  -20.4392   21.9312 H   0  0  0  0  0  0
  -32.8502  -18.2806   21.9793 H   0  0  0  0  0  0
  -32.8868  -17.2119   20.5858 H   0  0  0  0  0  0
  -32.1674  -16.6990   22.1142 H   0  0  0  0  0  0
  -28.5533  -21.3813   18.8877 H   0  0  0  0  0  0
  -30.1461  -21.8439   19.2727 H   0  0  0  0  0  0
  -28.9630  -15.3284   21.3111 H   0  0  0  0  0  0
  -27.6931  -22.2959   20.7213 H   0  0  0  0  0  0
  1 25  1  0  0  0
  1 30  2  0  0  0
  1 86  1  0  0  0
  2  3  1  0  0  0
  2 25  1  0  0  0
  2 89  1  0  0  0
  2 90  1  0  0  0
  3  4  1  0  0  0
  3 91  1  0  0  0
  3 92  1  0  0  0
  4  5  1  0  0  0
  4 93  1  0  0  0
  4 94  1  0  0  0
  5  6  1  0  0  0
  5 26  1  0  0  0
  5 95  1  0  0  0
  6 25  1  0  0  0
  6 96  1  0  0  0
  6 97  1  0  0  0
  7  8  2  0  0  0
  7 26  1  0  0  0
  7 29  1  0  0  0
  8  9  1  0  0  0
  8 22  1  0  0  0
  9 10  1  0  0  0
  9 27  2  0  0  0
 10 11  2  0  0  0
 10 15  1  0  0  0
 11 12  1  0  0  0
 11 98  1  0  0  0
 12 13  2  0  0  0
 12 99  1  0  0  0
 13 14  1  0  0  0
 13 31  1  0  0  0
 14 15  2  0  0  0
 14100  1  0  0  0
 15101  1  0  0  0
 16 17  2  0  0  0
 16 21  1  0  0  0
 16 31  1  0  0  0
 17 18  1  0  0  0
 17102  1  0  0  0
 18 19  2  0  0  0
 18103  1  0  0  0
 19 20  1  0  0  0
 19 24  1  0  0  0
 20 21  2  0  0  0
 20104  1  0  0  0
 21 23  1  0  0  0
 22 28  1  0  0  0
 22 32  2  0  0  0
 26 27  1  0  0  0
 28105  1  0  0  0
 28106  1  0  0  0
 29107  1  0  0  0
 29108  1  0  0  0
 33 34  1  0  0  0
 33 66  1  0  0  0
 33 70  2  0  0  0
 34 36  1  0  0  0
 34 59  1  0  0  0
 34109  1  0  0  0
 35 44  2  0  0  0
 35 45  1  0  0  0
 35 68  1  0  0  0
 36 56  1  0  0  0
 36110  1  0  0  0
 37 39  1  0  0  0
 37 47  1  0  0  0
 37 66  1  0  0  0
 37111  1  0  0  0
 38 43  2  0  0  0
 38 46  1  0  0  0
 38 47  1  0  0  0
 39 64  1  0  0  0
 39 67  2  0  0  0
 40 52  1  0  0  0
 40 53  2  0  0  0
 40 58  1  0  0  0
 41112  1  0  0  0
 41113  1  0  0  0
 41114  1  0  0  0
 41 48  1  0  0  0
 42 43  1  0  0  0
 42 66  1  0  0  0
 42115  1  0  0  0
 42116  1  0  0  0
 43 44  1  0  0  0
 44117  1  0  0  0
 45 46  2  0  0  0
 45118  1  0  0  0
 46119  1  0  0  0
 47120  1  0  0  0
 47121  1  0  0  0
 48 56  1  0  0  0
 48 65  1  0  0  0
 48122  1  0  0  0
 49 50  1  0  0  0
 49 53  1  0  0  0
 49 64  1  0  0  0
 49123  1  0  0  0
 50 51  1  0  0  0
 50124  1  0  0  0
 50125  1  0  0  0
 51 52  1  0  0  0
 51126  1  0  0  0
 51127  1  0  0  0
 52128  1  0  0  0
 52129  1  0  0  0
 53 54  1  0  0  0
 54 55  2  0  0  0
 54130  1  0  0  0
 55 57  1  0  0  0
 55131  1  0  0  0
 56 69  2  0  0  0
 57 58  2  0  0  0
 57132  1  0  0  0
 58133  1  0  0  0
 59 60  1  0  0  0
 59 61  1  0  0  0
 59 62  1  0  0  0
 60134  1  0  0  0
 60135  1  0  0  0
 60136  1  0  0  0
 61137  1  0  0  0
 61138  1  0  0  0
 61139  1  0  0  0
 62140  1  0  0  0
 62141  1  0  0  0
 62142  1  0  0  0
 63 65  1  0  0  0
 63143  1  0  0  0
 63144  1  0  0  0
 63145  1  0  0  0
 64146  1  0  0  0
 65147  1  0  0  0
 68 82  1  0  0  0
 71 72  2  0  0  0
 71 76  1  0  0  0
 71148  1  0  0  0
 72 73  1  0  0  0
 72 85  1  0  0  0
 73 74  2  0  0  0
 73 83  1  0  0  0
 74 75  1  0  0  0
 74 84  1  0  0  0
 75 76  2  0  0  0
 75 86  1  0  0  0
 76 88  1  0  0  0
 77 78  2  0  0  0
 77 79  1  0  0  0
 77 87  1  0  0  0
 78149  1  0  0  0
 78150  1  0  0  0
 79 80  1  0  0  0
 79151  1  0  0  0
 79152  1  0  0  0
 80 82  1  0  0  0
 80153  1  0  0  0
 80154  1  0  0  0
 81 82  1  0  0  0
 81 87  1  0  0  0
 81155  1  0  0  0
 81156  1  0  0  0
 82157  1  0  0  0
 83158  1  0  0  0
 83159  1  0  0  0
 83160  1  0  0  0
 84161  1  0  0  0
 84162  1  0  0  0
 84163  1  0  0  0
 85164  1  0  0  0
 85165  1  0  0  0
 85 87  1  0  0  0
 86166  1  0  0  0
 87167  1  0  0  0
M  CHG  1  87   1
M  ISO  4   1 100  68 101  82 101  86 100
M  END
> <chiral flag>
0

> <version>
0

> <s_m_source_file>
/data/baiqing/PycharmProjects/Reinvent-master-3.2/result/LINK_invent/BTK/process_docking_weight1_custom_product_contain_oxygen_bond_distance_aromatic_linkinvent_7_9_3/rearranged_h_0039.sdf

> <i_m_source_file_index>
41

> <r_mmod_Potential_Energy-OPLS-2005>
-28.3283367156982

> <r_mmod_Stretch_Energy-OPLS-2005>
86.4020156860352

> <r_mmod_Bend_Energy-OPLS-2005>
171.363677978516

> <r_mmod_Torsional_Energy-OPLS-2005>
272.241973876953

> <r_mmod_Improper_Torsional_Energy-OPLS-2005>
5.89912223815918

> <r_mmod_Van_der_Waal_Energy-OPLS-2005>
145.242080688477

> <r_mmod_Electrostatic_Energy-OPLS-2005>
-330.423736572266

> <r_mmod_Solvation_Energy-OPLS-2005>
-420.522308349609

> <b_mmod_Minimization_Converged-OPLS-2005>
0

> <r_mmod_RMS_Derivative-OPLS-2005>
4.85139322280884

$$$$
41
                    3D
 Structure written by MMmdl.
177185  0  0  1  0            999 V2000
  -30.6265  -14.7554   20.4326 C   0  0  0  0  0  0
  -30.4191  -12.4571   19.4783 C   0  0  0  0  0  0
  -29.5065  -12.4890   18.2348 C   0  0  0  0  0  0
  -28.0380  -12.3097   18.6584 C   0  0  0  0  0  0
  -27.6328  -13.2394   19.8364 C   0  0  2  0  0  0
  -28.6757  -13.2186   20.9760 C   0  0  0  0  0  0
  -25.2477  -13.8229   20.5686 C   0  0  0  0  0  0
  -24.1791  -13.0452   20.9228 C   0  0  0  0  0  0
  -24.6396  -11.6944   20.8780 C   0  0  0  0  0  0
  -23.9092  -10.4296   21.0438 C   0  0  0  0  0  0
  -24.3648   -9.4198   21.9196 C   0  0  0  0  0  0
  -23.6303   -8.2240   22.0749 C   0  0  0  0  0  0
  -22.4281   -8.0295   21.3542 C   0  0  0  0  0  0
  -21.9946   -9.0276   20.4632 C   0  0  0  0  0  0
  -22.7293  -10.2144   20.3047 C   0  0  0  0  0  0
  -21.6855   -6.0755   22.5290 C   0  0  0  0  0  0
  -21.4010   -6.5640   23.8230 C   0  0  0  0  0  0
  -21.3647   -5.6779   24.9186 C   0  0  0  0  0  0
  -21.6046   -4.3047   24.7224 C   0  0  0  0  0  0
  -21.8815   -3.8149   23.4340 C   0  0  0  0  0  0
  -21.9183   -4.6981   22.3409 C   0  0  0  0  0  0
  -22.7814  -13.5216   21.1903 C   0  0  0  0  0  0
  -22.1656   -4.2171   21.0986 F   0  0  0  0  0  0
  -21.5629   -3.4525   25.7733 F   0  0  0  0  0  0
  -29.9725  -13.5475   20.3796 N   0  0  0  0  0  0
  -26.2888  -12.9439   20.3228 N   0  0  0  0  0  0
  -25.9304  -11.6587   20.5739 N   0  0  0  0  0  0
  -22.0465  -12.8173   22.0448 N   0  0  0  0  0  0
  -25.4142  -15.1964   20.4157 N   0  0  0  0  0  0
  -31.8218  -14.7693   20.1242 O   0  0  0  0  0  0
  -21.6625   -6.8905   21.4255 O   0  0  0  0  0  0
  -22.3488  -14.5509   20.6746 O   0  0  0  0  0  0
  -24.6379  -31.8517   23.1986 C   0  0  0  0  0  0
  -25.9206  -32.4734   23.8329 C   0  0  1  0  0  0
  -27.1522  -27.2055   20.0947 C   0  0  0  0  0  0
  -25.6025  -33.8544   24.2258 N   0  0  0  0  0  0
  -23.4297  -30.4884   21.5476 C   0  0  2  0  0  0
  -24.8564  -28.9490   20.0880 C   0  0  0  0  0  0
  -22.7555  -29.4575   22.4892 C   0  0  0  0  0  0
  -18.0317  -28.1383   22.8417 C   0  0  0  0  0  0
  -24.1505  -36.7298   23.2638 C   0  0  0  0  0  0
  -25.9855  -30.7431   21.3865 C   0  0  0  0  0  0
  -26.0385  -29.3689   20.7147 C   0  0  0  0  0  0
  -27.1897  -28.5045   20.7167 C   0  0  0  0  0  0
  -25.9577  -26.8948   19.4034 C   0  0  0  0  0  0
  -24.8282  -27.7242   19.4174 C   0  0  0  0  0  0
  -23.6389  -29.8503   20.1543 C   0  0  0  0  0  0
  -25.4127  -36.3070   24.0324 C   0  0  1  0  0  0
  -20.5919  -28.3668   23.1269 C   0  0  2  0  0  0
  -20.6810  -26.9389   22.5401 C   0  0  0  0  0  0
  -19.5785  -26.6381   21.5218 C   0  0  0  0  0  0
  -18.1955  -26.7918   22.1599 C   0  0  0  0  0  0
  -19.1573  -28.8845   23.2829 C   0  0  0  0  0  0
  -18.9500  -30.1449   23.8835 C   0  0  0  0  0  0
  -17.6499  -30.6568   24.0547 C   0  0  0  0  0  0
  -25.9091  -34.9437   23.5109 C   0  0  0  0  0  0
  -16.5374  -29.9057   23.6351 C   0  0  0  0  0  0
  -16.7306  -28.6502   23.0308 C   0  0  0  0  0  0
  -26.4512  -31.6559   25.0746 C   0  0  0  0  0  0
  -25.3679  -31.3690   26.1441 C   0  0  0  0  0  0
  -27.0329  -30.2984   24.6246 C   0  0  0  0  0  0
  -27.6093  -32.4280   25.7483 C   0  0  0  0  0  0
  -27.5568  -37.1789   24.8470 C   0  0  0  0  0  0
  -21.4256  -29.3019   22.3649 N   0  0  0  0  0  0
  -26.4277  -37.3780   23.9411 N   0  0  0  0  0  0
  -24.7063  -31.0458   22.1013 N   0  0  0  0  0  0
  -23.4257  -28.8098   23.2952 O   0  0  0  0  0  0
  -28.1764  -26.2147   20.1706 O   0  0  0  0  0  0
  -26.5641  -34.8899   22.4658 O   0  0  0  0  0  0
  -23.5545  -32.1388   23.7304 O   0  0  0  0  0  0
  -31.1163  -18.8703   23.0845 C   0  0  0  0  0  0
  -31.7228  -17.4783   21.1940 C   0  0  0  0  0  0
  -29.5179  -18.4752   21.2871 C   0  0  0  0  0  0
  -29.8063  -18.9757   22.5867 C   0  0  0  0  0  0
  -30.3550  -17.3418   20.8563 C   0  0  0  0  0  0
  -32.1027  -18.2322   22.3157 C   0  0  0  0  0  0
  -26.8387  -14.3959   25.9681 C   0  0  0  0  0  0
  -28.9043  -19.5817   20.3914 C   0  0  0  0  0  0
  -28.9642  -20.9628   20.6147 C   0  0  0  0  0  0
  -27.0850  -15.0293   27.1277 C   0  0  0  0  0  0
  -28.4911  -23.4681   20.3452 C   0  0  0  0  0  0
  -28.3535  -22.1491   19.8989 C   0  0  0  0  0  0
  -28.7081  -18.5810   25.7499 C   0  0  0  0  0  0
  -27.5340  -21.8762   18.6421 C   0  0  0  0  0  0
  -29.5116  -19.6435   26.4635 C   0  0  0  0  0  0
  -28.7420  -19.6620   23.4431 C   0  0  0  0  0  0
  -28.4705  -15.3575   27.6645 C   0  0  0  0  0  0
  -27.8067  -24.7920   19.7701 C   0  0  0  0  0  0
  -28.7907  -16.8659   27.6376 C   0  0  0  0  0  0
  -29.8959  -15.9427   20.5808 N   0  0  0  0  0  0
  -28.3817  -17.4154   26.3426 N   0  0  0  0  0  0
  -28.2972  -18.7202   24.4724 N   0  3  0  0  0  0
  -33.7473  -18.2513   22.8271 Cl  0  0  0  0  0  0
  -31.4640  -12.5517   19.1804 H   0  0  0  0  0  0
  -30.3544  -11.4955   19.9868 H   0  0  0  0  0  0
  -29.7973  -11.7078   17.5294 H   0  0  0  0  0  0
  -29.6301  -13.4385   17.7122 H   0  0  0  0  0  0
  -27.9136  -11.2662   18.9538 H   0  0  0  0  0  0
  -27.3773  -12.4554   17.8033 H   0  0  0  0  0  0
  -27.6087  -14.2473   19.4228 H   0  0  0  0  0  0
  -28.7099  -12.2415   21.4591 H   0  0  0  0  0  0
  -28.4110  -13.9386   21.7528 H   0  0  0  0  0  0
  -25.2790   -9.5645   22.4776 H   0  0  0  0  0  0
  -24.0010   -7.4598   22.7449 H   0  0  0  0  0  0
  -21.0897   -8.8795   19.8911 H   0  0  0  0  0  0
  -22.3787  -10.9680   19.6135 H   0  0  0  0  0  0
  -21.1997   -7.6140   23.9747 H   0  0  0  0  0  0
  -21.1482   -6.0500   25.9088 H   0  0  0  0  0  0
  -22.0607   -2.7616   23.2828 H   0  0  0  0  0  0
  -22.4087  -11.9830   22.4833 H   0  0  0  0  0  0
  -21.1052  -13.1139   22.2618 H   0  0  0  0  0  0
  -24.6409  -15.8449   20.5176 H   0  0  0  0  0  0
  -26.2527  -15.6404   20.0640 H   0  0  0  0  0  0
  -26.7232  -32.5305   23.1012 H   0  0  0  0  0  0
  -25.0226  -33.9664   25.0431 H   0  0  0  0  0  0
  -22.7305  -31.3187   21.4168 H   0  0  0  0  0  0
  -23.3763  -35.9632   23.3301 H   0  0  0  0  0  0
  -24.3608  -36.8947   22.2062 H   0  0  0  0  0  0
  -23.7270  -37.6492   23.6661 H   0  0  0  0  0  0
  -26.1425  -31.5057   20.6238 H   0  0  0  0  0  0
  -26.8630  -30.7807   22.0212 H   0  0  0  0  0  0
  -28.0848  -28.8001   21.2443 H   0  0  0  0  0  0
  -25.8314  -25.9820   18.8435 H   0  0  0  0  0  0
  -23.9344  -27.4127   18.8971 H   0  0  0  0  0  0
  -23.7737  -30.6462   19.4220 H   0  0  0  0  0  0
  -22.7429  -29.3166   19.8319 H   0  0  0  0  0  0
  -25.1289  -36.1919   25.0812 H   0  0  0  0  0  0
  -20.9996  -28.3226   24.1417 H   0  0  0  0  0  0
  -20.5778  -26.2237   23.3568 H   0  0  0  0  0  0
  -21.6649  -26.7456   22.1129 H   0  0  0  0  0  0
  -19.6952  -25.6325   21.1210 H   0  0  0  0  0  0
  -19.6746  -27.3218   20.6768 H   0  0  0  0  0  0
  -17.4241  -26.6700   21.3993 H   0  0  0  0  0  0
  -18.0273  -26.0106   22.9026 H   0  0  0  0  0  0
  -19.7979  -30.7289   24.2145 H   0  0  0  0  0  0
  -17.5048  -31.6215   24.5181 H   0  0  0  0  0  0
  -15.5363  -30.2912   23.7713 H   0  0  0  0  0  0
  -15.8717  -28.0817   22.6978 H   0  0  0  0  0  0
  -24.5983  -30.6911   25.7739 H   0  0  0  0  0  0
  -24.8711  -32.2812   26.4764 H   0  0  0  0  0  0
  -25.8015  -30.8951   27.0266 H   0  0  0  0  0  0
  -26.2895  -29.6761   24.1277 H   0  0  0  0  0  0
  -27.4058  -29.7239   25.4720 H   0  0  0  0  0  0
  -27.8750  -30.4274   23.9459 H   0  0  0  0  0  0
  -27.2814  -33.3689   26.1881 H   0  0  0  0  0  0
  -28.3950  -32.6698   25.0320 H   0  0  0  0  0  0
  -28.0668  -31.8485   26.5521 H   0  0  0  0  0  0
  -28.2550  -38.0100   24.7537 H   0  0  0  0  0  0
  -28.1115  -36.2657   24.6264 H   0  0  0  0  0  0
  -27.2298  -37.1388   25.8872 H   0  0  0  0  0  0
  -20.9475  -29.8842   21.6927 H   0  0  0  0  0  0
  -26.0184  -38.2858   24.1425 H   0  0  0  0  0  0
  -31.3920  -19.3282   24.0212 H   0  0  0  0  0  0
  -32.4942  -16.8779   20.7416 H   0  0  0  0  0  0
  -25.8210  -14.2051   25.6500 H   0  0  0  0  0  0
  -27.6344  -14.0571   25.3165 H   0  0  0  0  0  0
  -28.3599  -19.2179   19.5330 H   0  0  0  0  0  0
  -29.5531  -21.2581   21.4681 H   0  0  0  0  0  0
  -26.2530  -15.3488   27.7433 H   0  0  0  0  0  0
  -29.0899  -23.6312   21.2304 H   0  0  0  0  0  0
  -27.0854  -20.8821   18.6441 H   0  0  0  0  0  0
  -28.1713  -21.9627   17.7610 H   0  0  0  0  0  0
  -26.7092  -22.5781   18.5194 H   0  0  0  0  0  0
  -28.8612  -20.4811   26.7220 H   0  0  0  0  0  0
  -30.3347  -20.0221   25.8623 H   0  0  0  0  0  0
  -29.9391  -19.2886   27.3992 H   0  0  0  0  0  0
  -27.8660  -19.9117   22.8445 H   0  0  0  0  0  0
  -29.1137  -20.6004   23.8594 H   0  0  0  0  0  0
  -29.2167  -14.8262   27.0721 H   0  0  0  0  0  0
  -28.5575  -14.9623   28.6776 H   0  0  0  0  0  0
  -26.7798  -24.6138   20.0910 H   0  0  0  0  0  0
  -27.8145  -24.7281   18.6789 H   0  0  0  0  0  0
  -29.8574  -17.0280   27.8068 H   0  0  0  0  0  0
  -28.2513  -17.3921   28.4268 H   0  0  0  0  0  0
  -28.9002  -15.8055   20.6549 H   0  0  0  0  0  0
  -27.7616  -16.7756   25.8663 H   0  0  0  0  0  0
  -27.6463  -18.0380   24.1118 H   0  0  0  0  0  0
  1 25  1  0  0  0
  1 30  2  0  0  0
  1 90  1  0  0  0
  2  3  1  0  0  0
  2 25  1  0  0  0
  2 94  1  0  0  0
  2 95  1  0  0  0
  3  4  1  0  0  0
  3 96  1  0  0  0
  3 97  1  0  0  0
  4  5  1  0  0  0
  4 98  1  0  0  0
  4 99  1  0  0  0
  5  6  1  0  0  0
  5 26  1  0  0  0
  5100  1  0  0  0
  6 25  1  0  0  0
  6101  1  0  0  0
  6102  1  0  0  0
  7  8  2  0  0  0
  7 26  1  0  0  0
  7 29  1  0  0  0
  8  9  1  0  0  0
  8 22  1  0  0  0
  9 10  1  0  0  0
  9 27  2  0  0  0
 10 11  2  0  0  0
 10 15  1  0  0  0
 11 12  1  0  0  0
 11103  1  0  0  0
 12 13  2  0  0  0
 12104  1  0  0  0
 13 14  1  0  0  0
 13 31  1  0  0  0
 14 15  2  0  0  0
 14105  1  0  0  0
 15106  1  0  0  0
 16 17  2  0  0  0
 16 21  1  0  0  0
 16 31  1  0  0  0
 17 18  1  0  0  0
 17107  1  0  0  0
 18 19  2  0  0  0
 18108  1  0  0  0
 19 20  1  0  0  0
 19 24  1  0  0  0
 20 21  2  0  0  0
 20109  1  0  0  0
 21 23  1  0  0  0
 22 28  1  0  0  0
 22 32  2  0  0  0
 26 27  1  0  0  0
 28110  1  0  0  0
 28111  1  0  0  0
 29112  1  0  0  0
 29113  1  0  0  0
 33 34  1  0  0  0
 33 66  1  0  0  0
 33 70  2  0  0  0
 34 36  1  0  0  0
 34 59  1  0  0  0
 34114  1  0  0  0
 35 44  2  0  0  0
 35 45  1  0  0  0
 35 68  1  0  0  0
 36 56  1  0  0  0
 36115  1  0  0  0
 37 39  1  0  0  0
 37 47  1  0  0  0
 37 66  1  0  0  0
 37116  1  0  0  0
 38 43  2  0  0  0
 38 46  1  0  0  0
 38 47  1  0  0  0
 39 64  1  0  0  0
 39 67  2  0  0  0
 40 52  1  0  0  0
 40 53  2  0  0  0
 40 58  1  0  0  0
 41117  1  0  0  0
 41118  1  0  0  0
 41119  1  0  0  0
 41 48  1  0  0  0
 42 43  1  0  0  0
 42 66  1  0  0  0
 42120  1  0  0  0
 42121  1  0  0  0
 43 44  1  0  0  0
 44122  1  0  0  0
 45 46  2  0  0  0
 45123  1  0  0  0
 46124  1  0  0  0
 47125  1  0  0  0
 47126  1  0  0  0
 48 56  1  0  0  0
 48 65  1  0  0  0
 48127  1  0  0  0
 49 50  1  0  0  0
 49 53  1  0  0  0
 49 64  1  0  0  0
 49128  1  0  0  0
 50 51  1  0  0  0
 50129  1  0  0  0
 50130  1  0  0  0
 51 52  1  0  0  0
 51131  1  0  0  0
 51132  1  0  0  0
 52133  1  0  0  0
 52134  1  0  0  0
 53 54  1  0  0  0
 54 55  2  0  0  0
 54135  1  0  0  0
 55 57  1  0  0  0
 55136  1  0  0  0
 56 69  2  0  0  0
 57 58  2  0  0  0
 57137  1  0  0  0
 58138  1  0  0  0
 59 60  1  0  0  0
 59 61  1  0  0  0
 59 62  1  0  0  0
 60139  1  0  0  0
 60140  1  0  0  0
 60141  1  0  0  0
 61142  1  0  0  0
 61143  1  0  0  0
 61144  1  0  0  0
 62145  1  0  0  0
 62146  1  0  0  0
 62147  1  0  0  0
 63 65  1  0  0  0
 63148  1  0  0  0
 63149  1  0  0  0
 63150  1  0  0  0
 64151  1  0  0  0
 65152  1  0  0  0
 68 88  1  0  0  0
 71 74  2  0  0  0
 71 76  1  0  0  0
 71153  1  0  0  0
 72 75  1  0  0  0
 72 76  2  0  0  0
 72154  1  0  0  0
 73 74  1  0  0  0
 73 75  2  0  0  0
 73 78  1  0  0  0
 74 86  1  0  0  0
 75 90  1  0  0  0
 76 93  1  0  0  0
 77 80  2  0  0  0
 77155  1  0  0  0
 77156  1  0  0  0
 78 79  2  0  0  0
 78157  1  0  0  0
 79 82  1  0  0  0
 79158  1  0  0  0
 80 87  1  0  0  0
 80159  1  0  0  0
 81 82  2  0  0  0
 81 88  1  0  0  0
 81160  1  0  0  0
 82 84  1  0  0  0
 83 85  1  0  0  0
 83 91  1  0  0  0
 83 92  2  0  0  0
 84161  1  0  0  0
 84162  1  0  0  0
 84163  1  0  0  0
 85164  1  0  0  0
 85165  1  0  0  0
 85166  1  0  0  0
 86 92  1  0  0  0
 86167  1  0  0  0
 86168  1  0  0  0
 87 89  1  0  0  0
 87169  1  0  0  0
 87170  1  0  0  0
 88171  1  0  0  0
 88172  1  0  0  0
 89 91  1  0  0  0
 89173  1  0  0  0
 89174  1  0  0  0
 90175  1  0  0  0
 91176  1  0  0  0
 92177  1  0  0  0
M  CHG  1  92   1
M  ISO  4   1 100  68 101  88 101  90 100
M  END
> <chiral flag>
0

> <version>
0

> <s_m_source_file>
/data/baiqing/PycharmProjects/Reinvent-master-3.2/result/LINK_invent/BTK/process_docking_weight1_custom_product_contain_oxygen_bond_distance_aromatic_linkinvent_7_9_3/rearranged_h_0039.sdf

> <i_m_source_file_index>
42

> <r_mmod_Potential_Energy-OPLS-2005>
458.182342529297

> <r_mmod_Stretch_Energy-OPLS-2005>
146.524154663086

> <r_mmod_Bend_Energy-OPLS-2005>
200.963500976562

> <r_mmod_Torsional_Energy-OPLS-2005>
427.499053955078

> <r_mmod_Improper_Torsional_Energy-OPLS-2005>
21.7167682647705

> <r_mmod_Van_der_Waal_Energy-OPLS-2005>
167.386383056641

> <r_mmod_Electrostatic_Energy-OPLS-2005>
-197.304000854492

> <r_mmod_Solvation_Energy-OPLS-2005>
-429.022674560547

> <b_mmod_Minimization_Converged-OPLS-2005>
0

> <r_mmod_RMS_Derivative-OPLS-2005>
6.07698440551758

$$$$
42
                    3D
 Structure written by MMmdl.
178187  0  0  1  0            999 V2000
  -30.7446  -14.4922   20.4245 C   0  0  0  0  0  0
  -30.4016  -12.2824   19.4407 C   0  0  0  0  0  0
  -29.4807  -12.4071   18.2100 C   0  0  0  0  0  0
  -28.0001  -12.3320   18.6227 C   0  0  0  0  0  0
  -27.6463  -13.2211   19.8473 C   0  0  2  0  0  0
  -28.6996  -13.1072   20.9720 C   0  0  0  0  0  0
  -25.2527  -13.8199   20.5701 C   0  0  0  0  0  0
  -24.1801  -13.0457   20.9206 C   0  0  0  0  0  0
  -24.6385  -11.6935   20.8786 C   0  0  0  0  0  0
  -23.9072  -10.4301   21.0439 C   0  0  0  0  0  0
  -24.3622   -9.4207   21.9200 C   0  0  0  0  0  0
  -23.6288   -8.2239   22.0766 C   0  0  0  0  0  0
  -22.4267   -8.0289   21.3561 C   0  0  0  0  0  0
  -21.9908   -9.0274   20.4669 C   0  0  0  0  0  0
  -22.7243  -10.2150   20.3081 C   0  0  0  0  0  0
  -21.6845   -6.0750   22.5284 C   0  0  0  0  0  0
  -21.4018   -6.5651   23.8221 C   0  0  0  0  0  0
  -21.3656   -5.6791   24.9175 C   0  0  0  0  0  0
  -21.6029   -4.3055   24.7222 C   0  0  0  0  0  0
  -21.8813   -3.8159   23.4334 C   0  0  0  0  0  0
  -21.9183   -4.6980   22.3402 C   0  0  0  0  0  0
  -22.7818  -13.5255   21.1831 C   0  0  0  0  0  0
  -22.1649   -4.2177   21.0972 F   0  0  0  0  0  0
  -21.5626   -3.4530   25.7727 F   0  0  0  0  0  0
  -30.0185  -13.3473   20.3771 N   0  0  0  0  0  0
  -26.2966  -12.9410   20.3319 N   0  0  0  0  0  0
  -25.9314  -11.6569   20.5819 N   0  0  0  0  0  0
  -22.0420  -12.8291   22.0391 N   0  0  0  0  0  0
  -25.4197  -15.1916   20.4107 N   0  0  0  0  0  0
  -31.9676  -14.4934   20.2966 O   0  0  0  0  0  0
  -21.6624   -6.8895   21.4249 O   0  0  0  0  0  0
  -22.3541  -14.5561   20.6651 O   0  0  0  0  0  0
  -24.6117  -31.8713   23.2130 C   0  0  0  0  0  0
  -25.9023  -32.4840   23.8422 C   0  0  1  0  0  0
  -27.2381  -27.4532   20.1103 C   0  0  0  0  0  0
  -25.5889  -33.8637   24.2353 N   0  0  0  0  0  0
  -23.3995  -30.4941   21.5514 C   0  0  2  0  0  0
  -24.8499  -28.9590   20.1212 C   0  0  0  0  0  0
  -22.7392  -29.4687   22.5004 C   0  0  0  0  0  0
  -18.0265  -28.1389   22.8495 C   0  0  0  0  0  0
  -24.1483  -36.7319   23.2638 C   0  0  0  0  0  0
  -25.9252  -30.8400   21.3672 C   0  0  0  0  0  0
  -26.0051  -29.4708   20.7283 C   0  0  0  0  0  0
  -27.2019  -28.7203   20.7354 C   0  0  0  0  0  0
  -26.0761  -26.9596   19.4863 C   0  0  0  0  0  0
  -24.8774  -27.6973   19.5019 C   0  0  0  0  0  0
  -23.6104  -29.8247   20.1665 C   0  0  0  0  0  0
  -25.4102  -36.3126   24.0347 C   0  0  1  0  0  0
  -20.5852  -28.3676   23.1322 C   0  0  2  0  0  0
  -20.6761  -26.9414   22.5427 C   0  0  0  0  0  0
  -19.5741  -26.6400   21.5221 C   0  0  0  0  0  0
  -18.1915  -26.7937   22.1624 C   0  0  0  0  0  0
  -19.1514  -28.8847   23.2907 C   0  0  0  0  0  0
  -18.9448  -30.1452   23.8917 C   0  0  0  0  0  0
  -17.6455  -30.6595   24.0575 C   0  0  0  0  0  0
  -25.9025  -34.9487   23.5147 C   0  0  0  0  0  0
  -16.5345  -29.9103   23.6329 C   0  0  0  0  0  0
  -16.7258  -28.6521   23.0349 C   0  0  0  0  0  0
  -26.4468  -31.6602   25.0731 C   0  0  0  0  0  0
  -25.3736  -31.3692   26.1478 C   0  0  0  0  0  0
  -27.0322  -30.3058   24.6092 C   0  0  0  0  0  0
  -27.6049  -32.4316   25.7489 C   0  0  0  0  0  0
  -27.5581  -37.1818   24.8464 C   0  0  0  0  0  0
  -21.4120  -29.3050   22.3733 N   0  0  0  0  0  0
  -26.4292  -37.3804   23.9411 N   0  0  0  0  0  0
  -24.6631  -31.0837   22.1020 N   0  0  0  0  0  0
  -23.4169  -28.8233   23.3047 O   0  0  0  0  0  0
  -28.3609  -26.6648   20.0422 O   0  0  0  0  0  0
  -26.5584  -34.8929   22.4705 O   0  0  0  0  0  0
  -23.5313  -32.1461   23.7527 O   0  0  0  0  0  0
  -33.3501  -17.9215   17.3089 C   0  0  0  0  0  0
  -30.4850  -18.0818   20.4836 C   0  0  0  0  0  0
  -32.3475  -18.0033   18.3774 C   0  0  0  0  0  0
  -31.2114  -19.2627   20.1632 C   0  0  0  0  0  0
  -32.2531  -19.1654   19.1895 C   0  0  0  0  0  0
  -31.4858  -16.9013   18.6062 C   0  0  0  0  0  0
  -30.6758  -16.8717   19.7775 C   0  0  0  0  0  0
  -30.3229  -24.3696   20.2813 C   0  0  0  0  0  0
  -31.1298  -23.1853   20.6313 C   0  0  0  0  0  0
  -29.9751  -25.2389   21.2681 C   0  0  0  0  0  0
  -32.2748  -23.3888   21.3405 C   0  0  0  0  0  0
  -29.9294  -24.6366   18.8295 C   0  0  0  0  0  0
  -30.8826  -24.0765   17.7646 C   0  0  0  0  0  0
  -31.1069  -22.5546   17.7689 C   0  0  0  0  0  0
  -30.2241  -21.7169   18.7284 C   0  0  0  0  0  0
  -33.2891  -20.2700   18.9956 C   0  0  0  0  0  0
  -31.4320  -15.7606   17.5922 C   0  0  0  0  0  0
  -33.3222  -22.4653   21.9494 C   0  0  0  0  0  0
  -30.8666  -20.5645   20.9374 C   0  0  0  0  0  0
  -29.1637  -26.5405   21.2111 C   0  0  0  0  0  0
  -34.1413  -17.8566   16.4646 N   0  0  0  0  0  0
  -30.0656  -15.6528   20.2541 N   0  0  0  0  0  0
  -30.5659  -21.8379   20.1824 N   0  3  1  0  0  0
  -31.4496  -12.3387   19.1413 H   0  0  0  0  0  0
  -30.2773  -11.3074   19.9147 H   0  0  0  0  0  0
  -29.7071  -11.6099   17.5010 H   0  0  0  0  0  0
  -29.6620  -13.3320   17.6727 H   0  0  0  0  0  0
  -27.7835  -11.2867   18.8463 H   0  0  0  0  0  0
  -27.3625  -12.5955   17.7761 H   0  0  0  0  0  0
  -27.6597  -14.2501   19.4880 H   0  0  0  0  0  0
  -28.6721  -12.1177   21.4273 H   0  0  0  0  0  0
  -28.4965  -13.8228   21.7704 H   0  0  0  0  0  0
  -25.2776   -9.5664   22.4779 H   0  0  0  0  0  0
  -24.0002   -7.4618   22.7483 H   0  0  0  0  0  0
  -21.0837   -8.8798   19.8976 H   0  0  0  0  0  0
  -22.3713  -10.9694   19.6194 H   0  0  0  0  0  0
  -21.2026   -7.6160   23.9736 H   0  0  0  0  0  0
  -21.1483   -6.0521   25.9080 H   0  0  0  0  0  0
  -22.0598   -2.7628   23.2810 H   0  0  0  0  0  0
  -22.3982  -11.9973   22.4859 H   0  0  0  0  0  0
  -21.1032  -13.1364   22.2517 H   0  0  0  0  0  0
  -24.6490  -15.8408   20.5212 H   0  0  0  0  0  0
  -26.2667  -15.6362   20.0812 H   0  0  0  0  0  0
  -26.7094  -32.5576   23.1194 H   0  0  0  0  0  0
  -25.0060  -33.9811   25.0511 H   0  0  0  0  0  0
  -22.6863  -31.3090   21.4119 H   0  0  0  0  0  0
  -23.3744  -35.9652   23.3319 H   0  0  0  0  0  0
  -24.3579  -36.8909   22.2048 H   0  0  0  0  0  0
  -23.7232  -37.6531   23.6633 H   0  0  0  0  0  0
  -26.0323  -31.5985   20.5903 H   0  0  0  0  0  0
  -26.8144  -30.9016   21.9826 H   0  0  0  0  0  0
  -28.0893  -29.1216   21.2042 H   0  0  0  0  0  0
  -26.1016  -25.9964   18.9973 H   0  0  0  0  0  0
  -23.9919  -27.2953   19.0289 H   0  0  0  0  0  0
  -23.7197  -30.5987   19.4061 H   0  0  0  0  0  0
  -22.7349  -29.2442   19.8709 H   0  0  0  0  0  0
  -25.1274  -36.2005   25.0841 H   0  0  0  0  0  0
  -20.9942  -28.3254   24.1441 H   0  0  0  0  0  0
  -20.5681  -26.2283   23.3615 H   0  0  0  0  0  0
  -21.6634  -26.7477   22.1215 H   0  0  0  0  0  0
  -19.6909  -25.6317   21.1240 H   0  0  0  0  0  0
  -19.6683  -27.3218   20.6757 H   0  0  0  0  0  0
  -17.4191  -26.6689   21.4021 H   0  0  0  0  0  0
  -18.0308  -26.0078   22.9016 H   0  0  0  0  0  0
  -19.7927  -30.7261   24.2294 H   0  0  0  0  0  0
  -17.5017  -31.6276   24.5183 H   0  0  0  0  0  0
  -15.5350  -30.3021   23.7651 H   0  0  0  0  0  0
  -15.8649  -28.0860   22.7050 H   0  0  0  0  0  0
  -24.5897  -30.7058   25.7808 H   0  0  0  0  0  0
  -24.8936  -32.2839   26.4964 H   0  0  0  0  0  0
  -25.8086  -30.8829   27.0215 H   0  0  0  0  0  0
  -26.2881  -29.6801   24.1145 H   0  0  0  0  0  0
  -27.4116  -29.7311   25.4551 H   0  0  0  0  0  0
  -27.8697  -30.4415   23.9243 H   0  0  0  0  0  0
  -27.2681  -33.3608   26.2101 H   0  0  0  0  0  0
  -28.3837  -32.6882   25.0295 H   0  0  0  0  0  0
  -28.0736  -31.8410   26.5372 H   0  0  0  0  0  0
  -28.2606  -38.0109   24.7509 H   0  0  0  0  0  0
  -28.1068  -36.2640   24.6290 H   0  0  0  0  0  0
  -27.2299  -37.1474   25.8868 H   0  0  0  0  0  0
  -20.9269  -29.8758   21.6950 H   0  0  0  0  0  0
  -26.0190  -38.2891   24.1392 H   0  0  0  0  0  0
  -29.7912  -18.0906   21.3140 H   0  0  0  0  0  0
  -30.3092  -25.0191   22.2725 H   0  0  0  0  0  0
  -32.4959  -24.4183   21.5860 H   0  0  0  0  0  0
  -29.9461  -25.7117   18.6573 H   0  0  0  0  0  0
  -28.9015  -24.3138   18.6593 H   0  0  0  0  0  0
  -31.8475  -24.5814   17.8446 H   0  0  0  0  0  0
  -30.4963  -24.3666   16.7854 H   0  0  0  0  0  0
  -32.1625  -22.3822   17.9447 H   0  0  0  0  0  0
  -30.9380  -22.1899   16.7544 H   0  0  0  0  0  0
  -30.2142  -20.6869   18.3830 H   0  0  0  0  0  0
  -29.1838  -22.0167   18.6114 H   0  0  0  0  0  0
  -34.2586  -19.9359   19.3657 H   0  0  0  0  0  0
  -33.0505  -21.1912   19.5039 H   0  0  0  0  0  0
  -33.4092  -20.5240   17.9428 H   0  0  0  0  0  0
  -31.5116  -16.1197   16.5666 H   0  0  0  0  0  0
  -30.4688  -15.2666   17.6456 H   0  0  0  0  0  0
  -32.2256  -15.0337   17.7637 H   0  0  0  0  0  0
  -34.2969  -22.9472   21.8635 H   0  0  0  0  0  0
  -33.4333  -21.4793   21.5145 H   0  0  0  0  0  0
  -33.1243  -22.3408   23.0143 H   0  0  0  0  0  0
  -31.5432  -20.6857   21.7724 H   0  0  0  0  0  0
  -29.9240  -20.3666   21.4480 H   0  0  0  0  0  0
  -29.8403  -27.3918   21.2973 H   0  0  0  0  0  0
  -28.5209  -26.5506   22.0934 H   0  0  0  0  0  0
  -29.0727  -15.6545   20.4296 H   0  0  0  0  0  0
  -29.6161  -21.9029   20.5170 H   0  0  0  0  0  0
  1 25  1  0  0  0
  1 30  2  0  0  0
  1 92  1  0  0  0
  2  3  1  0  0  0
  2 25  1  0  0  0
  2 94  1  0  0  0
  2 95  1  0  0  0
  3  4  1  0  0  0
  3 96  1  0  0  0
  3 97  1  0  0  0
  4  5  1  0  0  0
  4 98  1  0  0  0
  4 99  1  0  0  0
  5  6  1  0  0  0
  5 26  1  0  0  0
  5100  1  0  0  0
  6 25  1  0  0  0
  6101  1  0  0  0
  6102  1  0  0  0
  7  8  2  0  0  0
  7 26  1  0  0  0
  7 29  1  0  0  0
  8  9  1  0  0  0
  8 22  1  0  0  0
  9 10  1  0  0  0
  9 27  2  0  0  0
 10 11  2  0  0  0
 10 15  1  0  0  0
 11 12  1  0  0  0
 11103  1  0  0  0
 12 13  2  0  0  0
 12104  1  0  0  0
 13 14  1  0  0  0
 13 31  1  0  0  0
 14 15  2  0  0  0
 14105  1  0  0  0
 15106  1  0  0  0
 16 17  2  0  0  0
 16 21  1  0  0  0
 16 31  1  0  0  0
 17 18  1  0  0  0
 17107  1  0  0  0
 18 19  2  0  0  0
 18108  1  0  0  0
 19 20  1  0  0  0
 19 24  1  0  0  0
 20 21  2  0  0  0
 20109  1  0  0  0
 21 23  1  0  0  0
 22 28  1  0  0  0
 22 32  2  0  0  0
 26 27  1  0  0  0
 28110  1  0  0  0
 28111  1  0  0  0
 29112  1  0  0  0
 29113  1  0  0  0
 33 34  1  0  0  0
 33 66  1  0  0  0
 33 70  2  0  0  0
 34 36  1  0  0  0
 34 59  1  0  0  0
 34114  1  0  0  0
 35 44  2  0  0  0
 35 45  1  0  0  0
 35 68  1  0  0  0
 36 56  1  0  0  0
 36115  1  0  0  0
 37 39  1  0  0  0
 37 47  1  0  0  0
 37 66  1  0  0  0
 37116  1  0  0  0
 38 43  2  0  0  0
 38 46  1  0  0  0
 38 47  1  0  0  0
 39 64  1  0  0  0
 39 67  2  0  0  0
 40 52  1  0  0  0
 40 53  2  0  0  0
 40 58  1  0  0  0
 41117  1  0  0  0
 41118  1  0  0  0
 41119  1  0  0  0
 41 48  1  0  0  0
 42 43  1  0  0  0
 42 66  1  0  0  0
 42120  1  0  0  0
 42121  1  0  0  0
 43 44  1  0  0  0
 44122  1  0  0  0
 45 46  2  0  0  0
 45123  1  0  0  0
 46124  1  0  0  0
 47125  1  0  0  0
 47126  1  0  0  0
 48 56  1  0  0  0
 48 65  1  0  0  0
 48127  1  0  0  0
 49 50  1  0  0  0
 49 53  1  0  0  0
 49 64  1  0  0  0
 49128  1  0  0  0
 50 51  1  0  0  0
 50129  1  0  0  0
 50130  1  0  0  0
 51 52  1  0  0  0
 51131  1  0  0  0
 51132  1  0  0  0
 52133  1  0  0  0
 52134  1  0  0  0
 53 54  1  0  0  0
 54 55  2  0  0  0
 54135  1  0  0  0
 55 57  1  0  0  0
 55136  1  0  0  0
 56 69  2  0  0  0
 57 58  2  0  0  0
 57137  1  0  0  0
 58138  1  0  0  0
 59 60  1  0  0  0
 59 61  1  0  0  0
 59 62  1  0  0  0
 60139  1  0  0  0
 60140  1  0  0  0
 60141  1  0  0  0
 61142  1  0  0  0
 61143  1  0  0  0
 61144  1  0  0  0
 62145  1  0  0  0
 62146  1  0  0  0
 62147  1  0  0  0
 63 65  1  0  0  0
 63148  1  0  0  0
 63149  1  0  0  0
 63150  1  0  0  0
 64151  1  0  0  0
 65152  1  0  0  0
 68 90  1  0  0  0
 71 73  1  0  0  0
 71 91  3  0  0  0
 72 74  2  0  0  0
 72 77  1  0  0  0
 72153  1  0  0  0
 73 75  2  0  0  0
 73 76  1  0  0  0
 74 75  1  0  0  0
 74 89  1  0  0  0
 75 86  1  0  0  0
 76 77  2  0  0  0
 76 87  1  0  0  0
 77 92  1  0  0  0
 78 79  1  0  0  0
 78 80  2  0  0  0
 78 82  1  0  0  0
 79 81  2  0  0  0
 79 93  1  0  0  0
 80 90  1  0  0  0
 80154  1  0  0  0
 81 88  1  0  0  0
 81155  1  0  0  0
 82 83  1  0  0  0
 82156  1  0  0  0
 82157  1  0  0  0
 83 84  1  0  0  0
 83158  1  0  0  0
 83159  1  0  0  0
 84 85  1  0  0  0
 84160  1  0  0  0
 84161  1  0  0  0
 85 93  1  0  0  0
 85162  1  0  0  0
 85163  1  0  0  0
 86164  1  0  0  0
 86165  1  0  0  0
 86166  1  0  0  0
 87167  1  0  0  0
 87168  1  0  0  0
 87169  1  0  0  0
 88170  1  0  0  0
 88171  1  0  0  0
 88172  1  0  0  0
 89173  1  0  0  0
 89174  1  0  0  0
 89 93  1  0  0  0
 90175  1  0  0  0
 90176  1  0  0  0
 92177  1  0  0  0
 93178  1  0  0  0
M  CHG  1  93   1
M  ISO  4   1 100  68 101  90 101  92 100
M  END
> <chiral flag>
0

> <version>
0

> <s_m_source_file>
/data/baiqing/PycharmProjects/Reinvent-master-3.2/result/LINK_invent/BTK/process_docking_weight1_custom_product_contain_oxygen_bond_distance_aromatic_linkinvent_7_9_3/rearranged_h_0039.sdf

> <i_m_source_file_index>
43

> <r_mmod_Potential_Energy-OPLS-2005>
135.004409790039

> <r_mmod_Stretch_Energy-OPLS-2005>
54.0198097229004

> <r_mmod_Bend_Energy-OPLS-2005>
183.300643920898

> <r_mmod_Torsional_Energy-OPLS-2005>
345.600524902344

> <r_mmod_Improper_Torsional_Energy-OPLS-2005>
9.2943058013916

> <r_mmod_Van_der_Waal_Energy-OPLS-2005>
199.809020996094

> <r_mmod_Electrostatic_Energy-OPLS-2005>
-251.868576049805

> <r_mmod_Solvation_Energy-OPLS-2005>
-439.649932861328

> <b_mmod_Minimization_Converged-OPLS-2005>
0

> <r_mmod_RMS_Derivative-OPLS-2005>
2.2630455493927

$$$$
43
                    3D
 Structure written by MMmdl.
169178  0  0  1  0            999 V2000
  -30.5581  -14.7449   20.4487 C   0  0  0  0  0  0
  -30.4290  -12.4398   19.4803 C   0  0  0  0  0  0
  -29.5267  -12.4687   18.2248 C   0  0  0  0  0  0
  -28.0277  -12.3689   18.5899 C   0  0  0  0  0  0
  -27.6374  -13.2370   19.8214 C   0  0  2  0  0  0
  -28.6677  -13.1435   20.9648 C   0  0  0  0  0  0
  -25.2498  -13.8251   20.5490 C   0  0  0  0  0  0
  -24.1812  -13.0498   20.9099 C   0  0  0  0  0  0
  -24.6370  -11.6970   20.8615 C   0  0  0  0  0  0
  -23.9041  -10.4345   21.0286 C   0  0  0  0  0  0
  -24.3623   -9.4283   21.9079 C   0  0  0  0  0  0
  -23.6318   -8.2311   22.0705 C   0  0  0  0  0  0
  -22.4310   -8.0282   21.3501 C   0  0  0  0  0  0
  -21.9884   -9.0253   20.4607 C   0  0  0  0  0  0
  -22.7183  -10.2154   20.2974 C   0  0  0  0  0  0
  -21.6885   -6.0711   22.5264 C   0  0  0  0  0  0
  -21.4029   -6.5620   23.8185 C   0  0  0  0  0  0
  -21.3677   -5.6765   24.9148 C   0  0  0  0  0  0
  -21.6051   -4.3036   24.7187 C   0  0  0  0  0  0
  -21.8855   -3.8134   23.4325 C   0  0  0  0  0  0
  -21.9232   -4.6954   22.3372 C   0  0  0  0  0  0
  -22.7826  -13.5245   21.1879 C   0  0  0  0  0  0
  -22.1672   -4.2118   21.0948 F   0  0  0  0  0  0
  -21.5660   -3.4528   25.7712 F   0  0  0  0  0  0
  -29.9682  -13.5024   20.4034 N   0  0  0  0  0  0
  -26.2899  -12.9456   20.2999 N   0  0  0  0  0  0
  -25.9306  -11.6615   20.5533 N   0  0  0  0  0  0
  -22.0488  -12.8265   22.0463 N   0  0  0  0  0  0
  -25.4310  -15.1945   20.3919 N   0  0  0  0  0  0
  -31.7652  -14.8443   20.2083 O   0  0  0  0  0  0
  -21.6703   -6.8870   21.4212 O   0  0  0  0  0  0
  -22.3492  -14.5537   20.6700 O   0  0  0  0  0  0
  -24.6360  -31.8492   23.1943 C   0  0  0  0  0  0
  -25.9177  -32.4705   23.8303 C   0  0  1  0  0  0
  -27.2149  -27.2384   20.1481 C   0  0  0  0  0  0
  -25.5974  -33.8520   24.2215 N   0  0  0  0  0  0
  -23.4351  -30.4690   21.5387 C   0  0  2  0  0  0
  -24.8838  -28.9135   20.1091 C   0  0  0  0  0  0
  -22.7543  -29.4529   22.4904 C   0  0  0  0  0  0
  -18.0283  -28.1380   22.8469 C   0  0  0  0  0  0
  -24.1497  -36.7267   23.2633 C   0  0  0  0  0  0
  -25.9826  -30.7586   21.3784 C   0  0  0  0  0  0
  -26.0571  -29.3791   20.7223 C   0  0  0  0  0  0
  -27.2318  -28.5576   20.7206 C   0  0  0  0  0  0
  -26.0277  -26.8460   19.5018 C   0  0  0  0  0  0
  -24.8764  -27.6589   19.4827 C   0  0  0  0  0  0
  -23.6560  -29.8001   20.1563 C   0  0  0  0  0  0
  -25.4131  -36.3038   24.0313 C   0  0  1  0  0  0
  -20.5909  -28.3690   23.1272 C   0  0  2  0  0  0
  -20.6790  -26.9414   22.5401 C   0  0  0  0  0  0
  -19.5758  -26.6378   21.5206 C   0  0  0  0  0  0
  -18.1934  -26.7923   22.1605 C   0  0  0  0  0  0
  -19.1552  -28.8872   23.2860 C   0  0  0  0  0  0
  -18.9454  -30.1469   23.8877 C   0  0  0  0  0  0
  -17.6453  -30.6582   24.0580 C   0  0  0  0  0  0
  -25.9063  -34.9415   23.5058 C   0  0  0  0  0  0
  -16.5345  -29.9075   23.6344 C   0  0  0  0  0  0
  -16.7275  -28.6505   23.0352 C   0  0  0  0  0  0
  -26.4547  -31.6545   25.0710 C   0  0  0  0  0  0
  -25.3756  -31.3731   26.1426 C   0  0  0  0  0  0
  -27.0384  -30.2937   24.6222 C   0  0  0  0  0  0
  -27.6085  -32.4304   25.7489 C   0  0  0  0  0  0
  -27.5590  -37.1788   24.8455 C   0  0  0  0  0  0
  -21.4244  -29.3026   22.3663 N   0  0  0  0  0  0
  -26.4287  -37.3756   23.9404 N   0  0  0  0  0  0
  -24.7035  -31.0461   22.0907 N   0  0  0  0  0  0
  -23.4259  -28.8102   23.3013 O   0  0  0  0  0  0
  -28.2863  -26.3115   20.1627 O   0  0  0  0  0  0
  -26.5646  -34.8914   22.4622 O   0  0  0  0  0  0
  -23.5502  -32.1311   23.7225 O   0  0  0  0  0  0
  -29.9840  -20.0401   19.1955 C   0  0  0  0  0  0
  -30.6911  -19.0091   18.5536 C   0  0  0  0  0  0
  -29.0912  -18.3770   20.7304 C   0  0  0  0  0  0
  -29.1191  -19.7604   20.2640 C   0  0  0  0  0  0
  -30.5765  -17.6561   18.9456 C   0  0  0  0  0  0
  -29.8427  -17.2846   20.1160 C   0  0  0  0  0  0
  -28.2045  -24.3090   23.3384 C   0  0  0  0  0  0
  -28.7008  -25.2707   22.2491 C   0  0  0  0  0  0
  -29.1178  -23.0983   23.5908 C   0  0  0  0  0  0
  -28.6266  -23.5500   20.3169 C   0  0  0  0  0  0
  -28.0875  -24.9930   20.8733 C   0  0  2  0  0  0
  -29.4561  -22.1858   22.3846 C   0  0  2  0  0  0
  -31.1854  -16.6619   17.9685 C   0  0  0  0  0  0
  -30.9361  -22.3080   21.9852 C   0  0  0  0  0  0
  -28.1053  -20.9150   20.6801 C   0  0  0  0  0  0
  -29.7273  -15.8596   20.5669 N   0  0  0  0  0  0
  -28.5019  -22.2989   21.2348 N   0  3  2  0  0  0
  -31.4684  -12.5819   19.1760 H   0  0  0  0  0  0
  -30.3834  -11.4622   19.9639 H   0  0  0  0  0  0
  -29.7852  -11.6372   17.5648 H   0  0  0  0  0  0
  -29.7234  -13.3800   17.6569 H   0  0  0  0  0  0
  -27.7957  -11.3230   18.7801 H   0  0  0  0  0  0
  -27.4253  -12.6551   17.7238 H   0  0  0  0  0  0
  -27.6421  -14.2642   19.4612 H   0  0  0  0  0  0
  -28.6958  -12.1392   21.3885 H   0  0  0  0  0  0
  -28.3959  -13.8173   21.7791 H   0  0  0  0  0  0
  -25.2767   -9.5821   22.4610 H   0  0  0  0  0  0
  -24.0058   -7.4759   22.7464 H   0  0  0  0  0  0
  -21.0785   -8.8727   19.8968 H   0  0  0  0  0  0
  -22.3553  -10.9666   19.6091 H   0  0  0  0  0  0
  -21.1955   -7.6116   23.9656 H   0  0  0  0  0  0
  -21.1463   -6.0485   25.9039 H   0  0  0  0  0  0
  -22.0598   -2.7586   23.2826 H   0  0  0  0  0  0
  -22.4097  -12.0018   22.5013 H   0  0  0  0  0  0
  -21.1055  -13.1244   22.2521 H   0  0  0  0  0  0
  -24.6958  -15.8733   20.5496 H   0  0  0  0  0  0
  -26.2899  -15.6243   20.0798 H   0  0  0  0  0  0
  -26.7265  -32.5368   23.1071 H   0  0  0  0  0  0
  -25.0174  -33.9641   25.0404 H   0  0  0  0  0  0
  -22.7326  -31.2920   21.3884 H   0  0  0  0  0  0
  -23.3760  -35.9589   23.3242 H   0  0  0  0  0  0
  -24.3586  -36.8939   22.2054 H   0  0  0  0  0  0
  -23.7272  -37.6461   23.6692 H   0  0  0  0  0  0
  -26.1271  -31.5189   20.6114 H   0  0  0  0  0  0
  -26.8593  -30.8041   22.0119 H   0  0  0  0  0  0
  -28.1385  -28.9103   21.1959 H   0  0  0  0  0  0
  -25.9814  -25.8767   19.0255 H   0  0  0  0  0  0
  -23.9848  -27.2988   18.9862 H   0  0  0  0  0  0
  -23.7865  -30.5725   19.3976 H   0  0  0  0  0  0
  -22.7754  -29.2296   19.8522 H   0  0  0  0  0  0
  -25.1317  -36.1829   25.0806 H   0  0  0  0  0  0
  -20.9978  -28.3240   24.1402 H   0  0  0  0  0  0
  -20.5665  -26.2302   23.3606 H   0  0  0  0  0  0
  -21.6659  -26.7428   22.1190 H   0  0  0  0  0  0
  -19.6921  -25.6281   21.1237 H   0  0  0  0  0  0
  -19.6694  -27.3207   20.6749 H   0  0  0  0  0  0
  -17.4211  -26.6682   21.3996 H   0  0  0  0  0  0
  -18.0317  -26.0060   22.8985 H   0  0  0  0  0  0
  -19.7944  -30.7310   24.2206 H   0  0  0  0  0  0
  -17.5004  -31.6252   24.5181 H   0  0  0  0  0  0
  -15.5346  -30.2972   23.7681 H   0  0  0  0  0  0
  -15.8664  -28.0829   22.7055 H   0  0  0  0  0  0
  -24.5917  -30.7089   25.7776 H   0  0  0  0  0  0
  -24.8986  -32.2912   26.4841 H   0  0  0  0  0  0
  -25.8060  -30.8924   27.0209 H   0  0  0  0  0  0
  -26.2962  -29.6675   24.1251 H   0  0  0  0  0  0
  -27.4043  -29.7218   25.4757 H   0  0  0  0  0  0
  -27.8858  -30.4179   23.9479 H   0  0  0  0  0  0
  -27.2664  -33.3599   26.2054 H   0  0  0  0  0  0
  -28.3909  -32.6856   25.0329 H   0  0  0  0  0  0
  -28.0740  -31.8440   26.5420 H   0  0  0  0  0  0
  -28.2555  -38.0135   24.7536 H   0  0  0  0  0  0
  -28.1123  -36.2656   24.6196 H   0  0  0  0  0  0
  -27.2306  -37.1359   25.8858 H   0  0  0  0  0  0
  -20.9431  -29.8782   21.6895 H   0  0  0  0  0  0
  -26.0123  -38.2793   24.1439 H   0  0  0  0  0  0
  -30.0429  -21.0449   18.7976 H   0  0  0  0  0  0
  -31.2731  -19.2574   17.6782 H   0  0  0  0  0  0
  -28.4237  -18.1391   21.5509 H   0  0  0  0  0  0
  -27.1821  -23.9849   23.1390 H   0  0  0  0  0  0
  -28.1427  -24.8764   24.2655 H   0  0  0  0  0  0
  -29.7887  -25.2544   22.1794 H   0  0  0  0  0  0
  -28.4389  -26.2880   22.5442 H   0  0  0  0  0  0
  -28.6543  -22.4948   24.3721 H   0  0  0  0  0  0
  -30.0476  -23.4463   24.0418 H   0  0  0  0  0  0
  -29.6667  -23.6422   19.9981 H   0  0  0  0  0  0
  -28.0705  -23.3361   19.4026 H   0  0  0  0  0  0
  -27.0151  -24.8662   21.0154 H   0  0  0  0  0  0
  -29.3407  -21.1761   22.7913 H   0  0  0  0  0  0
  -31.0362  -17.0121   16.9470 H   0  0  0  0  0  0
  -30.7113  -15.6846   17.9975 H   0  0  0  0  0  0
  -32.2565  -16.5541   18.1308 H   0  0  0  0  0  0
  -31.2247  -23.3469   21.8280 H   0  0  0  0  0  0
  -31.1593  -21.7512   21.0764 H   0  0  0  0  0  0
  -31.5797  -21.9126   22.7757 H   0  0  0  0  0  0
  -27.4742  -20.4795   21.4557 H   0  0  0  0  0  0
  -27.4274  -21.0638   19.8406 H   0  0  0  0  0  0
  -28.8120  -15.6202   20.9150 H   0  0  0  0  0  0
  -27.6319  -22.5004   21.7101 H   0  0  0  0  0  0
  1 25  1  0  0  0
  1 30  2  0  0  0
  1 86  1  0  0  0
  2  3  1  0  0  0
  2 25  1  0  0  0
  2 88  1  0  0  0
  2 89  1  0  0  0
  3  4  1  0  0  0
  3 90  1  0  0  0
  3 91  1  0  0  0
  4  5  1  0  0  0
  4 92  1  0  0  0
  4 93  1  0  0  0
  5  6  1  0  0  0
  5 26  1  0  0  0
  5 94  1  0  0  0
  6 25  1  0  0  0
  6 95  1  0  0  0
  6 96  1  0  0  0
  7  8  2  0  0  0
  7 26  1  0  0  0
  7 29  1  0  0  0
  8  9  1  0  0  0
  8 22  1  0  0  0
  9 10  1  0  0  0
  9 27  2  0  0  0
 10 11  2  0  0  0
 10 15  1  0  0  0
 11 12  1  0  0  0
 11 97  1  0  0  0
 12 13  2  0  0  0
 12 98  1  0  0  0
 13 14  1  0  0  0
 13 31  1  0  0  0
 14 15  2  0  0  0
 14 99  1  0  0  0
 15100  1  0  0  0
 16 17  2  0  0  0
 16 21  1  0  0  0
 16 31  1  0  0  0
 17 18  1  0  0  0
 17101  1  0  0  0
 18 19  2  0  0  0
 18102  1  0  0  0
 19 20  1  0  0  0
 19 24  1  0  0  0
 20 21  2  0  0  0
 20103  1  0  0  0
 21 23  1  0  0  0
 22 28  1  0  0  0
 22 32  2  0  0  0
 26 27  1  0  0  0
 28104  1  0  0  0
 28105  1  0  0  0
 29106  1  0  0  0
 29107  1  0  0  0
 33 34  1  0  0  0
 33 66  1  0  0  0
 33 70  2  0  0  0
 34 36  1  0  0  0
 34 59  1  0  0  0
 34108  1  0  0  0
 35 44  2  0  0  0
 35 45  1  0  0  0
 35 68  1  0  0  0
 36 56  1  0  0  0
 36109  1  0  0  0
 37 39  1  0  0  0
 37 47  1  0  0  0
 37 66  1  0  0  0
 37110  1  0  0  0
 38 43  2  0  0  0
 38 46  1  0  0  0
 38 47  1  0  0  0
 39 64  1  0  0  0
 39 67  2  0  0  0
 40 52  1  0  0  0
 40 53  2  0  0  0
 40 58  1  0  0  0
 41111  1  0  0  0
 41112  1  0  0  0
 41113  1  0  0  0
 41 48  1  0  0  0
 42 43  1  0  0  0
 42 66  1  0  0  0
 42114  1  0  0  0
 42115  1  0  0  0
 43 44  1  0  0  0
 44116  1  0  0  0
 45 46  2  0  0  0
 45117  1  0  0  0
 46118  1  0  0  0
 47119  1  0  0  0
 47120  1  0  0  0
 48 56  1  0  0  0
 48 65  1  0  0  0
 48121  1  0  0  0
 49 50  1  0  0  0
 49 53  1  0  0  0
 49 64  1  0  0  0
 49122  1  0  0  0
 50 51  1  0  0  0
 50123  1  0  0  0
 50124  1  0  0  0
 51 52  1  0  0  0
 51125  1  0  0  0
 51126  1  0  0  0
 52127  1  0  0  0
 52128  1  0  0  0
 53 54  1  0  0  0
 54 55  2  0  0  0
 54129  1  0  0  0
 55 57  1  0  0  0
 55130  1  0  0  0
 56 69  2  0  0  0
 57 58  2  0  0  0
 57131  1  0  0  0
 58132  1  0  0  0
 59 60  1  0  0  0
 59 61  1  0  0  0
 59 62  1  0  0  0
 60133  1  0  0  0
 60134  1  0  0  0
 60135  1  0  0  0
 61136  1  0  0  0
 61137  1  0  0  0
 61138  1  0  0  0
 62139  1  0  0  0
 62140  1  0  0  0
 62141  1  0  0  0
 63 65  1  0  0  0
 63142  1  0  0  0
 63143  1  0  0  0
 63144  1  0  0  0
 64145  1  0  0  0
 65146  1  0  0  0
 68 81  1  0  0  0
 71 72  2  0  0  0
 71 74  1  0  0  0
 71147  1  0  0  0
 72 75  1  0  0  0
 72148  1  0  0  0
 73 74  2  0  0  0
 73 76  1  0  0  0
 73149  1  0  0  0
 74 85  1  0  0  0
 75 76  2  0  0  0
 75 83  1  0  0  0
 76 86  1  0  0  0
 77 78  1  0  0  0
 77 79  1  0  0  0
 77150  1  0  0  0
 77151  1  0  0  0
 78 81  1  0  0  0
 78152  1  0  0  0
 78153  1  0  0  0
 79 82  1  0  0  0
 79154  1  0  0  0
 79155  1  0  0  0
 80 81  1  0  0  0
 80 87  1  0  0  0
 80156  1  0  0  0
 80157  1  0  0  0
 81158  1  0  0  0
 82 84  1  0  0  0
 82 87  1  0  0  0
 82159  1  0  0  0
 83160  1  0  0  0
 83161  1  0  0  0
 83162  1  0  0  0
 84163  1  0  0  0
 84164  1  0  0  0
 84165  1  0  0  0
 85166  1  0  0  0
 85167  1  0  0  0
 85 87  1  0  0  0
 86168  1  0  0  0
 87169  1  0  0  0
M  CHG  1  87   1
M  ISO  4   1 100  68 101  81 101  86 100
M  END
> <chiral flag>
0

> <version>
0

> <s_m_source_file>
/data/baiqing/PycharmProjects/Reinvent-master-3.2/result/LINK_invent/BTK/process_docking_weight1_custom_product_contain_oxygen_bond_distance_aromatic_linkinvent_7_9_3/rearranged_h_0039.sdf

> <i_m_source_file_index>
44

> <r_mmod_Potential_Energy-OPLS-2005>
224.878280639648

> <r_mmod_Stretch_Energy-OPLS-2005>
139.224868774414

> <r_mmod_Bend_Energy-OPLS-2005>
213.449295043945

> <r_mmod_Torsional_Energy-OPLS-2005>
321.408782958984

> <r_mmod_Improper_Torsional_Energy-OPLS-2005>
6.67443990707397

> <r_mmod_Van_der_Waal_Energy-OPLS-2005>
137.794219970703

> <r_mmod_Electrostatic_Energy-OPLS-2005>
-265.846130371094

> <r_mmod_Solvation_Energy-OPLS-2005>
-424.221221923828

> <b_mmod_Minimization_Converged-OPLS-2005>
0

> <r_mmod_RMS_Derivative-OPLS-2005>
6.50063133239746

$$$$
44
                    3D
 Structure written by MMmdl.
183192  0  0  1  0            999 V2000
  -30.8753  -14.1899   20.8645 C   0  0  0  0  0  0
  -30.4085  -12.3096   19.3394 C   0  0  0  0  0  0
  -29.4574  -12.5627   18.1614 C   0  0  0  0  0  0
  -27.9932  -12.3872   18.5960 C   0  0  0  0  0  0
  -27.6600  -13.2027   19.8689 C   0  0  2  0  0  0
  -28.6962  -12.9422   20.9799 C   0  0  0  0  0  0
  -25.2577  -13.8161   20.5669 C   0  0  0  0  0  0
  -24.1831  -13.0436   20.9161 C   0  0  0  0  0  0
  -24.6387  -11.6905   20.8720 C   0  0  0  0  0  0
  -23.9051  -10.4288   21.0397 C   0  0  0  0  0  0
  -24.3605   -9.4216   21.9185 C   0  0  0  0  0  0
  -23.6286   -8.2250   22.0758 C   0  0  0  0  0  0
  -22.4271   -8.0277   21.3541 C   0  0  0  0  0  0
  -21.9900   -9.0255   20.4648 C   0  0  0  0  0  0
  -22.7222  -10.2132   20.3050 C   0  0  0  0  0  0
  -21.6851   -6.0734   22.5273 C   0  0  0  0  0  0
  -21.4018   -6.5641   23.8213 C   0  0  0  0  0  0
  -21.3662   -5.6795   24.9174 C   0  0  0  0  0  0
  -21.6037   -4.3053   24.7229 C   0  0  0  0  0  0
  -21.8818   -3.8143   23.4351 C   0  0  0  0  0  0
  -21.9200   -4.6962   22.3398 C   0  0  0  0  0  0
  -22.7855  -13.5235   21.1851 C   0  0  0  0  0  0
  -22.1662   -4.2144   21.0979 F   0  0  0  0  0  0
  -21.5630   -3.4535   25.7743 F   0  0  0  0  0  0
  -30.0497  -13.2006   20.4490 N   0  0  0  0  0  0
  -26.3008  -12.9328   20.3330 N   0  0  0  0  0  0
  -25.9298  -11.6484   20.5721 N   0  0  0  0  0  0
  -22.0496  -12.8219   22.0399 N   0  0  0  0  0  0
  -25.4307  -15.1887   20.4095 N   0  0  0  0  0  0
  -31.7675  -14.6808   20.1646 O   0  0  0  0  0  0
  -21.6636   -6.8874   21.4233 O   0  0  0  0  0  0
  -22.3537  -14.5557   20.6727 O   0  0  0  0  0  0
  -24.6091  -31.8703   23.2123 C   0  0  0  0  0  0
  -25.8990  -32.4838   23.8399 C   0  0  1  0  0  0
  -27.2319  -27.4660   20.1115 C   0  0  0  0  0  0
  -25.5816  -33.8622   24.2340 N   0  0  0  0  0  0
  -23.3959  -30.4965   21.5464 C   0  0  2  0  0  0
  -24.8486  -28.9671   20.1128 C   0  0  0  0  0  0
  -22.7382  -29.4689   22.4950 C   0  0  0  0  0  0
  -18.0285  -28.1386   22.8502 C   0  0  0  0  0  0
  -24.1464  -36.7344   23.2644 C   0  0  0  0  0  0
  -25.9227  -30.8484   21.3642 C   0  0  0  0  0  0
  -26.0029  -29.4850   20.7130 C   0  0  0  0  0  0
  -27.2021  -28.7413   20.7081 C   0  0  0  0  0  0
  -26.0676  -26.9565   19.4955 C   0  0  0  0  0  0
  -24.8726  -27.7011   19.5002 C   0  0  0  0  0  0
  -23.6095  -29.8327   20.1604 C   0  0  0  0  0  0
  -25.4080  -36.3112   24.0356 C   0  0  1  0  0  0
  -20.5875  -28.3652   23.1330 C   0  0  2  0  0  0
  -20.6780  -26.9398   22.5407 C   0  0  0  0  0  0
  -19.5753  -26.6424   21.5204 C   0  0  0  0  0  0
  -18.1939  -26.7963   22.1608 C   0  0  0  0  0  0
  -19.1528  -28.8831   23.2937 C   0  0  0  0  0  0
  -18.9473  -30.1461   23.8927 C   0  0  0  0  0  0
  -17.6470  -30.6591   24.0582 C   0  0  0  0  0  0
  -25.8986  -34.9475   23.5150 C   0  0  0  0  0  0
  -16.5357  -29.9103   23.6327 C   0  0  0  0  0  0
  -16.7277  -28.6532   23.0336 C   0  0  0  0  0  0
  -26.4443  -31.6611   25.0709 C   0  0  0  0  0  0
  -25.3707  -31.3744   26.1462 C   0  0  0  0  0  0
  -27.0297  -30.3050   24.6094 C   0  0  0  0  0  0
  -27.6040  -32.4333   25.7442 C   0  0  0  0  0  0
  -27.5582  -37.1819   24.8462 C   0  0  0  0  0  0
  -21.4105  -29.3044   22.3731 N   0  0  0  0  0  0
  -26.4272  -37.3794   23.9427 N   0  0  0  0  0  0
  -24.6594  -31.0861   22.0996 N   0  0  0  0  0  0
  -23.4180  -28.8193   23.2935 O   0  0  0  0  0  0
  -28.3781  -26.7146   20.1476 O   0  0  0  0  0  0
  -26.5608  -34.8954   22.4736 O   0  0  0  0  0  0
  -23.5296  -32.1456   23.7550 O   0  0  0  0  0  0
  -33.6561  -14.4715   25.2701 C   0  0  0  0  0  0
  -32.5067  -13.6718   25.3823 C   0  0  0  0  0  0
  -31.5323  -23.9610   23.6427 C   0  0  0  0  0  0
  -29.9967  -22.2781   24.4838 C   0  0  0  0  0  0
  -32.9175  -15.2153   23.0637 C   0  0  0  0  0  0
  -32.1762  -21.5895   23.6032 C   0  0  0  0  0  0
  -33.8661  -15.2429   24.1120 C   0  0  0  0  0  0
  -31.5504  -13.6464   24.3477 C   0  0  0  0  0  0
  -30.2919  -23.6288   24.2155 C   0  0  0  0  0  0
  -32.4740  -22.9523   23.3411 C   0  0  0  0  0  0
  -30.9237  -21.2578   24.1981 C   0  0  0  0  0  0
  -31.7542  -14.4195   23.1734 C   0  0  0  0  0  0
  -33.1612  -20.5605   23.2180 C   0  0  0  0  0  0
  -33.5767  -19.5373   23.9870 C   0  0  0  0  0  0
  -34.4333  -18.5020   23.4476 C   0  0  0  0  0  0
  -30.3131  -12.7827   24.5271 C   0  0  0  0  0  0
  -33.8123  -23.3671   22.7495 C   0  0  0  0  0  0
  -30.4958  -19.8264   24.5090 C   0  0  0  0  0  0
  -35.0619  -16.1766   24.0435 C   0  0  0  0  0  0
  -29.2782  -24.7073   24.5703 C   0  0  0  0  0  0
  -28.8110  -25.9390   22.4320 C   0  0  0  0  0  0
  -28.2819  -25.5874   21.0276 C   0  0  0  0  0  0
  -30.7362  -14.4220   22.1811 N   0  0  0  0  0  0
  -34.6275  -17.5329   24.3438 N   0  0  0  0  0  0
  -28.3438  -24.9749   23.4596 N   0  3  0  0  0  0
  -34.8662  -18.4482   22.2937 O   0  0  0  0  0  0
  -31.4432  -12.4458   19.0171 H   0  0  0  0  0  0
  -30.3331  -11.2720   19.6695 H   0  0  0  0  0  0
  -29.6851  -11.8847   17.3374 H   0  0  0  0  0  0
  -29.6072  -13.5735   17.7771 H   0  0  0  0  0  0
  -27.8142  -11.3259   18.7725 H   0  0  0  0  0  0
  -27.3253  -12.6773   17.7832 H   0  0  0  0  0  0
  -27.7206  -14.2570   19.6000 H   0  0  0  0  0  0
  -28.6402  -11.9097   21.3249 H   0  0  0  0  0  0
  -28.4370  -13.5619   21.8379 H   0  0  0  0  0  0
  -25.2749   -9.5702   22.4759 H   0  0  0  0  0  0
  -24.0002   -7.4639   22.7480 H   0  0  0  0  0  0
  -21.0829   -8.8764   19.8955 H   0  0  0  0  0  0
  -22.3678  -10.9666   19.6159 H   0  0  0  0  0  0
  -21.2002   -7.6157   23.9714 H   0  0  0  0  0  0
  -21.1482   -6.0528   25.9080 H   0  0  0  0  0  0
  -22.0595   -2.7610   23.2850 H   0  0  0  0  0  0
  -22.4093  -11.9846   22.4739 H   0  0  0  0  0  0
  -21.1126  -13.1252   22.2640 H   0  0  0  0  0  0
  -24.6688  -15.8470   20.5280 H   0  0  0  0  0  0
  -26.2939  -15.6288   20.1143 H   0  0  0  0  0  0
  -26.7036  -32.5575   23.1147 H   0  0  0  0  0  0
  -24.9877  -33.9757   25.0417 H   0  0  0  0  0  0
  -22.6854  -31.3142   21.4074 H   0  0  0  0  0  0
  -23.3708  -35.9687   23.3329 H   0  0  0  0  0  0
  -24.3574  -36.8921   22.2052 H   0  0  0  0  0  0
  -23.7267  -37.6576   23.6645 H   0  0  0  0  0  0
  -26.0404  -31.6165   20.5995 H   0  0  0  0  0  0
  -26.8093  -30.9005   21.9841 H   0  0  0  0  0  0
  -28.0919  -29.1326   21.1833 H   0  0  0  0  0  0
  -26.0837  -25.9848   19.0218 H   0  0  0  0  0  0
  -23.9827  -27.2991   19.0366 H   0  0  0  0  0  0
  -23.7216  -30.6064   19.4005 H   0  0  0  0  0  0
  -22.7350  -29.2554   19.8560 H   0  0  0  0  0  0
  -25.1281  -36.1968   25.0863 H   0  0  0  0  0  0
  -21.0001  -28.3200   24.1426 H   0  0  0  0  0  0
  -20.5665  -26.2232   23.3567 H   0  0  0  0  0  0
  -21.6647  -26.7450   22.1177 H   0  0  0  0  0  0
  -19.6877  -25.6367   21.1171 H   0  0  0  0  0  0
  -19.6679  -27.3279   20.6766 H   0  0  0  0  0  0
  -17.4199  -26.6723   21.4025 H   0  0  0  0  0  0
  -18.0335  -26.0111   22.8998 H   0  0  0  0  0  0
  -19.7942  -30.7296   24.2262 H   0  0  0  0  0  0
  -17.5025  -31.6252   24.5214 H   0  0  0  0  0  0
  -15.5372  -30.3004   23.7668 H   0  0  0  0  0  0
  -15.8686  -28.0883   22.6991 H   0  0  0  0  0  0
  -24.5849  -30.7117   25.7807 H   0  0  0  0  0  0
  -24.8944  -32.2917   26.4924 H   0  0  0  0  0  0
  -25.8049  -30.8890   27.0201 H   0  0  0  0  0  0
  -26.2844  -29.6769   24.1183 H   0  0  0  0  0  0
  -27.4127  -29.7344   25.4561 H   0  0  0  0  0  0
  -27.8650  -30.4421   23.9236 H   0  0  0  0  0  0
  -27.2659  -33.3631   26.2057 H   0  0  0  0  0  0
  -28.3807  -32.6896   25.0217 H   0  0  0  0  0  0
  -28.0747  -31.8411   26.5306 H   0  0  0  0  0  0
  -28.2578  -38.0132   24.7520 H   0  0  0  0  0  0
  -28.1104  -36.2661   24.6272 H   0  0  0  0  0  0
  -27.2323  -37.1477   25.8868 H   0  0  0  0  0  0
  -20.9223  -29.8774   21.6996 H   0  0  0  0  0  0
  -26.0169  -38.2869   24.1411 H   0  0  0  0  0  0
  -34.3637  -14.5085   26.0884 H   0  0  0  0  0  0
  -32.3597  -13.0906   26.2836 H   0  0  0  0  0  0
  -31.7686  -24.9970   23.4408 H   0  0  0  0  0  0
  -29.0397  -22.0183   24.9152 H   0  0  0  0  0  0
  -33.0748  -15.8356   22.1929 H   0  0  0  0  0  0
  -33.5389  -20.6319   22.2058 H   0  0  0  0  0  0
  -33.2481  -19.4720   25.0123 H   0  0  0  0  0  0
  -30.2956  -12.3206   25.5146 H   0  0  0  0  0  0
  -30.2932  -11.9813   23.7898 H   0  0  0  0  0  0
  -29.4047  -13.3753   24.4288 H   0  0  0  0  0  0
  -33.9361  -24.4502   22.7532 H   0  0  0  0  0  0
  -33.9079  -23.0236   21.7197 H   0  0  0  0  0  0
  -34.6364  -22.9480   23.3269 H   0  0  0  0  0  0
  -29.4889  -19.8043   24.9283 H   0  0  0  0  0  0
  -31.1364  -19.3553   25.2522 H   0  0  0  0  0  0
  -30.4827  -19.2115   23.6094 H   0  0  0  0  0  0
  -35.5346  -16.0993   23.0630 H   0  0  0  0  0  0
  -35.8151  -15.8788   24.7764 H   0  0  0  0  0  0
  -29.7797  -25.6190   24.9021 H   0  0  0  0  0  0
  -28.6986  -24.3546   25.4254 H   0  0  0  0  0  0
  -28.4554  -26.9251   22.7341 H   0  0  0  0  0  0
  -29.8984  -25.9977   22.4041 H   0  0  0  0  0  0
  -27.2531  -25.2273   21.1060 H   0  0  0  0  0  0
  -28.8514  -24.7582   20.6114 H   0  0  0  0  0  0
  -29.8776  -14.0142   22.5128 H   0  0  0  0  0  0
  -34.2574  -17.6817   25.2721 H   0  0  0  0  0  0
  -27.4937  -25.3399   23.8589 H   0  0  0  0  0  0
  -28.1111  -24.0894   23.0376 H   0  0  0  0  0  0
  1 25  1  0  0  0
  1 30  2  0  0  0
  1 93  1  0  0  0
  2  3  1  0  0  0
  2 25  1  0  0  0
  2 97  1  0  0  0
  2 98  1  0  0  0
  3  4  1  0  0  0
  3 99  1  0  0  0
  3100  1  0  0  0
  4  5  1  0  0  0
  4101  1  0  0  0
  4102  1  0  0  0
  5  6  1  0  0  0
  5 26  1  0  0  0
  5103  1  0  0  0
  6 25  1  0  0  0
  6104  1  0  0  0
  6105  1  0  0  0
  7  8  2  0  0  0
  7 26  1  0  0  0
  7 29  1  0  0  0
  8  9  1  0  0  0
  8 22  1  0  0  0
  9 10  1  0  0  0
  9 27  2  0  0  0
 10 11  2  0  0  0
 10 15  1  0  0  0
 11 12  1  0  0  0
 11106  1  0  0  0
 12 13  2  0  0  0
 12107  1  0  0  0
 13 14  1  0  0  0
 13 31  1  0  0  0
 14 15  2  0  0  0
 14108  1  0  0  0
 15109  1  0  0  0
 16 17  2  0  0  0
 16 21  1  0  0  0
 16 31  1  0  0  0
 17 18  1  0  0  0
 17110  1  0  0  0
 18 19  2  0  0  0
 18111  1  0  0  0
 19 20  1  0  0  0
 19 24  1  0  0  0
 20 21  2  0  0  0
 20112  1  0  0  0
 21 23  1  0  0  0
 22 28  1  0  0  0
 22 32  2  0  0  0
 26 27  1  0  0  0
 28113  1  0  0  0
 28114  1  0  0  0
 29115  1  0  0  0
 29116  1  0  0  0
 33 34  1  0  0  0
 33 66  1  0  0  0
 33 70  2  0  0  0
 34 36  1  0  0  0
 34 59  1  0  0  0
 34117  1  0  0  0
 35 44  2  0  0  0
 35 45  1  0  0  0
 35 68  1  0  0  0
 36 56  1  0  0  0
 36118  1  0  0  0
 37 39  1  0  0  0
 37 47  1  0  0  0
 37 66  1  0  0  0
 37119  1  0  0  0
 38 43  2  0  0  0
 38 46  1  0  0  0
 38 47  1  0  0  0
 39 64  1  0  0  0
 39 67  2  0  0  0
 40 52  1  0  0  0
 40 53  2  0  0  0
 40 58  1  0  0  0
 41120  1  0  0  0
 41121  1  0  0  0
 41122  1  0  0  0
 41 48  1  0  0  0
 42 43  1  0  0  0
 42 66  1  0  0  0
 42123  1  0  0  0
 42124  1  0  0  0
 43 44  1  0  0  0
 44125  1  0  0  0
 45 46  2  0  0  0
 45126  1  0  0  0
 46127  1  0  0  0
 47128  1  0  0  0
 47129  1  0  0  0
 48 56  1  0  0  0
 48 65  1  0  0  0
 48130  1  0  0  0
 49 50  1  0  0  0
 49 53  1  0  0  0
 49 64  1  0  0  0
 49131  1  0  0  0
 50 51  1  0  0  0
 50132  1  0  0  0
 50133  1  0  0  0
 51 52  1  0  0  0
 51134  1  0  0  0
 51135  1  0  0  0
 52136  1  0  0  0
 52137  1  0  0  0
 53 54  1  0  0  0
 54 55  2  0  0  0
 54138  1  0  0  0
 55 57  1  0  0  0
 55139  1  0  0  0
 56 69  2  0  0  0
 57 58  2  0  0  0
 57140  1  0  0  0
 58141  1  0  0  0
 59 60  1  0  0  0
 59 61  1  0  0  0
 59 62  1  0  0  0
 60142  1  0  0  0
 60143  1  0  0  0
 60144  1  0  0  0
 61145  1  0  0  0
 61146  1  0  0  0
 61147  1  0  0  0
 62148  1  0  0  0
 62149  1  0  0  0
 62150  1  0  0  0
 63 65  1  0  0  0
 63151  1  0  0  0
 63152  1  0  0  0
 63153  1  0  0  0
 64154  1  0  0  0
 65155  1  0  0  0
 68 92  1  0  0  0
 71 72  2  0  0  0
 71 77  1  0  0  0
 71156  1  0  0  0
 72 78  1  0  0  0
 72157  1  0  0  0
 73 79  2  0  0  0
 73 80  1  0  0  0
 73158  1  0  0  0
 74 79  1  0  0  0
 74 81  2  0  0  0
 74159  1  0  0  0
 75 77  2  0  0  0
 75 82  1  0  0  0
 75160  1  0  0  0
 76 80  2  0  0  0
 76 81  1  0  0  0
 76 83  1  0  0  0
 77 89  1  0  0  0
 78 82  2  0  0  0
 78 86  1  0  0  0
 79 90  1  0  0  0
 80 87  1  0  0  0
 81 88  1  0  0  0
 82 93  1  0  0  0
 83 84  2  0  0  0
 83161  1  0  0  0
 84 85  1  0  0  0
 84162  1  0  0  0
 85 94  1  0  0  0
 85 96  2  0  0  0
 86163  1  0  0  0
 86164  1  0  0  0
 86165  1  0  0  0
 87166  1  0  0  0
 87167  1  0  0  0
 87168  1  0  0  0
 88169  1  0  0  0
 88170  1  0  0  0
 88171  1  0  0  0
 89 94  1  0  0  0
 89172  1  0  0  0
 89173  1  0  0  0
 90 95  1  0  0  0
 90174  1  0  0  0
 90175  1  0  0  0
 91 92  1  0  0  0
 91 95  1  0  0  0
 91176  1  0  0  0
 91177  1  0  0  0
 92178  1  0  0  0
 92179  1  0  0  0
 93180  1  0  0  0
 94181  1  0  0  0
 95182  1  0  0  0
 95183  1  0  0  0
M  CHG  1  95   1
M  ISO  4   1 100  68 101  92 101  93 100
M  END
> <chiral flag>
0

> <version>
0

> <s_m_source_file>
/data/baiqing/PycharmProjects/Reinvent-master-3.2/result/LINK_invent/BTK/process_docking_weight1_custom_product_contain_oxygen_bond_distance_aromatic_linkinvent_7_9_3/rearranged_h_0039.sdf

> <i_m_source_file_index>
45

> <r_mmod_Potential_Energy-OPLS-2005>
-316.450988769531

> <r_mmod_Stretch_Energy-OPLS-2005>
35.5954132080078

> <r_mmod_Bend_Energy-OPLS-2005>
95.0593566894531

> <r_mmod_Torsional_Energy-OPLS-2005>
284.062530517578

> <r_mmod_Improper_Torsional_Energy-OPLS-2005>
8.5229320526123

> <r_mmod_Van_der_Waal_Energy-OPLS-2005>
172.461135864258

> <r_mmod_Electrostatic_Energy-OPLS-2005>
-459.169403076172

> <r_mmod_Solvation_Energy-OPLS-2005>
-471.136383056641

> <b_mmod_Minimization_Converged-OPLS-2005>
0

> <r_mmod_RMS_Derivative-OPLS-2005>
4.30083847045898

$$$$
45
                    3D
 Structure written by MMmdl.
168177  0  0  1  0            999 V2000
  -30.6021  -14.7438   20.4848 C   0  0  0  0  0  0
  -30.4325  -12.4595   19.4580 C   0  0  0  0  0  0
  -29.5055  -12.5274   18.2249 C   0  0  0  0  0  0
  -28.0295  -12.3552   18.6356 C   0  0  0  0  0  0
  -27.6436  -13.2330   19.8548 C   0  0  2  0  0  0
  -28.6925  -13.1455   20.9842 C   0  0  0  0  0  0
  -25.2494  -13.8204   20.5694 C   0  0  0  0  0  0
  -24.1801  -13.0448   20.9217 C   0  0  0  0  0  0
  -24.6397  -11.6920   20.8761 C   0  0  0  0  0  0
  -23.9082  -10.4293   21.0409 C   0  0  0  0  0  0
  -24.3636   -9.4199   21.9182 C   0  0  0  0  0  0
  -23.6304   -8.2241   22.0760 C   0  0  0  0  0  0
  -22.4285   -8.0285   21.3554 C   0  0  0  0  0  0
  -21.9925   -9.0260   20.4652 C   0  0  0  0  0  0
  -22.7259  -10.2133   20.3051 C   0  0  0  0  0  0
  -21.6853   -6.0729   22.5274 C   0  0  0  0  0  0
  -21.4010   -6.5632   23.8209 C   0  0  0  0  0  0
  -21.3659   -5.6790   24.9171 C   0  0  0  0  0  0
  -21.6043   -4.3052   24.7227 C   0  0  0  0  0  0
  -21.8811   -3.8141   23.4351 C   0  0  0  0  0  0
  -21.9191   -4.6955   22.3402 C   0  0  0  0  0  0
  -22.7809  -13.5212   21.1857 C   0  0  0  0  0  0
  -22.1649   -4.2130   21.0983 F   0  0  0  0  0  0
  -21.5635   -3.4542   25.7747 F   0  0  0  0  0  0
  -29.9880  -13.5126   20.4003 N   0  0  0  0  0  0
  -26.2945  -12.9424   20.3307 N   0  0  0  0  0  0
  -25.9341  -11.6564   20.5792 N   0  0  0  0  0  0
  -22.0446  -12.8229   22.0419 N   0  0  0  0  0  0
  -25.4144  -15.1946   20.4069 N   0  0  0  0  0  0
  -31.7839  -14.8581   20.1459 O   0  0  0  0  0  0
  -21.6650   -6.8884   21.4244 O   0  0  0  0  0  0
  -22.3489  -14.5504   20.6675 O   0  0  0  0  0  0
  -24.6271  -31.8517   23.1956 C   0  0  0  0  0  0
  -25.9115  -32.4724   23.8284 C   0  0  1  0  0  0
  -27.2467  -27.2703   20.1448 C   0  0  0  0  0  0
  -25.5939  -33.8529   24.2214 N   0  0  0  0  0  0
  -23.4237  -30.4694   21.5331 C   0  0  2  0  0  0
  -24.8787  -28.9029   20.1073 C   0  0  0  0  0  0
  -22.7474  -29.4582   22.4889 C   0  0  0  0  0  0
  -18.0278  -28.1402   22.8478 C   0  0  0  0  0  0
  -24.1487  -36.7258   23.2639 C   0  0  0  0  0  0
  -25.9637  -30.7702   21.3683 C   0  0  0  0  0  0
  -26.0399  -29.3896   20.7165 C   0  0  0  0  0  0
  -27.2172  -28.5842   20.7227 C   0  0  0  0  0  0
  -26.0645  -26.8332   19.5116 C   0  0  0  0  0  0
  -24.8968  -27.6340   19.4942 C   0  0  0  0  0  0
  -23.6446  -29.7877   20.1523 C   0  0  0  0  0  0
  -25.4122  -36.3046   24.0310 C   0  0  1  0  0  0
  -20.5878  -28.3689   23.1281 C   0  0  2  0  0  0
  -20.6770  -26.9407   22.5418 C   0  0  0  0  0  0
  -19.5759  -26.6390   21.5210 C   0  0  0  0  0  0
  -18.1927  -26.7942   22.1611 C   0  0  0  0  0  0
  -19.1534  -28.8862   23.2873 C   0  0  0  0  0  0
  -18.9473  -30.1472   23.8877 C   0  0  0  0  0  0
  -17.6477  -30.6598   24.0571 C   0  0  0  0  0  0
  -25.9068  -34.9420   23.5061 C   0  0  0  0  0  0
  -16.5364  -29.9107   23.6342 C   0  0  0  0  0  0
  -16.7268  -28.6540   23.0331 C   0  0  0  0  0  0
  -26.4498  -31.6566   25.0675 C   0  0  0  0  0  0
  -25.3730  -31.3735   26.1402 C   0  0  0  0  0  0
  -27.0337  -30.2984   24.6147 C   0  0  0  0  0  0
  -27.6037  -32.4304   25.7467 C   0  0  0  0  0  0
  -27.5562  -37.1783   24.8466 C   0  0  0  0  0  0
  -21.4181  -29.3037   22.3659 N   0  0  0  0  0  0
  -26.4275  -37.3763   23.9413 N   0  0  0  0  0  0
  -24.6895  -31.0503   22.0892 N   0  0  0  0  0  0
  -23.4187  -28.8129   23.2985 O   0  0  0  0  0  0
  -28.4033  -26.4727   20.2725 O   0  0  0  0  0  0
  -26.5635  -34.8900   22.4626 O   0  0  0  0  0  0
  -23.5436  -32.1306   23.7290 O   0  0  0  0  0  0
  -29.3139  -18.4165   20.5059 C   0  0  0  0  0  0
  -31.2480  -18.9545   22.4071 C   0  0  0  0  0  0
  -29.4718  -19.8078   20.9322 C   0  0  0  0  0  0
  -30.4547  -20.0233   21.9337 C   0  0  0  0  0  0
  -30.0922  -17.2866   21.0162 C   0  0  0  0  0  0
  -31.0690  -17.6182   21.9936 C   0  0  0  0  0  0
  -29.7792  -22.5625   18.8590 C   0  0  0  0  0  0
  -33.0128  -21.5490   17.3568 C   0  0  0  0  0  0
  -30.9908  -21.9943   18.6801 C   0  0  0  0  0  0
  -31.8012  -22.1161   17.4808 C   0  0  0  0  0  0
  -28.9950  -23.4370   17.8680 C   0  0  0  0  0  0
  -28.8129  -24.9110   18.3210 C   0  0  0  0  0  0
  -28.1657  -23.6682   20.4791 C   0  0  0  0  0  0
  -28.6872  -25.0574   19.8441 C   0  0  2  0  0  0
  -30.6439  -21.3784   22.6002 C   0  0  0  0  0  0
  -28.5157  -21.0224   20.4738 C   0  0  0  0  0  0
  -29.7957  -15.8588   20.6979 N   0  0  0  0  0  0
  -29.0638  -22.4394   20.1792 N   0  3  1  0  0  0
  -31.9975  -16.4280   22.8410 Cl  0  0  0  0  0  0
  -31.4700  -12.5936   19.1469 H   0  0  0  0  0  0
  -30.3858  -11.4748   19.9266 H   0  0  0  0  0  0
  -29.7850  -11.7676   17.4949 H   0  0  0  0  0  0
  -29.6325  -13.4913   17.7284 H   0  0  0  0  0  0
  -27.8668  -11.3032   18.8712 H   0  0  0  0  0  0
  -27.3784  -12.5809   17.7895 H   0  0  0  0  0  0
  -27.6426  -14.2615   19.4921 H   0  0  0  0  0  0
  -28.7333  -12.1391   21.4048 H   0  0  0  0  0  0
  -28.4350  -13.8139   21.8086 H   0  0  0  0  0  0
  -25.2770   -9.5663   22.4772 H   0  0  0  0  0  0
  -23.9986   -7.4633   22.7493 H   0  0  0  0  0  0
  -21.0845   -8.8784   19.8978 H   0  0  0  0  0  0
  -22.3711  -10.9673   19.6161 H   0  0  0  0  0  0
  -21.1999   -7.6142   23.9705 H   0  0  0  0  0  0
  -21.1490   -6.0526   25.9074 H   0  0  0  0  0  0
  -22.0600   -2.7603   23.2864 H   0  0  0  0  0  0
  -22.4063  -11.9897   22.4829 H   0  0  0  0  0  0
  -21.1049  -13.1243   22.2598 H   0  0  0  0  0  0
  -24.6414  -15.8421   20.5156 H   0  0  0  0  0  0
  -26.2483  -15.6365   20.0441 H   0  0  0  0  0  0
  -26.7168  -32.5364   23.1011 H   0  0  0  0  0  0
  -25.0130  -33.9662   25.0389 H   0  0  0  0  0  0
  -22.7177  -31.2883   21.3813 H   0  0  0  0  0  0
  -23.3747  -35.9592   23.3319 H   0  0  0  0  0  0
  -24.3582  -36.8869   22.2052 H   0  0  0  0  0  0
  -23.7231  -37.6456   23.6667 H   0  0  0  0  0  0
  -26.0926  -31.5285   20.5956 H   0  0  0  0  0  0
  -26.8455  -30.8268   21.9946 H   0  0  0  0  0  0
  -28.1039  -28.9564   21.2151 H   0  0  0  0  0  0
  -26.0259  -25.8524   19.0602 H   0  0  0  0  0  0
  -24.0047  -27.2526   19.0158 H   0  0  0  0  0  0
  -23.7664  -30.5579   19.3897 H   0  0  0  0  0  0
  -22.7651  -29.2158   19.8511 H   0  0  0  0  0  0
  -25.1311  -36.1864   25.0798 H   0  0  0  0  0  0
  -20.9972  -28.3274   24.1402 H   0  0  0  0  0  0
  -20.5664  -26.2297   23.3616 H   0  0  0  0  0  0
  -21.6638  -26.7424   22.1224 H   0  0  0  0  0  0
  -19.6931  -25.6304   21.1239 H   0  0  0  0  0  0
  -19.6721  -27.3205   20.6745 H   0  0  0  0  0  0
  -17.4202  -26.6670   21.4010 H   0  0  0  0  0  0
  -18.0337  -26.0085   22.9008 H   0  0  0  0  0  0
  -19.7957  -30.7290   24.2223 H   0  0  0  0  0  0
  -17.5039  -31.6272   24.5185 H   0  0  0  0  0  0
  -15.5368  -30.3008   23.7696 H   0  0  0  0  0  0
  -15.8663  -28.0882   22.7025 H   0  0  0  0  0  0
  -24.5934  -30.7036   25.7769 H   0  0  0  0  0  0
  -24.8885  -32.2908   26.4760 H   0  0  0  0  0  0
  -25.8062  -30.8991   27.0212 H   0  0  0  0  0  0
  -26.2920  -29.6739   24.1152 H   0  0  0  0  0  0
  -27.4016  -29.7243   25.4662 H   0  0  0  0  0  0
  -27.8795  -30.4279   23.9387 H   0  0  0  0  0  0
  -27.2647  -33.3618   26.2015 H   0  0  0  0  0  0
  -28.3889  -32.6824   25.0331 H   0  0  0  0  0  0
  -28.0648  -31.8425   26.5417 H   0  0  0  0  0  0
  -28.2585  -38.0076   24.7509 H   0  0  0  0  0  0
  -28.1045  -36.2600   24.6301 H   0  0  0  0  0  0
  -27.2273  -37.1437   25.8867 H   0  0  0  0  0  0
  -20.9354  -29.8742   21.6854 H   0  0  0  0  0  0
  -26.0133  -38.2816   24.1457 H   0  0  0  0  0  0
  -28.5304  -18.2031   19.7936 H   0  0  0  0  0  0
  -31.9798  -19.1468   23.1788 H   0  0  0  0  0  0
  -33.5918  -21.6695   16.4517 H   0  0  0  0  0  0
  -33.4552  -20.9593   18.1482 H   0  0  0  0  0  0
  -31.4104  -21.4208   19.4944 H   0  0  0  0  0  0
  -31.4373  -22.6892   16.6403 H   0  0  0  0  0  0
  -28.0180  -22.9704   17.7342 H   0  0  0  0  0  0
  -29.4464  -23.4279   16.8791 H   0  0  0  0  0  0
  -27.9467  -25.3437   17.8223 H   0  0  0  0  0  0
  -29.6713  -25.4997   17.9938 H   0  0  0  0  0  0
  -28.0724  -23.7656   21.5603 H   0  0  0  0  0  0
  -27.1609  -23.4729   20.1055 H   0  0  0  0  0  0
  -29.7246  -25.0392   20.1837 H   0  0  0  0  0  0
  -31.1924  -21.2778   23.5390 H   0  0  0  0  0  0
  -29.6885  -21.8362   22.8588 H   0  0  0  0  0  0
  -31.2148  -22.0542   21.9644 H   0  0  0  0  0  0
  -27.7918  -21.1371   21.2814 H   0  0  0  0  0  0
  -27.9199  -20.7053   19.6165 H   0  0  0  0  0  0
  -28.8143  -15.6342   20.7061 H   0  0  0  0  0  0
  -29.7813  -22.5262   20.8837 H   0  0  0  0  0  0
  1 25  1  0  0  0
  1 30  2  0  0  0
  1 87  1  0  0  0
  2  3  1  0  0  0
  2 25  1  0  0  0
  2 90  1  0  0  0
  2 91  1  0  0  0
  3  4  1  0  0  0
  3 92  1  0  0  0
  3 93  1  0  0  0
  4  5  1  0  0  0
  4 94  1  0  0  0
  4 95  1  0  0  0
  5  6  1  0  0  0
  5 26  1  0  0  0
  5 96  1  0  0  0
  6 25  1  0  0  0
  6 97  1  0  0  0
  6 98  1  0  0  0
  7  8  2  0  0  0
  7 26  1  0  0  0
  7 29  1  0  0  0
  8  9  1  0  0  0
  8 22  1  0  0  0
  9 10  1  0  0  0
  9 27  2  0  0  0
 10 11  2  0  0  0
 10 15  1  0  0  0
 11 12  1  0  0  0
 11 99  1  0  0  0
 12 13  2  0  0  0
 12100  1  0  0  0
 13 14  1  0  0  0
 13 31  1  0  0  0
 14 15  2  0  0  0
 14101  1  0  0  0
 15102  1  0  0  0
 16 17  2  0  0  0
 16 21  1  0  0  0
 16 31  1  0  0  0
 17 18  1  0  0  0
 17103  1  0  0  0
 18 19  2  0  0  0
 18104  1  0  0  0
 19 20  1  0  0  0
 19 24  1  0  0  0
 20 21  2  0  0  0
 20105  1  0  0  0
 21 23  1  0  0  0
 22 28  1  0  0  0
 22 32  2  0  0  0
 26 27  1  0  0  0
 28106  1  0  0  0
 28107  1  0  0  0
 29108  1  0  0  0
 29109  1  0  0  0
 33 34  1  0  0  0
 33 66  1  0  0  0
 33 70  2  0  0  0
 34 36  1  0  0  0
 34 59  1  0  0  0
 34110  1  0  0  0
 35 44  2  0  0  0
 35 45  1  0  0  0
 35 68  1  0  0  0
 36 56  1  0  0  0
 36111  1  0  0  0
 37 39  1  0  0  0
 37 47  1  0  0  0
 37 66  1  0  0  0
 37112  1  0  0  0
 38 43  2  0  0  0
 38 46  1  0  0  0
 38 47  1  0  0  0
 39 64  1  0  0  0
 39 67  2  0  0  0
 40 52  1  0  0  0
 40 53  2  0  0  0
 40 58  1  0  0  0
 41113  1  0  0  0
 41114  1  0  0  0
 41115  1  0  0  0
 41 48  1  0  0  0
 42 43  1  0  0  0
 42 66  1  0  0  0
 42116  1  0  0  0
 42117  1  0  0  0
 43 44  1  0  0  0
 44118  1  0  0  0
 45 46  2  0  0  0
 45119  1  0  0  0
 46120  1  0  0  0
 47121  1  0  0  0
 47122  1  0  0  0
 48 56  1  0  0  0
 48 65  1  0  0  0
 48123  1  0  0  0
 49 50  1  0  0  0
 49 53  1  0  0  0
 49 64  1  0  0  0
 49124  1  0  0  0
 50 51  1  0  0  0
 50125  1  0  0  0
 50126  1  0  0  0
 51 52  1  0  0  0
 51127  1  0  0  0
 51128  1  0  0  0
 52129  1  0  0  0
 52130  1  0  0  0
 53 54  1  0  0  0
 54 55  2  0  0  0
 54131  1  0  0  0
 55 57  1  0  0  0
 55132  1  0  0  0
 56 69  2  0  0  0
 57 58  2  0  0  0
 57133  1  0  0  0
 58134  1  0  0  0
 59 60  1  0  0  0
 59 61  1  0  0  0
 59 62  1  0  0  0
 60135  1  0  0  0
 60136  1  0  0  0
 60137  1  0  0  0
 61138  1  0  0  0
 61139  1  0  0  0
 61140  1  0  0  0
 62141  1  0  0  0
 62142  1  0  0  0
 62143  1  0  0  0
 63 65  1  0  0  0
 63144  1  0  0  0
 63145  1  0  0  0
 63146  1  0  0  0
 64147  1  0  0  0
 65148  1  0  0  0
 68 84  1  0  0  0
 71 73  2  0  0  0
 71 75  1  0  0  0
 71149  1  0  0  0
 72 74  2  0  0  0
 72 76  1  0  0  0
 72150  1  0  0  0
 73 74  1  0  0  0
 73 86  1  0  0  0
 74 85  1  0  0  0
 75 76  2  0  0  0
 75 87  1  0  0  0
 76 89  1  0  0  0
 77 79  2  0  0  0
 77 81  1  0  0  0
 77 88  1  0  0  0
 78 80  2  0  0  0
 78151  1  0  0  0
 78152  1  0  0  0
 79 80  1  0  0  0
 79153  1  0  0  0
 80154  1  0  0  0
 81 82  1  0  0  0
 81155  1  0  0  0
 81156  1  0  0  0
 82 84  1  0  0  0
 82157  1  0  0  0
 82158  1  0  0  0
 83 84  1  0  0  0
 83 88  1  0  0  0
 83159  1  0  0  0
 83160  1  0  0  0
 84161  1  0  0  0
 85162  1  0  0  0
 85163  1  0  0  0
 85164  1  0  0  0
 86165  1  0  0  0
 86166  1  0  0  0
 86 88  1  0  0  0
 87167  1  0  0  0
 88168  1  0  0  0
M  CHG  1  88   1
M  ISO  4   1 100  68 101  84 101  87 100
M  END
> <chiral flag>
0

> <version>
0

> <s_m_source_file>
/data/baiqing/PycharmProjects/Reinvent-master-3.2/result/LINK_invent/BTK/process_docking_weight1_custom_product_contain_oxygen_bond_distance_aromatic_linkinvent_7_9_3/rearranged_h_0039.sdf

> <i_m_source_file_index>
46

> <r_mmod_Potential_Energy-OPLS-2005>
133.95654296875

> <r_mmod_Stretch_Energy-OPLS-2005>
135.702774047852

> <r_mmod_Bend_Energy-OPLS-2005>
231.471038818359

> <r_mmod_Torsional_Energy-OPLS-2005>
239.69416809082

> <r_mmod_Improper_Torsional_Energy-OPLS-2005>
8.0108699798584

> <r_mmod_Van_der_Waal_Energy-OPLS-2005>
139.067535400391

> <r_mmod_Electrostatic_Energy-OPLS-2005>
-259.343811035156

> <r_mmod_Solvation_Energy-OPLS-2005>
-440.157318115234

> <b_mmod_Minimization_Converged-OPLS-2005>
0

> <r_mmod_RMS_Derivative-OPLS-2005>
2.69712615013123

$$$$
46
                    3D
 Structure written by MMmdl.
173182  0  0  1  0            999 V2000
  -30.2829  -14.7070   20.5909 C   0  0  0  0  0  0
  -30.5006  -12.4724   19.5490 C   0  0  0  0  0  0
  -29.5898  -12.5413   18.2790 C   0  0  0  0  0  0
  -28.0946  -12.2692   18.6251 C   0  0  0  0  0  0
  -27.6456  -13.1334   19.8427 C   0  0  2  0  0  0
  -28.6286  -12.9554   21.0140 C   0  0  0  0  0  0
  -25.2351  -13.7512   20.4104 C   0  0  0  0  0  0
  -24.1787  -13.0135   20.8752 C   0  0  0  0  0  0
  -24.6380  -11.6583   20.8653 C   0  0  0  0  0  0
  -23.8994  -10.4064   21.0517 C   0  0  0  0  0  0
  -24.3555   -9.4010   21.9300 C   0  0  0  0  0  0
  -23.6229   -8.2046   22.0791 C   0  0  0  0  0  0
  -22.4262   -8.0141   21.3502 C   0  0  0  0  0  0
  -21.9866   -9.0132   20.4671 C   0  0  0  0  0  0
  -22.7174  -10.1987   20.3150 C   0  0  0  0  0  0
  -21.6786   -6.0689   22.5283 C   0  0  0  0  0  0
  -21.3985   -6.5587   23.8229 C   0  0  0  0  0  0
  -21.3665   -5.6739   24.9199 C   0  0  0  0  0  0
  -21.6047   -4.3007   24.7232 C   0  0  0  0  0  0
  -21.8827   -3.8096   23.4353 C   0  0  0  0  0  0
  -21.9171   -4.6920   22.3410 C   0  0  0  0  0  0
  -22.7859  -13.5086   21.1631 C   0  0  0  0  0  0
  -22.1647   -4.2106   21.0989 F   0  0  0  0  0  0
  -21.5662   -3.4520   25.7750 F   0  0  0  0  0  0
  -29.9219  -13.4227   20.5243 N   0  0  0  0  0  0
  -26.2817  -12.8620   20.2659 N   0  0  0  0  0  0
  -25.9343  -11.5996   20.6041 N   0  0  0  0  0  0
  -22.0762  -12.8039   22.0503 N   0  0  0  0  0  0
  -25.3716  -15.0706   20.0014 N   0  0  0  0  0  0
  -31.4458  -15.0129   20.2325 O   0  0  0  0  0  0
  -21.6532   -6.8814   21.4238 O   0  0  0  0  0  0
  -22.3444  -14.5492   20.6751 O   0  0  0  0  0  0
  -24.5915  -31.8384   23.2254 C   0  0  0  0  0  0
  -25.8841  -32.4523   23.8356 C   0  0  1  0  0  0
  -27.0302  -27.2706   20.0364 C   0  0  0  0  0  0
  -25.5840  -33.8407   24.2285 N   0  0  0  0  0  0
  -23.3696  -30.4499   21.5886 C   0  0  2  0  0  0
  -24.8479  -29.0463   20.0045 C   0  0  0  0  0  0
  -22.7028  -29.4098   22.5249 C   0  0  0  0  0  0
  -17.9433  -28.1310   22.8528 C   0  0  0  0  0  0
  -24.1529  -36.7184   23.2669 C   0  0  0  0  0  0
  -25.9232  -30.7062   21.4639 C   0  0  0  0  0  0
  -25.9825  -29.3878   20.7434 C   0  0  0  0  0  0
  -27.0511  -28.4453   20.8370 C   0  0  0  0  0  0
  -26.0822  -27.2376   19.0002 C   0  0  0  0  0  0
  -24.8969  -27.9562   19.1237 C   0  0  0  0  0  0
  -23.5872  -29.8762   20.1566 C   0  0  0  0  0  0
  -25.4130  -36.2921   24.0372 C   0  0  1  0  0  0
  -20.5314  -28.3012   23.1285 C   0  0  2  0  0  0
  -20.5322  -26.9051   22.5356 C   0  0  0  0  0  0
  -19.4404  -26.6965   21.4700 C   0  0  0  0  0  0
  -18.0426  -26.8265   22.1149 C   0  0  0  0  0  0
  -19.1018  -28.8589   23.2670 C   0  0  0  0  0  0
  -18.9510  -30.1309   23.8462 C   0  0  0  0  0  0
  -17.6781  -30.6556   24.0767 C   0  0  0  0  0  0
  -25.9044  -34.9255   23.5157 C   0  0  0  0  0  0
  -16.5156  -29.9216   23.7197 C   0  0  0  0  0  0
  -16.6521  -28.6974   23.0790 C   0  0  0  0  0  0
  -26.4408  -31.6412   25.0714 C   0  0  0  0  0  0
  -25.3829  -31.3500   26.1588 C   0  0  0  0  0  0
  -27.0430  -30.2820   24.6452 C   0  0  0  0  0  0
  -27.6028  -32.4235   25.7360 C   0  0  0  0  0  0
  -27.5587  -37.1705   24.8473 C   0  0  0  0  0  0
  -21.3728  -29.2285   22.3867 N   0  0  0  0  0  0
  -26.4263  -37.3603   23.9427 N   0  0  0  0  0  0
  -24.6424  -31.0174   22.1374 N   0  0  0  0  0  0
  -23.3890  -28.7737   23.3364 O   0  0  0  0  0  0
  -27.4071  -25.9978   20.4954 O   0  0  0  0  0  0
  -26.5655  -34.8755   22.4732 O   0  0  0  0  0  0
  -23.5112  -32.1407   23.7612 O   0  0  0  0  0  0
  -28.1861  -19.3608   20.9030 C   0  0  0  0  0  0
  -27.3606  -20.4611   21.2413 C   0  0  0  0  0  0
  -27.8856  -17.9904   21.1265 C   0  0  0  0  0  0
  -26.5562  -17.7974   21.6806 C   0  0  0  0  0  0
  -25.6045  -18.9237   21.7645 C   0  0  0  0  0  0
  -25.9967  -20.2972   21.6240 C   0  0  0  0  0  0
  -24.0368  -23.7615   22.6621 C   0  0  0  0  0  0
  -22.9877  -23.2008   23.3451 C   0  0  0  0  0  0
  -24.0638  -25.2400   22.3931 C   0  0  0  0  0  0
  -24.9983  -25.9028   21.4404 C   0  0  0  0  0  0
  -25.6317  -23.5792   20.7222 C   0  0  0  0  0  0
  -26.1358  -25.1270   20.7369 C   0  0  1  0  0  0
  -28.0813  -21.7843   21.2625 C   0  0  0  0  0  0
  -26.1294  -16.5110   22.3982 C   0  0  0  0  0  0
  -24.1237  -18.6329   22.0447 C   0  0  0  0  0  0
  -29.1181  -17.0627   20.6794 C   0  0  0  0  0  0
  -24.9543  -21.4577   21.9964 C   0  0  0  0  0  0
  -29.2565  -15.5682   20.8752 N   0  0  0  0  0  0
  -25.2033  -22.9802   22.0431 N   0  3  1  0  0  0
  -31.5346  -12.7540   19.2581 H   0  0  0  0  0  0
  -30.5478  -11.4409   19.9573 H   0  0  0  0  0  0
  -29.9260  -11.8408   17.5055 H   0  0  0  0  0  0
  -29.6512  -13.5467   17.8318 H   0  0  0  0  0  0
  -27.9775  -11.2049   18.8519 H   0  0  0  0  0  0
  -27.4555  -12.4759   17.7534 H   0  0  0  0  0  0
  -27.6803  -14.1603   19.4890 H   0  0  0  0  0  0
  -28.6838  -11.9114   21.3368 H   0  0  0  0  0  0
  -28.2905  -13.5040   21.8902 H   0  0  0  0  0  0
  -25.2813   -9.5347   22.4778 H   0  0  0  0  0  0
  -23.9948   -7.4330   22.7421 H   0  0  0  0  0  0
  -21.0846   -8.8627   19.8908 H   0  0  0  0  0  0
  -22.3789  -10.9478   19.6159 H   0  0  0  0  0  0
  -21.1951   -7.6100   23.9714 H   0  0  0  0  0  0
  -21.1519   -6.0492   25.9101 H   0  0  0  0  0  0
  -22.0615   -2.7568   23.2860 H   0  0  0  0  0  0
  -22.4402  -11.9551   22.4626 H   0  0  0  0  0  0
  -21.1491  -13.1077   22.3095 H   0  0  0  0  0  0
  -24.5945  -15.7338   19.9879 H   0  0  0  0  0  0
  -26.2395  -15.4758   19.6756 H   0  0  0  0  0  0
  -26.6816  -32.5102   23.0950 H   0  0  0  0  0  0
  -24.9799  -33.9527   25.0332 H   0  0  0  0  0  0
  -22.6296  -31.2539   21.4971 H   0  0  0  0  0  0
  -23.3747  -35.9541   23.3244 H   0  0  0  0  0  0
  -24.3682  -36.8861   22.2093 H   0  0  0  0  0  0
  -23.7309  -37.6385   23.6737 H   0  0  0  0  0  0
  -26.1303  -31.4775   20.7344 H   0  0  0  0  0  0
  -26.7814  -30.6848   22.1246 H   0  0  0  0  0  0
  -27.7023  -28.4697   21.6986 H   0  0  0  0  0  0
  -26.0548  -26.4140   18.2751 H   0  0  0  0  0  0
  -24.0470  -27.7435   18.4807 H   0  0  0  0  0  0
  -23.7133  -30.7084   19.4823 H   0  0  0  0  0  0
  -22.6996  -29.3266   19.8150 H   0  0  0  0  0  0
  -25.1282  -36.1753   25.0849 H   0  0  0  0  0  0
  -20.8440  -28.2366   24.1759 H   0  0  0  0  0  0
  -20.2947  -26.2488   23.3778 H   0  0  0  0  0  0
  -21.5460  -26.6230   22.2104 H   0  0  0  0  0  0
  -19.4643  -25.7108   20.9731 H   0  0  0  0  0  0
  -19.5064  -27.5005   20.7463 H   0  0  0  0  0  0
  -17.2809  -26.7964   21.3193 H   0  0  0  0  0  0
  -17.8962  -25.9600   22.7645 H   0  0  0  0  0  0
  -19.8492  -30.6909   24.0943 H   0  0  0  0  0  0
  -17.6028  -31.6435   24.5275 H   0  0  0  0  0  0
  -15.5370  -30.3245   23.9012 H   0  0  0  0  0  0
  -15.7788  -28.1629   22.7218 H   0  0  0  0  0  0
  -24.6024  -30.6715   25.8040 H   0  0  0  0  0  0
  -24.8917  -32.2584   26.5099 H   0  0  0  0  0  0
  -25.8253  -30.8685   27.0340 H   0  0  0  0  0  0
  -26.3096  -29.6379   24.1515 H   0  0  0  0  0  0
  -27.4065  -29.7180   25.5070 H   0  0  0  0  0  0
  -27.8972  -30.4037   23.9805 H   0  0  0  0  0  0
  -27.2696  -33.3663   26.1758 H   0  0  0  0  0  0
  -28.3787  -32.6615   25.0024 H   0  0  0  0  0  0
  -28.0796  -31.8495   26.5345 H   0  0  0  0  0  0
  -28.2483  -38.0103   24.7496 H   0  0  0  0  0  0
  -28.1196  -36.2593   24.6289 H   0  0  0  0  0  0
  -27.2308  -37.1314   25.8877 H   0  0  0  0  0  0
  -20.8933  -29.7409   21.6542 H   0  0  0  0  0  0
  -26.0139  -38.2665   24.1413 H   0  0  0  0  0  0
  -29.1667  -19.5989   20.5624 H   0  0  0  0  0  0
  -22.1415  -23.7457   23.7446 H   0  0  0  0  0  0
  -22.9015  -22.1673   23.4860 H   0  0  0  0  0  0
  -23.9406  -25.9747   23.1678 H   0  0  0  0  0  0
  -23.1173  -25.3168   21.8816 H   0  0  0  0  0  0
  -25.4980  -26.7075   22.0067 H   0  0  0  0  0  0
  -24.2707  -26.3500   20.7707 H   0  0  0  0  0  0
  -26.1375  -22.9299   20.0253 H   0  0  0  0  0  0
  -24.6470  -23.6377   20.2081 H   0  0  0  0  0  0
  -25.8655  -25.1104   19.7076 H   0  0  0  0  0  0
  -29.1017  -21.6518   21.6094 H   0  0  0  0  0  0
  -27.6528  -22.5109   21.9356 H   0  0  0  0  0  0
  -28.1365  -22.2373   20.2798 H   0  0  0  0  0  0
  -26.8491  -15.7046   22.3633 H   0  0  0  0  0  0
  -25.1797  -16.0662   22.0805 H   0  0  0  0  0  0
  -25.9181  -16.7227   23.4474 H   0  0  0  0  0  0
  -23.8086  -17.6091   21.9529 H   0  0  0  0  0  0
  -23.4839  -19.1147   21.3285 H   0  0  0  0  0  0
  -23.8364  -18.9523   23.0381 H   0  0  0  0  0  0
  -30.0061  -17.4962   21.1992 H   0  0  0  0  0  0
  -29.2553  -17.2208   19.5819 H   0  0  0  0  0  0
  -24.7770  -21.2321   23.0637 H   0  0  0  0  0  0
  -23.9989  -21.2607   21.4831 H   0  0  0  0  0  0
  -28.4198  -15.0896   21.1062 H   0  0  0  0  0  0
  -25.9508  -23.1371   22.6907 H   0  0  0  0  0  0
  1 25  1  0  0  0
  1 30  2  0  0  0
  1 88  1  0  0  0
  2  3  1  0  0  0
  2 25  1  0  0  0
  2 90  1  0  0  0
  2 91  1  0  0  0
  3  4  1  0  0  0
  3 92  1  0  0  0
  3 93  1  0  0  0
  4  5  1  0  0  0
  4 94  1  0  0  0
  4 95  1  0  0  0
  5  6  1  0  0  0
  5 26  1  0  0  0
  5 96  1  0  0  0
  6 25  1  0  0  0
  6 97  1  0  0  0
  6 98  1  0  0  0
  7  8  2  0  0  0
  7 26  1  0  0  0
  7 29  1  0  0  0
  8  9  1  0  0  0
  8 22  1  0  0  0
  9 10  1  0  0  0
  9 27  2  0  0  0
 10 11  2  0  0  0
 10 15  1  0  0  0
 11 12  1  0  0  0
 11 99  1  0  0  0
 12 13  2  0  0  0
 12100  1  0  0  0
 13 14  1  0  0  0
 13 31  1  0  0  0
 14 15  2  0  0  0
 14101  1  0  0  0
 15102  1  0  0  0
 16 17  2  0  0  0
 16 21  1  0  0  0
 16 31  1  0  0  0
 17 18  1  0  0  0
 17103  1  0  0  0
 18 19  2  0  0  0
 18104  1  0  0  0
 19 20  1  0  0  0
 19 24  1  0  0  0
 20 21  2  0  0  0
 20105  1  0  0  0
 21 23  1  0  0  0
 22 28  1  0  0  0
 22 32  2  0  0  0
 26 27  1  0  0  0
 28106  1  0  0  0
 28107  1  0  0  0
 29108  1  0  0  0
 29109  1  0  0  0
 33 34  1  0  0  0
 33 66  1  0  0  0
 33 70  2  0  0  0
 34 36  1  0  0  0
 34 59  1  0  0  0
 34110  1  0  0  0
 35 44  2  0  0  0
 35 45  1  0  0  0
 35 68  1  0  0  0
 36 56  1  0  0  0
 36111  1  0  0  0
 37 39  1  0  0  0
 37 47  1  0  0  0
 37 66  1  0  0  0
 37112  1  0  0  0
 38 43  2  0  0  0
 38 46  1  0  0  0
 38 47  1  0  0  0
 39 64  1  0  0  0
 39 67  2  0  0  0
 40 52  1  0  0  0
 40 53  2  0  0  0
 40 58  1  0  0  0
 41113  1  0  0  0
 41114  1  0  0  0
 41115  1  0  0  0
 41 48  1  0  0  0
 42 43  1  0  0  0
 42 66  1  0  0  0
 42116  1  0  0  0
 42117  1  0  0  0
 43 44  1  0  0  0
 44118  1  0  0  0
 45 46  2  0  0  0
 45119  1  0  0  0
 46120  1  0  0  0
 47121  1  0  0  0
 47122  1  0  0  0
 48 56  1  0  0  0
 48 65  1  0  0  0
 48123  1  0  0  0
 49 50  1  0  0  0
 49 53  1  0  0  0
 49 64  1  0  0  0
 49124  1  0  0  0
 50 51  1  0  0  0
 50125  1  0  0  0
 50126  1  0  0  0
 51 52  1  0  0  0
 51127  1  0  0  0
 51128  1  0  0  0
 52129  1  0  0  0
 52130  1  0  0  0
 53 54  1  0  0  0
 54 55  2  0  0  0
 54131  1  0  0  0
 55 57  1  0  0  0
 55132  1  0  0  0
 56 69  2  0  0  0
 57 58  2  0  0  0
 57133  1  0  0  0
 58134  1  0  0  0
 59 60  1  0  0  0
 59 61  1  0  0  0
 59 62  1  0  0  0
 60135  1  0  0  0
 60136  1  0  0  0
 60137  1  0  0  0
 61138  1  0  0  0
 61139  1  0  0  0
 61140  1  0  0  0
 62141  1  0  0  0
 62142  1  0  0  0
 62143  1  0  0  0
 63 65  1  0  0  0
 63144  1  0  0  0
 63145  1  0  0  0
 63146  1  0  0  0
 64147  1  0  0  0
 65148  1  0  0  0
 68 82  1  0  0  0
 71 72  2  0  0  0
 71 73  1  0  0  0
 71149  1  0  0  0
 72 76  1  0  0  0
 72 83  1  0  0  0
 73 74  2  0  0  0
 73 86  1  0  0  0
 74 75  1  0  0  0
 74 84  1  0  0  0
 75 76  2  0  0  0
 75 85  1  0  0  0
 76 87  1  0  0  0
 77 78  2  0  0  0
 77 79  1  0  0  0
 77 89  1  0  0  0
 78150  1  0  0  0
 78151  1  0  0  0
 79 80  1  0  0  0
 79152  1  0  0  0
 79153  1  0  0  0
 80 82  1  0  0  0
 80154  1  0  0  0
 80155  1  0  0  0
 81 82  1  0  0  0
 81 89  1  0  0  0
 81156  1  0  0  0
 81157  1  0  0  0
 82158  1  0  0  0
 83159  1  0  0  0
 83160  1  0  0  0
 83161  1  0  0  0
 84162  1  0  0  0
 84163  1  0  0  0
 84164  1  0  0  0
 85165  1  0  0  0
 85166  1  0  0  0
 85167  1  0  0  0
 86 88  1  0  0  0
 86168  1  0  0  0
 86169  1  0  0  0
 87170  1  0  0  0
 87171  1  0  0  0
 87 89  1  0  0  0
 88172  1  0  0  0
 89173  1  0  0  0
M  CHG  1  89   1
M  ISO  4   1 100  68 101  82 101  88 100
M  END
> <chiral flag>
0

> <version>
0

> <s_m_source_file>
/data/baiqing/PycharmProjects/Reinvent-master-3.2/result/LINK_invent/BTK/process_docking_weight1_custom_product_contain_oxygen_bond_distance_aromatic_linkinvent_7_9_3/rearranged_h_0039.sdf

> <i_m_source_file_index>
47

> <r_mmod_Potential_Energy-OPLS-2005>
906.812561035156

> <r_mmod_Stretch_Energy-OPLS-2005>
169.681365966797

> <r_mmod_Bend_Energy-OPLS-2005>
450.000091552734

> <r_mmod_Torsional_Energy-OPLS-2005>
373.128540039062

> <r_mmod_Improper_Torsional_Energy-OPLS-2005>
17.883695602417

> <r_mmod_Van_der_Waal_Energy-OPLS-2005>
257.439025878906

> <r_mmod_Electrostatic_Energy-OPLS-2005>
-349.12109375

> <r_mmod_Solvation_Energy-OPLS-2005>
-401.57470703125

> <b_mmod_Minimization_Converged-OPLS-2005>
0

> <r_mmod_RMS_Derivative-OPLS-2005>
49.1088371276855

$$$$
47
                    3D
 Structure written by MMmdl.
161170  0  0  1  0            999 V2000
  -30.6130  -14.6647   20.4679 C   0  0  0  0  0  0
  -30.4396  -12.4018   19.4471 C   0  0  0  0  0  0
  -29.5059  -12.5000   18.2196 C   0  0  0  0  0  0
  -28.0300  -12.3321   18.6360 C   0  0  0  0  0  0
  -27.6466  -13.2137   19.8539 C   0  0  2  0  0  0
  -28.6973  -13.0889   20.9809 C   0  0  0  0  0  0
  -25.2507  -13.8103   20.5740 C   0  0  0  0  0  0
  -24.1791  -13.0373   20.9228 C   0  0  0  0  0  0
  -24.6377  -11.6865   20.8717 C   0  0  0  0  0  0
  -23.9060  -10.4260   21.0380 C   0  0  0  0  0  0
  -24.3619   -9.4192   21.9164 C   0  0  0  0  0  0
  -23.6296   -8.2232   22.0744 C   0  0  0  0  0  0
  -22.4274   -8.0265   21.3536 C   0  0  0  0  0  0
  -21.9906   -9.0235   20.4637 C   0  0  0  0  0  0
  -22.7236  -10.2113   20.3034 C   0  0  0  0  0  0
  -21.6848   -6.0738   22.5282 C   0  0  0  0  0  0
  -21.4010   -6.5640   23.8219 C   0  0  0  0  0  0
  -21.3652   -5.6786   24.9176 C   0  0  0  0  0  0
  -21.6042   -4.3048   24.7222 C   0  0  0  0  0  0
  -21.8823   -3.8148   23.4338 C   0  0  0  0  0  0
  -21.9205   -4.6969   22.3397 C   0  0  0  0  0  0
  -22.7821  -13.5185   21.1883 C   0  0  0  0  0  0
  -22.1671   -4.2162   21.0970 F   0  0  0  0  0  0
  -21.5629   -3.4521   25.7729 F   0  0  0  0  0  0
  -30.0093  -13.4337   20.4090 N   0  0  0  0  0  0
  -26.2945  -12.9324   20.3283 N   0  0  0  0  0  0
  -25.9301  -11.6475   20.5716 N   0  0  0  0  0  0
  -22.0460  -12.8174   22.0435 N   0  0  0  0  0  0
  -25.4047  -15.1823   20.4253 N   0  0  0  0  0  0
  -31.7952  -14.8178   20.1493 O   0  0  0  0  0  0
  -21.6631   -6.8875   21.4241 O   0  0  0  0  0  0
  -22.3511  -14.5495   20.6734 O   0  0  0  0  0  0
  -24.6214  -31.8614   23.2011 C   0  0  0  0  0  0
  -25.9066  -32.4784   23.8338 C   0  0  1  0  0  0
  -27.2172  -27.3148   20.1303 C   0  0  0  0  0  0
  -25.5907  -33.8583   24.2278 N   0  0  0  0  0  0
  -23.4158  -30.4845   21.5426 C   0  0  2  0  0  0
  -24.8635  -28.9357   20.1152 C   0  0  0  0  0  0
  -22.7456  -29.4628   22.4909 C   0  0  0  0  0  0
  -18.0301  -28.1390   22.8517 C   0  0  0  0  0  0
  -24.1486  -36.7281   23.2640 C   0  0  0  0  0  0
  -25.9560  -30.7879   21.3761 C   0  0  0  0  0  0
  -26.0286  -29.4106   20.7298 C   0  0  0  0  0  0
  -27.2088  -28.6094   20.7359 C   0  0  0  0  0  0
  -26.0435  -26.9094   19.4600 C   0  0  0  0  0  0
  -24.8698  -27.6881   19.4740 C   0  0  0  0  0  0
  -23.6327  -29.8172   20.1582 C   0  0  0  0  0  0
  -25.4118  -36.3078   24.0332 C   0  0  1  0  0  0
  -20.5901  -28.3683   23.1292 C   0  0  2  0  0  0
  -20.6794  -26.9412   22.5409 C   0  0  0  0  0  0
  -19.5763  -26.6396   21.5214 C   0  0  0  0  0  0
  -18.1942  -26.7940   22.1626 C   0  0  0  0  0  0
  -19.1558  -28.8854   23.2904 C   0  0  0  0  0  0
  -18.9475  -30.1469   23.8899 C   0  0  0  0  0  0
  -17.6476  -30.6597   24.0586 C   0  0  0  0  0  0
  -25.9060  -34.9452   23.5105 C   0  0  0  0  0  0
  -16.5368  -29.9097   23.6342 C   0  0  0  0  0  0
  -16.7291  -28.6512   23.0368 C   0  0  0  0  0  0
  -26.4467  -31.6588   25.0693 C   0  0  0  0  0  0
  -25.3710  -31.3735   26.1429 C   0  0  0  0  0  0
  -27.0300  -30.3013   24.6109 C   0  0  0  0  0  0
  -27.6019  -32.4324   25.7475 C   0  0  0  0  0  0
  -27.5589  -37.1806   24.8474 C   0  0  0  0  0  0
  -21.4178  -29.3034   22.3669 N   0  0  0  0  0  0
  -26.4295  -37.3777   23.9418 N   0  0  0  0  0  0
  -24.6825  -31.0635   22.0957 N   0  0  0  0  0  0
  -23.4194  -28.8181   23.2981 O   0  0  0  0  0  0
  -28.3425  -26.4797   20.1074 O   0  0  0  0  0  0
  -26.5621  -34.8922   22.4668 O   0  0  0  0  0  0
  -23.5379  -32.1400   23.7352 O   0  0  0  0  0  0
  -30.9543  -17.9700   20.9655 C   0  0  0  0  0  0
  -28.8454  -19.2871   19.6815 C   0  0  0  0  0  0
  -30.9680  -19.3976   20.8103 C   0  0  0  0  0  0
  -29.9059  -20.0975   20.1530 C   0  0  0  0  0  0
  -29.8943  -17.1652   20.4704 C   0  0  0  0  0  0
  -28.8440  -17.8712   19.8204 C   0  0  0  0  0  0
  -29.1547  -24.0249   19.9595 C   0  0  0  0  0  0
  -27.0836  -23.1097   21.8091 C   0  0  0  0  0  0
  -26.9643  -24.4890   21.1113 C   0  0  0  0  0  0
  -28.4671  -22.4235   21.6835 C   0  0  0  0  0  0
  -28.3279  -25.1254   20.7407 C   0  0  2  0  0  0
  -32.1760  -20.1563   21.3348 C   0  0  0  0  0  0
  -29.9660  -21.6302   19.7593 C   0  0  0  0  0  0
  -29.1546  -22.7212   20.4208 N   0  0  0  0  0  0
  -29.7679  -15.7197   20.6845 N   0  0  0  0  0  0
  -29.7828  -24.3575   18.9498 O   0  0  0  0  0  0
  -27.5398  -17.0024   19.1039 Cl  0  0  0  0  0  0
  -31.4801  -12.5310   19.1433 H   0  0  0  0  0  0
  -30.3787  -11.4114   19.9006 H   0  0  0  0  0  0
  -29.7733  -11.7427   17.4817 H   0  0  0  0  0  0
  -29.6408  -13.4653   17.7281 H   0  0  0  0  0  0
  -27.8784  -11.2812   18.8845 H   0  0  0  0  0  0
  -27.3708  -12.5416   17.7927 H   0  0  0  0  0  0
  -27.6526  -14.2413   19.4958 H   0  0  0  0  0  0
  -28.7152  -12.0715   21.3732 H   0  0  0  0  0  0
  -28.4456  -13.7313   21.8264 H   0  0  0  0  0  0
  -25.2766   -9.5691   22.4732 H   0  0  0  0  0  0
  -24.0009   -7.4632   22.7465 H   0  0  0  0  0  0
  -21.0840   -8.8755   19.8944 H   0  0  0  0  0  0
  -22.3688  -10.9651   19.6140 H   0  0  0  0  0  0
  -21.1983   -7.6145   23.9730 H   0  0  0  0  0  0
  -21.1467   -6.0503   25.9084 H   0  0  0  0  0  0
  -22.0606   -2.7611   23.2824 H   0  0  0  0  0  0
  -22.4078  -11.9819   22.4792 H   0  0  0  0  0  0
  -21.1080  -13.1196   22.2655 H   0  0  0  0  0  0
  -24.6171  -15.8105   20.5321 H   0  0  0  0  0  0
  -26.2149  -15.6390   20.0209 H   0  0  0  0  0  0
  -26.7128  -32.5468   23.1092 H   0  0  0  0  0  0
  -25.0085  -33.9732   25.0440 H   0  0  0  0  0  0
  -22.7080  -31.3040   21.3994 H   0  0  0  0  0  0
  -23.3754  -35.9606   23.3303 H   0  0  0  0  0  0
  -24.3579  -36.8879   22.2049 H   0  0  0  0  0  0
  -23.7229  -37.6486   23.6648 H   0  0  0  0  0  0
  -26.0873  -31.5437   20.6001 H   0  0  0  0  0  0
  -26.8374  -30.8411   22.0034 H   0  0  0  0  0  0
  -28.1033  -28.9699   21.2262 H   0  0  0  0  0  0
  -26.0243  -25.9814   18.9106 H   0  0  0  0  0  0
  -23.9813  -27.3298   18.9710 H   0  0  0  0  0  0
  -23.7543  -30.5907   19.3978 H   0  0  0  0  0  0
  -22.7526  -29.2453   19.8579 H   0  0  0  0  0  0
  -25.1299  -36.1926   25.0821 H   0  0  0  0  0  0
  -21.0029  -28.3248   24.1395 H   0  0  0  0  0  0
  -20.5701  -26.2282   23.3595 H   0  0  0  0  0  0
  -21.6666  -26.7453   22.1193 H   0  0  0  0  0  0
  -19.6905  -25.6301   21.1242 H   0  0  0  0  0  0
  -19.6703  -27.3216   20.6752 H   0  0  0  0  0  0
  -17.4225  -26.6732   21.4013 H   0  0  0  0  0  0
  -18.0339  -26.0070   22.9008 H   0  0  0  0  0  0
  -19.7947  -30.7322   24.2225 H   0  0  0  0  0  0
  -17.5025  -31.6269   24.5208 H   0  0  0  0  0  0
  -15.5369  -30.3010   23.7646 H   0  0  0  0  0  0
  -15.8703  -28.0839   22.7058 H   0  0  0  0  0  0
  -24.5889  -30.7067   25.7789 H   0  0  0  0  0  0
  -24.8897  -32.2904   26.4831 H   0  0  0  0  0  0
  -25.8049  -30.8953   27.0217 H   0  0  0  0  0  0
  -26.2854  -29.6788   24.1125 H   0  0  0  0  0  0
  -27.4023  -29.7229   25.4575 H   0  0  0  0  0  0
  -27.8715  -30.4325   23.9304 H   0  0  0  0  0  0
  -27.2616  -33.3629   26.2036 H   0  0  0  0  0  0
  -28.3849  -32.6869   25.0322 H   0  0  0  0  0  0
  -28.0655  -31.8451   26.5411 H   0  0  0  0  0  0
  -28.2612  -38.0105   24.7541 H   0  0  0  0  0  0
  -28.1086  -36.2638   24.6283 H   0  0  0  0  0  0
  -27.2317  -37.1436   25.8881 H   0  0  0  0  0  0
  -20.9327  -29.8736   21.6894 H   0  0  0  0  0  0
  -26.0166  -38.2846   24.1426 H   0  0  0  0  0  0
  -31.7746  -17.4851   21.4767 H   0  0  0  0  0  0
  -28.0289  -19.7516   19.1471 H   0  0  0  0  0  0
  -26.3196  -22.4473   21.3967 H   0  0  0  0  0  0
  -26.8404  -23.2086   22.8683 H   0  0  0  0  0  0
  -26.3801  -25.1645   21.7385 H   0  0  0  0  0  0
  -26.3856  -24.3288   20.2041 H   0  0  0  0  0  0
  -28.3493  -21.3512   21.8368 H   0  0  0  0  0  0
  -29.1148  -22.7705   22.4911 H   0  0  0  0  0  0
  -28.8663  -25.2736   21.6791 H   0  0  0  0  0  0
  -32.6950  -19.5867   22.1070 H   0  0  0  0  0  0
  -31.8920  -21.1124   21.7748 H   0  0  0  0  0  0
  -32.8820  -20.3466   20.5257 H   0  0  0  0  0  0
  -29.6942  -21.6588   18.7027 H   0  0  0  0  0  0
  -31.0066  -21.9526   19.7661 H   0  0  0  0  0  0
  -28.8131  -15.4161   20.7958 H   0  0  0  0  0  0
  1 25  1  0  0  0
  1 30  2  0  0  0
  1 85  1  0  0  0
  2  3  1  0  0  0
  2 25  1  0  0  0
  2 88  1  0  0  0
  2 89  1  0  0  0
  3  4  1  0  0  0
  3 90  1  0  0  0
  3 91  1  0  0  0
  4  5  1  0  0  0
  4 92  1  0  0  0
  4 93  1  0  0  0
  5  6  1  0  0  0
  5 26  1  0  0  0
  5 94  1  0  0  0
  6 25  1  0  0  0
  6 95  1  0  0  0
  6 96  1  0  0  0
  7  8  2  0  0  0
  7 26  1  0  0  0
  7 29  1  0  0  0
  8  9  1  0  0  0
  8 22  1  0  0  0
  9 10  1  0  0  0
  9 27  2  0  0  0
 10 11  2  0  0  0
 10 15  1  0  0  0
 11 12  1  0  0  0
 11 97  1  0  0  0
 12 13  2  0  0  0
 12 98  1  0  0  0
 13 14  1  0  0  0
 13 31  1  0  0  0
 14 15  2  0  0  0
 14 99  1  0  0  0
 15100  1  0  0  0
 16 17  2  0  0  0
 16 21  1  0  0  0
 16 31  1  0  0  0
 17 18  1  0  0  0
 17101  1  0  0  0
 18 19  2  0  0  0
 18102  1  0  0  0
 19 20  1  0  0  0
 19 24  1  0  0  0
 20 21  2  0  0  0
 20103  1  0  0  0
 21 23  1  0  0  0
 22 28  1  0  0  0
 22 32  2  0  0  0
 26 27  1  0  0  0
 28104  1  0  0  0
 28105  1  0  0  0
 29106  1  0  0  0
 29107  1  0  0  0
 33 34  1  0  0  0
 33 66  1  0  0  0
 33 70  2  0  0  0
 34 36  1  0  0  0
 34 59  1  0  0  0
 34108  1  0  0  0
 35 44  2  0  0  0
 35 45  1  0  0  0
 35 68  1  0  0  0
 36 56  1  0  0  0
 36109  1  0  0  0
 37 39  1  0  0  0
 37 47  1  0  0  0
 37 66  1  0  0  0
 37110  1  0  0  0
 38 43  2  0  0  0
 38 46  1  0  0  0
 38 47  1  0  0  0
 39 64  1  0  0  0
 39 67  2  0  0  0
 40 52  1  0  0  0
 40 53  2  0  0  0
 40 58  1  0  0  0
 41111  1  0  0  0
 41112  1  0  0  0
 41113  1  0  0  0
 41 48  1  0  0  0
 42 43  1  0  0  0
 42 66  1  0  0  0
 42114  1  0  0  0
 42115  1  0  0  0
 43 44  1  0  0  0
 44116  1  0  0  0
 45 46  2  0  0  0
 45117  1  0  0  0
 46118  1  0  0  0
 47119  1  0  0  0
 47120  1  0  0  0
 48 56  1  0  0  0
 48 65  1  0  0  0
 48121  1  0  0  0
 49 50  1  0  0  0
 49 53  1  0  0  0
 49 64  1  0  0  0
 49122  1  0  0  0
 50 51  1  0  0  0
 50123  1  0  0  0
 50124  1  0  0  0
 51 52  1  0  0  0
 51125  1  0  0  0
 51126  1  0  0  0
 52127  1  0  0  0
 52128  1  0  0  0
 53 54  1  0  0  0
 54 55  2  0  0  0
 54129  1  0  0  0
 55 57  1  0  0  0
 55130  1  0  0  0
 56 69  2  0  0  0
 57 58  2  0  0  0
 57131  1  0  0  0
 58132  1  0  0  0
 59 60  1  0  0  0
 59 61  1  0  0  0
 59 62  1  0  0  0
 60133  1  0  0  0
 60134  1  0  0  0
 60135  1  0  0  0
 61136  1  0  0  0
 61137  1  0  0  0
 61138  1  0  0  0
 62139  1  0  0  0
 62140  1  0  0  0
 62141  1  0  0  0
 63 65  1  0  0  0
 63142  1  0  0  0
 63143  1  0  0  0
 63144  1  0  0  0
 64145  1  0  0  0
 65146  1  0  0  0
 68 81  1  0  0  0
 71 73  2  0  0  0
 71 75  1  0  0  0
 71147  1  0  0  0
 72 74  2  0  0  0
 72 76  1  0  0  0
 72148  1  0  0  0
 73 74  1  0  0  0
 73 82  1  0  0  0
 74 83  1  0  0  0
 75 76  2  0  0  0
 75 85  1  0  0  0
 76 87  1  0  0  0
 77 81  1  0  0  0
 77 84  1  0  0  0
 77 86  2  0  0  0
 78 79  1  0  0  0
 78 80  1  0  0  0
 78149  1  0  0  0
 78150  1  0  0  0
 79 81  1  0  0  0
 79151  1  0  0  0
 79152  1  0  0  0
 80 84  1  0  0  0
 80153  1  0  0  0
 80154  1  0  0  0
 81155  1  0  0  0
 82156  1  0  0  0
 82157  1  0  0  0
 82158  1  0  0  0
 83 84  1  0  0  0
 83159  1  0  0  0
 83160  1  0  0  0
 85161  1  0  0  0
M  ISO  4   1 100  68 101  81 101  85 100
M  END
> <chiral flag>
0

> <version>
0

> <s_m_source_file>
/data/baiqing/PycharmProjects/Reinvent-master-3.2/result/LINK_invent/BTK/process_docking_weight1_custom_product_contain_oxygen_bond_distance_aromatic_linkinvent_7_9_3/rearranged_h_0039.sdf

> <i_m_source_file_index>
48

> <r_mmod_Potential_Energy-OPLS-2005>
149.2333984375

> <r_mmod_Stretch_Energy-OPLS-2005>
87.0115585327148

> <r_mmod_Bend_Energy-OPLS-2005>
153.317169189453

> <r_mmod_Torsional_Energy-OPLS-2005>
289.293395996094

> <r_mmod_Improper_Torsional_Energy-OPLS-2005>
7.53814888000488

> <r_mmod_Van_der_Waal_Energy-OPLS-2005>
151.09375

> <r_mmod_Electrostatic_Energy-OPLS-2005>
-370.557159423828

> <r_mmod_Solvation_Energy-OPLS-2005>
-221.434555053711

> <b_mmod_Minimization_Converged-OPLS-2005>
0

> <r_mmod_RMS_Derivative-OPLS-2005>
2.55570578575134

$$$$
48
                    3D
 Structure written by MMmdl.
157165  0  0  1  0            999 V2000
  -30.7257  -14.4431   20.6403 C   0  0  0  0  0  0
  -30.4263  -12.3094   19.4206 C   0  0  0  0  0  0
  -29.4933  -12.5148   18.2102 C   0  0  0  0  0  0
  -28.0177  -12.3695   18.6242 C   0  0  0  0  0  0
  -27.6681  -13.2046   19.8832 C   0  0  2  0  0  0
  -28.7067  -12.9689   21.0038 C   0  0  0  0  0  0
  -25.2619  -13.8155   20.5676 C   0  0  0  0  0  0
  -24.1860  -13.0441   20.9160 C   0  0  0  0  0  0
  -24.6396  -11.6900   20.8726 C   0  0  0  0  0  0
  -23.9057  -10.4290   21.0395 C   0  0  0  0  0  0
  -24.3608   -9.4211   21.9186 C   0  0  0  0  0  0
  -23.6284   -8.2247   22.0756 C   0  0  0  0  0  0
  -22.4278   -8.0270   21.3532 C   0  0  0  0  0  0
  -21.9906   -9.0249   20.4645 C   0  0  0  0  0  0
  -22.7227  -10.2128   20.3053 C   0  0  0  0  0  0
  -21.6853   -6.0732   22.5272 C   0  0  0  0  0  0
  -21.4017   -6.5637   23.8206 C   0  0  0  0  0  0
  -21.3663   -5.6791   24.9174 C   0  0  0  0  0  0
  -21.6043   -4.3051   24.7225 C   0  0  0  0  0  0
  -21.8821   -3.8140   23.4346 C   0  0  0  0  0  0
  -21.9194   -4.6959   22.3400 C   0  0  0  0  0  0
  -22.7884  -13.5238   21.1828 C   0  0  0  0  0  0
  -22.1662   -4.2139   21.0977 F   0  0  0  0  0  0
  -21.5630   -3.4536   25.7744 F   0  0  0  0  0  0
  -30.0465  -13.2749   20.4673 N   0  0  0  0  0  0
  -26.3060  -12.9321   20.3393 N   0  0  0  0  0  0
  -25.9329  -11.6482   20.5784 N   0  0  0  0  0  0
  -22.0531  -12.8227   22.0384 N   0  0  0  0  0  0
  -25.4376  -15.1867   20.4079 N   0  0  0  0  0  0
  -31.7932  -14.6781   20.0665 O   0  0  0  0  0  0
  -21.6632   -6.8872   21.4232 O   0  0  0  0  0  0
  -22.3563  -14.5555   20.6683 O   0  0  0  0  0  0
  -24.6122  -31.8697   23.2082 C   0  0  0  0  0  0
  -25.9024  -32.4843   23.8401 C   0  0  1  0  0  0
  -27.2715  -27.4474   20.1136 C   0  0  0  0  0  0
  -25.5898  -33.8634   24.2352 N   0  0  0  0  0  0
  -23.4068  -30.4842   21.5469 C   0  0  2  0  0  0
  -24.8675  -28.9525   20.1205 C   0  0  0  0  0  0
  -22.7443  -29.4620   22.4990 C   0  0  0  0  0  0
  -18.0257  -28.1370   22.8474 C   0  0  0  0  0  0
  -24.1490  -36.7317   23.2644 C   0  0  0  0  0  0
  -25.9317  -30.8385   21.3642 C   0  0  0  0  0  0
  -26.0204  -29.4686   20.7251 C   0  0  0  0  0  0
  -27.2217  -28.7222   20.7332 C   0  0  0  0  0  0
  -26.1018  -26.9496   19.5024 C   0  0  0  0  0  0
  -24.9015  -27.6856   19.5094 C   0  0  0  0  0  0
  -23.6218  -29.8104   20.1631 C   0  0  0  0  0  0
  -25.4109  -36.3129   24.0355 C   0  0  1  0  0  0
  -20.5862  -28.3658   23.1308 C   0  0  2  0  0  0
  -20.6750  -26.9385   22.5424 C   0  0  0  0  0  0
  -19.5735  -26.6377   21.5200 C   0  0  0  0  0  0
  -18.1900  -26.7918   22.1601 C   0  0  0  0  0  0
  -19.1508  -28.8827   23.2879 C   0  0  0  0  0  0
  -18.9454  -30.1430   23.8907 C   0  0  0  0  0  0
  -17.6459  -30.6590   24.0548 C   0  0  0  0  0  0
  -25.9034  -34.9487   23.5151 C   0  0  0  0  0  0
  -16.5344  -29.9102   23.6304 C   0  0  0  0  0  0
  -16.7249  -28.6504   23.0341 C   0  0  0  0  0  0
  -26.4459  -31.6617   25.0720 C   0  0  0  0  0  0
  -25.3717  -31.3746   26.1472 C   0  0  0  0  0  0
  -27.0277  -30.3063   24.6055 C   0  0  0  0  0  0
  -27.6038  -32.4351   25.7486 C   0  0  0  0  0  0
  -27.5595  -37.1808   24.8464 C   0  0  0  0  0  0
  -21.4164  -29.3027   22.3743 N   0  0  0  0  0  0
  -26.4303  -37.3805   23.9399 N   0  0  0  0  0  0
  -24.6670  -31.0787   22.0988 N   0  0  0  0  0  0
  -23.4210  -28.8144   23.3033 O   0  0  0  0  0  0
  -28.3962  -26.6474   20.0348 O   0  0  0  0  0  0
  -26.5591  -34.8948   22.4718 O   0  0  0  0  0  0
  -23.5320  -32.1441   23.7470 O   0  0  0  0  0  0
  -31.2238  -17.5361   20.8910 C   0  0  0  0  0  0
  -29.4552  -17.4075   22.5364 C   0  0  0  0  0  0
  -30.4589  -19.5956   22.0153 C   0  0  0  0  0  0
  -30.2990  -16.7468   21.6180 C   0  0  0  0  0  0
  -31.3047  -18.9358   21.0829 C   0  0  0  0  0  0
  -29.5320  -18.8035   22.7389 C   0  0  0  0  0  0
  -30.5471  -21.0578   22.2919 C   0  0  0  0  0  0
  -30.4963  -22.0602   21.3809 C   0  0  0  0  0  0
  -30.6777  -23.5212   21.6357 C   0  0  0  0  0  0
  -31.5122  -23.9326   22.8501 C   0  0  0  0  0  0
  -30.5840  -25.7849   20.7706 C   0  0  0  0  0  0
  -29.4088  -26.7645   21.0353 C   0  0  0  0  0  0
  -30.2136  -24.3575   20.7776 N   0  0  0  0  0  0
  -30.1414  -15.3237   21.4805 N   0  0  0  0  0  0
  -32.5040  -19.8064   20.1886 Cl  0  0  0  0  0  0
  -28.4593  -19.5259   23.8906 Cl  0  0  0  0  0  0
  -31.4690  -12.4135   19.1164 H   0  0  0  0  0  0
  -30.3346  -11.2923   19.8044 H   0  0  0  0  0  0
  -29.7303  -11.7932   17.4268 H   0  0  0  0  0  0
  -29.6594  -13.5029   17.7796 H   0  0  0  0  0  0
  -27.8330  -11.3119   18.8185 H   0  0  0  0  0  0
  -27.3635  -12.6428   17.7961 H   0  0  0  0  0  0
  -27.7205  -14.2552   19.5951 H   0  0  0  0  0  0
  -28.6818  -11.9292   21.3319 H   0  0  0  0  0  0
  -28.4497  -13.5513   21.8892 H   0  0  0  0  0  0
  -25.2759   -9.5683   22.4751 H   0  0  0  0  0  0
  -23.9993   -7.4643   22.7481 H   0  0  0  0  0  0
  -21.0839   -8.8759   19.8957 H   0  0  0  0  0  0
  -22.3686  -10.9660   19.6152 H   0  0  0  0  0  0
  -21.2010   -7.6147   23.9704 H   0  0  0  0  0  0
  -21.1486   -6.0526   25.9072 H   0  0  0  0  0  0
  -22.0599   -2.7600   23.2849 H   0  0  0  0  0  0
  -22.4141  -11.9861   22.4727 H   0  0  0  0  0  0
  -21.1167  -13.1254   22.2639 H   0  0  0  0  0  0
  -24.6771  -15.8494   20.5130 H   0  0  0  0  0  0
  -26.3010  -15.6182   20.0993 H   0  0  0  0  0  0
  -26.7131  -32.5575   23.1220 H   0  0  0  0  0  0
  -25.0076  -33.9806   25.0517 H   0  0  0  0  0  0
  -22.6935  -31.2972   21.4020 H   0  0  0  0  0  0
  -23.3765  -35.9636   23.3310 H   0  0  0  0  0  0
  -24.3623  -36.8910   22.2060 H   0  0  0  0  0  0
  -23.7202  -37.6515   23.6654 H   0  0  0  0  0  0
  -26.0351  -31.5979   20.5876 H   0  0  0  0  0  0
  -26.8237  -30.9092   21.9752 H   0  0  0  0  0  0
  -28.0984  -29.1417   21.2050 H   0  0  0  0  0  0
  -26.1249  -25.9798   19.0251 H   0  0  0  0  0  0
  -24.0182  -27.2766   19.0367 H   0  0  0  0  0  0
  -23.7279  -30.5835   19.4014 H   0  0  0  0  0  0
  -22.7513  -29.2231   19.8665 H   0  0  0  0  0  0
  -25.1266  -36.2049   25.0854 H   0  0  0  0  0  0
  -20.9930  -28.3234   24.1440 H   0  0  0  0  0  0
  -20.5674  -26.2257   23.3618 H   0  0  0  0  0  0
  -21.6613  -26.7443   22.1199 H   0  0  0  0  0  0
  -19.6911  -25.6291   21.1232 H   0  0  0  0  0  0
  -19.6685  -27.3194   20.6731 H   0  0  0  0  0  0
  -17.4171  -26.6659   21.4009 H   0  0  0  0  0  0
  -18.0277  -26.0055   22.8998 H   0  0  0  0  0  0
  -19.7943  -30.7186   24.2333 H   0  0  0  0  0  0
  -17.5034  -31.6278   24.5143 H   0  0  0  0  0  0
  -15.5359  -30.3012   23.7634 H   0  0  0  0  0  0
  -15.8633  -28.0845   22.7064 H   0  0  0  0  0  0
  -24.5887  -30.7095   25.7828 H   0  0  0  0  0  0
  -24.8907  -32.2904   26.4912 H   0  0  0  0  0  0
  -25.8055  -30.8938   27.0242 H   0  0  0  0  0  0
  -26.2799  -29.6853   24.1107 H   0  0  0  0  0  0
  -27.4064  -29.7274   25.4485 H   0  0  0  0  0  0
  -27.8630  -30.4399   23.9172 H   0  0  0  0  0  0
  -27.2660  -33.3673   26.2037 H   0  0  0  0  0  0
  -28.3855  -32.6890   25.0317 H   0  0  0  0  0  0
  -28.0691  -31.8485   26.5419 H   0  0  0  0  0  0
  -28.2602  -38.0118   24.7553 H   0  0  0  0  0  0
  -28.1105  -36.2655   24.6258 H   0  0  0  0  0  0
  -27.2319  -37.1403   25.8868 H   0  0  0  0  0  0
  -20.9351  -29.8833   21.7016 H   0  0  0  0  0  0
  -26.0215  -38.2895   24.1428 H   0  0  0  0  0  0
  -31.8987  -17.0885   20.1781 H   0  0  0  0  0  0
  -28.7308  -16.8445   23.1081 H   0  0  0  0  0  0
  -30.6886  -21.2929   23.3348 H   0  0  0  0  0  0
  -30.3288  -21.8121   20.3424 H   0  0  0  0  0  0
  -31.5117  -23.1871   23.6412 H   0  0  0  0  0  0
  -31.1301  -24.8483   23.3023 H   0  0  0  0  0  0
  -32.5478  -24.0965   22.5503 H   0  0  0  0  0  0
  -31.3977  -26.0265   21.4540 H   0  0  0  0  0  0
  -30.9994  -26.0211   19.7894 H   0  0  0  0  0  0
  -29.8183  -27.7768   21.0177 H   0  0  0  0  0  0
  -28.9875  -26.6038   22.0276 H   0  0  0  0  0  0
  -29.3700  -14.9248   21.9931 H   0  0  0  0  0  0
  1 25  1  0  0  0
  1 30  2  0  0  0
  1 84  1  0  0  0
  2  3  1  0  0  0
  2 25  1  0  0  0
  2 87  1  0  0  0
  2 88  1  0  0  0
  3  4  1  0  0  0
  3 89  1  0  0  0
  3 90  1  0  0  0
  4  5  1  0  0  0
  4 91  1  0  0  0
  4 92  1  0  0  0
  5  6  1  0  0  0
  5 26  1  0  0  0
  5 93  1  0  0  0
  6 25  1  0  0  0
  6 94  1  0  0  0
  6 95  1  0  0  0
  7  8  2  0  0  0
  7 26  1  0  0  0
  7 29  1  0  0  0
  8  9  1  0  0  0
  8 22  1  0  0  0
  9 10  1  0  0  0
  9 27  2  0  0  0
 10 11  2  0  0  0
 10 15  1  0  0  0
 11 12  1  0  0  0
 11 96  1  0  0  0
 12 13  2  0  0  0
 12 97  1  0  0  0
 13 14  1  0  0  0
 13 31  1  0  0  0
 14 15  2  0  0  0
 14 98  1  0  0  0
 15 99  1  0  0  0
 16 17  2  0  0  0
 16 21  1  0  0  0
 16 31  1  0  0  0
 17 18  1  0  0  0
 17100  1  0  0  0
 18 19  2  0  0  0
 18101  1  0  0  0
 19 20  1  0  0  0
 19 24  1  0  0  0
 20 21  2  0  0  0
 20102  1  0  0  0
 21 23  1  0  0  0
 22 28  1  0  0  0
 22 32  2  0  0  0
 26 27  1  0  0  0
 28103  1  0  0  0
 28104  1  0  0  0
 29105  1  0  0  0
 29106  1  0  0  0
 33 34  1  0  0  0
 33 66  1  0  0  0
 33 70  2  0  0  0
 34 36  1  0  0  0
 34 59  1  0  0  0
 34107  1  0  0  0
 35 44  2  0  0  0
 35 45  1  0  0  0
 35 68  1  0  0  0
 36 56  1  0  0  0
 36108  1  0  0  0
 37 39  1  0  0  0
 37 47  1  0  0  0
 37 66  1  0  0  0
 37109  1  0  0  0
 38 43  2  0  0  0
 38 46  1  0  0  0
 38 47  1  0  0  0
 39 64  1  0  0  0
 39 67  2  0  0  0
 40 52  1  0  0  0
 40 53  2  0  0  0
 40 58  1  0  0  0
 41110  1  0  0  0
 41111  1  0  0  0
 41112  1  0  0  0
 41 48  1  0  0  0
 42 43  1  0  0  0
 42 66  1  0  0  0
 42113  1  0  0  0
 42114  1  0  0  0
 43 44  1  0  0  0
 44115  1  0  0  0
 45 46  2  0  0  0
 45116  1  0  0  0
 46117  1  0  0  0
 47118  1  0  0  0
 47119  1  0  0  0
 48 56  1  0  0  0
 48 65  1  0  0  0
 48120  1  0  0  0
 49 50  1  0  0  0
 49 53  1  0  0  0
 49 64  1  0  0  0
 49121  1  0  0  0
 50 51  1  0  0  0
 50122  1  0  0  0
 50123  1  0  0  0
 51 52  1  0  0  0
 51124  1  0  0  0
 51125  1  0  0  0
 52126  1  0  0  0
 52127  1  0  0  0
 53 54  1  0  0  0
 54 55  2  0  0  0
 54128  1  0  0  0
 55 57  1  0  0  0
 55129  1  0  0  0
 56 69  2  0  0  0
 57 58  2  0  0  0
 57130  1  0  0  0
 58131  1  0  0  0
 59 60  1  0  0  0
 59 61  1  0  0  0
 59 62  1  0  0  0
 60132  1  0  0  0
 60133  1  0  0  0
 60134  1  0  0  0
 61135  1  0  0  0
 61136  1  0  0  0
 61137  1  0  0  0
 62138  1  0  0  0
 62139  1  0  0  0
 62140  1  0  0  0
 63 65  1  0  0  0
 63141  1  0  0  0
 63142  1  0  0  0
 63143  1  0  0  0
 64144  1  0  0  0
 65145  1  0  0  0
 68 82  1  0  0  0
 71 74  2  0  0  0
 71 75  1  0  0  0
 71146  1  0  0  0
 72 74  1  0  0  0
 72 76  2  0  0  0
 72147  1  0  0  0
 73 75  2  0  0  0
 73 76  1  0  0  0
 73 77  1  0  0  0
 74 84  1  0  0  0
 75 85  1  0  0  0
 76 86  1  0  0  0
 77 78  2  0  0  0
 77148  1  0  0  0
 78 79  1  0  0  0
 78149  1  0  0  0
 79 80  1  0  0  0
 79 83  2  0  0  0
 80150  1  0  0  0
 80151  1  0  0  0
 80152  1  0  0  0
 81 82  1  0  0  0
 81 83  1  0  0  0
 81153  1  0  0  0
 81154  1  0  0  0
 82155  1  0  0  0
 82156  1  0  0  0
 84157  1  0  0  0
M  ISO  4   1 100  68 101  82 101  84 100
M  END
> <chiral flag>
0

> <version>
0

> <s_m_source_file>
/data/baiqing/PycharmProjects/Reinvent-master-3.2/result/LINK_invent/BTK/process_docking_weight1_custom_product_contain_oxygen_bond_distance_aromatic_linkinvent_7_9_3/rearranged_h_0039.sdf

> <i_m_source_file_index>
49

> <r_mmod_Potential_Energy-OPLS-2005>
-5.93112564086914

> <r_mmod_Stretch_Energy-OPLS-2005>
44.3061637878418

> <r_mmod_Bend_Energy-OPLS-2005>
122.381965637207

> <r_mmod_Torsional_Energy-OPLS-2005>
232.897979736328

> <r_mmod_Improper_Torsional_Energy-OPLS-2005>
3.11060285568237

> <r_mmod_Van_der_Waal_Energy-OPLS-2005>
162.647094726562

> <r_mmod_Electrostatic_Energy-OPLS-2005>
-353.657653808594

> <r_mmod_Solvation_Energy-OPLS-2005>
-226.754760742188

> <b_mmod_Minimization_Converged-OPLS-2005>
0

> <r_mmod_RMS_Derivative-OPLS-2005>
2.63346576690674

$$$$
49
                    3D
 Structure written by MMmdl.
164173  0  0  1  0            999 V2000
  -30.6371  -14.7165   20.4870 C   0  0  0  0  0  0
  -30.4311  -12.4436   19.4652 C   0  0  0  0  0  0
  -29.5048  -12.5020   18.2312 C   0  0  0  0  0  0
  -28.0334  -12.3262   18.6519 C   0  0  0  0  0  0
  -27.6438  -13.2286   19.8523 C   0  0  2  0  0  0
  -28.6902  -13.1612   20.9865 C   0  0  0  0  0  0
  -25.2518  -13.8180   20.5712 C   0  0  0  0  0  0
  -24.1816  -13.0439   20.9230 C   0  0  0  0  0  0
  -24.6400  -11.6912   20.8772 C   0  0  0  0  0  0
  -23.9079  -10.4292   21.0422 C   0  0  0  0  0  0
  -24.3629   -9.4206   21.9197 C   0  0  0  0  0  0
  -23.6305   -8.2239   22.0761 C   0  0  0  0  0  0
  -22.4288   -8.0285   21.3552 C   0  0  0  0  0  0
  -21.9927   -9.0259   20.4653 C   0  0  0  0  0  0
  -22.7254  -10.2135   20.3066 C   0  0  0  0  0  0
  -21.6850   -6.0742   22.5279 C   0  0  0  0  0  0
  -21.4009   -6.5646   23.8214 C   0  0  0  0  0  0
  -21.3659   -5.6799   24.9178 C   0  0  0  0  0  0
  -21.6048   -4.3060   24.7230 C   0  0  0  0  0  0
  -21.8818   -3.8154   23.4345 C   0  0  0  0  0  0
  -21.9192   -4.6969   22.3401 C   0  0  0  0  0  0
  -22.7834  -13.5219   21.1879 C   0  0  0  0  0  0
  -22.1663   -4.2157   21.0973 F   0  0  0  0  0  0
  -21.5630   -3.4540   25.7740 F   0  0  0  0  0  0
  -29.9920  -13.5046   20.4006 N   0  0  0  0  0  0
  -26.2952  -12.9395   20.3303 N   0  0  0  0  0  0
  -25.9330  -11.6538   20.5781 N   0  0  0  0  0  0
  -22.0481  -12.8195   22.0419 N   0  0  0  0  0  0
  -25.4191  -15.1900   20.4074 N   0  0  0  0  0  0
  -31.8243  -14.7969   20.1601 O   0  0  0  0  0  0
  -21.6644   -6.8888   21.4244 O   0  0  0  0  0  0
  -22.3527  -14.5536   20.6732 O   0  0  0  0  0  0
  -24.6318  -31.8552   23.1990 C   0  0  0  0  0  0
  -25.9144  -32.4742   23.8332 C   0  0  1  0  0  0
  -27.2124  -27.2534   20.1282 C   0  0  0  0  0  0
  -25.5949  -33.8546   24.2255 N   0  0  0  0  0  0
  -23.4263  -30.4780   21.5452 C   0  0  2  0  0  0
  -24.8729  -28.9300   20.1077 C   0  0  0  0  0  0
  -22.7502  -29.4587   22.4938 C   0  0  0  0  0  0
  -18.0290  -28.1383   22.8476 C   0  0  0  0  0  0
  -24.1498  -36.7274   23.2631 C   0  0  0  0  0  0
  -25.9721  -30.7661   21.3780 C   0  0  0  0  0  0
  -26.0429  -29.3868   20.7246 C   0  0  0  0  0  0
  -27.2107  -28.5579   20.7321 C   0  0  0  0  0  0
  -26.0253  -26.8852   19.4497 C   0  0  0  0  0  0
  -24.8705  -27.6887   19.4591 C   0  0  0  0  0  0
  -23.6414  -29.8136   20.1607 C   0  0  0  0  0  0
  -25.4116  -36.3051   24.0322 C   0  0  1  0  0  0
  -20.5889  -28.3688   23.1295 C   0  0  2  0  0  0
  -20.6774  -26.9403   22.5435 C   0  0  0  0  0  0
  -19.5764  -26.6378   21.5222 C   0  0  0  0  0  0
  -18.1926  -26.7928   22.1604 C   0  0  0  0  0  0
  -19.1540  -28.8855   23.2872 C   0  0  0  0  0  0
  -18.9454  -30.1456   23.8886 C   0  0  0  0  0  0
  -17.6454  -30.6579   24.0561 C   0  0  0  0  0  0
  -25.9066  -34.9425   23.5088 C   0  0  0  0  0  0
  -16.5347  -29.9073   23.6336 C   0  0  0  0  0  0
  -16.7278  -28.6499   23.0345 C   0  0  0  0  0  0
  -26.4514  -31.6544   25.0707 C   0  0  0  0  0  0
  -25.3728  -31.3691   26.1419 C   0  0  0  0  0  0
  -27.0322  -30.2952   24.6153 C   0  0  0  0  0  0
  -27.6100  -32.4255   25.7457 C   0  0  0  0  0  0
  -27.5576  -37.1784   24.8462 C   0  0  0  0  0  0
  -21.4211  -29.3029   22.3683 N   0  0  0  0  0  0
  -26.4284  -37.3752   23.9409 N   0  0  0  0  0  0
  -24.6961  -31.0506   22.0976 N   0  0  0  0  0  0
  -23.4202  -28.8123   23.3034 O   0  0  0  0  0  0
  -28.3108  -26.3610   20.2304 O   0  0  0  0  0  0
  -26.5627  -34.8905   22.4652 O   0  0  0  0  0  0
  -23.5473  -32.1390   23.7285 O   0  0  0  0  0  0
  -31.0479  -19.9918   21.4513 C   0  0  0  0  0  0
  -31.5508  -17.5954   21.3223 C   0  0  0  0  0  0
  -29.7328  -19.8054   20.9762 C   0  0  0  0  0  0
  -29.3402  -18.4206   20.6992 C   0  0  0  0  0  0
  -30.2467  -17.2846   20.8725 C   0  0  0  0  0  0
  -31.9414  -18.9166   21.6088 C   0  0  0  0  0  0
  -28.6202  -23.8065   20.9336 C   0  0  0  0  0  0
  -28.7834  -24.0524   22.2455 C   0  0  0  0  0  0
  -30.3349  -23.9331   18.7628 C   0  0  0  0  0  0
  -28.9651  -24.6312   18.5446 C   0  0  0  0  0  0
  -30.2433  -22.5491   19.4763 C   0  0  0  0  0  0
  -28.2051  -24.8967   19.8685 C   0  0  2  0  0  0
  -27.9119  -18.1471   20.2525 C   0  0  0  0  0  0
  -28.7655  -21.0839   21.0208 C   0  0  0  0  0  0
  -29.8701  -15.8544   20.7009 N   0  0  0  0  0  0
  -29.0097  -22.4291   20.2926 N   0  3  1  0  0  0
  -33.5295  -19.2185   22.2127 Cl  0  0  0  0  0  0
  -31.4710  -12.5639   19.1567 H   0  0  0  0  0  0
  -30.3721  -11.4665   19.9464 H   0  0  0  0  0  0
  -29.7818  -11.7287   17.5133 H   0  0  0  0  0  0
  -29.6293  -13.4559   17.7159 H   0  0  0  0  0  0
  -27.8951  -11.2791   18.9209 H   0  0  0  0  0  0
  -27.3706  -12.5134   17.8069 H   0  0  0  0  0  0
  -27.6382  -14.2492   19.4700 H   0  0  0  0  0  0
  -28.7237  -12.1653   21.4305 H   0  0  0  0  0  0
  -28.4305  -13.8476   21.7939 H   0  0  0  0  0  0
  -25.2768   -9.5674   22.4783 H   0  0  0  0  0  0
  -24.0013   -7.4621   22.7473 H   0  0  0  0  0  0
  -21.0866   -8.8783   19.8950 H   0  0  0  0  0  0
  -22.3724  -10.9685   19.6182 H   0  0  0  0  0  0
  -21.1998   -7.6154   23.9721 H   0  0  0  0  0  0
  -21.1484   -6.0530   25.9085 H   0  0  0  0  0  0
  -22.0594   -2.7615   23.2844 H   0  0  0  0  0  0
  -22.4098  -11.9836   22.4767 H   0  0  0  0  0  0
  -21.1100  -13.1215   22.2639 H   0  0  0  0  0  0
  -24.6424  -15.8349   20.5010 H   0  0  0  0  0  0
  -26.2418  -15.6177   20.0068 H   0  0  0  0  0  0
  -26.7200  -32.5387   23.1060 H   0  0  0  0  0  0
  -25.0126  -33.9684   25.0420 H   0  0  0  0  0  0
  -22.7221  -31.3000   21.4015 H   0  0  0  0  0  0
  -23.3757  -35.9607   23.3271 H   0  0  0  0  0  0
  -24.3601  -36.8921   22.2052 H   0  0  0  0  0  0
  -23.7266  -37.6474   23.6676 H   0  0  0  0  0  0
  -26.0993  -31.5198   20.5997 H   0  0  0  0  0  0
  -26.8558  -30.8255   22.0019 H   0  0  0  0  0  0
  -28.1011  -28.8962   21.2430 H   0  0  0  0  0  0
  -25.9340  -25.9631   18.8992 H   0  0  0  0  0  0
  -23.9790  -27.3429   18.9539 H   0  0  0  0  0  0
  -23.7558  -30.5905   19.4049 H   0  0  0  0  0  0
  -22.7610  -29.2427   19.8607 H   0  0  0  0  0  0
  -25.1289  -36.1891   25.0812 H   0  0  0  0  0  0
  -20.9969  -28.3261   24.1425 H   0  0  0  0  0  0
  -20.5671  -26.2288   23.3630 H   0  0  0  0  0  0
  -21.6641  -26.7413   22.1240 H   0  0  0  0  0  0
  -19.6934  -25.6291   21.1250 H   0  0  0  0  0  0
  -19.6734  -27.3192   20.6756 H   0  0  0  0  0  0
  -17.4218  -26.6711   21.3976 H   0  0  0  0  0  0
  -18.0289  -26.0051   22.8980 H   0  0  0  0  0  0
  -19.7922  -30.7280   24.2245 H   0  0  0  0  0  0
  -17.5001  -31.6259   24.5163 H   0  0  0  0  0  0
  -15.5344  -30.2968   23.7674 H   0  0  0  0  0  0
  -15.8674  -28.0826   22.7053 H   0  0  0  0  0  0
  -24.6079  -30.6796   25.7823 H   0  0  0  0  0  0
  -24.8683  -32.2815   26.4613 H   0  0  0  0  0  0
  -25.8081  -30.9149   27.0328 H   0  0  0  0  0  0
  -26.2883  -29.6729   24.1165 H   0  0  0  0  0  0
  -27.3997  -29.7182   25.4651 H   0  0  0  0  0  0
  -27.8772  -30.4213   23.9378 H   0  0  0  0  0  0
  -27.2783  -33.3633   26.1921 H   0  0  0  0  0  0
  -28.3964  -32.6655   25.0287 H   0  0  0  0  0  0
  -28.0685  -31.8411   26.5444 H   0  0  0  0  0  0
  -28.2574  -38.0095   24.7495 H   0  0  0  0  0  0
  -28.1086  -36.2619   24.6289 H   0  0  0  0  0  0
  -27.2295  -37.1444   25.8866 H   0  0  0  0  0  0
  -20.9405  -29.8756   21.6886 H   0  0  0  0  0  0
  -26.0153  -38.2820   24.1416 H   0  0  0  0  0  0
  -31.3822  -20.9727   21.7568 H   0  0  0  0  0  0
  -32.2745  -16.8148   21.5014 H   0  0  0  0  0  0
  -28.5682  -25.0335   22.6449 H   0  0  0  0  0  0
  -29.1415  -23.3064   22.9382 H   0  0  0  0  0  0
  -30.9659  -24.5954   19.3574 H   0  0  0  0  0  0
  -30.8536  -23.8194   17.8100 H   0  0  0  0  0  0
  -28.3521  -24.0043   17.8948 H   0  0  0  0  0  0
  -29.0957  -25.5668   17.9992 H   0  0  0  0  0  0
  -31.1230  -22.4304   20.1079 H   0  0  0  0  0  0
  -30.2645  -21.7394   18.7450 H   0  0  0  0  0  0
  -27.1668  -24.6234   19.7142 H   0  0  0  0  0  0
  -27.6980  -18.6779   19.3244 H   0  0  0  0  0  0
  -27.1997  -18.4717   21.0122 H   0  0  0  0  0  0
  -27.7234  -17.0919   20.0627 H   0  0  0  0  0  0
  -28.6397  -21.3013   22.0802 H   0  0  0  0  0  0
  -27.7721  -20.7718   20.7037 H   0  0  0  0  0  0
  -28.8826  -15.6640   20.7546 H   0  0  0  0  0  0
  -28.3351  -22.3100   19.5521 H   0  0  0  0  0  0
  1 25  1  0  0  0
  1 30  2  0  0  0
  1 85  1  0  0  0
  2  3  1  0  0  0
  2 25  1  0  0  0
  2 88  1  0  0  0
  2 89  1  0  0  0
  3  4  1  0  0  0
  3 90  1  0  0  0
  3 91  1  0  0  0
  4  5  1  0  0  0
  4 92  1  0  0  0
  4 93  1  0  0  0
  5  6  1  0  0  0
  5 26  1  0  0  0
  5 94  1  0  0  0
  6 25  1  0  0  0
  6 95  1  0  0  0
  6 96  1  0  0  0
  7  8  2  0  0  0
  7 26  1  0  0  0
  7 29  1  0  0  0
  8  9  1  0  0  0
  8 22  1  0  0  0
  9 10  1  0  0  0
  9 27  2  0  0  0
 10 11  2  0  0  0
 10 15  1  0  0  0
 11 12  1  0  0  0
 11 97  1  0  0  0
 12 13  2  0  0  0
 12 98  1  0  0  0
 13 14  1  0  0  0
 13 31  1  0  0  0
 14 15  2  0  0  0
 14 99  1  0  0  0
 15100  1  0  0  0
 16 17  2  0  0  0
 16 21  1  0  0  0
 16 31  1  0  0  0
 17 18  1  0  0  0
 17101  1  0  0  0
 18 19  2  0  0  0
 18102  1  0  0  0
 19 20  1  0  0  0
 19 24  1  0  0  0
 20 21  2  0  0  0
 20103  1  0  0  0
 21 23  1  0  0  0
 22 28  1  0  0  0
 22 32  2  0  0  0
 26 27  1  0  0  0
 28104  1  0  0  0
 28105  1  0  0  0
 29106  1  0  0  0
 29107  1  0  0  0
 33 34  1  0  0  0
 33 66  1  0  0  0
 33 70  2  0  0  0
 34 36  1  0  0  0
 34 59  1  0  0  0
 34108  1  0  0  0
 35 44  2  0  0  0
 35 45  1  0  0  0
 35 68  1  0  0  0
 36 56  1  0  0  0
 36109  1  0  0  0
 37 39  1  0  0  0
 37 47  1  0  0  0
 37 66  1  0  0  0
 37110  1  0  0  0
 38 43  2  0  0  0
 38 46  1  0  0  0
 38 47  1  0  0  0
 39 64  1  0  0  0
 39 67  2  0  0  0
 40 52  1  0  0  0
 40 53  2  0  0  0
 40 58  1  0  0  0
 41111  1  0  0  0
 41112  1  0  0  0
 41113  1  0  0  0
 41 48  1  0  0  0
 42 43  1  0  0  0
 42 66  1  0  0  0
 42114  1  0  0  0
 42115  1  0  0  0
 43 44  1  0  0  0
 44116  1  0  0  0
 45 46  2  0  0  0
 45117  1  0  0  0
 46118  1  0  0  0
 47119  1  0  0  0
 47120  1  0  0  0
 48 56  1  0  0  0
 48 65  1  0  0  0
 48121  1  0  0  0
 49 50  1  0  0  0
 49 53  1  0  0  0
 49 64  1  0  0  0
 49122  1  0  0  0
 50 51  1  0  0  0
 50123  1  0  0  0
 50124  1  0  0  0
 51 52  1  0  0  0
 51125  1  0  0  0
 51126  1  0  0  0
 52127  1  0  0  0
 52128  1  0  0  0
 53 54  1  0  0  0
 54 55  2  0  0  0
 54129  1  0  0  0
 55 57  1  0  0  0
 55130  1  0  0  0
 56 69  2  0  0  0
 57 58  2  0  0  0
 57131  1  0  0  0
 58132  1  0  0  0
 59 60  1  0  0  0
 59 61  1  0  0  0
 59 62  1  0  0  0
 60133  1  0  0  0
 60134  1  0  0  0
 60135  1  0  0  0
 61136  1  0  0  0
 61137  1  0  0  0
 61138  1  0  0  0
 62139  1  0  0  0
 62140  1  0  0  0
 62141  1  0  0  0
 63 65  1  0  0  0
 63142  1  0  0  0
 63143  1  0  0  0
 63144  1  0  0  0
 64145  1  0  0  0
 65146  1  0  0  0
 68 82  1  0  0  0
 71 73  2  0  0  0
 71 76  1  0  0  0
 71147  1  0  0  0
 72 75  1  0  0  0
 72 76  2  0  0  0
 72148  1  0  0  0
 73 74  1  0  0  0
 73 84  1  0  0  0
 74 75  2  0  0  0
 74 83  1  0  0  0
 75 85  1  0  0  0
 76 87  1  0  0  0
 77 78  2  0  0  0
 77 82  1  0  0  0
 77 86  1  0  0  0
 78149  1  0  0  0
 78150  1  0  0  0
 79 80  1  0  0  0
 79 81  1  0  0  0
 79151  1  0  0  0
 79152  1  0  0  0
 80 82  1  0  0  0
 80153  1  0  0  0
 80154  1  0  0  0
 81 86  1  0  0  0
 81155  1  0  0  0
 81156  1  0  0  0
 82157  1  0  0  0
 83158  1  0  0  0
 83159  1  0  0  0
 83160  1  0  0  0
 84161  1  0  0  0
 84162  1  0  0  0
 84 86  1  0  0  0
 85163  1  0  0  0
 86164  1  0  0  0
M  CHG  1  86   1
M  ISO  4   1 100  68 101  82 101  85 100
M  END
> <chiral flag>
0

> <version>
0

> <s_m_source_file>
/data/baiqing/PycharmProjects/Reinvent-master-3.2/result/LINK_invent/BTK/process_docking_weight1_custom_product_contain_oxygen_bond_distance_aromatic_linkinvent_7_9_3/rearranged_h_0039.sdf

> <i_m_source_file_index>
50

> <r_mmod_Potential_Energy-OPLS-2005>
84.8688049316406

> <r_mmod_Stretch_Energy-OPLS-2005>
132.01139831543

> <r_mmod_Bend_Energy-OPLS-2005>
187.680801391602

> <r_mmod_Torsional_Energy-OPLS-2005>
248.303176879883

> <r_mmod_Improper_Torsional_Energy-OPLS-2005>
7.35947179794312

> <r_mmod_Van_der_Waal_Energy-OPLS-2005>
151.569763183594

> <r_mmod_Electrostatic_Energy-OPLS-2005>
-270.897308349609

> <r_mmod_Solvation_Energy-OPLS-2005>
-453.453674316406

> <b_mmod_Minimization_Converged-OPLS-2005>
0

> <r_mmod_RMS_Derivative-OPLS-2005>
1.73874962329865

$$$$
50
                    3D
 Structure written by MMmdl.
175184  0  0  1  0            999 V2000
  -30.6932  -14.4539   20.6438 C   0  0  0  0  0  0
  -30.4410  -12.3203   19.4105 C   0  0  0  0  0  0
  -29.5019  -12.5289   18.2021 C   0  0  0  0  0  0
  -28.0222  -12.3783   18.6110 C   0  0  0  0  0  0
  -27.6693  -13.2002   19.8785 C   0  0  2  0  0  0
  -28.7073  -12.9350   20.9926 C   0  0  0  0  0  0
  -25.2596  -13.8134   20.5613 C   0  0  0  0  0  0
  -24.1848  -13.0433   20.9162 C   0  0  0  0  0  0
  -24.6383  -11.6898   20.8710 C   0  0  0  0  0  0
  -23.9040  -10.4296   21.0403 C   0  0  0  0  0  0
  -24.3594   -9.4215   21.9184 C   0  0  0  0  0  0
  -23.6272   -8.2247   22.0752 C   0  0  0  0  0  0
  -22.4256   -8.0279   21.3544 C   0  0  0  0  0  0
  -21.9884   -9.0254   20.4662 C   0  0  0  0  0  0
  -22.7204  -10.2133   20.3063 C   0  0  0  0  0  0
  -21.6846   -6.0725   22.5270 C   0  0  0  0  0  0
  -21.4019   -6.5633   23.8210 C   0  0  0  0  0  0
  -21.3663   -5.6779   24.9169 C   0  0  0  0  0  0
  -21.6037   -4.3037   24.7221 C   0  0  0  0  0  0
  -21.8818   -3.8138   23.4339 C   0  0  0  0  0  0
  -21.9198   -4.6955   22.3395 C   0  0  0  0  0  0
  -22.7877  -13.5255   21.1827 C   0  0  0  0  0  0
  -22.1663   -4.2148   21.0976 F   0  0  0  0  0  0
  -21.5629   -3.4525   25.7730 F   0  0  0  0  0  0
  -30.0495  -13.2652   20.4678 N   0  0  0  0  0  0
  -26.3050  -12.9302   20.3321 N   0  0  0  0  0  0
  -25.9311  -11.6468   20.5700 N   0  0  0  0  0  0
  -22.0503  -12.8279   22.0390 N   0  0  0  0  0  0
  -25.4271  -15.1829   20.3913 N   0  0  0  0  0  0
  -31.7364  -14.7577   20.0564 O   0  0  0  0  0  0
  -21.6629   -6.8865   21.4232 O   0  0  0  0  0  0
  -22.3567  -14.5571   20.6671 O   0  0  0  0  0  0
  -24.6187  -31.8656   23.2104 C   0  0  0  0  0  0
  -25.9063  -32.4817   23.8406 C   0  0  1  0  0  0
  -27.2433  -27.4163   20.0745 C   0  0  0  0  0  0
  -25.5899  -33.8618   24.2339 N   0  0  0  0  0  0
  -23.4088  -30.4935   21.5497 C   0  0  2  0  0  0
  -24.8537  -28.9594   20.1163 C   0  0  0  0  0  0
  -22.7443  -29.4662   22.4962 C   0  0  0  0  0  0
  -18.0282  -28.1380   22.8486 C   0  0  0  0  0  0
  -24.1483  -36.7315   23.2641 C   0  0  0  0  0  0
  -25.9430  -30.8233   21.3690 C   0  0  0  0  0  0
  -26.0174  -29.4566   20.7149 C   0  0  0  0  0  0
  -27.2102  -28.6906   20.6972 C   0  0  0  0  0  0
  -26.0396  -26.9296   19.5068 C   0  0  0  0  0  0
  -24.8605  -27.6930   19.5152 C   0  0  0  0  0  0
  -23.6201  -29.8313   20.1636 C   0  0  0  0  0  0
  -25.4099  -36.3120   24.0350 C   0  0  1  0  0  0
  -20.5876  -28.3679   23.1299 C   0  0  2  0  0  0
  -20.6760  -26.9402   22.5426 C   0  0  0  0  0  0
  -19.5747  -26.6385   21.5208 C   0  0  0  0  0  0
  -18.1920  -26.7928   22.1612 C   0  0  0  0  0  0
  -19.1532  -28.8844   23.2894 C   0  0  0  0  0  0
  -18.9455  -30.1442   23.8921 C   0  0  0  0  0  0
  -17.6459  -30.6583   24.0566 C   0  0  0  0  0  0
  -25.9026  -34.9478   23.5142 C   0  0  0  0  0  0
  -16.5353  -29.9089   23.6318 C   0  0  0  0  0  0
  -16.7273  -28.6504   23.0345 C   0  0  0  0  0  0
  -26.4478  -31.6603   25.0740 C   0  0  0  0  0  0
  -25.3758  -31.3725   26.1511 C   0  0  0  0  0  0
  -27.0285  -30.3036   24.6129 C   0  0  0  0  0  0
  -27.6081  -32.4314   25.7461 C   0  0  0  0  0  0
  -27.5588  -37.1803   24.8469 C   0  0  0  0  0  0
  -21.4167  -29.3042   22.3702 N   0  0  0  0  0  0
  -26.4292  -37.3800   23.9424 N   0  0  0  0  0  0
  -24.6753  -31.0761   22.1005 N   0  0  0  0  0  0
  -23.4207  -28.8187   23.2997 O   0  0  0  0  0  0
  -28.4191  -26.6732   20.0751 O   0  0  0  0  0  0
  -26.5593  -34.8927   22.4707 O   0  0  0  0  0  0
  -23.5371  -32.1400   23.7492 O   0  0  0  0  0  0
  -28.3389  -16.8876   21.5212 C   0  0  0  0  0  0
  -27.8631  -18.2102   21.5258 C   0  0  0  0  0  0
  -30.6169  -17.7043   21.2458 C   0  0  0  0  0  0
  -30.1479  -19.0511   21.3049 C   0  0  0  0  0  0
  -29.7141  -16.6172   21.3820 C   0  0  0  0  0  0
  -28.7587  -19.2902   21.4466 C   0  0  0  0  0  0
  -31.8718  -23.8889   20.3458 C   0  0  0  0  0  0
  -30.5369  -24.6683   20.4434 C   0  0  0  0  0  0
  -29.2330  -23.2606   18.7532 C   0  0  0  0  0  0
  -30.3093  -22.2925   18.1900 C   0  0  0  0  0  0
  -31.9417  -22.4783   20.9804 C   0  0  0  0  0  0
  -29.7599  -24.6818   19.1116 C   0  0  1  0  0  0
  -30.8711  -21.1365   19.0771 C   0  0  1  0  0  0
  -32.0631  -19.9184   17.1243 C   0  0  0  0  0  0
  -31.1542  -20.2097   21.4059 C   0  0  0  0  0  0
  -28.6774  -25.8033   18.9523 C   0  0  0  0  0  0
  -32.2082  -20.6073   18.4890 C   0  0  0  0  0  0
  -30.1116  -15.2586   21.5503 N   0  0  0  0  0  0
  -30.9605  -21.4315   20.5457 N   0  3  1  0  0  0
  -28.1265  -20.8929   21.5904 Cl  0  0  0  0  0  0
  -31.4829  -12.4490   19.1095 H   0  0  0  0  0  0
  -30.3612  -11.2973   19.7827 H   0  0  0  0  0  0
  -29.7444  -11.8182   17.4114 H   0  0  0  0  0  0
  -29.6641  -13.5205   17.7778 H   0  0  0  0  0  0
  -27.8314  -11.3198   18.7917 H   0  0  0  0  0  0
  -27.3743  -12.6664   17.7822 H   0  0  0  0  0  0
  -27.7273  -14.2547   19.6062 H   0  0  0  0  0  0
  -28.6839  -11.8813   21.2780 H   0  0  0  0  0  0
  -28.4387  -13.4752   21.9000 H   0  0  0  0  0  0
  -25.2750   -9.5690   22.4740 H   0  0  0  0  0  0
  -23.9992   -7.4639   22.7457 H   0  0  0  0  0  0
  -21.0820   -8.8775   19.8968 H   0  0  0  0  0  0
  -22.3673  -10.9667   19.6164 H   0  0  0  0  0  0
  -21.2012   -7.6135   23.9707 H   0  0  0  0  0  0
  -21.1487   -6.0511   25.9071 H   0  0  0  0  0  0
  -22.0598   -2.7601   23.2833 H   0  0  0  0  0  0
  -22.4112  -11.9960   22.4826 H   0  0  0  0  0  0
  -21.1128  -13.1346   22.2594 H   0  0  0  0  0  0
  -24.6501  -15.8295   20.4793 H   0  0  0  0  0  0
  -26.2491  -15.6053   19.9798 H   0  0  0  0  0  0
  -26.7143  -32.5520   23.1175 H   0  0  0  0  0  0
  -25.0053  -33.9766   25.0490 H   0  0  0  0  0  0
  -22.6982  -31.3112   21.4115 H   0  0  0  0  0  0
  -23.3738  -35.9655   23.3330 H   0  0  0  0  0  0
  -24.3585  -36.8898   22.2052 H   0  0  0  0  0  0
  -23.7239  -37.6532   23.6629 H   0  0  0  0  0  0
  -26.0638  -31.5882   20.6004 H   0  0  0  0  0  0
  -26.8284  -30.8738   21.9914 H   0  0  0  0  0  0
  -28.1095  -29.0769   21.1559 H   0  0  0  0  0  0
  -25.9575  -25.9467   19.0718 H   0  0  0  0  0  0
  -23.9609  -27.2920   19.0685 H   0  0  0  0  0  0
  -23.7394  -30.6065   19.4060 H   0  0  0  0  0  0
  -22.7421  -29.2579   19.8616 H   0  0  0  0  0  0
  -25.1263  -36.1991   25.0840 H   0  0  0  0  0  0
  -20.9978  -28.3252   24.1415 H   0  0  0  0  0  0
  -20.5621  -26.2295   23.3626 H   0  0  0  0  0  0
  -21.6636  -26.7405   22.1250 H   0  0  0  0  0  0
  -19.6896  -25.6294   21.1235 H   0  0  0  0  0  0
  -19.6683  -27.3198   20.6737 H   0  0  0  0  0  0
  -17.4191  -26.6699   21.4005 H   0  0  0  0  0  0
  -18.0301  -26.0063   22.9001 H   0  0  0  0  0  0
  -19.7933  -30.7242   24.2315 H   0  0  0  0  0  0
  -17.5015  -31.6261   24.5171 H   0  0  0  0  0  0
  -15.5353  -30.2998   23.7618 H   0  0  0  0  0  0
  -15.8676  -28.0825   22.7048 H   0  0  0  0  0  0
  -24.5937  -30.7044   25.7885 H   0  0  0  0  0  0
  -24.8931  -32.2878   26.4947 H   0  0  0  0  0  0
  -25.8135  -30.8930   27.0277 H   0  0  0  0  0  0
  -26.2805  -29.6802   24.1214 H   0  0  0  0  0  0
  -27.4072  -29.7279   25.4584 H   0  0  0  0  0  0
  -27.8647  -30.4339   23.9257 H   0  0  0  0  0  0
  -27.2729  -33.3608   26.2076 H   0  0  0  0  0  0
  -28.3837  -32.6887   25.0236 H   0  0  0  0  0  0
  -28.0808  -31.8417   26.5327 H   0  0  0  0  0  0
  -28.2631  -38.0076   24.7506 H   0  0  0  0  0  0
  -28.1056  -36.2617   24.6287 H   0  0  0  0  0  0
  -27.2330  -37.1465   25.8880 H   0  0  0  0  0  0
  -20.9330  -29.8798   21.6949 H   0  0  0  0  0  0
  -26.0190  -38.2883   24.1423 H   0  0  0  0  0  0
  -27.6349  -16.0809   21.6634 H   0  0  0  0  0  0
  -26.8059  -18.3974   21.6484 H   0  0  0  0  0  0
  -31.6782  -17.5020   21.1932 H   0  0  0  0  0  0
  -32.6200  -24.4815   20.8731 H   0  0  0  0  0  0
  -32.2550  -23.8712   19.3275 H   0  0  0  0  0  0
  -30.7755  -25.7018   20.7016 H   0  0  0  0  0  0
  -29.9168  -24.3019   21.2631 H   0  0  0  0  0  0
  -28.6737  -22.8258   19.5806 H   0  0  0  0  0  0
  -28.4967  -23.3709   17.9552 H   0  0  0  0  0  0
  -31.1246  -22.8639   17.7473 H   0  0  0  0  0  0
  -29.8580  -21.8069   17.3235 H   0  0  0  0  0  0
  -31.8414  -22.6122   22.0583 H   0  0  0  0  0  0
  -32.9503  -22.0895   20.8332 H   0  0  0  0  0  0
  -30.4874  -24.9441   18.3416 H   0  0  0  0  0  0
  -30.1373  -20.3330   18.9907 H   0  0  0  0  0  0
  -33.0368  -19.5947   16.7550 H   0  0  0  0  0  0
  -31.6352  -20.5807   16.3718 H   0  0  0  0  0  0
  -31.4306  -19.0324   17.1937 H   0  0  0  0  0  0
  -32.1618  -19.8181   21.2681 H   0  0  0  0  0  0
  -31.1217  -20.5161   22.4518 H   0  0  0  0  0  0
  -27.7846  -25.3305   18.5625 H   0  0  0  0  0  0
  -28.9986  -26.4659   18.1466 H   0  0  0  0  0  0
  -32.6734  -19.8829   19.1545 H   0  0  0  0  0  0
  -32.9231  -21.4264   18.4002 H   0  0  0  0  0  0
  -29.4457  -14.7233   22.0857 H   0  0  0  0  0  0
  -30.0452  -21.7729   20.8082 H   0  0  0  0  0  0
  1 25  1  0  0  0
  1 30  2  0  0  0
  1 88  1  0  0  0
  2  3  1  0  0  0
  2 25  1  0  0  0
  2 91  1  0  0  0
  2 92  1  0  0  0
  3  4  1  0  0  0
  3 93  1  0  0  0
  3 94  1  0  0  0
  4  5  1  0  0  0
  4 95  1  0  0  0
  4 96  1  0  0  0
  5  6  1  0  0  0
  5 26  1  0  0  0
  5 97  1  0  0  0
  6 25  1  0  0  0
  6 98  1  0  0  0
  6 99  1  0  0  0
  7  8  2  0  0  0
  7 26  1  0  0  0
  7 29  1  0  0  0
  8  9  1  0  0  0
  8 22  1  0  0  0
  9 10  1  0  0  0
  9 27  2  0  0  0
 10 11  2  0  0  0
 10 15  1  0  0  0
 11 12  1  0  0  0
 11100  1  0  0  0
 12 13  2  0  0  0
 12101  1  0  0  0
 13 14  1  0  0  0
 13 31  1  0  0  0
 14 15  2  0  0  0
 14102  1  0  0  0
 15103  1  0  0  0
 16 17  2  0  0  0
 16 21  1  0  0  0
 16 31  1  0  0  0
 17 18  1  0  0  0
 17104  1  0  0  0
 18 19  2  0  0  0
 18105  1  0  0  0
 19 20  1  0  0  0
 19 24  1  0  0  0
 20 21  2  0  0  0
 20106  1  0  0  0
 21 23  1  0  0  0
 22 28  1  0  0  0
 22 32  2  0  0  0
 26 27  1  0  0  0
 28107  1  0  0  0
 28108  1  0  0  0
 29109  1  0  0  0
 29110  1  0  0  0
 33 34  1  0  0  0
 33 66  1  0  0  0
 33 70  2  0  0  0
 34 36  1  0  0  0
 34 59  1  0  0  0
 34111  1  0  0  0
 35 44  2  0  0  0
 35 45  1  0  0  0
 35 68  1  0  0  0
 36 56  1  0  0  0
 36112  1  0  0  0
 37 39  1  0  0  0
 37 47  1  0  0  0
 37 66  1  0  0  0
 37113  1  0  0  0
 38 43  2  0  0  0
 38 46  1  0  0  0
 38 47  1  0  0  0
 39 64  1  0  0  0
 39 67  2  0  0  0
 40 52  1  0  0  0
 40 53  2  0  0  0
 40 58  1  0  0  0
 41114  1  0  0  0
 41115  1  0  0  0
 41116  1  0  0  0
 41 48  1  0  0  0
 42 43  1  0  0  0
 42 66  1  0  0  0
 42117  1  0  0  0
 42118  1  0  0  0
 43 44  1  0  0  0
 44119  1  0  0  0
 45 46  2  0  0  0
 45120  1  0  0  0
 46121  1  0  0  0
 47122  1  0  0  0
 47123  1  0  0  0
 48 56  1  0  0  0
 48 65  1  0  0  0
 48124  1  0  0  0
 49 50  1  0  0  0
 49 53  1  0  0  0
 49 64  1  0  0  0
 49125  1  0  0  0
 50 51  1  0  0  0
 50126  1  0  0  0
 50127  1  0  0  0
 51 52  1  0  0  0
 51128  1  0  0  0
 51129  1  0  0  0
 52130  1  0  0  0
 52131  1  0  0  0
 53 54  1  0  0  0
 54 55  2  0  0  0
 54132  1  0  0  0
 55 57  1  0  0  0
 55133  1  0  0  0
 56 69  2  0  0  0
 57 58  2  0  0  0
 57134  1  0  0  0
 58135  1  0  0  0
 59 60  1  0  0  0
 59 61  1  0  0  0
 59 62  1  0  0  0
 60136  1  0  0  0
 60137  1  0  0  0
 60138  1  0  0  0
 61139  1  0  0  0
 61140  1  0  0  0
 61141  1  0  0  0
 62142  1  0  0  0
 62143  1  0  0  0
 62144  1  0  0  0
 63 65  1  0  0  0
 63145  1  0  0  0
 63146  1  0  0  0
 63147  1  0  0  0
 64148  1  0  0  0
 65149  1  0  0  0
 68 86  1  0  0  0
 71 72  2  0  0  0
 71 75  1  0  0  0
 71150  1  0  0  0
 72 76  1  0  0  0
 72151  1  0  0  0
 73 74  1  0  0  0
 73 75  2  0  0  0
 73152  1  0  0  0
 74 76  2  0  0  0
 74 85  1  0  0  0
 75 88  1  0  0  0
 76 90  1  0  0  0
 77 78  1  0  0  0
 77 81  1  0  0  0
 77153  1  0  0  0
 77154  1  0  0  0
 78 82  1  0  0  0
 78155  1  0  0  0
 78156  1  0  0  0
 79 80  1  0  0  0
 79 82  1  0  0  0
 79157  1  0  0  0
 79158  1  0  0  0
 80 83  1  0  0  0
 80159  1  0  0  0
 80160  1  0  0  0
 81 89  1  0  0  0
 81161  1  0  0  0
 81162  1  0  0  0
 82 86  1  0  0  0
 82163  1  0  0  0
 83 87  1  0  0  0
 83 89  1  0  0  0
 83164  1  0  0  0
 84 87  1  0  0  0
 84165  1  0  0  0
 84166  1  0  0  0
 84167  1  0  0  0
 85168  1  0  0  0
 85169  1  0  0  0
 85 89  1  0  0  0
 86170  1  0  0  0
 86171  1  0  0  0
 87172  1  0  0  0
 87173  1  0  0  0
 88174  1  0  0  0
 89175  1  0  0  0
M  CHG  1  89   1
M  ISO  4   1 100  68 101  86 101  88 100
M  END
> <chiral flag>
0

> <version>
0

> <s_m_source_file>
/data/baiqing/PycharmProjects/Reinvent-master-3.2/result/LINK_invent/BTK/process_docking_weight1_custom_product_contain_oxygen_bond_distance_aromatic_linkinvent_7_9_3/rearranged_h_0039.sdf

> <i_m_source_file_index>
51

> <r_mmod_Potential_Energy-OPLS-2005>
-2.93891477584839

> <r_mmod_Stretch_Energy-OPLS-2005>
49.6346702575684

> <r_mmod_Bend_Energy-OPLS-2005>
156.206115722656

> <r_mmod_Torsional_Energy-OPLS-2005>
317.909027099609

> <r_mmod_Improper_Torsional_Energy-OPLS-2005>
7.3844051361084

> <r_mmod_Van_der_Waal_Energy-OPLS-2005>
156.884689331055

> <r_mmod_Electrostatic_Energy-OPLS-2005>
-297.378173828125

> <r_mmod_Solvation_Energy-OPLS-2005>
-406.525756835938

> <b_mmod_Minimization_Converged-OPLS-2005>
0

> <r_mmod_RMS_Derivative-OPLS-2005>
1.98324799537659

$$$$
51
                    3D
 Structure written by MMmdl.
159167  0  0  1  0            999 V2000
  -30.5812  -14.6790   20.5107 C   0  0  0  0  0  0
  -30.4473  -12.4208   19.4506 C   0  0  0  0  0  0
  -29.5104  -12.5212   18.2242 C   0  0  0  0  0  0
  -28.0323  -12.3532   18.6330 C   0  0  0  0  0  0
  -27.6540  -13.2150   19.8663 C   0  0  2  0  0  0
  -28.6988  -13.0555   20.9941 C   0  0  0  0  0  0
  -25.2518  -13.8111   20.5556 C   0  0  0  0  0  0
  -24.1816  -13.0404   20.9167 C   0  0  0  0  0  0
  -24.6397  -11.6883   20.8751 C   0  0  0  0  0  0
  -23.9064  -10.4276   21.0424 C   0  0  0  0  0  0
  -24.3615   -9.4194   21.9197 C   0  0  0  0  0  0
  -23.6289   -8.2234   22.0761 C   0  0  0  0  0  0
  -22.4272   -8.0277   21.3548 C   0  0  0  0  0  0
  -21.9913   -9.0249   20.4649 C   0  0  0  0  0  0
  -22.7241  -10.2125   20.3065 C   0  0  0  0  0  0
  -21.6848   -6.0737   22.5279 C   0  0  0  0  0  0
  -21.4008   -6.5641   23.8211 C   0  0  0  0  0  0
  -21.3655   -5.6796   24.9174 C   0  0  0  0  0  0
  -21.6049   -4.3059   24.7222 C   0  0  0  0  0  0
  -21.8819   -3.8149   23.4343 C   0  0  0  0  0  0
  -21.9189   -4.6967   22.3401 C   0  0  0  0  0  0
  -22.7843  -13.5215   21.1838 C   0  0  0  0  0  0
  -22.1664   -4.2154   21.0978 F   0  0  0  0  0  0
  -21.5630   -3.4544   25.7736 F   0  0  0  0  0  0
  -30.0108  -13.4302   20.4380 N   0  0  0  0  0  0
  -26.2987  -12.9316   20.3312 N   0  0  0  0  0  0
  -25.9333  -11.6480   20.5793 N   0  0  0  0  0  0
  -22.0488  -12.8216   22.0403 N   0  0  0  0  0  0
  -25.4130  -15.1794   20.3710 N   0  0  0  0  0  0
  -31.7278  -14.8818   20.0972 O   0  0  0  0  0  0
  -21.6637   -6.8877   21.4242 O   0  0  0  0  0  0
  -22.3540  -14.5531   20.6691 O   0  0  0  0  0  0
  -24.6268  -31.8585   23.1985 C   0  0  0  0  0  0
  -25.9120  -32.4763   23.8323 C   0  0  1  0  0  0
  -27.2309  -27.2958   20.1339 C   0  0  0  0  0  0
  -25.5940  -33.8561   24.2261 N   0  0  0  0  0  0
  -23.4229  -30.4778   21.5397 C   0  0  2  0  0  0
  -24.8700  -28.9158   20.1216 C   0  0  0  0  0  0
  -22.7492  -29.4606   22.4917 C   0  0  0  0  0  0
  -18.0290  -28.1396   22.8457 C   0  0  0  0  0  0
  -24.1492  -36.7276   23.2645 C   0  0  0  0  0  0
  -25.9637  -30.7799   21.3719 C   0  0  0  0  0  0
  -26.0379  -29.4013   20.7217 C   0  0  0  0  0  0
  -27.2220  -28.6059   20.7091 C   0  0  0  0  0  0
  -26.0388  -26.8524   19.5260 C   0  0  0  0  0  0
  -24.8730  -27.6472   19.5149 C   0  0  0  0  0  0
  -23.6425  -29.8046   20.1582 C   0  0  0  0  0  0
  -25.4116  -36.3066   24.0339 C   0  0  1  0  0  0
  -20.5891  -28.3699   23.1274 C   0  0  2  0  0  0
  -20.6786  -26.9427   22.5410 C   0  0  0  0  0  0
  -19.5764  -26.6385   21.5211 C   0  0  0  0  0  0
  -18.1932  -26.7930   22.1605 C   0  0  0  0  0  0
  -19.1541  -28.8861   23.2853 C   0  0  0  0  0  0
  -18.9468  -30.1452   23.8888 C   0  0  0  0  0  0
  -17.6478  -30.6593   24.0553 C   0  0  0  0  0  0
  -25.9061  -34.9442   23.5096 C   0  0  0  0  0  0
  -16.5367  -29.9091   23.6331 C   0  0  0  0  0  0
  -16.7277  -28.6520   23.0328 C   0  0  0  0  0  0
  -26.4507  -31.6575   25.0696 C   0  0  0  0  0  0
  -25.3737  -31.3739   26.1423 C   0  0  0  0  0  0
  -27.0360  -30.2999   24.6154 C   0  0  0  0  0  0
  -27.6059  -32.4327   25.7473 C   0  0  0  0  0  0
  -27.5578  -37.1790   24.8470 C   0  0  0  0  0  0
  -21.4205  -29.3040   22.3673 N   0  0  0  0  0  0
  -26.4282  -37.3763   23.9419 N   0  0  0  0  0  0
  -24.6899  -31.0568   22.0942 N   0  0  0  0  0  0
  -23.4221  -28.8153   23.3007 O   0  0  0  0  0  0
  -28.3867  -26.5066   20.0552 O   0  0  0  0  0  0
  -26.5615  -34.8912   22.4653 O   0  0  0  0  0  0
  -23.5434  -32.1393   23.7303 O   0  0  0  0  0  0
  -30.3661  -19.4264   20.1471 C   0  0  0  0  0  0
  -30.5407  -18.0022   20.1654 C   0  0  0  0  0  0
  -29.2830  -20.0890   20.7985 C   0  0  0  0  0  0
  -28.3659  -19.2213   21.4699 C   0  0  0  0  0  0
  -28.5909  -17.8003   21.5668 C   0  0  0  0  0  0
  -29.6667  -17.1441   20.8886 C   0  0  0  0  0  0
  -27.1257  -19.8286   22.1255 C   0  0  0  0  0  0
  -27.6667  -16.9713   22.4614 C   0  0  0  0  0  0
  -29.2024  -21.6805   20.9438 C   0  0  0  0  0  0
  -27.9648  -23.8218   19.8975 C   0  0  0  0  0  0
  -28.4912  -25.1380   20.6370 C   0  0  0  0  0  0
  -29.7441  -15.6730   20.9591 N   0  0  0  0  0  0
  -28.8376  -22.5590   19.7644 N   0  3  0  0  0  0
  -31.4854  -12.5678   19.1472 H   0  0  0  0  0  0
  -30.4029  -11.4222   19.8883 H   0  0  0  0  0  0
  -29.7796  -11.7685   17.4824 H   0  0  0  0  0  0
  -29.6464  -13.4898   17.7402 H   0  0  0  0  0  0
  -27.8665  -11.2977   18.8540 H   0  0  0  0  0  0
  -27.3803  -12.5922   17.7923 H   0  0  0  0  0  0
  -27.6733  -14.2540   19.5359 H   0  0  0  0  0  0
  -28.7230  -12.0229   21.3475 H   0  0  0  0  0  0
  -28.4315  -13.6538   21.8658 H   0  0  0  0  0  0
  -25.2760   -9.5675   22.4776 H   0  0  0  0  0  0
  -23.9995   -7.4629   22.7484 H   0  0  0  0  0  0
  -21.0845   -8.8764   19.8954 H   0  0  0  0  0  0
  -22.3698  -10.9666   19.6177 H   0  0  0  0  0  0
  -21.1995   -7.6148   23.9711 H   0  0  0  0  0  0
  -21.1484   -6.0528   25.9074 H   0  0  0  0  0  0
  -22.0598   -2.7612   23.2840 H   0  0  0  0  0  0
  -22.4101  -11.9865   22.4772 H   0  0  0  0  0  0
  -21.1117  -13.1263   22.2629 H   0  0  0  0  0  0
  -24.6276  -15.8181   20.4345 H   0  0  0  0  0  0
  -26.2421  -15.6083   19.9799 H   0  0  0  0  0  0
  -26.7178  -32.5435   23.1064 H   0  0  0  0  0  0
  -25.0126  -33.9704   25.0429 H   0  0  0  0  0  0
  -22.7163  -31.2969   21.3896 H   0  0  0  0  0  0
  -23.3758  -35.9601   23.3301 H   0  0  0  0  0  0
  -24.3583  -36.8896   22.2059 H   0  0  0  0  0  0
  -23.7241  -37.6475   23.6670 H   0  0  0  0  0  0
  -26.0975  -31.5386   20.6001 H   0  0  0  0  0  0
  -26.8445  -30.8332   22.0011 H   0  0  0  0  0  0
  -28.1300  -28.9872   21.1539 H   0  0  0  0  0  0
  -26.0098  -25.8888   19.0381 H   0  0  0  0  0  0
  -23.9796  -27.2721   19.0363 H   0  0  0  0  0  0
  -23.7762  -30.5785   19.4017 H   0  0  0  0  0  0
  -22.7613  -29.2426   19.8471 H   0  0  0  0  0  0
  -25.1291  -36.1915   25.0832 H   0  0  0  0  0  0
  -20.9952  -28.3270   24.1404 H   0  0  0  0  0  0
  -20.5698  -26.2309   23.3608 H   0  0  0  0  0  0
  -21.6651  -26.7461   22.1199 H   0  0  0  0  0  0
  -19.6942  -25.6294   21.1247 H   0  0  0  0  0  0
  -19.6712  -27.3180   20.6732 H   0  0  0  0  0  0
  -17.4212  -26.6664   21.4004 H   0  0  0  0  0  0
  -18.0322  -26.0083   22.9013 H   0  0  0  0  0  0
  -19.7958  -30.7244   24.2264 H   0  0  0  0  0  0
  -17.5050  -31.6274   24.5154 H   0  0  0  0  0  0
  -15.5369  -30.2998   23.7675 H   0  0  0  0  0  0
  -15.8667  -28.0852   22.7041 H   0  0  0  0  0  0
  -24.5898  -30.7108   25.7754 H   0  0  0  0  0  0
  -24.8947  -32.2920   26.4839 H   0  0  0  0  0  0
  -25.8042  -30.8923   27.0210 H   0  0  0  0  0  0
  -26.2924  -29.6733   24.1212 H   0  0  0  0  0  0
  -27.4108  -29.7277   25.4652 H   0  0  0  0  0  0
  -27.8778  -30.4294   23.9345 H   0  0  0  0  0  0
  -27.2665  -33.3640   26.2019 H   0  0  0  0  0  0
  -28.3886  -32.6867   25.0317 H   0  0  0  0  0  0
  -28.0706  -31.8480   26.5422 H   0  0  0  0  0  0
  -28.2582  -38.0093   24.7504 H   0  0  0  0  0  0
  -28.1085  -36.2625   24.6308 H   0  0  0  0  0  0
  -27.2301  -37.1446   25.8871 H   0  0  0  0  0  0
  -20.9399  -29.8772   21.6877 H   0  0  0  0  0  0
  -26.0171  -38.2840   24.1412 H   0  0  0  0  0  0
  -31.1067  -20.0192   19.6283 H   0  0  0  0  0  0
  -31.3775  -17.5767   19.6291 H   0  0  0  0  0  0
  -27.3516  -20.1839   23.1313 H   0  0  0  0  0  0
  -26.2976  -19.1243   22.1904 H   0  0  0  0  0  0
  -26.7368  -20.6620   21.5408 H   0  0  0  0  0  0
  -26.7186  -16.7890   21.9616 H   0  0  0  0  0  0
  -27.4603  -17.4963   23.3941 H   0  0  0  0  0  0
  -28.0833  -16.0119   22.7647 H   0  0  0  0  0  0
  -30.1860  -22.0106   21.2782 H   0  0  0  0  0  0
  -28.5490  -21.9462   21.7729 H   0  0  0  0  0  0
  -27.7234  -24.1109   18.8749 H   0  0  0  0  0  0
  -27.0118  -23.5305   20.3398 H   0  0  0  0  0  0
  -29.5573  -24.9958   20.8143 H   0  0  0  0  0  0
  -28.0559  -25.1662   21.6360 H   0  0  0  0  0  0
  -28.9113  -15.2676   21.3558 H   0  0  0  0  0  0
  -28.3457  -21.9480   19.1320 H   0  0  0  0  0  0
  -29.6940  -22.8021   19.2931 H   0  0  0  0  0  0
  1 25  1  0  0  0
  1 30  2  0  0  0
  1 82  1  0  0  0
  2  3  1  0  0  0
  2 25  1  0  0  0
  2 84  1  0  0  0
  2 85  1  0  0  0
  3  4  1  0  0  0
  3 86  1  0  0  0
  3 87  1  0  0  0
  4  5  1  0  0  0
  4 88  1  0  0  0
  4 89  1  0  0  0
  5  6  1  0  0  0
  5 26  1  0  0  0
  5 90  1  0  0  0
  6 25  1  0  0  0
  6 91  1  0  0  0
  6 92  1  0  0  0
  7  8  2  0  0  0
  7 26  1  0  0  0
  7 29  1  0  0  0
  8  9  1  0  0  0
  8 22  1  0  0  0
  9 10  1  0  0  0
  9 27  2  0  0  0
 10 11  2  0  0  0
 10 15  1  0  0  0
 11 12  1  0  0  0
 11 93  1  0  0  0
 12 13  2  0  0  0
 12 94  1  0  0  0
 13 14  1  0  0  0
 13 31  1  0  0  0
 14 15  2  0  0  0
 14 95  1  0  0  0
 15 96  1  0  0  0
 16 17  2  0  0  0
 16 21  1  0  0  0
 16 31  1  0  0  0
 17 18  1  0  0  0
 17 97  1  0  0  0
 18 19  2  0  0  0
 18 98  1  0  0  0
 19 20  1  0  0  0
 19 24  1  0  0  0
 20 21  2  0  0  0
 20 99  1  0  0  0
 21 23  1  0  0  0
 22 28  1  0  0  0
 22 32  2  0  0  0
 26 27  1  0  0  0
 28100  1  0  0  0
 28101  1  0  0  0
 29102  1  0  0  0
 29103  1  0  0  0
 33 34  1  0  0  0
 33 66  1  0  0  0
 33 70  2  0  0  0
 34 36  1  0  0  0
 34 59  1  0  0  0
 34104  1  0  0  0
 35 44  2  0  0  0
 35 45  1  0  0  0
 35 68  1  0  0  0
 36 56  1  0  0  0
 36105  1  0  0  0
 37 39  1  0  0  0
 37 47  1  0  0  0
 37 66  1  0  0  0
 37106  1  0  0  0
 38 43  2  0  0  0
 38 46  1  0  0  0
 38 47  1  0  0  0
 39 64  1  0  0  0
 39 67  2  0  0  0
 40 52  1  0  0  0
 40 53  2  0  0  0
 40 58  1  0  0  0
 41107  1  0  0  0
 41108  1  0  0  0
 41109  1  0  0  0
 41 48  1  0  0  0
 42 43  1  0  0  0
 42 66  1  0  0  0
 42110  1  0  0  0
 42111  1  0  0  0
 43 44  1  0  0  0
 44112  1  0  0  0
 45 46  2  0  0  0
 45113  1  0  0  0
 46114  1  0  0  0
 47115  1  0  0  0
 47116  1  0  0  0
 48 56  1  0  0  0
 48 65  1  0  0  0
 48117  1  0  0  0
 49 50  1  0  0  0
 49 53  1  0  0  0
 49 64  1  0  0  0
 49118  1  0  0  0
 50 51  1  0  0  0
 50119  1  0  0  0
 50120  1  0  0  0
 51 52  1  0  0  0
 51121  1  0  0  0
 51122  1  0  0  0
 52123  1  0  0  0
 52124  1  0  0  0
 53 54  1  0  0  0
 54 55  2  0  0  0
 54125  1  0  0  0
 55 57  1  0  0  0
 55126  1  0  0  0
 56 69  2  0  0  0
 57 58  2  0  0  0
 57127  1  0  0  0
 58128  1  0  0  0
 59 60  1  0  0  0
 59 61  1  0  0  0
 59 62  1  0  0  0
 60129  1  0  0  0
 60130  1  0  0  0
 60131  1  0  0  0
 61132  1  0  0  0
 61133  1  0  0  0
 61134  1  0  0  0
 62135  1  0  0  0
 62136  1  0  0  0
 62137  1  0  0  0
 63 65  1  0  0  0
 63138  1  0  0  0
 63139  1  0  0  0
 63140  1  0  0  0
 64141  1  0  0  0
 65142  1  0  0  0
 68 81  1  0  0  0
 71 72  2  0  0  0
 71 73  1  0  0  0
 71143  1  0  0  0
 72 76  1  0  0  0
 72144  1  0  0  0
 73 74  2  0  0  0
 73 79  1  0  0  0
 74 75  1  0  0  0
 74 77  1  0  0  0
 75 76  2  0  0  0
 75 78  1  0  0  0
 76 82  1  0  0  0
 77145  1  0  0  0
 77146  1  0  0  0
 77147  1  0  0  0
 78148  1  0  0  0
 78149  1  0  0  0
 78150  1  0  0  0
 79 83  1  0  0  0
 79151  1  0  0  0
 79152  1  0  0  0
 80 81  1  0  0  0
 80 83  1  0  0  0
 80153  1  0  0  0
 80154  1  0  0  0
 81155  1  0  0  0
 81156  1  0  0  0
 82157  1  0  0  0
 83158  1  0  0  0
 83159  1  0  0  0
M  CHG  1  83   1
M  ISO  4   1 100  68 101  81 101  82 100
M  END
> <chiral flag>
0

> <version>
0

> <s_m_source_file>
/data/baiqing/PycharmProjects/Reinvent-master-3.2/result/LINK_invent/BTK/process_docking_weight1_custom_product_contain_oxygen_bond_distance_aromatic_linkinvent_7_9_3/rearranged_h_0039.sdf

> <i_m_source_file_index>
52

> <r_mmod_Potential_Energy-OPLS-2005>
-38.3652954101562

> <r_mmod_Stretch_Energy-OPLS-2005>
97.7290267944336

> <r_mmod_Bend_Energy-OPLS-2005>
188.094741821289

> <r_mmod_Torsional_Energy-OPLS-2005>
241.727996826172

> <r_mmod_Improper_Torsional_Energy-OPLS-2005>
4.66516399383545

> <r_mmod_Van_der_Waal_Energy-OPLS-2005>
141.27734375

> <r_mmod_Electrostatic_Energy-OPLS-2005>
-311.515991210938

> <r_mmod_Solvation_Energy-OPLS-2005>
-455.226440429688

> <b_mmod_Minimization_Converged-OPLS-2005>
0

> <r_mmod_RMS_Derivative-OPLS-2005>
1.943892121315

$$$$
52
                    3D
 Structure written by MMmdl.
177186  0  0  1  0            999 V2000
  -30.5785  -14.6411   20.4562 C   0  0  0  0  0  0
  -30.4447  -12.3844   19.4303 C   0  0  0  0  0  0
  -29.5043  -12.4900   18.2090 C   0  0  0  0  0  0
  -28.0253  -12.3390   18.6250 C   0  0  0  0  0  0
  -27.6561  -13.2042   19.8612 C   0  0  2  0  0  0
  -28.7065  -13.0331   20.9828 C   0  0  0  0  0  0
  -25.2587  -13.8140   20.5660 C   0  0  0  0  0  0
  -24.1847  -13.0435   20.9181 C   0  0  0  0  0  0
  -24.6397  -11.6897   20.8752 C   0  0  0  0  0  0
  -23.9048  -10.4293   21.0418 C   0  0  0  0  0  0
  -24.3598   -9.4203   21.9200 C   0  0  0  0  0  0
  -23.6266   -8.2240   22.0781 C   0  0  0  0  0  0
  -22.4262   -8.0270   21.3551 C   0  0  0  0  0  0
  -21.9886   -9.0244   20.4667 C   0  0  0  0  0  0
  -22.7212  -10.2125   20.3071 C   0  0  0  0  0  0
  -21.6853   -6.0729   22.5260 C   0  0  0  0  0  0
  -21.4021   -6.5632   23.8202 C   0  0  0  0  0  0
  -21.3652   -5.6788   24.9160 C   0  0  0  0  0  0
  -21.6061   -4.3053   24.7225 C   0  0  0  0  0  0
  -21.8811   -3.8137   23.4339 C   0  0  0  0  0  0
  -21.9192   -4.6951   22.3398 C   0  0  0  0  0  0
  -22.7848  -13.5224   21.1805 C   0  0  0  0  0  0
  -22.1649   -4.2139   21.0970 F   0  0  0  0  0  0
  -21.5634   -3.4537   25.7736 F   0  0  0  0  0  0
  -30.0151  -13.3938   20.4139 N   0  0  0  0  0  0
  -26.3010  -12.9305   20.3325 N   0  0  0  0  0  0
  -25.9333  -11.6480   20.5784 N   0  0  0  0  0  0
  -22.0503  -12.8258   22.0369 N   0  0  0  0  0  0
  -25.4280  -15.1857   20.4055 N   0  0  0  0  0  0
  -31.7581  -14.8240   20.1386 O   0  0  0  0  0  0
  -21.6621   -6.8861   21.4231 O   0  0  0  0  0  0
  -22.3513  -14.5502   20.6596 O   0  0  0  0  0  0
  -24.6242  -31.8581   23.2021 C   0  0  0  0  0  0
  -25.9087  -32.4768   23.8341 C   0  0  1  0  0  0
  -27.2362  -27.3440   20.1286 C   0  0  0  0  0  0
  -25.5897  -33.8567   24.2244 N   0  0  0  0  0  0
  -23.4186  -30.4719   21.5490 C   0  0  2  0  0  0
  -24.8680  -28.9217   20.1239 C   0  0  0  0  0  0
  -22.7486  -29.4521   22.5019 C   0  0  0  0  0  0
  -18.0280  -28.1359   22.8481 C   0  0  0  0  0  0
  -24.1504  -36.7299   23.2645 C   0  0  0  0  0  0
  -25.9542  -30.7978   21.3658 C   0  0  0  0  0  0
  -26.0324  -29.4206   20.7215 C   0  0  0  0  0  0
  -27.2224  -28.6425   20.7120 C   0  0  0  0  0  0
  -26.0527  -26.8732   19.5317 C   0  0  0  0  0  0
  -24.8759  -27.6497   19.5239 C   0  0  0  0  0  0
  -23.6341  -29.7986   20.1675 C   0  0  0  0  0  0
  -25.4125  -36.3082   24.0317 C   0  0  1  0  0  0
  -20.5887  -28.3617   23.1328 C   0  0  2  0  0  0
  -20.6769  -26.9344   22.5427 C   0  0  0  0  0  0
  -19.5749  -26.6360   21.5227 C   0  0  0  0  0  0
  -18.1913  -26.7904   22.1621 C   0  0  0  0  0  0
  -19.1531  -28.8822   23.2889 C   0  0  0  0  0  0
  -18.9444  -30.1440   23.8876 C   0  0  0  0  0  0
  -17.6443  -30.6570   24.0534 C   0  0  0  0  0  0
  -25.9038  -34.9442   23.5082 C   0  0  0  0  0  0
  -16.5337  -29.9038   23.6331 C   0  0  0  0  0  0
  -16.7265  -28.6472   23.0315 C   0  0  0  0  0  0
  -26.4490  -31.6596   25.0705 C   0  0  0  0  0  0
  -25.3701  -31.3727   26.1405 C   0  0  0  0  0  0
  -27.0300  -30.3032   24.6103 C   0  0  0  0  0  0
  -27.6035  -32.4363   25.7463 C   0  0  0  0  0  0
  -27.5581  -37.1781   24.8452 C   0  0  0  0  0  0
  -21.4205  -29.2961   22.3746 N   0  0  0  0  0  0
  -26.4295  -37.3769   23.9400 N   0  0  0  0  0  0
  -24.6849  -31.0579   22.0983 N   0  0  0  0  0  0
  -23.4214  -28.8034   23.3082 O   0  0  0  0  0  0
  -28.4022  -26.5983   19.9976 O   0  0  0  0  0  0
  -26.5612  -34.8895   22.4653 O   0  0  0  0  0  0
  -23.5406  -32.1374   23.7363 O   0  0  0  0  0  0
  -29.9425  -19.2733   19.3802 C   0  0  0  0  0  0
  -28.9681  -19.9548   20.1637 C   0  0  0  0  0  0
  -28.2976  -19.1498   21.1411 C   0  0  0  0  0  0
  -29.6143  -17.0976   20.5381 C   0  0  0  0  0  0
  -30.2325  -17.8796   19.5189 C   0  0  0  0  0  0
  -28.6741  -17.7802   21.3594 C   0  0  0  0  0  0
  -31.3893  -22.7514   21.4860 C   0  0  0  0  0  0
  -32.1318  -23.3796   22.4145 C   0  0  0  0  0  0
  -29.9478  -22.5684   21.5624 C   0  0  0  0  0  0
  -29.2422  -22.4372   22.7010 C   0  0  0  0  0  0
  -33.5366  -23.8736   22.1458 C   0  0  0  0  0  0
  -33.5936  -24.9454   21.0336 C   0  0  0  0  0  0
  -32.5704  -26.1056   21.1236 C   0  0  0  0  0  0
  -31.2012  -25.8523   20.4390 C   0  0  0  0  0  0
  -29.9990  -25.7364   21.4098 C   0  0  0  0  0  0
  -28.5401  -24.0080   19.9000 C   0  0  0  0  0  0
  -28.6437  -25.3671   20.7589 C   0  0  2  0  0  0
  -27.0835  -19.6921   21.9028 C   0  0  0  0  0  0
  -28.5168  -21.4315   19.7854 C   0  0  0  0  0  0
  -29.6961  -15.6452   20.7307 N   0  0  0  0  0  0
  -29.2420  -22.6833   20.2629 N   0  3  1  0  0  0
  -31.2658  -17.1733   18.3302 Cl  0  0  0  0  0  0
  -27.9270  -16.8690   22.6364 Cl  0  0  0  0  0  0
  -31.4817  -12.5265   19.1225 H   0  0  0  0  0  0
  -30.3959  -11.3854   19.8649 H   0  0  0  0  0  0
  -29.7619  -11.7250   17.4767 H   0  0  0  0  0  0
  -29.6526  -13.4459   17.7076 H   0  0  0  0  0  0
  -27.8527  -11.2851   18.8494 H   0  0  0  0  0  0
  -27.3712  -12.5803   17.7848 H   0  0  0  0  0  0
  -27.6774  -14.2423   19.5320 H   0  0  0  0  0  0
  -28.7279  -11.9986   21.3314 H   0  0  0  0  0  0
  -28.4636  -13.6352   21.8603 H   0  0  0  0  0  0
  -25.2765   -9.5669   22.4752 H   0  0  0  0  0  0
  -23.9991   -7.4634   22.7511 H   0  0  0  0  0  0
  -21.0825   -8.8753   19.8965 H   0  0  0  0  0  0
  -22.3686  -10.9655   19.6169 H   0  0  0  0  0  0
  -21.2008   -7.6141   23.9687 H   0  0  0  0  0  0
  -21.1488   -6.0531   25.9060 H   0  0  0  0  0  0
  -22.0603   -2.7597   23.2844 H   0  0  0  0  0  0
  -22.4113  -11.9906   22.4745 H   0  0  0  0  0  0
  -21.1131  -13.1301   22.2606 H   0  0  0  0  0  0
  -24.6531  -15.8333   20.4972 H   0  0  0  0  0  0
  -26.2775  -15.6279   20.0838 H   0  0  0  0  0  0
  -26.7133  -32.5470   23.1080 H   0  0  0  0  0  0
  -25.0016  -33.9750   25.0367 H   0  0  0  0  0  0
  -22.7109  -31.2905   21.4007 H   0  0  0  0  0  0
  -23.3755  -35.9638   23.3312 H   0  0  0  0  0  0
  -24.3620  -36.8932   22.2060 H   0  0  0  0  0  0
  -23.7263  -37.6499   23.6686 H   0  0  0  0  0  0
  -26.0710  -31.5563   20.5906 H   0  0  0  0  0  0
  -26.8429  -30.8573   21.9827 H   0  0  0  0  0  0
  -28.1310  -29.0334   21.1454 H   0  0  0  0  0  0
  -26.0432  -25.9069   19.0497 H   0  0  0  0  0  0
  -23.9815  -27.2600   19.0552 H   0  0  0  0  0  0
  -23.7437  -30.5731   19.4081 H   0  0  0  0  0  0
  -22.7602  -29.2139   19.8755 H   0  0  0  0  0  0
  -25.1305  -36.1921   25.0800 H   0  0  0  0  0  0
  -20.9930  -28.3165   24.1474 H   0  0  0  0  0  0
  -20.5693  -26.2192   23.3605 H   0  0  0  0  0  0
  -21.6622  -26.7390   22.1180 H   0  0  0  0  0  0
  -19.6913  -25.6281   21.1230 H   0  0  0  0  0  0
  -19.6728  -27.3192   20.6770 H   0  0  0  0  0  0
  -17.4185  -26.6668   21.4002 H   0  0  0  0  0  0
  -18.0276  -26.0046   22.9007 H   0  0  0  0  0  0
  -19.7908  -30.7264   24.2222 H   0  0  0  0  0  0
  -17.4972  -31.6258   24.5129 H   0  0  0  0  0  0
  -15.5310  -30.2903   23.7718 H   0  0  0  0  0  0
  -15.8651  -28.0812   22.6984 H   0  0  0  0  0  0
  -24.5882  -30.7083   25.7723 H   0  0  0  0  0  0
  -24.8865  -32.2873   26.4808 H   0  0  0  0  0  0
  -25.7961  -30.8904   27.0186 H   0  0  0  0  0  0
  -26.2838  -29.6816   24.1137 H   0  0  0  0  0  0
  -27.4030  -29.7259   25.4561 H   0  0  0  0  0  0
  -27.8684  -30.4347   23.9267 H   0  0  0  0  0  0
  -27.2634  -33.3669   26.1992 H   0  0  0  0  0  0
  -28.3822  -32.6911   25.0277 H   0  0  0  0  0  0
  -28.0701  -31.8526   26.5397 H   0  0  0  0  0  0
  -28.2530  -38.0131   24.7507 H   0  0  0  0  0  0
  -28.1123  -36.2639   24.6257 H   0  0  0  0  0  0
  -27.2291  -37.1389   25.8851 H   0  0  0  0  0  0
  -20.9398  -29.8682   21.6950 H   0  0  0  0  0  0
  -26.0170  -38.2824   24.1459 H   0  0  0  0  0  0
  -30.4273  -19.8012   18.5712 H   0  0  0  0  0  0
  -31.8806  -22.4991   20.5538 H   0  0  0  0  0  0
  -31.6906  -23.7108   23.3459 H   0  0  0  0  0  0
  -29.7306  -22.3959   23.6623 H   0  0  0  0  0  0
  -28.1637  -22.3895   22.6879 H   0  0  0  0  0  0
  -34.1585  -23.0254   21.8543 H   0  0  0  0  0  0
  -33.9692  -24.2632   23.0683 H   0  0  0  0  0  0
  -33.5314  -24.4644   20.0560 H   0  0  0  0  0  0
  -34.5903  -25.3816   21.0653 H   0  0  0  0  0  0
  -33.0223  -26.9697   20.6272 H   0  0  0  0  0  0
  -32.4498  -26.4179   22.1605 H   0  0  0  0  0  0
  -31.2561  -24.9903   19.7756 H   0  0  0  0  0  0
  -30.9898  -26.6882   19.7715 H   0  0  0  0  0  0
  -29.8742  -26.7038   21.9020 H   0  0  0  0  0  0
  -30.2028  -25.0702   22.2375 H   0  0  0  0  0  0
  -27.4715  -23.8001   19.8343 H   0  0  0  0  0  0
  -28.8443  -24.2392   18.8785 H   0  0  0  0  0  0
  -27.9093  -25.2992   21.5664 H   0  0  0  0  0  0
  -27.3673  -20.2833   22.7716 H   0  0  0  0  0  0
  -26.4265  -18.8992   22.2541 H   0  0  0  0  0  0
  -26.4224  -20.2764   21.2663 H   0  0  0  0  0  0
  -27.4717  -21.5700   20.0395 H   0  0  0  0  0  0
  -28.5305  -21.4828   18.6954 H   0  0  0  0  0  0
  -28.8409  -15.2808   21.1238 H   0  0  0  0  0  0
  -30.0085  -22.6929   19.6040 H   0  0  0  0  0  0
  1 25  1  0  0  0
  1 30  2  0  0  0
  1 90  1  0  0  0
  2  3  1  0  0  0
  2 25  1  0  0  0
  2 94  1  0  0  0
  2 95  1  0  0  0
  3  4  1  0  0  0
  3 96  1  0  0  0
  3 97  1  0  0  0
  4  5  1  0  0  0
  4 98  1  0  0  0
  4 99  1  0  0  0
  5  6  1  0  0  0
  5 26  1  0  0  0
  5100  1  0  0  0
  6 25  1  0  0  0
  6101  1  0  0  0
  6102  1  0  0  0
  7  8  2  0  0  0
  7 26  1  0  0  0
  7 29  1  0  0  0
  8  9  1  0  0  0
  8 22  1  0  0  0
  9 10  1  0  0  0
  9 27  2  0  0  0
 10 11  2  0  0  0
 10 15  1  0  0  0
 11 12  1  0  0  0
 11103  1  0  0  0
 12 13  2  0  0  0
 12104  1  0  0  0
 13 14  1  0  0  0
 13 31  1  0  0  0
 14 15  2  0  0  0
 14105  1  0  0  0
 15106  1  0  0  0
 16 17  2  0  0  0
 16 21  1  0  0  0
 16 31  1  0  0  0
 17 18  1  0  0  0
 17107  1  0  0  0
 18 19  2  0  0  0
 18108  1  0  0  0
 19 20  1  0  0  0
 19 24  1  0  0  0
 20 21  2  0  0  0
 20109  1  0  0  0
 21 23  1  0  0  0
 22 28  1  0  0  0
 22 32  2  0  0  0
 26 27  1  0  0  0
 28110  1  0  0  0
 28111  1  0  0  0
 29112  1  0  0  0
 29113  1  0  0  0
 33 34  1  0  0  0
 33 66  1  0  0  0
 33 70  2  0  0  0
 34 36  1  0  0  0
 34 59  1  0  0  0
 34114  1  0  0  0
 35 44  2  0  0  0
 35 45  1  0  0  0
 35 68  1  0  0  0
 36 56  1  0  0  0
 36115  1  0  0  0
 37 39  1  0  0  0
 37 47  1  0  0  0
 37 66  1  0  0  0
 37116  1  0  0  0
 38 43  2  0  0  0
 38 46  1  0  0  0
 38 47  1  0  0  0
 39 64  1  0  0  0
 39 67  2  0  0  0
 40 52  1  0  0  0
 40 53  2  0  0  0
 40 58  1  0  0  0
 41117  1  0  0  0
 41118  1  0  0  0
 41119  1  0  0  0
 41 48  1  0  0  0
 42 43  1  0  0  0
 42 66  1  0  0  0
 42120  1  0  0  0
 42121  1  0  0  0
 43 44  1  0  0  0
 44122  1  0  0  0
 45 46  2  0  0  0
 45123  1  0  0  0
 46124  1  0  0  0
 47125  1  0  0  0
 47126  1  0  0  0
 48 56  1  0  0  0
 48 65  1  0  0  0
 48127  1  0  0  0
 49 50  1  0  0  0
 49 53  1  0  0  0
 49 64  1  0  0  0
 49128  1  0  0  0
 50 51  1  0  0  0
 50129  1  0  0  0
 50130  1  0  0  0
 51 52  1  0  0  0
 51131  1  0  0  0
 51132  1  0  0  0
 52133  1  0  0  0
 52134  1  0  0  0
 53 54  1  0  0  0
 54 55  2  0  0  0
 54135  1  0  0  0
 55 57  1  0  0  0
 55136  1  0  0  0
 56 69  2  0  0  0
 57 58  2  0  0  0
 57137  1  0  0  0
 58138  1  0  0  0
 59 60  1  0  0  0
 59 61  1  0  0  0
 59 62  1  0  0  0
 60139  1  0  0  0
 60140  1  0  0  0
 60141  1  0  0  0
 61142  1  0  0  0
 61143  1  0  0  0
 61144  1  0  0  0
 62145  1  0  0  0
 62146  1  0  0  0
 62147  1  0  0  0
 63 65  1  0  0  0
 63148  1  0  0  0
 63149  1  0  0  0
 63150  1  0  0  0
 64151  1  0  0  0
 65152  1  0  0  0
 68 87  1  0  0  0
 71 72  2  0  0  0
 71 75  1  0  0  0
 71153  1  0  0  0
 72 73  1  0  0  0
 72 89  1  0  0  0
 73 76  2  0  0  0
 73 88  1  0  0  0
 74 75  2  0  0  0
 74 76  1  0  0  0
 74 90  1  0  0  0
 75 92  1  0  0  0
 76 93  1  0  0  0
 77 78  2  0  0  0
 77 79  1  0  0  0
 77154  1  0  0  0
 78 81  1  0  0  0
 78155  1  0  0  0
 79 80  2  0  0  0
 79 91  1  0  0  0
 80156  1  0  0  0
 80157  1  0  0  0
 81 82  1  0  0  0
 81158  1  0  0  0
 81159  1  0  0  0
 82 83  1  0  0  0
 82160  1  0  0  0
 82161  1  0  0  0
 83 84  1  0  0  0
 83162  1  0  0  0
 83163  1  0  0  0
 84 85  1  0  0  0
 84164  1  0  0  0
 84165  1  0  0  0
 85 87  1  0  0  0
 85166  1  0  0  0
 85167  1  0  0  0
 86 87  1  0  0  0
 86 91  1  0  0  0
 86168  1  0  0  0
 86169  1  0  0  0
 87170  1  0  0  0
 88171  1  0  0  0
 88172  1  0  0  0
 88173  1  0  0  0
 89174  1  0  0  0
 89175  1  0  0  0
 89 91  1  0  0  0
 90176  1  0  0  0
 91177  1  0  0  0
M  CHG  1  91   1
M  ISO  4   1 100  68 101  87 101  90 100
M  END
> <chiral flag>
0

> <version>
0

> <s_m_source_file>
/data/baiqing/PycharmProjects/Reinvent-master-3.2/result/LINK_invent/BTK/process_docking_weight1_custom_product_contain_oxygen_bond_distance_aromatic_linkinvent_7_9_3/rearranged_h_0039.sdf

> <i_m_source_file_index>
53

> <r_mmod_Potential_Energy-OPLS-2005>
79.6933059692383

> <r_mmod_Stretch_Energy-OPLS-2005>
88.5322494506836

> <r_mmod_Bend_Energy-OPLS-2005>
214.597549438477

> <r_mmod_Torsional_Energy-OPLS-2005>
325.686859130859

> <r_mmod_Improper_Torsional_Energy-OPLS-2005>
7.2333836555481

> <r_mmod_Van_der_Waal_Energy-OPLS-2005>
143.900009155273

> <r_mmod_Electrostatic_Energy-OPLS-2005>
-304.323669433594

> <r_mmod_Solvation_Energy-OPLS-2005>
-437.42333984375

> <b_mmod_Minimization_Converged-OPLS-2005>
0

> <r_mmod_RMS_Derivative-OPLS-2005>
4.87746286392212

$$$$
53
                    3D
 Structure written by MMmdl.
171180  0  0  1  0            999 V2000
  -30.6877  -14.4702   20.5822 C   0  0  0  0  0  0
  -30.4288  -12.3071   19.4187 C   0  0  0  0  0  0
  -29.4951  -12.5106   18.2064 C   0  0  0  0  0  0
  -28.0165  -12.3669   18.6191 C   0  0  0  0  0  0
  -27.6649  -13.1998   19.8798 C   0  0  2  0  0  0
  -28.7065  -12.9625   20.9976 C   0  0  0  0  0  0
  -25.2590  -13.8131   20.5657 C   0  0  0  0  0  0
  -24.1842  -13.0420   20.9172 C   0  0  0  0  0  0
  -24.6388  -11.6886   20.8741 C   0  0  0  0  0  0
  -23.9048  -10.4282   21.0413 C   0  0  0  0  0  0
  -24.3602   -9.4200   21.9191 C   0  0  0  0  0  0
  -23.6278   -8.2238   22.0763 C   0  0  0  0  0  0
  -22.4262   -8.0274   21.3550 C   0  0  0  0  0  0
  -21.9898   -9.0244   20.4651 C   0  0  0  0  0  0
  -22.7224  -10.2126   20.3061 C   0  0  0  0  0  0
  -21.6849   -6.0728   22.5280 C   0  0  0  0  0  0
  -21.4012   -6.5634   23.8213 C   0  0  0  0  0  0
  -21.3662   -5.6789   24.9176 C   0  0  0  0  0  0
  -21.6042   -4.3050   24.7227 C   0  0  0  0  0  0
  -21.8822   -3.8140   23.4352 C   0  0  0  0  0  0
  -21.9192   -4.6956   22.3405 C   0  0  0  0  0  0
  -22.7868  -13.5233   21.1834 C   0  0  0  0  0  0
  -22.1664   -4.2139   21.0983 F   0  0  0  0  0  0
  -21.5629   -3.4537   25.7745 F   0  0  0  0  0  0
  -30.0408  -13.2788   20.4537 N   0  0  0  0  0  0
  -26.3036  -12.9294   20.3377 N   0  0  0  0  0  0
  -25.9316  -11.6461   20.5780 N   0  0  0  0  0  0
  -22.0499  -12.8240   22.0388 N   0  0  0  0  0  0
  -25.4282  -15.1845   20.4017 N   0  0  0  0  0  0
  -31.7923  -14.6900   20.0767 O   0  0  0  0  0  0
  -21.6632   -6.8870   21.4243 O   0  0  0  0  0  0
  -22.3563  -14.5543   20.6678 O   0  0  0  0  0  0
  -24.6133  -31.8671   23.2101 C   0  0  0  0  0  0
  -25.9024  -32.4823   23.8402 C   0  0  1  0  0  0
  -27.2431  -27.4396   20.0986 C   0  0  0  0  0  0
  -25.5880  -33.8624   24.2335 N   0  0  0  0  0  0
  -23.4039  -30.4876   21.5491 C   0  0  2  0  0  0
  -24.8555  -28.9512   20.1161 C   0  0  0  0  0  0
  -22.7410  -29.4644   22.4988 C   0  0  0  0  0  0
  -18.0266  -28.1387   22.8487 C   0  0  0  0  0  0
  -24.1487  -36.7321   23.2641 C   0  0  0  0  0  0
  -25.9312  -30.8327   21.3645 C   0  0  0  0  0  0
  -26.0125  -29.4653   20.7164 C   0  0  0  0  0  0
  -27.2106  -28.7144   20.7108 C   0  0  0  0  0  0
  -26.0759  -26.9392   19.4902 C   0  0  0  0  0  0
  -24.8809  -27.6856   19.5023 C   0  0  0  0  0  0
  -23.6152  -29.8162   20.1650 C   0  0  0  0  0  0
  -25.4107  -36.3118   24.0338 C   0  0  1  0  0  0
  -20.5856  -28.3670   23.1323 C   0  0  2  0  0  0
  -20.6757  -26.9404   22.5427 C   0  0  0  0  0  0
  -19.5739  -26.6386   21.5220 C   0  0  0  0  0  0
  -18.1913  -26.7933   22.1620 C   0  0  0  0  0  0
  -19.1515  -28.8845   23.2903 C   0  0  0  0  0  0
  -18.9443  -30.1452   23.8911 C   0  0  0  0  0  0
  -17.6446  -30.6591   24.0565 C   0  0  0  0  0  0
  -25.9030  -34.9480   23.5141 C   0  0  0  0  0  0
  -16.5337  -29.9091   23.6331 C   0  0  0  0  0  0
  -16.7255  -28.6512   23.0346 C   0  0  0  0  0  0
  -26.4464  -31.6595   25.0722 C   0  0  0  0  0  0
  -25.3744  -31.3692   26.1481 C   0  0  0  0  0  0
  -27.0288  -30.3036   24.6095 C   0  0  0  0  0  0
  -27.6053  -32.4304   25.7472 C   0  0  0  0  0  0
  -27.5585  -37.1815   24.8465 C   0  0  0  0  0  0
  -21.4134  -29.3034   22.3729 N   0  0  0  0  0  0
  -26.4299  -37.3793   23.9407 N   0  0  0  0  0  0
  -24.6673  -31.0767   22.1002 N   0  0  0  0  0  0
  -23.4176  -28.8186   23.3035 O   0  0  0  0  0  0
  -28.3848  -26.6684   20.0853 O   0  0  0  0  0  0
  -26.5597  -34.8923   22.4708 O   0  0  0  0  0  0
  -23.5323  -32.1416   23.7490 O   0  0  0  0  0  0
  -28.8849  -17.3647   20.2421 C   0  0  0  0  0  0
  -30.9727  -19.0659   20.9942 C   0  0  0  0  0  0
  -28.8083  -18.7426   19.9303 C   0  0  0  0  0  0
  -29.8652  -19.6164   20.3024 C   0  0  0  0  0  0
  -30.0022  -16.8171   20.9081 C   0  0  0  0  0  0
  -31.0464  -17.6874   21.3050 C   0  0  0  0  0  0
  -29.6543  -23.5232   20.9650 C   0  0  0  0  0  0
  -33.3713  -23.5341   20.9646 C   0  0  0  0  0  0
  -30.9497  -23.9197   21.0323 C   0  0  0  0  0  0
  -32.1241  -23.0724   21.1407 C   0  0  0  0  0  0
  -27.4893  -22.4177   22.6015 C   0  0  0  0  0  0
  -27.7675  -23.9342   22.5535 C   0  0  0  0  0  0
  -28.7065  -21.5770   22.1710 C   0  0  0  0  0  0
  -28.4146  -24.4162   21.2255 C   0  0  1  0  0  0
  -27.5844  -19.2440   19.1801 C   0  0  0  0  0  0
  -29.8643  -21.1182   19.9292 C   0  0  0  0  0  0
  -28.6381  -25.9686   21.3128 C   0  0  0  0  0  0
  -29.9838  -15.4243   21.2188 N   0  0  0  0  0  0
  -29.1789  -22.0823   20.8610 N   0  3  2  0  0  0
  -32.4026  -17.1112   22.2101 Cl  0  0  0  0  0  0
  -31.4719  -12.4135   19.1147 H   0  0  0  0  0  0
  -30.3361  -11.2918   19.8069 H   0  0  0  0  0  0
  -29.7334  -11.7919   17.4211 H   0  0  0  0  0  0
  -29.6607  -13.4989   17.7750 H   0  0  0  0  0  0
  -27.8247  -11.3095   18.8079 H   0  0  0  0  0  0
  -27.3658  -12.6477   17.7902 H   0  0  0  0  0  0
  -27.7145  -14.2493   19.5910 H   0  0  0  0  0  0
  -28.6841  -11.9197   21.3172 H   0  0  0  0  0  0
  -28.4610  -13.5375   21.8916 H   0  0  0  0  0  0
  -25.2752   -9.5672   22.4756 H   0  0  0  0  0  0
  -23.9985   -7.4631   22.7487 H   0  0  0  0  0  0
  -21.0829   -8.8759   19.8958 H   0  0  0  0  0  0
  -22.3682  -10.9663   19.6162 H   0  0  0  0  0  0
  -21.2005   -7.6143   23.9713 H   0  0  0  0  0  0
  -21.1483   -6.0522   25.9078 H   0  0  0  0  0  0
  -22.0600   -2.7602   23.2859 H   0  0  0  0  0  0
  -22.4103  -11.9890   22.4773 H   0  0  0  0  0  0
  -21.1124  -13.1287   22.2600 H   0  0  0  0  0  0
  -24.6505  -15.8302   20.4856 H   0  0  0  0  0  0
  -26.2630  -15.6159   20.0299 H   0  0  0  0  0  0
  -26.7099  -32.5545   23.1175 H   0  0  0  0  0  0
  -25.0040  -33.9789   25.0486 H   0  0  0  0  0  0
  -22.6920  -31.3031   21.4071 H   0  0  0  0  0  0
  -23.3750  -35.9653   23.3295 H   0  0  0  0  0  0
  -24.3580  -36.8942   22.2057 H   0  0  0  0  0  0
  -23.7233  -37.6519   23.6662 H   0  0  0  0  0  0
  -26.0406  -31.5956   20.5922 H   0  0  0  0  0  0
  -26.8200  -30.8915   21.9812 H   0  0  0  0  0  0
  -28.1049  -29.1056   21.1759 H   0  0  0  0  0  0
  -26.0923  -25.9676   19.0169 H   0  0  0  0  0  0
  -23.9917  -27.2829   19.0372 H   0  0  0  0  0  0
  -23.7217  -30.5889   19.4029 H   0  0  0  0  0  0
  -22.7412  -29.2326   19.8713 H   0  0  0  0  0  0
  -25.1282  -36.1998   25.0831 H   0  0  0  0  0  0
  -20.9942  -28.3241   24.1446 H   0  0  0  0  0  0
  -20.5667  -26.2272   23.3609 H   0  0  0  0  0  0
  -21.6630  -26.7449   22.1222 H   0  0  0  0  0  0
  -19.6901  -25.6302   21.1238 H   0  0  0  0  0  0
  -19.6690  -27.3203   20.6756 H   0  0  0  0  0  0
  -17.4191  -26.6691   21.4013 H   0  0  0  0  0  0
  -18.0297  -26.0073   22.9010 H   0  0  0  0  0  0
  -19.7916  -30.7265   24.2284 H   0  0  0  0  0  0
  -17.4998  -31.6267   24.5173 H   0  0  0  0  0  0
  -15.5340  -30.3004   23.7643 H   0  0  0  0  0  0
  -15.8651  -28.0843   22.7051 H   0  0  0  0  0  0
  -24.5909  -30.7048   25.7816 H   0  0  0  0  0  0
  -24.8948  -32.2844   26.4963 H   0  0  0  0  0  0
  -25.8106  -30.8833   27.0219 H   0  0  0  0  0  0
  -26.2821  -29.6792   24.1171 H   0  0  0  0  0  0
  -27.4077  -29.7276   25.4548 H   0  0  0  0  0  0
  -27.8650  -30.4351   23.9223 H   0  0  0  0  0  0
  -27.2702  -33.3614   26.2058 H   0  0  0  0  0  0
  -28.3857  -32.6840   25.0284 H   0  0  0  0  0  0
  -28.0729  -31.8416   26.5376 H   0  0  0  0  0  0
  -28.2617  -38.0099   24.7499 H   0  0  0  0  0  0
  -28.1066  -36.2628   24.6313 H   0  0  0  0  0  0
  -27.2296  -37.1498   25.8866 H   0  0  0  0  0  0
  -20.9292  -29.8764   21.6959 H   0  0  0  0  0  0
  -26.0196  -38.2876   24.1395 H   0  0  0  0  0  0
  -28.0750  -16.7125   19.9500 H   0  0  0  0  0  0
  -31.7922  -19.7021   21.2945 H   0  0  0  0  0  0
  -34.2251  -22.8802   21.0753 H   0  0  0  0  0  0
  -33.5666  -24.5661   20.7081 H   0  0  0  0  0  0
  -31.1535  -24.9714   21.1510 H   0  0  0  0  0  0
  -32.0186  -22.0332   21.4141 H   0  0  0  0  0  0
  -26.6419  -22.1899   21.9528 H   0  0  0  0  0  0
  -27.1787  -22.1295   23.6070 H   0  0  0  0  0  0
  -28.4260  -24.1947   23.3848 H   0  0  0  0  0  0
  -26.8337  -24.4697   22.7345 H   0  0  0  0  0  0
  -28.3899  -20.5354   22.1338 H   0  0  0  0  0  0
  -29.5126  -21.6392   22.9034 H   0  0  0  0  0  0
  -27.6990  -24.2393   20.4208 H   0  0  0  0  0  0
  -26.7838  -18.5033   19.1870 H   0  0  0  0  0  0
  -27.8325  -19.4501   18.1384 H   0  0  0  0  0  0
  -27.1822  -20.1515   19.6289 H   0  0  0  0  0  0
  -29.3771  -21.2321   18.9613 H   0  0  0  0  0  0
  -30.8869  -21.4042   19.7073 H   0  0  0  0  0  0
  -29.6246  -26.2387   21.6806 H   0  0  0  0  0  0
  -27.9805  -26.3698   22.0876 H   0  0  0  0  0  0
  -29.1102  -15.0793   21.5842 H   0  0  0  0  0  0
  -28.3003  -22.1486   20.3720 H   0  0  0  0  0  0
  1 25  1  0  0  0
  1 30  2  0  0  0
  1 88  1  0  0  0
  2  3  1  0  0  0
  2 25  1  0  0  0
  2 91  1  0  0  0
  2 92  1  0  0  0
  3  4  1  0  0  0
  3 93  1  0  0  0
  3 94  1  0  0  0
  4  5  1  0  0  0
  4 95  1  0  0  0
  4 96  1  0  0  0
  5  6  1  0  0  0
  5 26  1  0  0  0
  5 97  1  0  0  0
  6 25  1  0  0  0
  6 98  1  0  0  0
  6 99  1  0  0  0
  7  8  2  0  0  0
  7 26  1  0  0  0
  7 29  1  0  0  0
  8  9  1  0  0  0
  8 22  1  0  0  0
  9 10  1  0  0  0
  9 27  2  0  0  0
 10 11  2  0  0  0
 10 15  1  0  0  0
 11 12  1  0  0  0
 11100  1  0  0  0
 12 13  2  0  0  0
 12101  1  0  0  0
 13 14  1  0  0  0
 13 31  1  0  0  0
 14 15  2  0  0  0
 14102  1  0  0  0
 15103  1  0  0  0
 16 17  2  0  0  0
 16 21  1  0  0  0
 16 31  1  0  0  0
 17 18  1  0  0  0
 17104  1  0  0  0
 18 19  2  0  0  0
 18105  1  0  0  0
 19 20  1  0  0  0
 19 24  1  0  0  0
 20 21  2  0  0  0
 20106  1  0  0  0
 21 23  1  0  0  0
 22 28  1  0  0  0
 22 32  2  0  0  0
 26 27  1  0  0  0
 28107  1  0  0  0
 28108  1  0  0  0
 29109  1  0  0  0
 29110  1  0  0  0
 33 34  1  0  0  0
 33 66  1  0  0  0
 33 70  2  0  0  0
 34 36  1  0  0  0
 34 59  1  0  0  0
 34111  1  0  0  0
 35 44  2  0  0  0
 35 45  1  0  0  0
 35 68  1  0  0  0
 36 56  1  0  0  0
 36112  1  0  0  0
 37 39  1  0  0  0
 37 47  1  0  0  0
 37 66  1  0  0  0
 37113  1  0  0  0
 38 43  2  0  0  0
 38 46  1  0  0  0
 38 47  1  0  0  0
 39 64  1  0  0  0
 39 67  2  0  0  0
 40 52  1  0  0  0
 40 53  2  0  0  0
 40 58  1  0  0  0
 41114  1  0  0  0
 41115  1  0  0  0
 41116  1  0  0  0
 41 48  1  0  0  0
 42 43  1  0  0  0
 42 66  1  0  0  0
 42117  1  0  0  0
 42118  1  0  0  0
 43 44  1  0  0  0
 44119  1  0  0  0
 45 46  2  0  0  0
 45120  1  0  0  0
 46121  1  0  0  0
 47122  1  0  0  0
 47123  1  0  0  0
 48 56  1  0  0  0
 48 65  1  0  0  0
 48124  1  0  0  0
 49 50  1  0  0  0
 49 53  1  0  0  0
 49 64  1  0  0  0
 49125  1  0  0  0
 50 51  1  0  0  0
 50126  1  0  0  0
 50127  1  0  0  0
 51 52  1  0  0  0
 51128  1  0  0  0
 51129  1  0  0  0
 52130  1  0  0  0
 52131  1  0  0  0
 53 54  1  0  0  0
 54 55  2  0  0  0
 54132  1  0  0  0
 55 57  1  0  0  0
 55133  1  0  0  0
 56 69  2  0  0  0
 57 58  2  0  0  0
 57134  1  0  0  0
 58135  1  0  0  0
 59 60  1  0  0  0
 59 61  1  0  0  0
 59 62  1  0  0  0
 60136  1  0  0  0
 60137  1  0  0  0
 60138  1  0  0  0
 61139  1  0  0  0
 61140  1  0  0  0
 61141  1  0  0  0
 62142  1  0  0  0
 62143  1  0  0  0
 62144  1  0  0  0
 63 65  1  0  0  0
 63145  1  0  0  0
 63146  1  0  0  0
 63147  1  0  0  0
 64148  1  0  0  0
 65149  1  0  0  0
 68 87  1  0  0  0
 71 73  2  0  0  0
 71 75  1  0  0  0
 71150  1  0  0  0
 72 74  2  0  0  0
 72 76  1  0  0  0
 72151  1  0  0  0
 73 74  1  0  0  0
 73 85  1  0  0  0
 74 86  1  0  0  0
 75 76  2  0  0  0
 75 88  1  0  0  0
 76 90  1  0  0  0
 77 79  2  0  0  0
 77 84  1  0  0  0
 77 89  1  0  0  0
 78 80  2  0  0  0
 78152  1  0  0  0
 78153  1  0  0  0
 79 80  1  0  0  0
 79154  1  0  0  0
 80155  1  0  0  0
 81 82  1  0  0  0
 81 83  1  0  0  0
 81156  1  0  0  0
 81157  1  0  0  0
 82 84  1  0  0  0
 82158  1  0  0  0
 82159  1  0  0  0
 83 89  1  0  0  0
 83160  1  0  0  0
 83161  1  0  0  0
 84 87  1  0  0  0
 84162  1  0  0  0
 85163  1  0  0  0
 85164  1  0  0  0
 85165  1  0  0  0
 86166  1  0  0  0
 86167  1  0  0  0
 86 89  1  0  0  0
 87168  1  0  0  0
 87169  1  0  0  0
 88170  1  0  0  0
 89171  1  0  0  0
M  CHG  1  89   1
M  ISO  4   1 100  68 101  87 101  88 100
M  END
> <chiral flag>
0

> <version>
0

> <s_m_source_file>
/data/baiqing/PycharmProjects/Reinvent-master-3.2/result/LINK_invent/BTK/process_docking_weight1_custom_product_contain_oxygen_bond_distance_aromatic_linkinvent_7_9_3/rearranged_h_0039.sdf

> <i_m_source_file_index>
54

> <r_mmod_Potential_Energy-OPLS-2005>
-71.1694564819336

> <r_mmod_Stretch_Energy-OPLS-2005>
47.4690856933594

> <r_mmod_Bend_Energy-OPLS-2005>
133.690246582031

> <r_mmod_Torsional_Energy-OPLS-2005>
283.583923339844

> <r_mmod_Improper_Torsional_Energy-OPLS-2005>
5.97306108474731

> <r_mmod_Van_der_Waal_Energy-OPLS-2005>
154.386810302734

> <r_mmod_Electrostatic_Energy-OPLS-2005>
-266.151763916016

> <r_mmod_Solvation_Energy-OPLS-2005>
-441.502838134766

> <b_mmod_Minimization_Converged-OPLS-2005>
0

> <r_mmod_RMS_Derivative-OPLS-2005>
0.863213360309601

$$$$
54
                    3D
 Structure written by MMmdl.
170179  0  0  1  0            999 V2000
  -30.5311  -14.6853   20.4553 C   0  0  0  0  0  0
  -30.4525  -12.4210   19.4197 C   0  0  0  0  0  0
  -29.4958  -12.4859   18.2051 C   0  0  0  0  0  0
  -28.0190  -12.3382   18.6235 C   0  0  0  0  0  0
  -27.6505  -13.2015   19.8557 C   0  0  2  0  0  0
  -28.7021  -13.0441   20.9767 C   0  0  0  0  0  0
  -25.2567  -13.8098   20.5616 C   0  0  0  0  0  0
  -24.1858  -13.0432   20.9118 C   0  0  0  0  0  0
  -24.6437  -11.6866   20.8747 C   0  0  0  0  0  0
  -23.9101  -10.4294   21.0444 C   0  0  0  0  0  0
  -24.3632   -9.4208   21.9261 C   0  0  0  0  0  0
  -23.6292   -8.2259   22.0798 C   0  0  0  0  0  0
  -22.4283   -8.0291   21.3553 C   0  0  0  0  0  0
  -21.9927   -9.0301   20.4696 C   0  0  0  0  0  0
  -22.7259  -10.2168   20.3120 C   0  0  0  0  0  0
  -21.6870   -6.0743   22.5268 C   0  0  0  0  0  0
  -21.4044   -6.5658   23.8184 C   0  0  0  0  0  0
  -21.3633   -5.6804   24.9163 C   0  0  0  0  0  0
  -21.6016   -4.3063   24.7220 C   0  0  0  0  0  0
  -21.8836   -3.8152   23.4361 C   0  0  0  0  0  0
  -21.9215   -4.6983   22.3404 C   0  0  0  0  0  0
  -22.7895  -13.5237   21.1707 C   0  0  0  0  0  0
  -22.1678   -4.2162   21.0989 F   0  0  0  0  0  0
  -21.5608   -3.4537   25.7737 F   0  0  0  0  0  0
  -30.0014  -13.4222   20.4042 N   0  0  0  0  0  0
  -26.2999  -12.9308   20.3310 N   0  0  0  0  0  0
  -25.9361  -11.6465   20.5845 N   0  0  0  0  0  0
  -22.0501  -12.8335   22.0306 N   0  0  0  0  0  0
  -25.4188  -15.1837   20.3939 N   0  0  0  0  0  0
  -31.6957  -14.9078   20.0963 O   0  0  0  0  0  0
  -21.6647   -6.8896   21.4215 O   0  0  0  0  0  0
  -22.3605  -14.5546   20.6500 O   0  0  0  0  0  0
  -24.6205  -31.8679   23.2180 C   0  0  0  0  0  0
  -25.9036  -32.4908   23.8497 C   0  0  1  0  0  0
  -27.2088  -27.3588   20.1441 C   0  0  0  0  0  0
  -25.5893  -33.8712   24.2416 N   0  0  0  0  0  0
  -23.4156  -30.4989   21.5602 C   0  0  2  0  0  0
  -24.8587  -28.9569   20.1120 C   0  0  0  0  0  0
  -22.7362  -29.4719   22.4987 C   0  0  0  0  0  0
  -18.0209  -28.1497   22.8169 C   0  0  0  0  0  0
  -24.1440  -36.7330   23.2660 C   0  0  0  0  0  0
  -25.9475  -30.8092   21.3792 C   0  0  0  0  0  0
  -26.0225  -29.4402   20.7315 C   0  0  0  0  0  0
  -27.2056  -28.6511   20.7417 C   0  0  0  0  0  0
  -26.0486  -26.9291   19.4620 C   0  0  0  0  0  0
  -24.8762  -27.7097   19.4590 C   0  0  0  0  0  0
  -23.6224  -29.8335   20.1732 C   0  0  0  0  0  0
  -25.4076  -36.3189   24.0357 C   0  0  1  0  0  0
  -20.5724  -28.3917   23.1327 C   0  0  2  0  0  0
  -20.6792  -26.9598   22.5626 C   0  0  0  0  0  0
  -19.5940  -26.6216   21.5245 C   0  0  0  0  0  0
  -18.1835  -26.8266   22.0955 C   0  0  0  0  0  0
  -19.1389  -28.8909   23.2862 C   0  0  0  0  0  0
  -18.9112  -30.1336   23.9144 C   0  0  0  0  0  0
  -17.6045  -30.6350   24.0661 C   0  0  0  0  0  0
  -25.8991  -34.9533   23.5189 C   0  0  0  0  0  0
  -16.5033  -29.9028   23.6005 C   0  0  0  0  0  0
  -16.7116  -28.6575   22.9859 C   0  0  0  0  0  0
  -26.4436  -31.6683   25.0811 C   0  0  0  0  0  0
  -25.3723  -31.3748   26.1555 C   0  0  0  0  0  0
  -27.0266  -30.3176   24.6123 C   0  0  0  0  0  0
  -27.6031  -32.4444   25.7471 C   0  0  0  0  0  0
  -27.5565  -37.1842   24.8494 C   0  0  0  0  0  0
  -21.4027  -29.3368   22.3824 N   0  0  0  0  0  0
  -26.4279  -37.3874   23.9423 N   0  0  0  0  0  0
  -24.6868  -31.0667   22.1165 N   0  0  0  0  0  0
  -23.4055  -28.8065   23.2903 O   0  0  0  0  0  0
  -28.3115  -26.5154   20.2220 O   0  0  0  0  0  0
  -26.5598  -34.9020   22.4781 O   0  0  0  0  0  0
  -23.5366  -32.1439   23.7489 O   0  0  0  0  0  0
  -28.4214  -19.2744   21.1629 C   0  0  0  0  0  0
  -30.3674  -17.8954   19.7092 C   0  0  0  0  0  0
  -29.2055  -20.0512   20.2663 C   0  0  0  0  0  0
  -29.5733  -17.1283   20.6026 C   0  0  0  0  0  0
  -28.5902  -17.8677   21.3217 C   0  0  0  0  0  0
  -30.1930  -19.3022   19.5487 C   0  0  0  0  0  0
  -27.8452  -22.7823   22.0671 C   0  0  0  0  0  0
  -26.5839  -22.3232   22.0713 C   0  0  0  0  0  0
  -28.2446  -23.8795   23.0444 C   0  0  0  0  0  0
  -28.0687  -25.2561   22.3501 C   0  0  0  0  0  0
  -29.1136  -24.0781   20.3572 C   0  0  0  0  0  0
  -28.0759  -25.1805   20.7964 C   0  0  2  0  0  0
  -23.3180  -21.3860   21.2110 C   0  0  0  0  0  0
  -28.9285  -21.5776   19.9249 C   0  0  0  0  0  0
  -25.8284  -21.5713   21.0019 C   0  0  0  0  0  0
  -24.4781  -22.2455   20.7176 C   0  0  0  0  0  0
  -29.6224  -15.6701   20.7509 N   0  0  0  0  0  0
  -28.8876  -22.6976   20.9599 N   0  3  2  0  0  0
  -27.5444  -17.0387   22.4218 Cl  0  0  0  0  0  0
  -31.2208  -20.0698   18.3900 Cl  0  0  0  0  0  0
  -31.4747  -12.6172   19.0837 H   0  0  0  0  0  0
  -30.4620  -11.4263   19.8682 H   0  0  0  0  0  0
  -29.7508  -11.7018   17.4925 H   0  0  0  0  0  0
  -29.6380  -13.4305   17.6729 H   0  0  0  0  0  0
  -27.8320  -11.2866   18.8436 H   0  0  0  0  0  0
  -27.3716  -12.5966   17.7855 H   0  0  0  0  0  0
  -27.6627  -14.2364   19.5112 H   0  0  0  0  0  0
  -28.7433  -12.0176   21.3391 H   0  0  0  0  0  0
  -28.4560  -13.6602   21.8421 H   0  0  0  0  0  0
  -25.2772   -9.5688   22.4858 H   0  0  0  0  0  0
  -23.9985   -7.4661   22.7538 H   0  0  0  0  0  0
  -21.0847   -8.8863   19.9019 H   0  0  0  0  0  0
  -22.3740  -10.9754   19.6257 H   0  0  0  0  0  0
  -21.2056   -7.6166   23.9706 H   0  0  0  0  0  0
  -21.1393   -6.0533   25.9052 H   0  0  0  0  0  0
  -22.0634   -2.7618   23.2854 H   0  0  0  0  0  0
  -22.4094  -12.0035   22.4789 H   0  0  0  0  0  0
  -21.1148  -13.1468   22.2462 H   0  0  0  0  0  0
  -24.6331  -15.8134   20.4947 H   0  0  0  0  0  0
  -26.2669  -15.6509   20.1104 H   0  0  0  0  0  0
  -26.7098  -32.5634   23.1209 H   0  0  0  0  0  0
  -24.9978  -33.9869   25.0505 H   0  0  0  0  0  0
  -22.7117  -31.3272   21.4223 H   0  0  0  0  0  0
  -23.3729  -35.9646   23.3365 H   0  0  0  0  0  0
  -24.3520  -36.8893   22.2085 H   0  0  0  0  0  0
  -23.7134  -37.6520   23.6610 H   0  0  0  0  0  0
  -26.0556  -31.5678   20.6023 H   0  0  0  0  0  0
  -26.8447  -30.8809   21.9893 H   0  0  0  0  0  0
  -28.1056  -29.0069   21.2273 H   0  0  0  0  0  0
  -26.0410  -25.9867   18.9320 H   0  0  0  0  0  0
  -24.0125  -27.3587   18.9130 H   0  0  0  0  0  0
  -23.7255  -30.6106   19.4162 H   0  0  0  0  0  0
  -22.7416  -29.2650   19.8736 H   0  0  0  0  0  0
  -25.1217  -36.2072   25.0854 H   0  0  0  0  0  0
  -20.9669  -28.3678   24.1551 H   0  0  0  0  0  0
  -20.5933  -26.2604   23.3911 H   0  0  0  0  0  0
  -21.6656  -26.7723   22.1405 H   0  0  0  0  0  0
  -19.7103  -25.5885   21.1868 H   0  0  0  0  0  0
  -19.7509  -27.2645   20.6587 H   0  0  0  0  0  0
  -17.4673  -26.7738   21.2707 H   0  0  0  0  0  0
  -17.9210  -26.0308   22.7886 H   0  0  0  0  0  0
  -19.7566  -30.6951   24.2906 H   0  0  0  0  0  0
  -17.4225  -31.5803   24.5568 H   0  0  0  0  0  0
  -15.4913  -30.2832   23.6929 H   0  0  0  0  0  0
  -15.8523  -28.1102   22.6186 H   0  0  0  0  0  0
  -24.5868  -30.7109   25.7862 H   0  0  0  0  0  0
  -24.8903  -32.2881   26.5091 H   0  0  0  0  0  0
  -25.8112  -30.8840   27.0251 H   0  0  0  0  0  0
  -26.2785  -29.6971   24.1178 H   0  0  0  0  0  0
  -27.4033  -29.7365   25.4531 H   0  0  0  0  0  0
  -27.8608  -30.4515   23.9251 H   0  0  0  0  0  0
  -27.2665  -33.3728   26.2061 H   0  0  0  0  0  0
  -28.3743  -32.7101   25.0238 H   0  0  0  0  0  0
  -28.0801  -31.8642   26.5326 H   0  0  0  0  0  0
  -28.2655  -38.0099   24.7508 H   0  0  0  0  0  0
  -28.1004  -36.2612   24.6310 H   0  0  0  0  0  0
  -27.2309  -37.1513   25.8933 H   0  0  0  0  0  0
  -20.9280  -29.9469   21.7300 H   0  0  0  0  0  0
  -26.0171  -38.2952   24.1466 H   0  0  0  0  0  0
  -27.6425  -19.7366   21.7380 H   0  0  0  0  0  0
  -31.1083  -17.4003   19.0967 H   0  0  0  0  0  0
  -25.9887  -22.6044   22.9309 H   0  0  0  0  0  0
  -29.2561  -23.7302   23.4270 H   0  0  0  0  0  0
  -27.5944  -23.8584   23.9207 H   0  0  0  0  0  0
  -28.8721  -25.9251   22.6641 H   0  0  0  0  0  0
  -27.1272  -25.6894   22.6859 H   0  0  0  0  0  0
  -30.1033  -24.3998   20.6970 H   0  0  0  0  0  0
  -29.1801  -24.0520   19.2715 H   0  0  0  0  0  0
  -27.1005  -24.8044   20.4934 H   0  0  0  0  0  0
  -22.4085  -21.9765   21.3355 H   0  0  0  0  0  0
  -23.5580  -20.9169   22.1643 H   0  0  0  0  0  0
  -23.1109  -20.5943   20.4885 H   0  0  0  0  0  0
  -28.1218  -21.6762   19.2036 H   0  0  0  0  0  0
  -29.7614  -21.8751   19.2949 H   0  0  0  0  0  0
  -25.7185  -20.5377   21.3321 H   0  0  0  0  0  0
  -26.3618  -21.5518   20.0758 H   0  0  0  0  0  0
  -24.4355  -23.2423   21.1687 H   0  0  0  0  0  0
  -24.3527  -22.3975   19.6483 H   0  0  0  0  0  0
  -28.7382  -15.2832   21.0579 H   0  0  0  0  0  0
  -29.7499  -22.5207   21.4496 H   0  0  0  0  0  0
  1 25  1  0  0  0
  1 30  2  0  0  0
  1 87  1  0  0  0
  2  3  1  0  0  0
  2 25  1  0  0  0
  2 91  1  0  0  0
  2 92  1  0  0  0
  3  4  1  0  0  0
  3 93  1  0  0  0
  3 94  1  0  0  0
  4  5  1  0  0  0
  4 95  1  0  0  0
  4 96  1  0  0  0
  5  6  1  0  0  0
  5 26  1  0  0  0
  5 97  1  0  0  0
  6 25  1  0  0  0
  6 98  1  0  0  0
  6 99  1  0  0  0
  7  8  2  0  0  0
  7 26  1  0  0  0
  7 29  1  0  0  0
  8  9  1  0  0  0
  8 22  1  0  0  0
  9 10  1  0  0  0
  9 27  2  0  0  0
 10 11  2  0  0  0
 10 15  1  0  0  0
 11 12  1  0  0  0
 11100  1  0  0  0
 12 13  2  0  0  0
 12101  1  0  0  0
 13 14  1  0  0  0
 13 31  1  0  0  0
 14 15  2  0  0  0
 14102  1  0  0  0
 15103  1  0  0  0
 16 17  2  0  0  0
 16 21  1  0  0  0
 16 31  1  0  0  0
 17 18  1  0  0  0
 17104  1  0  0  0
 18 19  2  0  0  0
 18105  1  0  0  0
 19 20  1  0  0  0
 19 24  1  0  0  0
 20 21  2  0  0  0
 20106  1  0  0  0
 21 23  1  0  0  0
 22 28  1  0  0  0
 22 32  2  0  0  0
 26 27  1  0  0  0
 28107  1  0  0  0
 28108  1  0  0  0
 29109  1  0  0  0
 29110  1  0  0  0
 33 34  1  0  0  0
 33 66  1  0  0  0
 33 70  2  0  0  0
 34 36  1  0  0  0
 34 59  1  0  0  0
 34111  1  0  0  0
 35 44  2  0  0  0
 35 45  1  0  0  0
 35 68  1  0  0  0
 36 56  1  0  0  0
 36112  1  0  0  0
 37 39  1  0  0  0
 37 47  1  0  0  0
 37 66  1  0  0  0
 37113  1  0  0  0
 38 43  2  0  0  0
 38 46  1  0  0  0
 38 47  1  0  0  0
 39 64  1  0  0  0
 39 67  2  0  0  0
 40 52  1  0  0  0
 40 53  2  0  0  0
 40 58  1  0  0  0
 41114  1  0  0  0
 41115  1  0  0  0
 41116  1  0  0  0
 41 48  1  0  0  0
 42 43  1  0  0  0
 42 66  1  0  0  0
 42117  1  0  0  0
 42118  1  0  0  0
 43 44  1  0  0  0
 44119  1  0  0  0
 45 46  2  0  0  0
 45120  1  0  0  0
 46121  1  0  0  0
 47122  1  0  0  0
 47123  1  0  0  0
 48 56  1  0  0  0
 48 65  1  0  0  0
 48124  1  0  0  0
 49 50  1  0  0  0
 49 53  1  0  0  0
 49 64  1  0  0  0
 49125  1  0  0  0
 50 51  1  0  0  0
 50126  1  0  0  0
 50127  1  0  0  0
 51 52  1  0  0  0
 51128  1  0  0  0
 51129  1  0  0  0
 52130  1  0  0  0
 52131  1  0  0  0
 53 54  1  0  0  0
 54 55  2  0  0  0
 54132  1  0  0  0
 55 57  1  0  0  0
 55133  1  0  0  0
 56 69  2  0  0  0
 57 58  2  0  0  0
 57134  1  0  0  0
 58135  1  0  0  0
 59 60  1  0  0  0
 59 61  1  0  0  0
 59 62  1  0  0  0
 60136  1  0  0  0
 60137  1  0  0  0
 60138  1  0  0  0
 61139  1  0  0  0
 61140  1  0  0  0
 61141  1  0  0  0
 62142  1  0  0  0
 62143  1  0  0  0
 62144  1  0  0  0
 63 65  1  0  0  0
 63145  1  0  0  0
 63146  1  0  0  0
 63147  1  0  0  0
 64148  1  0  0  0
 65149  1  0  0  0
 68 82  1  0  0  0
 71 73  2  0  0  0
 71 75  1  0  0  0
 71150  1  0  0  0
 72 74  1  0  0  0
 72 76  2  0  0  0
 72151  1  0  0  0
 73 76  1  0  0  0
 73 84  1  0  0  0
 74 75  2  0  0  0
 74 87  1  0  0  0
 75 89  1  0  0  0
 76 90  1  0  0  0
 77 78  2  0  0  0
 77 79  1  0  0  0
 77 88  1  0  0  0
 78 85  1  0  0  0
 78152  1  0  0  0
 79 80  1  0  0  0
 79153  1  0  0  0
 79154  1  0  0  0
 80 82  1  0  0  0
 80155  1  0  0  0
 80156  1  0  0  0
 81 82  1  0  0  0
 81 88  1  0  0  0
 81157  1  0  0  0
 81158  1  0  0  0
 82159  1  0  0  0
 83 86  1  0  0  0
 83160  1  0  0  0
 83161  1  0  0  0
 83162  1  0  0  0
 84163  1  0  0  0
 84164  1  0  0  0
 84 88  1  0  0  0
 85 86  1  0  0  0
 85165  1  0  0  0
 85166  1  0  0  0
 86167  1  0  0  0
 86168  1  0  0  0
 87169  1  0  0  0
 88170  1  0  0  0
M  CHG  1  88   1
M  ISO  4   1 100  68 101  82 101  87 100
M  END
> <chiral flag>
0

> <version>
0

> <s_m_source_file>
/data/baiqing/PycharmProjects/Reinvent-master-3.2/result/LINK_invent/BTK/process_docking_weight1_custom_product_contain_oxygen_bond_distance_aromatic_linkinvent_7_9_3/rearranged_h_0039.sdf

> <i_m_source_file_index>
55

> <r_mmod_Potential_Energy-OPLS-2005>
47.8165168762207

> <r_mmod_Stretch_Energy-OPLS-2005>
79.9515609741211

> <r_mmod_Bend_Energy-OPLS-2005>
186.121765136719

> <r_mmod_Torsional_Energy-OPLS-2005>
294.526519775391

> <r_mmod_Improper_Torsional_Energy-OPLS-2005>
6.46732139587402

> <r_mmod_Van_der_Waal_Energy-OPLS-2005>
161.751174926758

> <r_mmod_Electrostatic_Energy-OPLS-2005>
-316.220611572266

> <r_mmod_Solvation_Energy-OPLS-2005>
-425.625274658203

> <b_mmod_Minimization_Converged-OPLS-2005>
0

> <r_mmod_RMS_Derivative-OPLS-2005>
14.1228408813477

$$$$
55
                    3D
 Structure written by MMmdl.
176185  0  0  1  0            999 V2000
  -29.3903  -15.4992   20.7303 C   0  0  0  0  0  0
  -30.3071  -13.1264   19.7230 C   0  0  0  0  0  0
  -29.5473  -12.7247   18.4161 C   0  0  0  0  0  0
  -28.0965  -12.2890   18.7196 C   0  0  0  0  0  0
  -27.5130  -13.1860   19.8301 C   0  0  2  0  0  0
  -28.3856  -13.2449   21.0724 C   0  0  0  0  0  0
  -25.1950  -13.8033   20.5434 C   0  0  0  0  0  0
  -24.1339  -13.0394   20.9315 C   0  0  0  0  0  0
  -24.5886  -11.6842   20.8827 C   0  0  0  0  0  0
  -23.8711  -10.4265   21.0560 C   0  0  0  0  0  0
  -24.3415   -9.4214   21.9281 C   0  0  0  0  0  0
  -23.6203   -8.2192   22.0782 C   0  0  0  0  0  0
  -22.4213   -8.0206   21.3535 C   0  0  0  0  0  0
  -21.9759   -9.0149   20.4662 C   0  0  0  0  0  0
  -22.6962  -10.2086   20.3143 C   0  0  0  0  0  0
  -21.6832   -6.0714   22.5283 C   0  0  0  0  0  0
  -21.4004   -6.5635   23.8213 C   0  0  0  0  0  0
  -21.3650   -5.6793   24.9181 C   0  0  0  0  0  0
  -21.6019   -4.3050   24.7229 C   0  0  0  0  0  0
  -21.8818   -3.8140   23.4354 C   0  0  0  0  0  0
  -21.9189   -4.6953   22.3413 C   0  0  0  0  0  0
  -22.7440  -13.5269   21.2002 C   0  0  0  0  0  0
  -22.1660   -4.2140   21.0994 F   0  0  0  0  0  0
  -21.5623   -3.4549   25.7750 F   0  0  0  0  0  0
  -29.4381  -14.0630   20.5888 N   0  0  0  0  0  0
  -26.1905  -12.8951   20.2529 N   0  0  0  0  0  0
  -25.8612  -11.6228   20.5362 N   0  0  0  0  0  0
  -22.0076  -12.8279   22.0572 N   0  0  0  0  0  0
  -25.4120  -15.1701   20.3650 N   0  0  0  0  0  0
  -30.5907  -15.8380   20.4888 O   0  0  0  0  0  0
  -21.6610   -6.8806   21.4221 O   0  0  0  0  0  0
  -22.3184  -14.5520   20.6718 O   0  0  0  0  0  0
  -24.6784  -31.9834   23.2169 C   0  0  0  0  0  0
  -25.9728  -32.5215   23.8640 C   0  0  1  0  0  0
  -25.1886  -27.2572   20.8184 C   0  0  0  0  0  0
  -25.6644  -33.8945   24.2677 N   0  0  0  0  0  0
  -23.4696  -30.6403   21.5742 C   0  0  2  0  0  0
  -24.9064  -29.4339   19.6923 C   0  0  0  0  0  0
  -23.1088  -29.6114   22.6925 C   0  0  0  0  0  0
  -19.1112  -27.4420   22.1457 C   0  0  0  0  0  0
  -24.1540  -36.7374   23.2587 C   0  0  0  0  0  0
  -25.9874  -30.8647   21.4140 C   0  0  0  0  0  0
  -25.8475  -29.5476   20.6978 C   0  0  0  0  0  0
  -26.1200  -28.2991   21.2620 C   0  0  0  0  0  0
  -25.5720  -27.1030   19.4827 C   0  0  0  0  0  0
  -24.9729  -28.2419   18.8889 C   0  0  0  0  0  0
  -23.6187  -30.1673   20.0469 C   0  0  0  0  0  0
  -25.4168  -36.3260   24.0330 C   0  0  1  0  0  0
  -21.4418  -28.0943   23.5382 C   0  0  2  0  0  0
  -22.6063  -26.6249   22.9794 C   0  0  0  0  0  0
  -21.9644  -25.4185   21.5306 C   0  0  0  0  0  0
  -20.1891  -25.8762   21.0520 C   0  0  0  0  0  0
  -19.8385  -28.3443   23.1287 C   0  0  0  0  0  0
  -19.2566  -29.5336   23.7920 C   0  0  0  0  0  0
  -17.9162  -29.9636   23.7447 C   0  0  0  0  0  0
  -25.9213  -34.9687   23.5152 C   0  0  0  0  0  0
  -17.0907  -29.0855   23.0421 C   0  0  0  0  0  0
  -17.6563  -27.9282   22.3231 C   0  0  0  0  0  0
  -26.4693  -31.6697   25.0944 C   0  0  0  0  0  0
  -25.3758  -31.3768   26.1475 C   0  0  0  0  0  0
  -27.0545  -30.3146   24.6372 C   0  0  0  0  0  0
  -27.6225  -32.4240   25.7927 C   0  0  0  0  0  0
  -27.5619  -37.1952   24.8484 C   0  0  0  0  0  0
  -21.8717  -29.4276   23.0851 N   0  0  0  0  0  0
  -26.4323  -37.3964   23.9439 N   0  0  0  0  0  0
  -24.7236  -31.2553   22.0690 N   0  0  0  0  0  0
  -23.9618  -29.0111   23.3237 O   0  0  0  0  0  0
  -23.6174  -27.2942   20.6279 O   0  0  0  0  0  0
  -26.5453  -34.9079   22.4528 O   0  0  0  0  0  0
  -23.5984  -32.2536   23.7684 O   0  0  0  0  0  0
  -24.1381  -21.5633   21.5100 C   0  0  0  0  0  0
  -25.3090  -20.5583   21.2501 C   0  0  0  0  0  0
  -22.8227  -21.4723   22.2530 C   0  0  0  0  0  0
  -25.5984  -19.1032   21.6031 C   0  0  0  0  0  0
  -23.1074  -20.0117   22.6352 C   0  0  0  0  0  0
  -24.2969  -18.9991   22.3729 C   0  0  0  0  0  0
  -18.4972  -24.2523   21.9384 C   0  0  0  0  0  0
  -17.5453  -23.4623   22.4689 C   0  0  0  0  0  0
  -17.8834  -25.4113   20.6071 C   0  0  0  0  0  0
  -18.5951  -26.9515   19.6468 C   0  0  0  0  0  0
  -20.2465  -27.9477   19.8495 C   0  0  0  0  0  0
  -20.5073  -25.7709   23.2484 C   0  0  0  0  0  0
  -21.6344  -27.6095   21.1490 C   0  0  1  0  0  0
  -17.6848  -22.4843   23.6168 C   0  0  0  0  0  0
  -22.1448  -19.6209   24.9693 C   0  0  0  0  0  0
  -21.9557  -19.4373   23.4575 C   0  0  0  0  0  0
  -27.2195  -18.0208   21.2881 C   0  0  0  0  0  0
  -21.2260  -22.5609   22.6850 C   0  0  0  0  0  0
  -28.0570  -16.3831   21.0242 N   0  0  0  0  0  0
  -20.1445  -24.0915   22.7545 N   0  3  2  0  0  0
  -24.1713  -17.4446   23.1282 Cl  0  0  0  0  0  0
  -31.2465  -13.6227   19.4727 H   0  0  0  0  0  0
  -30.6012  -12.2360   20.2834 H   0  0  0  0  0  0
  -30.0898  -11.9577   17.8631 H   0  0  0  0  0  0
  -29.5184  -13.6029   17.7679 H   0  0  0  0  0  0
  -28.0856  -11.2459   19.0385 H   0  0  0  0  0  0
  -27.4893  -12.3503   17.8175 H   0  0  0  0  0  0
  -27.4488  -14.1643   19.3533 H   0  0  0  0  0  0
  -28.6939  -12.2633   21.4391 H   0  0  0  0  0  0
  -27.8842  -13.7513   21.9008 H   0  0  0  0  0  0
  -25.2555   -9.5757   22.4847 H   0  0  0  0  0  0
  -23.9981   -7.4572   22.7451 H   0  0  0  0  0  0
  -21.0723   -8.8598   19.8933 H   0  0  0  0  0  0
  -22.3382  -10.9644   19.6288 H   0  0  0  0  0  0
  -21.1998   -7.6147   23.9713 H   0  0  0  0  0  0
  -21.1469   -6.0536   25.9082 H   0  0  0  0  0  0
  -22.0616   -2.7609   23.2854 H   0  0  0  0  0  0
  -22.3662  -11.9871   22.4852 H   0  0  0  0  0  0
  -21.0713  -13.1317   22.2872 H   0  0  0  0  0  0
  -24.6623  -15.8432   20.4806 H   0  0  0  0  0  0
  -26.0134  -15.4276   19.5904 H   0  0  0  0  0  0
  -26.7876  -32.5703   23.1425 H   0  0  0  0  0  0
  -25.1188  -34.0113   25.1088 H   0  0  0  0  0  0
  -22.6839  -31.3987   21.5718 H   0  0  0  0  0  0
  -23.3838  -35.9665   23.3248 H   0  0  0  0  0  0
  -24.3650  -36.8982   22.2001 H   0  0  0  0  0  0
  -23.7228  -37.6573   23.6556 H   0  0  0  0  0  0
  -26.2681  -31.6366   20.6932 H   0  0  0  0  0  0
  -26.8313  -30.7526   22.0842 H   0  0  0  0  0  0
  -26.6341  -28.2196   22.2113 H   0  0  0  0  0  0
  -25.3386  -26.1877   18.9558 H   0  0  0  0  0  0
  -24.3431  -28.1150   18.0204 H   0  0  0  0  0  0
  -23.6181  -31.0677   19.4303 H   0  0  0  0  0  0
  -22.7633  -29.6076   19.6863 H   0  0  0  0  0  0
  -25.1300  -36.2125   25.0814 H   0  0  0  0  0  0
  -21.4857  -28.1150   24.6290 H   0  0  0  0  0  0
  -22.8773  -26.0281   23.8574 H   0  0  0  0  0  0
  -23.6517  -26.8518   22.8291 H   0  0  0  0  0  0
  -22.2564  -24.4048   21.7463 H   0  0  0  0  0  0
  -22.5521  -25.3972   20.6126 H   0  0  0  0  0  0
  -20.5108  -25.8442   20.0008 H   0  0  0  0  0  0
  -19.9929  -24.9374   20.5300 H   0  0  0  0  0  0
  -19.8914  -30.1171   24.4427 H   0  0  0  0  0  0
  -17.5466  -30.8354   24.2706 H   0  0  0  0  0  0
  -16.0267  -29.2750   23.0002 H   0  0  0  0  0  0
  -16.8804  -27.4139   21.7862 H   0  0  0  0  0  0
  -24.5941  -30.7206   25.7611 H   0  0  0  0  0  0
  -24.8973  -32.2924   26.4976 H   0  0  0  0  0  0
  -25.7949  -30.8805   27.0241 H   0  0  0  0  0  0
  -26.3219  -29.7004   24.1169 H   0  0  0  0  0  0
  -27.3990  -29.7271   25.4891 H   0  0  0  0  0  0
  -27.9179  -30.4463   23.9836 H   0  0  0  0  0  0
  -27.2878  -33.3519   26.2580 H   0  0  0  0  0  0
  -28.4163  -32.6804   25.0889 H   0  0  0  0  0  0
  -28.0711  -31.8231   26.5851 H   0  0  0  0  0  0
  -28.2621  -38.0275   24.7593 H   0  0  0  0  0  0
  -28.1145  -36.2818   24.6227 H   0  0  0  0  0  0
  -27.2349  -37.1508   25.8892 H   0  0  0  0  0  0
  -21.1434  -30.0446   22.7464 H   0  0  0  0  0  0
  -26.0189  -38.3026   24.1493 H   0  0  0  0  0  0
  -24.3071  -22.5370   21.0763 H   0  0  0  0  0  0
  -26.1251  -21.0085   20.7061 H   0  0  0  0  0  0
  -16.5383  -23.5670   22.0913 H   0  0  0  0  0  0
  -16.8476  -25.6236   20.8619 H   0  0  0  0  0  0
  -17.7258  -24.7050   19.7899 H   0  0  0  0  0  0
  -17.8025  -27.6991   19.6204 H   0  0  0  0  0  0
  -18.6169  -26.6289   18.6059 H   0  0  0  0  0  0
  -19.9489  -28.9963   19.9231 H   0  0  0  0  0  0
  -20.7434  -27.9170   18.8811 H   0  0  0  0  0  0
  -19.5734  -25.9882   23.7760 H   0  0  0  0  0  0
  -21.0006  -25.6049   24.2128 H   0  0  0  0  0  0
  -21.5314  -28.6667   21.0998 H   0  0  0  0  0  0
  -18.6668  -22.0245   23.6726 H   0  0  0  0  0  0
  -16.9622  -21.6765   23.4861 H   0  0  0  0  0  0
  -17.4690  -22.9883   24.5589 H   0  0  0  0  0  0
  -21.2863  -19.2238   25.5086 H   0  0  0  0  0  0
  -22.2326  -20.6728   25.2386 H   0  0  0  0  0  0
  -23.0355  -19.1108   25.3366 H   0  0  0  0  0  0
  -21.7896  -18.3912   23.2075 H   0  0  0  0  0  0
  -21.0212  -19.9120   23.1689 H   0  0  0  0  0  0
  -27.8241  -18.3686   22.1262 H   0  0  0  0  0  0
  -27.6253  -18.5385   20.4193 H   0  0  0  0  0  0
  -21.2083  -22.3517   23.7534 H   0  0  0  0  0  0
  -20.4817  -21.8884   22.2656 H   0  0  0  0  0  0
  -27.2905  -15.7183   21.0236 H   0  0  0  0  0  0
  -19.8345  -23.8133   23.6728 H   0  0  0  0  0  0
  1 25  1  0  0  0
  1 30  2  0  0  0
  1 89  1  0  0  0
  2  3  1  0  0  0
  2 25  1  0  0  0
  2 92  1  0  0  0
  2 93  1  0  0  0
  3  4  1  0  0  0
  3 94  1  0  0  0
  3 95  1  0  0  0
  4  5  1  0  0  0
  4 96  1  0  0  0
  4 97  1  0  0  0
  5  6  1  0  0  0
  5 26  1  0  0  0
  5 98  1  0  0  0
  6 25  1  0  0  0
  6 99  1  0  0  0
  6100  1  0  0  0
  7  8  2  0  0  0
  7 26  1  0  0  0
  7 29  1  0  0  0
  8  9  1  0  0  0
  8 22  1  0  0  0
  9 10  1  0  0  0
  9 27  2  0  0  0
 10 11  2  0  0  0
 10 15  1  0  0  0
 11 12  1  0  0  0
 11101  1  0  0  0
 12 13  2  0  0  0
 12102  1  0  0  0
 13 14  1  0  0  0
 13 31  1  0  0  0
 14 15  2  0  0  0
 14103  1  0  0  0
 15104  1  0  0  0
 16 17  2  0  0  0
 16 21  1  0  0  0
 16 31  1  0  0  0
 17 18  1  0  0  0
 17105  1  0  0  0
 18 19  2  0  0  0
 18106  1  0  0  0
 19 20  1  0  0  0
 19 24  1  0  0  0
 20 21  2  0  0  0
 20107  1  0  0  0
 21 23  1  0  0  0
 22 28  1  0  0  0
 22 32  2  0  0  0
 26 27  1  0  0  0
 28108  1  0  0  0
 28109  1  0  0  0
 29110  1  0  0  0
 29111  1  0  0  0
 33 34  1  0  0  0
 33 66  1  0  0  0
 33 70  2  0  0  0
 34 36  1  0  0  0
 34 59  1  0  0  0
 34112  1  0  0  0
 35 44  2  0  0  0
 35 45  1  0  0  0
 35 68  1  0  0  0
 36 56  1  0  0  0
 36113  1  0  0  0
 37 39  1  0  0  0
 37 47  1  0  0  0
 37 66  1  0  0  0
 37114  1  0  0  0
 38 43  2  0  0  0
 38 46  1  0  0  0
 38 47  1  0  0  0
 39 64  1  0  0  0
 39 67  2  0  0  0
 40 52  1  0  0  0
 40 53  2  0  0  0
 40 58  1  0  0  0
 41115  1  0  0  0
 41116  1  0  0  0
 41117  1  0  0  0
 41 48  1  0  0  0
 42 43  1  0  0  0
 42 66  1  0  0  0
 42118  1  0  0  0
 42119  1  0  0  0
 43 44  1  0  0  0
 44120  1  0  0  0
 45 46  2  0  0  0
 45121  1  0  0  0
 46122  1  0  0  0
 47123  1  0  0  0
 47124  1  0  0  0
 48 56  1  0  0  0
 48 65  1  0  0  0
 48125  1  0  0  0
 49 50  1  0  0  0
 49 53  1  0  0  0
 49 64  1  0  0  0
 49126  1  0  0  0
 50 51  1  0  0  0
 50127  1  0  0  0
 50128  1  0  0  0
 51 52  1  0  0  0
 51129  1  0  0  0
 51130  1  0  0  0
 52131  1  0  0  0
 52132  1  0  0  0
 53 54  1  0  0  0
 54 55  2  0  0  0
 54133  1  0  0  0
 55 57  1  0  0  0
 55134  1  0  0  0
 56 69  2  0  0  0
 57 58  2  0  0  0
 57135  1  0  0  0
 58136  1  0  0  0
 59 60  1  0  0  0
 59 61  1  0  0  0
 59 62  1  0  0  0
 60137  1  0  0  0
 60138  1  0  0  0
 60139  1  0  0  0
 61140  1  0  0  0
 61141  1  0  0  0
 61142  1  0  0  0
 62143  1  0  0  0
 62144  1  0  0  0
 62145  1  0  0  0
 63 65  1  0  0  0
 63146  1  0  0  0
 63147  1  0  0  0
 63148  1  0  0  0
 64149  1  0  0  0
 65150  1  0  0  0
 68 83  1  0  0  0
 71 72  2  0  0  0
 71 73  1  0  0  0
 71151  1  0  0  0
 72 74  1  0  0  0
 72152  1  0  0  0
 73 75  2  0  0  0
 73 88  1  0  0  0
 74 76  2  0  0  0
 74 87  1  0  0  0
 75 76  1  0  0  0
 75 86  1  0  0  0
 76 91  1  0  0  0
 77 78  2  0  0  0
 77 79  1  0  0  0
 77 90  1  0  0  0
 78 84  1  0  0  0
 78153  1  0  0  0
 79 80  1  0  0  0
 79154  1  0  0  0
 79155  1  0  0  0
 80 81  1  0  0  0
 80156  1  0  0  0
 80157  1  0  0  0
 81 83  1  0  0  0
 81158  1  0  0  0
 81159  1  0  0  0
 82 83  1  0  0  0
 82 90  1  0  0  0
 82160  1  0  0  0
 82161  1  0  0  0
 83162  1  0  0  0
 84163  1  0  0  0
 84164  1  0  0  0
 84165  1  0  0  0
 85 86  1  0  0  0
 85166  1  0  0  0
 85167  1  0  0  0
 85168  1  0  0  0
 86169  1  0  0  0
 86170  1  0  0  0
 87 89  1  0  0  0
 87171  1  0  0  0
 87172  1  0  0  0
 88173  1  0  0  0
 88174  1  0  0  0
 88 90  1  0  0  0
 89175  1  0  0  0
 90176  1  0  0  0
M  CHG  1  90   1
M  ISO  4   1 100  68 101  83 101  89 100
M  END
> <chiral flag>
0

> <version>
0

> <s_m_source_file>
/data/baiqing/PycharmProjects/Reinvent-master-3.2/result/LINK_invent/BTK/process_docking_weight1_custom_product_contain_oxygen_bond_distance_aromatic_linkinvent_7_9_3/rearranged_h_0039.sdf

> <i_m_source_file_index>
56

> <r_mmod_Potential_Energy-OPLS-2005>
18474.265625

> <r_mmod_Stretch_Energy-OPLS-2005>
7101.89794921875

> <r_mmod_Bend_Energy-OPLS-2005>
2099.46337890625

> <r_mmod_Torsional_Energy-OPLS-2005>
632.4912109375

> <r_mmod_Improper_Torsional_Energy-OPLS-2005>
65.1281356811523

> <r_mmod_Van_der_Waal_Energy-OPLS-2005>
2543.9296875

> <r_mmod_Electrostatic_Energy-OPLS-2005>
-313.355102539062

> <r_mmod_Solvation_Energy-OPLS-2005>
-392.101745605469

> <b_mmod_Minimization_Converged-OPLS-2005>
0

> <r_mmod_RMS_Derivative-OPLS-2005>
7.74526691436768

$$$$
56
                    3D
 Structure written by MMmdl.
160168  0  0  1  0            999 V2000
  -31.5426  -16.3163   20.3180 C   0  0  0  0  0  0
  -29.8605  -13.1678   19.3310 C   0  0  0  0  0  0
  -29.1013  -12.7953   18.0711 C   0  0  0  0  0  0
  -27.8238  -12.3560   18.6555 C   0  0  0  0  0  0
  -27.4205  -13.4139   19.6983 C   0  0  2  0  0  0
  -28.5022  -14.0780   20.6545 C   0  0  0  0  0  0
  -25.1643  -13.8667   20.6270 C   0  0  0  0  0  0
  -24.1272  -13.0510   20.9776 C   0  0  0  0  0  0
  -24.6147  -11.7092   20.9060 C   0  0  0  0  0  0
  -23.9060  -10.4319   21.0488 C   0  0  0  0  0  0
  -24.3618   -9.4173   21.9216 C   0  0  0  0  0  0
  -23.6307   -8.2166   22.0735 C   0  0  0  0  0  0
  -22.4296   -8.0210   21.3524 C   0  0  0  0  0  0
  -21.9943   -9.0204   20.4624 C   0  0  0  0  0  0
  -22.7275  -10.2082   20.3096 C   0  0  0  0  0  0
  -21.6841   -6.0718   22.5259 C   0  0  0  0  0  0
  -21.4024   -6.5633   23.8202 C   0  0  0  0  0  0
  -21.3673   -5.6787   24.9164 C   0  0  0  0  0  0
  -21.6046   -4.3044   24.7219 C   0  0  0  0  0  0
  -21.8803   -3.8138   23.4337 C   0  0  0  0  0  0
  -21.9173   -4.6950   22.3394 C   0  0  0  0  0  0
  -22.7248  -13.5071   21.2211 C   0  0  0  0  0  0
  -22.1652   -4.2135   21.0975 F   0  0  0  0  0  0
  -21.5621   -3.4541   25.7727 F   0  0  0  0  0  0
  -29.7554  -14.7828   19.9485 N   0  0  0  0  0  0
  -26.2046  -13.0184   20.3502 N   0  0  0  0  0  0
  -25.9063  -11.7119   20.5899 N   0  0  0  0  0  0
  -21.9947  -12.8040   22.0696 N   0  0  0  0  0  0
  -25.2969  -15.2424   20.4462 N   0  0  0  0  0  0
  -32.0250  -16.8460   21.2625 O   0  0  0  0  0  0
  -21.6662   -6.8827   21.4199 O   0  0  0  0  0  0
  -22.2966  -14.5274   20.6851 O   0  0  0  0  0  0
  -24.7192  -31.7475   23.1162 C   0  0  0  0  0  0
  -25.9583  -32.4216   23.7853 C   0  0  1  0  0  0
  -27.2055  -26.2408   20.2593 C   0  0  0  0  0  0
  -25.5998  -33.8060   24.1712 N   0  0  0  0  0  0
  -23.5669  -30.3264   21.4788 C   0  0  2  0  0  0
  -25.0217  -28.5700   20.1286 C   0  0  0  0  0  0
  -22.7920  -29.4035   22.4608 C   0  0  0  0  0  0
  -18.0333  -28.1432   22.8414 C   0  0  0  0  0  0
  -24.1517  -36.7064   23.2661 C   0  0  0  0  0  0
  -26.1553  -30.3309   21.4543 C   0  0  0  0  0  0
  -26.2103  -28.8418   20.8156 C   0  0  0  0  0  0
  -27.2595  -27.7120   20.8511 C   0  0  0  0  0  0
  -25.9975  -26.3112   19.4896 C   0  0  0  0  0  0
  -24.9800  -27.3413   19.4435 C   0  0  0  0  0  0
  -23.8484  -29.5844   20.1331 C   0  0  0  0  0  0
  -25.4183  -36.2755   24.0248 C   0  0  1  0  0  0
  -20.5992  -28.3822   23.1080 C   0  0  2  0  0  0
  -20.6798  -26.9452   22.5400 C   0  0  0  0  0  0
  -19.5784  -26.6364   21.5205 C   0  0  0  0  0  0
  -18.1967  -26.7946   22.1600 C   0  0  0  0  0  0
  -19.1602  -28.8957   23.2724 C   0  0  0  0  0  0
  -18.9522  -30.1539   23.8781 C   0  0  0  0  0  0
  -17.6511  -30.6611   24.0539 C   0  0  0  0  0  0
  -25.9161  -34.9139   23.4856 C   0  0  0  0  0  0
  -16.5403  -29.9084   23.6356 C   0  0  0  0  0  0
  -16.7324  -28.6510   23.0375 C   0  0  0  0  0  0
  -26.4625  -31.6393   25.0619 C   0  0  0  0  0  0
  -25.3591  -31.3823   26.1173 C   0  0  0  0  0  0
  -27.0626  -30.2678   24.6864 C   0  0  0  0  0  0
  -27.6029  -32.4307   25.7450 C   0  0  0  0  0  0
  -27.5558  -37.1690   24.8471 C   0  0  0  0  0  0
  -21.4529  -29.2953   22.3321 N   0  0  0  0  0  0
  -26.4283  -37.3562   23.9380 N   0  0  0  0  0  0
  -24.8422  -30.8509   22.0642 N   0  0  0  0  0  0
  -23.4190  -28.7713   23.3155 O   0  0  0  0  0  0
  -28.0523  -24.7958   20.4010 O   0  0  0  0  0  0
  -26.5873  -34.8804   22.4520 O   0  0  0  0  0  0
  -23.6142  -32.0722   23.5813 O   0  0  0  0  0  0
  -31.0737  -14.5365   21.7287 C   0  0  0  0  0  0
  -31.1868  -15.1959   18.2775 C   0  0  0  0  0  0
  -29.3213  -17.2926   20.3186 C   0  0  0  0  0  0
  -31.9364  -14.2034   19.9183 C   0  0  0  0  0  0
  -29.7572  -16.0952   21.8464 C   0  0  0  0  0  0
  -29.9405  -16.6795   18.6154 C   0  0  0  0  0  0
  -28.6622  -19.2200   20.6018 C   0  0  0  0  0  0
  -28.2744  -20.8709   20.5822 C   0  0  0  0  0  0
  -29.2556  -16.4344   23.2275 C   0  0  0  0  0  0
  -29.8585  -17.7903   17.5811 C   0  0  0  0  0  0
  -27.3268  -21.1345   21.7486 C   0  0  0  0  0  0
  -33.2967  -14.7743   19.8512 C   0  0  0  0  0  0
  -28.2160  -22.8565   19.9471 C   0  0  0  0  0  0
  -32.7855  -16.1313   19.7803 N   0  0  0  0  0  0
  -30.7370  -12.7975   18.7999 H   0  0  0  0  0  0
  -29.8875  -12.3667   20.0901 H   0  0  0  0  0  0
  -29.5278  -11.9574   17.5100 H   0  0  0  0  0  0
  -28.9782  -13.6428   17.3862 H   0  0  0  0  0  0
  -27.9555  -11.3697   19.0977 H   0  0  0  0  0  0
  -27.0495  -12.2416   17.8865 H   0  0  0  0  0  0
  -27.1394  -14.2369   19.0416 H   0  0  0  0  0  0
  -28.7534  -13.4260   21.4965 H   0  0  0  0  0  0
  -27.8955  -14.8524   21.0958 H   0  0  0  0  0  0
  -25.2666   -9.5640   22.4950 H   0  0  0  0  0  0
  -23.9975   -7.4517   22.7418 H   0  0  0  0  0  0
  -21.0912   -8.8717   19.8929 H   0  0  0  0  0  0
  -22.3643  -10.9650   19.6299 H   0  0  0  0  0  0
  -21.2058   -7.6157   23.9699 H   0  0  0  0  0  0
  -21.1532   -6.0541   25.9072 H   0  0  0  0  0  0
  -22.0583   -2.7605   23.2851 H   0  0  0  0  0  0
  -22.3653  -11.9699   22.5177 H   0  0  0  0  0  0
  -21.0422  -13.0739   22.2792 H   0  0  0  0  0  0
  -24.5093  -15.8724   20.5835 H   0  0  0  0  0  0
  -26.1477  -15.6998   20.1578 H   0  0  0  0  0  0
  -26.7660  -32.4579   23.0564 H   0  0  0  0  0  0
  -24.9999  -33.9030   24.9765 H   0  0  0  0  0  0
  -22.9178  -31.1697   21.2451 H   0  0  0  0  0  0
  -23.3802  -35.9372   23.3247 H   0  0  0  0  0  0
  -24.3559  -36.8826   22.2089 H   0  0  0  0  0  0
  -23.7257  -37.6201   23.6813 H   0  0  0  0  0  0
  -26.4086  -31.0260   20.6551 H   0  0  0  0  0  0
  -26.9956  -30.4188   22.1304 H   0  0  0  0  0  0
  -28.1198  -27.9094   21.4785 H   0  0  0  0  0  0
  -25.7655  -25.4137   18.9352 H   0  0  0  0  0  0
  -24.0917  -27.1232   18.8673 H   0  0  0  0  0  0
  -24.0567  -30.3215   19.3548 H   0  0  0  0  0  0
  -22.9514  -29.0692   19.7935 H   0  0  0  0  0  0
  -25.1411  -36.1496   25.0740 H   0  0  0  0  0  0
  -21.0044  -28.3466   24.1235 H   0  0  0  0  0  0
  -20.5620  -26.2458   23.3691 H   0  0  0  0  0  0
  -21.6668  -26.7344   22.1250 H   0  0  0  0  0  0
  -19.6944  -25.6247   21.1307 H   0  0  0  0  0  0
  -19.6727  -27.3117   20.6692 H   0  0  0  0  0  0
  -17.4239  -26.6681   21.4012 H   0  0  0  0  0  0
  -18.0365  -26.0112   22.9018 H   0  0  0  0  0  0
  -19.8019  -30.7362   24.2115 H   0  0  0  0  0  0
  -17.5077  -31.6269   24.5176 H   0  0  0  0  0  0
  -15.5409  -30.2962   23.7740 H   0  0  0  0  0  0
  -15.8735  -28.0797   22.7170 H   0  0  0  0  0  0
  -24.5901  -30.7046   25.7475 H   0  0  0  0  0  0
  -24.8650  -32.3053   26.4196 H   0  0  0  0  0  0
  -25.7686  -30.9267   27.0208 H   0  0  0  0  0  0
  -26.3419  -29.6151   24.1973 H   0  0  0  0  0  0
  -27.3962  -29.7320   25.5764 H   0  0  0  0  0  0
  -27.9428  -30.3683   24.0534 H   0  0  0  0  0  0
  -27.2596  -33.3761   26.1685 H   0  0  0  0  0  0
  -28.4037  -32.6622   25.0401 H   0  0  0  0  0  0
  -28.0512  -31.8656   26.5651 H   0  0  0  0  0  0
  -28.2569  -37.9989   24.7478 H   0  0  0  0  0  0
  -28.1063  -36.2501   24.6382 H   0  0  0  0  0  0
  -27.2240  -37.1416   25.8866 H   0  0  0  0  0  0
  -20.9948  -29.8561   21.6265 H   0  0  0  0  0  0
  -26.0089  -38.2609   24.1365 H   0  0  0  0  0  0
  -31.4748  -14.0651   22.6217 H   0  0  0  0  0  0
  -31.6527  -15.1158   17.3132 H   0  0  0  0  0  0
  -28.0917  -18.9164   21.4637 H   0  0  0  0  0  0
  -30.0461  -16.2394   23.9611 H   0  0  0  0  0  0
  -28.3817  -15.8205   23.4814 H   0  0  0  0  0  0
  -28.9719  -17.4781   23.3244 H   0  0  0  0  0  0
  -28.9075  -17.8136   17.0452 H   0  0  0  0  0  0
  -30.6924  -17.7786   16.8806 H   0  0  0  0  0  0
  -29.9638  -18.7233   18.1541 H   0  0  0  0  0  0
  -27.0053  -20.2714   22.3241 H   0  0  0  0  0  0
  -26.4127  -21.5626   21.3347 H   0  0  0  0  0  0
  -27.7848  -21.8315   22.4425 H   0  0  0  0  0  0
  -33.9321  -14.6191   20.7220 H   0  0  0  0  0  0
  -33.8114  -14.5228   18.9260 H   0  0  0  0  0  0
  -27.5106  -22.7789   19.1243 H   0  0  0  0  0  0
  -29.1687  -22.8824   19.4239 H   0  0  0  0  0  0
  -33.3799  -16.8811   20.0595 H   0  0  0  0  0  0
  1 25  1  0  0  0
  1 30  2  0  0  0
  1 84  1  0  0  0
  2  3  1  0  0  0
  2 25  1  0  0  0
  2 85  1  0  0  0
  2 86  1  0  0  0
  3  4  1  0  0  0
  3 87  1  0  0  0
  3 88  1  0  0  0
  4  5  1  0  0  0
  4 89  1  0  0  0
  4 90  1  0  0  0
  5  6  1  0  0  0
  5 26  1  0  0  0
  5 91  1  0  0  0
  6 25  1  0  0  0
  6 92  1  0  0  0
  6 93  1  0  0  0
  7  8  2  0  0  0
  7 26  1  0  0  0
  7 29  1  0  0  0
  8  9  1  0  0  0
  8 22  1  0  0  0
  9 10  1  0  0  0
  9 27  2  0  0  0
 10 11  2  0  0  0
 10 15  1  0  0  0
 11 12  1  0  0  0
 11 94  1  0  0  0
 12 13  2  0  0  0
 12 95  1  0  0  0
 13 14  1  0  0  0
 13 31  1  0  0  0
 14 15  2  0  0  0
 14 96  1  0  0  0
 15 97  1  0  0  0
 16 17  2  0  0  0
 16 21  1  0  0  0
 16 31  1  0  0  0
 17 18  1  0  0  0
 17 98  1  0  0  0
 18 19  2  0  0  0
 18 99  1  0  0  0
 19 20  1  0  0  0
 19 24  1  0  0  0
 20 21  2  0  0  0
 20100  1  0  0  0
 21 23  1  0  0  0
 22 28  1  0  0  0
 22 32  2  0  0  0
 26 27  1  0  0  0
 28101  1  0  0  0
 28102  1  0  0  0
 29103  1  0  0  0
 29104  1  0  0  0
 33 34  1  0  0  0
 33 66  1  0  0  0
 33 70  2  0  0  0
 34 36  1  0  0  0
 34 59  1  0  0  0
 34105  1  0  0  0
 35 44  2  0  0  0
 35 45  1  0  0  0
 35 68  1  0  0  0
 36 56  1  0  0  0
 36106  1  0  0  0
 37 39  1  0  0  0
 37 47  1  0  0  0
 37 66  1  0  0  0
 37107  1  0  0  0
 38 43  2  0  0  0
 38 46  1  0  0  0
 38 47  1  0  0  0
 39 64  1  0  0  0
 39 67  2  0  0  0
 40 52  1  0  0  0
 40 53  2  0  0  0
 40 58  1  0  0  0
 41108  1  0  0  0
 41109  1  0  0  0
 41110  1  0  0  0
 41 48  1  0  0  0
 42 43  1  0  0  0
 42 66  1  0  0  0
 42111  1  0  0  0
 42112  1  0  0  0
 43 44  1  0  0  0
 44113  1  0  0  0
 45 46  2  0  0  0
 45114  1  0  0  0
 46115  1  0  0  0
 47116  1  0  0  0
 47117  1  0  0  0
 48 56  1  0  0  0
 48 65  1  0  0  0
 48118  1  0  0  0
 49 50  1  0  0  0
 49 53  1  0  0  0
 49 64  1  0  0  0
 49119  1  0  0  0
 50 51  1  0  0  0
 50120  1  0  0  0
 50121  1  0  0  0
 51 52  1  0  0  0
 51122  1  0  0  0
 51123  1  0  0  0
 52124  1  0  0  0
 52125  1  0  0  0
 53 54  1  0  0  0
 54 55  2  0  0  0
 54126  1  0  0  0
 55 57  1  0  0  0
 55127  1  0  0  0
 56 69  2  0  0  0
 57 58  2  0  0  0
 57128  1  0  0  0
 58129  1  0  0  0
 59 60  1  0  0  0
 59 61  1  0  0  0
 59 62  1  0  0  0
 60130  1  0  0  0
 60131  1  0  0  0
 60132  1  0  0  0
 61133  1  0  0  0
 61134  1  0  0  0
 61135  1  0  0  0
 62136  1  0  0  0
 62137  1  0  0  0
 62138  1  0  0  0
 63 65  1  0  0  0
 63139  1  0  0  0
 63140  1  0  0  0
 63141  1  0  0  0
 64142  1  0  0  0
 65143  1  0  0  0
 68 83  1  0  0  0
 71 74  2  0  0  0
 71 75  1  0  0  0
 71144  1  0  0  0
 72 74  1  0  0  0
 72 76  2  0  0  0
 72145  1  0  0  0
 73 75  2  0  0  0
 73 76  1  0  0  0
 73 77  1  0  0  0
 74 82  1  0  0  0
 75 79  1  0  0  0
 76 80  1  0  0  0
 77 78  2  0  0  0
 77146  1  0  0  0
 78 81  1  0  0  0
 78 83  1  0  0  0
 79147  1  0  0  0
 79148  1  0  0  0
 79149  1  0  0  0
 80150  1  0  0  0
 80151  1  0  0  0
 80152  1  0  0  0
 81153  1  0  0  0
 81154  1  0  0  0
 81155  1  0  0  0
 82 84  1  0  0  0
 82156  1  0  0  0
 82157  1  0  0  0
 83158  1  0  0  0
 83159  1  0  0  0
 84160  1  0  0  0
M  ISO  4   1 100  68 101  83 101  84 100
M  END
> <chiral flag>
0

> <version>
0

> <s_m_source_file>
/data/baiqing/PycharmProjects/Reinvent-master-3.2/result/LINK_invent/BTK/process_docking_weight1_custom_product_contain_oxygen_bond_distance_aromatic_linkinvent_7_9_3/rearranged_h_0039.sdf

> <i_m_source_file_index>
57

> <r_mmod_Potential_Energy-OPLS-2005>
15737.951171875

> <r_mmod_Stretch_Energy-OPLS-2005>
8734.251953125

> <r_mmod_Bend_Energy-OPLS-2005>
1409.39685058594

> <r_mmod_Torsional_Energy-OPLS-2005>
434.564270019531

> <r_mmod_Improper_Torsional_Energy-OPLS-2005>
69.1129379272461

> <r_mmod_Van_der_Waal_Energy-OPLS-2005>
3159.74340820312

> <r_mmod_Electrostatic_Energy-OPLS-2005>
-445.05322265625

> <r_mmod_Solvation_Energy-OPLS-2005>
-184.017623901367

> <b_mmod_Minimization_Converged-OPLS-2005>
0

> <r_mmod_RMS_Derivative-OPLS-2005>
31.6641025543213

$$$$
57
                    3D
 Structure written by MMmdl.
169178  0  0  1  0            999 V2000
  -30.5689  -14.6803   20.5294 C   0  0  0  0  0  0
  -30.4361  -12.4213   19.4551 C   0  0  0  0  0  0
  -29.5056  -12.5289   18.2251 C   0  0  0  0  0  0
  -28.0292  -12.3589   18.6356 C   0  0  0  0  0  0
  -27.6470  -13.2178   19.8712 C   0  0  2  0  0  0
  -28.6903  -13.0401   20.9972 C   0  0  0  0  0  0
  -25.2510  -13.8120   20.5704 C   0  0  0  0  0  0
  -24.1805  -13.0410   20.9232 C   0  0  0  0  0  0
  -24.6381  -11.6865   20.8778 C   0  0  0  0  0  0
  -23.9040  -10.4255   21.0407 C   0  0  0  0  0  0
  -24.3593   -9.4177   21.9176 C   0  0  0  0  0  0
  -23.6272   -8.2220   22.0741 C   0  0  0  0  0  0
  -22.4245   -8.0267   21.3557 C   0  0  0  0  0  0
  -21.9884   -9.0215   20.4642 C   0  0  0  0  0  0
  -22.7220  -10.2093   20.3053 C   0  0  0  0  0  0
  -21.6859   -6.0729   22.5295 C   0  0  0  0  0  0
  -21.4003   -6.5636   23.8231 C   0  0  0  0  0  0
  -21.3660   -5.6785   24.9203 C   0  0  0  0  0  0
  -21.6058   -4.3054   24.7254 C   0  0  0  0  0  0
  -21.8811   -3.8149   23.4370 C   0  0  0  0  0  0
  -21.9182   -4.6956   22.3424 C   0  0  0  0  0  0
  -22.7829  -13.5179   21.1903 C   0  0  0  0  0  0
  -22.1646   -4.2163   21.0998 F   0  0  0  0  0  0
  -21.5644   -3.4518   25.7747 F   0  0  0  0  0  0
  -29.9944  -13.4305   20.4422 N   0  0  0  0  0  0
  -26.2943  -12.9329   20.3355 N   0  0  0  0  0  0
  -25.9314  -11.6470   20.5776 N   0  0  0  0  0  0
  -22.0488  -12.8161   22.0456 N   0  0  0  0  0  0
  -25.4209  -15.1867   20.4078 N   0  0  0  0  0  0
  -31.7198  -14.8685   20.1259 O   0  0  0  0  0  0
  -21.6645   -6.8844   21.4249 O   0  0  0  0  0  0
  -22.3520  -14.5502   20.6764 O   0  0  0  0  0  0
  -24.6249  -31.8582   23.2021 C   0  0  0  0  0  0
  -25.9088  -32.4782   23.8352 C   0  0  1  0  0  0
  -27.2371  -27.3116   20.1296 C   0  0  0  0  0  0
  -25.5889  -33.8581   24.2270 N   0  0  0  0  0  0
  -23.4226  -30.4774   21.5457 C   0  0  2  0  0  0
  -24.8736  -28.9305   20.1132 C   0  0  0  0  0  0
  -22.7489  -29.4592   22.4961 C   0  0  0  0  0  0
  -18.0287  -28.1377   22.8492 C   0  0  0  0  0  0
  -24.1486  -36.7283   23.2643 C   0  0  0  0  0  0
  -25.9651  -30.7891   21.3762 C   0  0  0  0  0  0
  -26.0432  -29.4159   20.7141 C   0  0  0  0  0  0
  -27.2318  -28.6233   20.7004 C   0  0  0  0  0  0
  -26.0472  -26.8771   19.5113 C   0  0  0  0  0  0
  -24.8796  -27.6683   19.4969 C   0  0  0  0  0  0
  -23.6392  -29.8099   20.1623 C   0  0  0  0  0  0
  -25.4115  -36.3085   24.0330 C   0  0  1  0  0  0
  -20.5886  -28.3669   23.1305 C   0  0  2  0  0  0
  -20.6774  -26.9397   22.5427 C   0  0  0  0  0  0
  -19.5746  -26.6369   21.5232 C   0  0  0  0  0  0
  -18.1920  -26.7918   22.1634 C   0  0  0  0  0  0
  -19.1536  -28.8843   23.2887 C   0  0  0  0  0  0
  -18.9455  -30.1454   23.8888 C   0  0  0  0  0  0
  -17.6452  -30.6586   24.0559 C   0  0  0  0  0  0
  -25.9049  -34.9459   23.5115 C   0  0  0  0  0  0
  -16.5347  -29.9080   23.6332 C   0  0  0  0  0  0
  -16.7269  -28.6497   23.0349 C   0  0  0  0  0  0
  -26.4460  -31.6596   25.0732 C   0  0  0  0  0  0
  -25.3679  -31.3748   26.1455 C   0  0  0  0  0  0
  -27.0286  -30.2994   24.6217 C   0  0  0  0  0  0
  -27.6006  -32.4343   25.7509 C   0  0  0  0  0  0
  -27.5585  -37.1801   24.8460 C   0  0  0  0  0  0
  -21.4192  -29.3009   22.3698 N   0  0  0  0  0  0
  -26.4287  -37.3782   23.9420 N   0  0  0  0  0  0
  -24.6896  -31.0594   22.0977 N   0  0  0  0  0  0
  -23.4205  -28.8127   23.3040 O   0  0  0  0  0  0
  -28.3431  -26.4448   20.1305 O   0  0  0  0  0  0
  -26.5641  -34.8918   22.4692 O   0  0  0  0  0  0
  -23.5408  -32.1386   23.7343 O   0  0  0  0  0  0
  -28.6983  -17.7992   20.0334 C   0  0  0  0  0  0
  -28.5959  -19.2169   19.8421 C   0  0  0  0  0  0
  -29.6206  -20.1181   20.2790 C   0  0  0  0  0  0
  -30.6427  -19.4901   21.0804 C   0  0  0  0  0  0
  -29.7616  -17.1661   20.7307 C   0  0  0  0  0  0
  -30.6793  -18.0670   21.3405 C   0  0  0  0  0  0
  -29.2354  -25.2443   22.0618 C   0  0  0  0  0  0
  -30.6334  -24.9430   21.5312 C   0  0  0  0  0  0
  -28.3286  -23.6953   20.2772 C   0  0  0  0  0  0
  -28.2395  -25.1772   20.9076 C   0  0  2  0  0  0
  -30.8149  -23.5000   20.9917 C   0  0  2  0  0  0
  -27.3648  -19.7333   19.1057 C   0  0  0  0  0  0
  -31.7442  -20.3499   21.6669 C   0  0  0  0  0  0
  -32.1854  -23.5108   20.2509 C   0  0  0  0  0  0
  -29.7586  -21.5607   19.5671 C   0  0  0  0  0  0
  -29.7374  -15.7022   20.9408 N   0  0  0  0  0  0
  -29.6923  -23.0147   20.1126 N   0  3  1  0  0  0
  -31.8247  -17.4084   22.4648 Cl  0  0  0  0  0  0
  -31.4796  -12.5536   19.1672 H   0  0  0  0  0  0
  -30.3684  -11.4194   19.8788 H   0  0  0  0  0  0
  -29.7737  -11.7696   17.4888 H   0  0  0  0  0  0
  -29.6476  -13.4981   17.7413 H   0  0  0  0  0  0
  -27.8739  -11.3030   18.8573 H   0  0  0  0  0  0
  -27.3687  -12.5900   17.7988 H   0  0  0  0  0  0
  -27.6658  -14.2588   19.5552 H   0  0  0  0  0  0
  -28.7142  -11.9950   21.3144 H   0  0  0  0  0  0
  -28.4301  -13.6150   21.8874 H   0  0  0  0  0  0
  -25.2721   -9.5674   22.4769 H   0  0  0  0  0  0
  -24.0007   -7.4602   22.7442 H   0  0  0  0  0  0
  -21.0835   -8.8689   19.8936 H   0  0  0  0  0  0
  -22.3645  -10.9614   19.6169 H   0  0  0  0  0  0
  -21.1981   -7.6131   23.9721 H   0  0  0  0  0  0
  -21.1500   -6.0541   25.9098 H   0  0  0  0  0  0
  -22.0590   -2.7611   23.2882 H   0  0  0  0  0  0
  -22.4072  -11.9783   22.4793 H   0  0  0  0  0  0
  -21.1129  -13.1190   22.2683 H   0  0  0  0  0  0
  -24.6490  -15.8372   20.4982 H   0  0  0  0  0  0
  -26.2545  -15.6120   20.0264 H   0  0  0  0  0  0
  -26.7155  -32.5434   23.1101 H   0  0  0  0  0  0
  -25.0000  -33.9729   25.0385 H   0  0  0  0  0  0
  -22.7154  -31.2963   21.4016 H   0  0  0  0  0  0
  -23.3765  -35.9597   23.3298 H   0  0  0  0  0  0
  -24.3582  -36.8914   22.2058 H   0  0  0  0  0  0
  -23.7215  -37.6469   23.6672 H   0  0  0  0  0  0
  -26.1055  -31.5609   20.6182 H   0  0  0  0  0  0
  -26.8394  -30.8291   22.0145 H   0  0  0  0  0  0
  -28.1342  -29.0040   21.1568 H   0  0  0  0  0  0
  -26.0176  -25.9053   19.0422 H   0  0  0  0  0  0
  -23.9877  -27.2940   19.0136 H   0  0  0  0  0  0
  -23.7521  -30.5863   19.4050 H   0  0  0  0  0  0
  -22.7613  -29.2341   19.8638 H   0  0  0  0  0  0
  -25.1303  -36.1943   25.0820 H   0  0  0  0  0  0
  -20.9962  -28.3228   24.1431 H   0  0  0  0  0  0
  -20.5691  -26.2265   23.3616 H   0  0  0  0  0  0
  -21.6643  -26.7432   22.1204 H   0  0  0  0  0  0
  -19.6913  -25.6280   21.1258 H   0  0  0  0  0  0
  -19.6703  -27.3187   20.6763 H   0  0  0  0  0  0
  -17.4206  -26.6670   21.4030 H   0  0  0  0  0  0
  -18.0316  -26.0065   22.9026 H   0  0  0  0  0  0
  -19.7926  -30.7280   24.2240 H   0  0  0  0  0  0
  -17.5004  -31.6271   24.5148 H   0  0  0  0  0  0
  -15.5344  -30.2975   23.7673 H   0  0  0  0  0  0
  -15.8663  -28.0824   22.7063 H   0  0  0  0  0  0
  -24.5856  -30.7095   25.7792 H   0  0  0  0  0  0
  -24.8863  -32.2914   26.4860 H   0  0  0  0  0  0
  -25.7980  -30.8940   27.0246 H   0  0  0  0  0  0
  -26.2869  -29.6782   24.1177 H   0  0  0  0  0  0
  -27.3876  -29.7227   25.4752 H   0  0  0  0  0  0
  -27.8790  -30.4256   23.9514 H   0  0  0  0  0  0
  -27.2592  -33.3648   26.2058 H   0  0  0  0  0  0
  -28.3817  -32.6897   25.0339 H   0  0  0  0  0  0
  -28.0656  -31.8487   26.5450 H   0  0  0  0  0  0
  -28.2583  -38.0119   24.7542 H   0  0  0  0  0  0
  -28.1103  -36.2655   24.6242 H   0  0  0  0  0  0
  -27.2308  -37.1391   25.8860 H   0  0  0  0  0  0
  -20.9378  -29.8719   21.6889 H   0  0  0  0  0  0
  -26.0174  -38.2849   24.1437 H   0  0  0  0  0  0
  -27.9288  -17.1713   19.6090 H   0  0  0  0  0  0
  -29.2118  -26.2276   22.5328 H   0  0  0  0  0  0
  -28.9601  -24.5149   22.8250 H   0  0  0  0  0  0
  -31.3644  -25.1218   22.3225 H   0  0  0  0  0  0
  -30.8635  -25.6724   20.7529 H   0  0  0  0  0  0
  -27.7674  -23.6398   19.3416 H   0  0  0  0  0  0
  -27.7810  -23.0516   20.9684 H   0  0  0  0  0  0
  -27.2568  -25.2216   21.3791 H   0  0  0  0  0  0
  -30.8462  -22.8540   21.8629 H   0  0  0  0  0  0
  -26.5805  -18.9759   19.0730 H   0  0  0  0  0  0
  -27.5890  -19.9980   18.0724 H   0  0  0  0  0  0
  -26.9388  -20.6050   19.6081 H   0  0  0  0  0  0
  -31.3458  -20.9349   22.4938 H   0  0  0  0  0  0
  -32.1359  -20.9971   20.8977 H   0  0  0  0  0  0
  -32.6092  -19.8084   22.0428 H   0  0  0  0  0  0
  -32.3057  -24.4101   19.6485 H   0  0  0  0  0  0
  -32.3614  -22.6856   19.5663 H   0  0  0  0  0  0
  -33.0182  -23.5055   20.9544 H   0  0  0  0  0  0
  -29.0771  -21.5867   18.7195 H   0  0  0  0  0  0
  -30.7141  -21.4556   19.0584 H   0  0  0  0  0  0
  -28.8450  -15.3520   21.2532 H   0  0  0  0  0  0
  -29.9746  -23.4771   19.2626 H   0  0  0  0  0  0
  1 25  1  0  0  0
  1 30  2  0  0  0
  1 86  1  0  0  0
  2  3  1  0  0  0
  2 25  1  0  0  0
  2 89  1  0  0  0
  2 90  1  0  0  0
  3  4  1  0  0  0
  3 91  1  0  0  0
  3 92  1  0  0  0
  4  5  1  0  0  0
  4 93  1  0  0  0
  4 94  1  0  0  0
  5  6  1  0  0  0
  5 26  1  0  0  0
  5 95  1  0  0  0
  6 25  1  0  0  0
  6 96  1  0  0  0
  6 97  1  0  0  0
  7  8  2  0  0  0
  7 26  1  0  0  0
  7 29  1  0  0  0
  8  9  1  0  0  0
  8 22  1  0  0  0
  9 10  1  0  0  0
  9 27  2  0  0  0
 10 11  2  0  0  0
 10 15  1  0  0  0
 11 12  1  0  0  0
 11 98  1  0  0  0
 12 13  2  0  0  0
 12 99  1  0  0  0
 13 14  1  0  0  0
 13 31  1  0  0  0
 14 15  2  0  0  0
 14100  1  0  0  0
 15101  1  0  0  0
 16 17  2  0  0  0
 16 21  1  0  0  0
 16 31  1  0  0  0
 17 18  1  0  0  0
 17102  1  0  0  0
 18 19  2  0  0  0
 18103  1  0  0  0
 19 20  1  0  0  0
 19 24  1  0  0  0
 20 21  2  0  0  0
 20104  1  0  0  0
 21 23  1  0  0  0
 22 28  1  0  0  0
 22 32  2  0  0  0
 26 27  1  0  0  0
 28105  1  0  0  0
 28106  1  0  0  0
 29107  1  0  0  0
 29108  1  0  0  0
 33 34  1  0  0  0
 33 66  1  0  0  0
 33 70  2  0  0  0
 34 36  1  0  0  0
 34 59  1  0  0  0
 34109  1  0  0  0
 35 44  2  0  0  0
 35 45  1  0  0  0
 35 68  1  0  0  0
 36 56  1  0  0  0
 36110  1  0  0  0
 37 39  1  0  0  0
 37 47  1  0  0  0
 37 66  1  0  0  0
 37111  1  0  0  0
 38 43  2  0  0  0
 38 46  1  0  0  0
 38 47  1  0  0  0
 39 64  1  0  0  0
 39 67  2  0  0  0
 40 52  1  0  0  0
 40 53  2  0  0  0
 40 58  1  0  0  0
 41112  1  0  0  0
 41113  1  0  0  0
 41114  1  0  0  0
 41 48  1  0  0  0
 42 43  1  0  0  0
 42 66  1  0  0  0
 42115  1  0  0  0
 42116  1  0  0  0
 43 44  1  0  0  0
 44117  1  0  0  0
 45 46  2  0  0  0
 45118  1  0  0  0
 46119  1  0  0  0
 47120  1  0  0  0
 47121  1  0  0  0
 48 56  1  0  0  0
 48 65  1  0  0  0
 48122  1  0  0  0
 49 50  1  0  0  0
 49 53  1  0  0  0
 49 64  1  0  0  0
 49123  1  0  0  0
 50 51  1  0  0  0
 50124  1  0  0  0
 50125  1  0  0  0
 51 52  1  0  0  0
 51126  1  0  0  0
 51127  1  0  0  0
 52128  1  0  0  0
 52129  1  0  0  0
 53 54  1  0  0  0
 54 55  2  0  0  0
 54130  1  0  0  0
 55 57  1  0  0  0
 55131  1  0  0  0
 56 69  2  0  0  0
 57 58  2  0  0  0
 57132  1  0  0  0
 58133  1  0  0  0
 59 60  1  0  0  0
 59 61  1  0  0  0
 59 62  1  0  0  0
 60134  1  0  0  0
 60135  1  0  0  0
 60136  1  0  0  0
 61137  1  0  0  0
 61138  1  0  0  0
 61139  1  0  0  0
 62140  1  0  0  0
 62141  1  0  0  0
 62142  1  0  0  0
 63 65  1  0  0  0
 63143  1  0  0  0
 63144  1  0  0  0
 63145  1  0  0  0
 64146  1  0  0  0
 65147  1  0  0  0
 68 80  1  0  0  0
 71 72  2  0  0  0
 71 75  1  0  0  0
 71148  1  0  0  0
 72 73  1  0  0  0
 72 82  1  0  0  0
 73 74  2  0  0  0
 73 85  1  0  0  0
 74 76  1  0  0  0
 74 83  1  0  0  0
 75 76  2  0  0  0
 75 86  1  0  0  0
 76 88  1  0  0  0
 77 78  1  0  0  0
 77 80  1  0  0  0
 77149  1  0  0  0
 77150  1  0  0  0
 78 81  1  0  0  0
 78151  1  0  0  0
 78152  1  0  0  0
 79 80  1  0  0  0
 79 87  1  0  0  0
 79153  1  0  0  0
 79154  1  0  0  0
 80155  1  0  0  0
 81 84  1  0  0  0
 81 87  1  0  0  0
 81156  1  0  0  0
 82157  1  0  0  0
 82158  1  0  0  0
 82159  1  0  0  0
 83160  1  0  0  0
 83161  1  0  0  0
 83162  1  0  0  0
 84163  1  0  0  0
 84164  1  0  0  0
 84165  1  0  0  0
 85166  1  0  0  0
 85167  1  0  0  0
 85 87  1  0  0  0
 86168  1  0  0  0
 87169  1  0  0  0
M  CHG  1  87   1
M  ISO  4   1 100  68 101  80 101  86 100
M  END
> <chiral flag>
0

> <version>
0

> <s_m_source_file>
/data/baiqing/PycharmProjects/Reinvent-master-3.2/result/LINK_invent/BTK/process_docking_weight1_custom_product_contain_oxygen_bond_distance_aromatic_linkinvent_7_9_3/rearranged_h_0039.sdf

> <i_m_source_file_index>
58

> <r_mmod_Potential_Energy-OPLS-2005>
200.583160400391

> <r_mmod_Stretch_Energy-OPLS-2005>
118.139671325684

> <r_mmod_Bend_Energy-OPLS-2005>
242.857894897461

> <r_mmod_Torsional_Energy-OPLS-2005>
320.191162109375

> <r_mmod_Improper_Torsional_Energy-OPLS-2005>
8.46997737884521

> <r_mmod_Van_der_Waal_Energy-OPLS-2005>
149.223556518555

> <r_mmod_Electrostatic_Energy-OPLS-2005>
-269.031524658203

> <r_mmod_Solvation_Energy-OPLS-2005>
-426.065887451172

> <b_mmod_Minimization_Converged-OPLS-2005>
0

> <r_mmod_RMS_Derivative-OPLS-2005>
5.63625144958496

$$$$
58
                    3D
 Structure written by MMmdl.
161169  0  0  1  0            999 V2000
  -30.6866  -14.5214   20.4281 C   0  0  0  0  0  0
  -30.4279  -12.2965   19.4618 C   0  0  0  0  0  0
  -29.5217  -12.4483   18.2210 C   0  0  0  0  0  0
  -28.0426  -12.3119   18.6351 C   0  0  0  0  0  0
  -27.6571  -13.2049   19.8449 C   0  0  2  0  0  0
  -28.6926  -13.0971   20.9861 C   0  0  0  0  0  0
  -25.2627  -13.8154   20.5689 C   0  0  0  0  0  0
  -24.1872  -13.0446   20.9211 C   0  0  0  0  0  0
  -24.6387  -11.6908   20.8714 C   0  0  0  0  0  0
  -23.9043  -10.4297   21.0409 C   0  0  0  0  0  0
  -24.3592   -9.4237   21.9215 C   0  0  0  0  0  0
  -23.6260   -8.2277   22.0790 C   0  0  0  0  0  0
  -22.4249   -8.0292   21.3583 C   0  0  0  0  0  0
  -21.9854   -9.0273   20.4698 C   0  0  0  0  0  0
  -22.7188  -10.2154   20.3082 C   0  0  0  0  0  0
  -21.6851   -6.0732   22.5299 C   0  0  0  0  0  0
  -21.4022   -6.5642   23.8227 C   0  0  0  0  0  0
  -21.3655   -5.6786   24.9181 C   0  0  0  0  0  0
  -21.6031   -4.3046   24.7241 C   0  0  0  0  0  0
  -21.8807   -3.8149   23.4353 C   0  0  0  0  0  0
  -21.9204   -4.6956   22.3406 C   0  0  0  0  0  0
  -22.7900  -13.5304   21.1840 C   0  0  0  0  0  0
  -22.1686   -4.2158   21.0989 F   0  0  0  0  0  0
  -21.5601   -3.4538   25.7749 F   0  0  0  0  0  0
  -30.0269  -13.3327   20.4208 N   0  0  0  0  0  0
  -26.3011  -12.9309   20.3194 N   0  0  0  0  0  0
  -25.9311  -11.6476   20.5660 N   0  0  0  0  0  0
  -22.0475  -12.8376   22.0386 N   0  0  0  0  0  0
  -25.4343  -15.1880   20.4204 N   0  0  0  0  0  0
  -31.9031  -14.5901   20.2627 O   0  0  0  0  0  0
  -21.6625   -6.8883   21.4264 O   0  0  0  0  0  0
  -22.3664  -14.5627   20.6612 O   0  0  0  0  0  0
  -24.6150  -31.8690   23.2137 C   0  0  0  0  0  0
  -25.9053  -32.4816   23.8411 C   0  0  1  0  0  0
  -27.2440  -27.4511   20.1053 C   0  0  0  0  0  0
  -25.5903  -33.8623   24.2335 N   0  0  0  0  0  0
  -23.4024  -30.4883   21.5570 C   0  0  2  0  0  0
  -24.8496  -28.9487   20.1248 C   0  0  0  0  0  0
  -22.7408  -29.4687   22.5087 C   0  0  0  0  0  0
  -18.0268  -28.1446   22.8494 C   0  0  0  0  0  0
  -24.1469  -36.7306   23.2642 C   0  0  0  0  0  0
  -25.9273  -30.8399   21.3604 C   0  0  0  0  0  0
  -26.0082  -29.4725   20.7136 C   0  0  0  0  0  0
  -27.2108  -28.7327   20.6956 C   0  0  0  0  0  0
  -26.0744  -26.9355   19.5080 C   0  0  0  0  0  0
  -24.8763  -27.6768   19.5205 C   0  0  0  0  0  0
  -23.6070  -29.8108   20.1759 C   0  0  0  0  0  0
  -25.4089  -36.3106   24.0330 C   0  0  1  0  0  0
  -20.5864  -28.3720   23.1362 C   0  0  2  0  0  0
  -20.6797  -26.9466   22.5458 C   0  0  0  0  0  0
  -19.5763  -26.6438   21.5265 C   0  0  0  0  0  0
  -18.1928  -26.8001   22.1638 C   0  0  0  0  0  0
  -19.1524  -28.8900   23.2921 C   0  0  0  0  0  0
  -18.9451  -30.1514   23.8921 C   0  0  0  0  0  0
  -17.6453  -30.6638   24.0602 C   0  0  0  0  0  0
  -25.9028  -34.9475   23.5124 C   0  0  0  0  0  0
  -16.5345  -29.9140   23.6367 C   0  0  0  0  0  0
  -16.7258  -28.6579   23.0343 C   0  0  0  0  0  0
  -26.4497  -31.6606   25.0736 C   0  0  0  0  0  0
  -25.3810  -31.3709   26.1518 C   0  0  0  0  0  0
  -27.0327  -30.3047   24.6119 C   0  0  0  0  0  0
  -27.6083  -32.4345   25.7458 C   0  0  0  0  0  0
  -27.5558  -37.1798   24.8459 C   0  0  0  0  0  0
  -21.4158  -29.3035   22.3767 N   0  0  0  0  0  0
  -26.4269  -37.3792   23.9413 N   0  0  0  0  0  0
  -24.6666  -31.0780   22.1022 N   0  0  0  0  0  0
  -23.4155  -28.8275   23.3192 O   0  0  0  0  0  0
  -28.4181  -26.7378   20.0824 O   0  0  0  0  0  0
  -26.5592  -34.8927   22.4690 O   0  0  0  0  0  0
  -23.5363  -32.1428   23.7550 O   0  0  0  0  0  0
  -29.0237  -17.8272   19.8348 C   0  0  0  0  0  0
  -31.0362  -18.2745   17.9554 C   0  0  0  0  0  0
  -29.0190  -19.0359   19.0883 C   0  0  0  0  0  0
  -30.0303  -19.2397   18.1152 C   0  0  0  0  0  0
  -30.0190  -16.8304   19.6585 C   0  0  0  0  0  0
  -31.0334  -17.0781   18.6918 C   0  0  0  0  0  0
  -27.8985  -19.9787   19.2869 C   0  0  0  0  0  0
  -27.9451  -21.2778   19.6743 C   0  0  0  0  0  0
  -30.0450  -20.4034   17.1333 C   0  0  0  0  0  0
  -26.6650  -22.0867   19.7766 C   0  0  0  0  0  0
  -29.2366  -22.0144   20.0508 C   0  0  0  0  0  0
  -28.4458  -25.5683   20.9093 C   0  0  0  0  0  0
  -29.1173  -24.4102   20.1499 C   0  0  0  0  0  0
  -29.8840  -15.6060   20.4099 N   0  0  0  0  0  0
  -29.0026  -23.1725   20.8607 O   0  0  0  0  0  0
  -31.9905  -16.1785   18.3725 F   0  0  0  0  0  0
  -31.4786  -12.3726   19.1741 H   0  0  0  0  0  0
  -30.3062  -11.3101   19.9108 H   0  0  0  0  0  0
  -29.7698  -11.6882   17.4804 H   0  0  0  0  0  0
  -29.7043  -13.4059   17.7320 H   0  0  0  0  0  0
  -27.8819  -11.2634   18.8900 H   0  0  0  0  0  0
  -27.3929  -12.5252   17.7847 H   0  0  0  0  0  0
  -27.6734  -14.2300   19.4758 H   0  0  0  0  0  0
  -28.6592  -12.1172   21.4609 H   0  0  0  0  0  0
  -28.4553  -13.8239   21.7664 H   0  0  0  0  0  0
  -25.2747   -9.5704   22.4773 H   0  0  0  0  0  0
  -23.9999   -7.4650   22.7454 H   0  0  0  0  0  0
  -21.0797   -8.8726   19.9009 H   0  0  0  0  0  0
  -22.3622  -10.9662   19.6163 H   0  0  0  0  0  0
  -21.2027   -7.6141   23.9709 H   0  0  0  0  0  0
  -21.1492   -6.0547   25.9083 H   0  0  0  0  0  0
  -22.0594   -2.7608   23.2844 H   0  0  0  0  0  0
  -22.4038  -12.0102   22.4920 H   0  0  0  0  0  0
  -21.1080  -13.1485   22.2465 H   0  0  0  0  0  0
  -24.6509  -15.8236   20.5257 H   0  0  0  0  0  0
  -26.2613  -15.6369   20.0480 H   0  0  0  0  0  0
  -26.7145  -32.5527   23.1209 H   0  0  0  0  0  0
  -25.0088  -33.9810   25.0493 H   0  0  0  0  0  0
  -22.6872  -31.3028   21.4168 H   0  0  0  0  0  0
  -23.3722  -35.9649   23.3343 H   0  0  0  0  0  0
  -24.3553  -36.8894   22.2049 H   0  0  0  0  0  0
  -23.7242  -37.6522   23.6652 H   0  0  0  0  0  0
  -26.0323  -31.6044   20.5882 H   0  0  0  0  0  0
  -26.8182  -30.9000   21.9748 H   0  0  0  0  0  0
  -28.1136  -29.1352   21.1331 H   0  0  0  0  0  0
  -26.0890  -25.9681   19.0239 H   0  0  0  0  0  0
  -23.9860  -27.2641   19.0658 H   0  0  0  0  0  0
  -23.7103  -30.5811   19.4116 H   0  0  0  0  0  0
  -22.7289  -29.2303   19.8873 H   0  0  0  0  0  0
  -25.1270  -36.1976   25.0819 H   0  0  0  0  0  0
  -20.9916  -28.3319   24.1503 H   0  0  0  0  0  0
  -20.5812  -26.2313   23.3635 H   0  0  0  0  0  0
  -21.6660  -26.7592   22.1187 H   0  0  0  0  0  0
  -19.6934  -25.6353   21.1296 H   0  0  0  0  0  0
  -19.6723  -27.3268   20.6811 H   0  0  0  0  0  0
  -17.4212  -26.6781   21.4021 H   0  0  0  0  0  0
  -18.0274  -26.0152   22.9027 H   0  0  0  0  0  0
  -19.7925  -30.7357   24.2269 H   0  0  0  0  0  0
  -17.5001  -31.6306   24.5238 H   0  0  0  0  0  0
  -15.5347  -30.3040   23.7717 H   0  0  0  0  0  0
  -15.8656  -28.0926   22.7016 H   0  0  0  0  0  0
  -24.5912  -30.7132   25.7876 H   0  0  0  0  0  0
  -24.9094  -32.2868   26.5081 H   0  0  0  0  0  0
  -25.8188  -30.8784   27.0208 H   0  0  0  0  0  0
  -26.2842  -29.6753   24.1285 H   0  0  0  0  0  0
  -27.4207  -29.7345   25.4571 H   0  0  0  0  0  0
  -27.8633  -30.4339   23.9178 H   0  0  0  0  0  0
  -27.2687  -33.3617   26.2083 H   0  0  0  0  0  0
  -28.3820  -32.6964   25.0233 H   0  0  0  0  0  0
  -28.0836  -31.8469   26.5319 H   0  0  0  0  0  0
  -28.2617  -38.0061   24.7483 H   0  0  0  0  0  0
  -28.1019  -36.2597   24.6307 H   0  0  0  0  0  0
  -27.2288  -37.1481   25.8870 H   0  0  0  0  0  0
  -20.9383  -29.8566   21.6791 H   0  0  0  0  0  0
  -26.0157  -38.2866   24.1443 H   0  0  0  0  0  0
  -28.2175  -17.6658   20.5376 H   0  0  0  0  0  0
  -31.8058  -18.4261   17.2112 H   0  0  0  0  0  0
  -26.9281  -19.5528   19.0623 H   0  0  0  0  0  0
  -29.7477  -20.0521   16.1447 H   0  0  0  0  0  0
  -31.0513  -20.8204   17.0635 H   0  0  0  0  0  0
  -29.3660  -21.2118   17.3813 H   0  0  0  0  0  0
  -25.7802  -21.4697   19.6055 H   0  0  0  0  0  0
  -26.6622  -22.8927   19.0389 H   0  0  0  0  0  0
  -26.5671  -22.5275   20.7688 H   0  0  0  0  0  0
  -29.7904  -22.3067   19.1607 H   0  0  0  0  0  0
  -29.8838  -21.3215   20.5870 H   0  0  0  0  0  0
  -29.0139  -25.8025   21.8124 H   0  0  0  0  0  0
  -27.4511  -25.2660   21.2437 H   0  0  0  0  0  0
  -30.1746  -24.6409   20.0031 H   0  0  0  0  0  0
  -28.6601  -24.3271   19.1620 H   0  0  0  0  0  0
  -28.9519  -15.4220   20.7508 H   0  0  0  0  0  0
  1 25  1  0  0  0
  1 30  2  0  0  0
  1 84  1  0  0  0
  2  3  1  0  0  0
  2 25  1  0  0  0
  2 87  1  0  0  0
  2 88  1  0  0  0
  3  4  1  0  0  0
  3 89  1  0  0  0
  3 90  1  0  0  0
  4  5  1  0  0  0
  4 91  1  0  0  0
  4 92  1  0  0  0
  5  6  1  0  0  0
  5 26  1  0  0  0
  5 93  1  0  0  0
  6 25  1  0  0  0
  6 94  1  0  0  0
  6 95  1  0  0  0
  7  8  2  0  0  0
  7 26  1  0  0  0
  7 29  1  0  0  0
  8  9  1  0  0  0
  8 22  1  0  0  0
  9 10  1  0  0  0
  9 27  2  0  0  0
 10 11  2  0  0  0
 10 15  1  0  0  0
 11 12  1  0  0  0
 11 96  1  0  0  0
 12 13  2  0  0  0
 12 97  1  0  0  0
 13 14  1  0  0  0
 13 31  1  0  0  0
 14 15  2  0  0  0
 14 98  1  0  0  0
 15 99  1  0  0  0
 16 17  2  0  0  0
 16 21  1  0  0  0
 16 31  1  0  0  0
 17 18  1  0  0  0
 17100  1  0  0  0
 18 19  2  0  0  0
 18101  1  0  0  0
 19 20  1  0  0  0
 19 24  1  0  0  0
 20 21  2  0  0  0
 20102  1  0  0  0
 21 23  1  0  0  0
 22 28  1  0  0  0
 22 32  2  0  0  0
 26 27  1  0  0  0
 28103  1  0  0  0
 28104  1  0  0  0
 29105  1  0  0  0
 29106  1  0  0  0
 33 34  1  0  0  0
 33 66  1  0  0  0
 33 70  2  0  0  0
 34 36  1  0  0  0
 34 59  1  0  0  0
 34107  1  0  0  0
 35 44  2  0  0  0
 35 45  1  0  0  0
 35 68  1  0  0  0
 36 56  1  0  0  0
 36108  1  0  0  0
 37 39  1  0  0  0
 37 47  1  0  0  0
 37 66  1  0  0  0
 37109  1  0  0  0
 38 43  2  0  0  0
 38 46  1  0  0  0
 38 47  1  0  0  0
 39 64  1  0  0  0
 39 67  2  0  0  0
 40 52  1  0  0  0
 40 53  2  0  0  0
 40 58  1  0  0  0
 41110  1  0  0  0
 41111  1  0  0  0
 41112  1  0  0  0
 41 48  1  0  0  0
 42 43  1  0  0  0
 42 66  1  0  0  0
 42113  1  0  0  0
 42114  1  0  0  0
 43 44  1  0  0  0
 44115  1  0  0  0
 45 46  2  0  0  0
 45116  1  0  0  0
 46117  1  0  0  0
 47118  1  0  0  0
 47119  1  0  0  0
 48 56  1  0  0  0
 48 65  1  0  0  0
 48120  1  0  0  0
 49 50  1  0  0  0
 49 53  1  0  0  0
 49 64  1  0  0  0
 49121  1  0  0  0
 50 51  1  0  0  0
 50122  1  0  0  0
 50123  1  0  0  0
 51 52  1  0  0  0
 51124  1  0  0  0
 51125  1  0  0  0
 52126  1  0  0  0
 52127  1  0  0  0
 53 54  1  0  0  0
 54 55  2  0  0  0
 54128  1  0  0  0
 55 57  1  0  0  0
 55129  1  0  0  0
 56 69  2  0  0  0
 57 58  2  0  0  0
 57130  1  0  0  0
 58131  1  0  0  0
 59 60  1  0  0  0
 59 61  1  0  0  0
 59 62  1  0  0  0
 60132  1  0  0  0
 60133  1  0  0  0
 60134  1  0  0  0
 61135  1  0  0  0
 61136  1  0  0  0
 61137  1  0  0  0
 62138  1  0  0  0
 62139  1  0  0  0
 62140  1  0  0  0
 63 65  1  0  0  0
 63141  1  0  0  0
 63142  1  0  0  0
 63143  1  0  0  0
 64144  1  0  0  0
 65145  1  0  0  0
 68 82  1  0  0  0
 71 73  2  0  0  0
 71 75  1  0  0  0
 71146  1  0  0  0
 72 74  2  0  0  0
 72 76  1  0  0  0
 72147  1  0  0  0
 73 74  1  0  0  0
 73 77  1  0  0  0
 74 79  1  0  0  0
 75 76  2  0  0  0
 75 84  1  0  0  0
 76 86  1  0  0  0
 77 78  2  0  0  0
 77148  1  0  0  0
 78 80  1  0  0  0
 78 81  1  0  0  0
 79149  1  0  0  0
 79150  1  0  0  0
 79151  1  0  0  0
 80152  1  0  0  0
 80153  1  0  0  0
 80154  1  0  0  0
 81 85  1  0  0  0
 81155  1  0  0  0
 81156  1  0  0  0
 82 83  1  0  0  0
 82157  1  0  0  0
 82158  1  0  0  0
 83 85  1  0  0  0
 83159  1  0  0  0
 83160  1  0  0  0
 84161  1  0  0  0
M  ISO  4   1 100  68 101  82 101  84 100
M  END
> <chiral flag>
0

> <version>
0

> <s_m_source_file>
/data/baiqing/PycharmProjects/Reinvent-master-3.2/result/LINK_invent/BTK/process_docking_weight1_custom_product_contain_oxygen_bond_distance_aromatic_linkinvent_7_9_3/rearranged_h_0039.sdf

> <i_m_source_file_index>
59

> <r_mmod_Potential_Energy-OPLS-2005>
28.5663204193115

> <r_mmod_Stretch_Energy-OPLS-2005>
38.6698112487793

> <r_mmod_Bend_Energy-OPLS-2005>
104.501594543457

> <r_mmod_Torsional_Energy-OPLS-2005>
287.098449707031

> <r_mmod_Improper_Torsional_Energy-OPLS-2005>
7.17842054367065

> <r_mmod_Van_der_Waal_Energy-OPLS-2005>
158.697067260742

> <r_mmod_Electrostatic_Energy-OPLS-2005>
-385.236572265625

> <r_mmod_Solvation_Energy-OPLS-2005>
-211.356582641602

> <b_mmod_Minimization_Converged-OPLS-2005>
0

> <r_mmod_RMS_Derivative-OPLS-2005>
6.36655950546265

$$$$
59
                    3D
 Structure written by MMmdl.
154162  0  0  1  0            999 V2000
  -30.5722  -14.8300   20.3804 C   0  0  0  0  0  0
  -30.4467  -12.4715   19.5277 C   0  0  0  0  0  0
  -29.5380  -12.4934   18.2871 C   0  0  0  0  0  0
  -28.0475  -12.3587   18.6918 C   0  0  0  0  0  0
  -27.6431  -13.2533   19.8837 C   0  0  2  0  0  0
  -28.6985  -13.1991   21.0135 C   0  0  0  0  0  0
  -25.2445  -13.8372   20.5643 C   0  0  0  0  0  0
  -24.1783  -13.0558   20.9200 C   0  0  0  0  0  0
  -24.6455  -11.7022   20.8854 C   0  0  0  0  0  0
  -23.9233  -10.4348   21.0468 C   0  0  0  0  0  0
  -24.3843   -9.4189   21.9051 C   0  0  0  0  0  0
  -23.6397   -8.2343   22.0696 C   0  0  0  0  0  0
  -22.4243   -8.0432   21.3680 C   0  0  0  0  0  0
  -21.9942   -9.0391   20.4744 C   0  0  0  0  0  0
  -22.7317  -10.2256   20.3291 C   0  0  0  0  0  0
  -21.6932   -6.0798   22.5418 C   0  0  0  0  0  0
  -21.4003   -6.5644   23.8386 C   0  0  0  0  0  0
  -21.3694   -5.6726   24.9276 C   0  0  0  0  0  0
  -21.6057   -4.3038   24.7236 C   0  0  0  0  0  0
  -21.8771   -3.8159   23.4360 C   0  0  0  0  0  0
  -21.9179   -4.7023   22.3438 C   0  0  0  0  0  0
  -22.7867  -13.5392   21.1943 C   0  0  0  0  0  0
  -22.1585   -4.2207   21.1019 F   0  0  0  0  0  0
  -21.5721   -3.4470   25.7764 F   0  0  0  0  0  0
  -29.9939  -13.5703   20.4237 N   0  0  0  0  0  0
  -26.2933  -12.9545   20.3441 N   0  0  0  0  0  0
  -25.9351  -11.6717   20.5852 N   0  0  0  0  0  0
  -22.0610  -12.8422   22.0611 N   0  0  0  0  0  0
  -25.4075  -15.2104   20.3978 N   0  0  0  0  0  0
  -31.7280  -14.9471   19.9730 O   0  0  0  0  0  0
  -21.6612   -6.8993   21.4376 O   0  0  0  0  0  0
  -22.3611  -14.5608   20.6710 O   0  0  0  0  0  0
  -24.6297  -31.8542   23.1875 C   0  0  0  0  0  0
  -25.9117  -32.4721   23.8232 C   0  0  1  0  0  0
  -27.2511  -27.2783   20.1508 C   0  0  0  0  0  0
  -25.5945  -33.8513   24.2210 N   0  0  0  0  0  0
  -23.4290  -30.4683   21.5339 C   0  0  2  0  0  0
  -24.8830  -28.8935   20.1272 C   0  0  0  0  0  0
  -22.7467  -29.4616   22.4919 C   0  0  0  0  0  0
  -18.0290  -28.1381   22.8484 C   0  0  0  0  0  0
  -24.1524  -36.7312   23.2630 C   0  0  0  0  0  0
  -25.9705  -30.7734   21.3511 C   0  0  0  0  0  0
  -26.0519  -29.3907   20.7175 C   0  0  0  0  0  0
  -27.2446  -28.6041   20.7027 C   0  0  0  0  0  0
  -26.0554  -26.8286   19.5529 C   0  0  0  0  0  0
  -24.8865  -27.6161   19.5415 C   0  0  0  0  0  0
  -23.6496  -29.7764   20.1592 C   0  0  0  0  0  0
  -25.4126  -36.3044   24.0307 C   0  0  1  0  0  0
  -20.5902  -28.3722   23.1259 C   0  0  2  0  0  0
  -20.6783  -26.9437   22.5385 C   0  0  0  0  0  0
  -19.5754  -26.6399   21.5189 C   0  0  0  0  0  0
  -18.1947  -26.7916   22.1613 C   0  0  0  0  0  0
  -19.1544  -28.8861   23.2883 C   0  0  0  0  0  0
  -18.9461  -30.1460   23.8911 C   0  0  0  0  0  0
  -17.6460  -30.6584   24.0573 C   0  0  0  0  0  0
  -25.9051  -34.9413   23.5049 C   0  0  0  0  0  0
  -16.5359  -29.9098   23.6321 C   0  0  0  0  0  0
  -16.7277  -28.6516   23.0347 C   0  0  0  0  0  0
  -26.4506  -31.6529   25.0598 C   0  0  0  0  0  0
  -25.3755  -31.3674   26.1339 C   0  0  0  0  0  0
  -27.0355  -30.2963   24.6036 C   0  0  0  0  0  0
  -27.6082  -32.4266   25.7395 C   0  0  0  0  0  0
  -27.5590  -37.1790   24.8455 C   0  0  0  0  0  0
  -21.4181  -29.3062   22.3637 N   0  0  0  0  0  0
  -26.4310  -37.3742   23.9378 N   0  0  0  0  0  0
  -24.6989  -31.0503   22.0825 N   0  0  0  0  0  0
  -23.4195  -28.8172   23.3013 O   0  0  0  0  0  0
  -28.3804  -26.4336   20.1479 O   0  0  0  0  0  0
  -26.5634  -34.8924   22.4621 O   0  0  0  0  0  0
  -23.5446  -32.1338   23.7230 O   0  0  0  0  0  0
  -28.4186  -16.9991   18.9668 C   0  0  0  0  0  0
  -28.9430  -19.7357   19.7074 C   0  0  0  0  0  0
  -29.6531  -18.5917   20.3085 C   0  0  0  0  0  0
  -29.3861  -17.1861   19.9772 C   0  0  0  0  0  0
  -27.6527  -18.0603   18.4423 C   0  0  0  0  0  0
  -27.8519  -19.3968   18.8546 C   0  0  0  0  0  0
  -29.4076  -21.2348   19.7719 C   0  0  0  0  0  0
  -30.6506  -18.8927   21.4020 C   0  0  0  0  0  0
  -28.7662  -23.7885   19.6743 C   0  0  0  0  0  0
  -28.2873  -25.0114   20.6128 C   0  0  0  0  0  0
  -29.8298  -15.9599   20.7329 N   0  0  0  0  0  0
  -28.5903  -22.3144   20.0863 N   0  0  0  0  0  0
  -30.5752  -21.4566   19.4289 O   0  0  0  0  0  0
  -26.4433  -17.6706   17.2672 Cl  0  0  0  0  0  0
  -26.7368  -20.6099   18.2956 Cl  0  0  0  0  0  0
  -31.4913  -12.5828   19.2536 H   0  0  0  0  0  0
  -30.3894  -11.5100   20.0519 H   0  0  0  0  0  0
  -29.8254  -11.6863   17.6134 H   0  0  0  0  0  0
  -29.7043  -13.4325   17.7634 H   0  0  0  0  0  0
  -27.8940  -11.3223   18.9713 H   0  0  0  0  0  0
  -27.4014  -12.5516   17.8273 H   0  0  0  0  0  0
  -27.6188  -14.2694   19.5133 H   0  0  0  0  0  0
  -28.7591  -12.2029   21.4452 H   0  0  0  0  0  0
  -28.4435  -13.8533   21.8540 H   0  0  0  0  0  0
  -25.3159   -9.5562   22.4433 H   0  0  0  0  0  0
  -24.0290   -7.4636   22.7335 H   0  0  0  0  0  0
  -21.1036   -8.8967   19.8818 H   0  0  0  0  0  0
  -22.4125  -10.9747   19.6251 H   0  0  0  0  0  0
  -21.1924   -7.6107   23.9920 H   0  0  0  0  0  0
  -21.1581   -6.0443   25.9256 H   0  0  0  0  0  0
  -22.0478   -2.7617   23.2882 H   0  0  0  0  0  0
  -22.4355  -12.0077   22.4771 H   0  0  0  0  0  0
  -21.1199  -13.1474   22.2694 H   0  0  0  0  0  0
  -24.6753  -15.8810   20.6118 H   0  0  0  0  0  0
  -26.2451  -15.6420   20.0335 H   0  0  0  0  0  0
  -26.7203  -32.5420   23.0990 H   0  0  0  0  0  0
  -25.0061  -33.9641   25.0351 H   0  0  0  0  0  0
  -22.7291  -31.2868   21.3664 H   0  0  0  0  0  0
  -23.3749  -35.9690   23.3262 H   0  0  0  0  0  0
  -24.3636  -36.8962   22.2054 H   0  0  0  0  0  0
  -23.7330  -37.6532   23.6672 H   0  0  0  0  0  0
  -26.0821  -31.5282   20.5707 H   0  0  0  0  0  0
  -26.8543  -30.8521   21.9744 H   0  0  0  0  0  0
  -28.1499  -28.9892   21.1578 H   0  0  0  0  0  0
  -26.0250  -25.8443   19.1104 H   0  0  0  0  0  0
  -23.9937  -27.2123   19.1035 H   0  0  0  0  0  0
  -23.7741  -30.5315   19.3804 H   0  0  0  0  0  0
  -22.7728  -29.1948   19.8666 H   0  0  0  0  0  0
  -25.1319  -36.1880   25.0806 H   0  0  0  0  0  0
  -21.0017  -28.3288   24.1379 H   0  0  0  0  0  0
  -20.5680  -26.2324   23.3592 H   0  0  0  0  0  0
  -21.6647  -26.7451   22.1175 H   0  0  0  0  0  0
  -19.6909  -25.6326   21.1211 H   0  0  0  0  0  0
  -19.6661  -27.3222   20.6737 H   0  0  0  0  0  0
  -17.4198  -26.6675   21.4043 H   0  0  0  0  0  0
  -18.0357  -26.0068   22.9025 H   0  0  0  0  0  0
  -19.7952  -30.7265   24.2292 H   0  0  0  0  0  0
  -17.5025  -31.6249   24.5177 H   0  0  0  0  0  0
  -15.5372  -30.2991   23.7620 H   0  0  0  0  0  0
  -15.8694  -28.0828   22.7040 H   0  0  0  0  0  0
  -24.5897  -30.7072   25.7635 H   0  0  0  0  0  0
  -24.8997  -32.2862   26.4793 H   0  0  0  0  0  0
  -25.8084  -30.8790   27.0081 H   0  0  0  0  0  0
  -26.2923  -29.6703   24.1079 H   0  0  0  0  0  0
  -27.4108  -29.7207   25.4507 H   0  0  0  0  0  0
  -27.8762  -30.4248   23.9206 H   0  0  0  0  0  0
  -27.2657  -33.3529   26.2023 H   0  0  0  0  0  0
  -28.3861  -32.6875   25.0205 H   0  0  0  0  0  0
  -28.0775  -31.8338   26.5262 H   0  0  0  0  0  0
  -28.2587  -38.0114   24.7494 H   0  0  0  0  0  0
  -28.1112  -36.2625   24.6288 H   0  0  0  0  0  0
  -27.2294  -37.1445   25.8863 H   0  0  0  0  0  0
  -20.9384  -29.8796   21.6859 H   0  0  0  0  0  0
  -26.0177  -38.2826   24.1369 H   0  0  0  0  0  0
  -28.1857  -16.0206   18.5954 H   0  0  0  0  0  0
  -31.6407  -19.1485   21.0051 H   0  0  0  0  0  0
  -30.7323  -18.0245   22.0515 H   0  0  0  0  0  0
  -30.2744  -19.7073   22.0207 H   0  0  0  0  0  0
  -29.8124  -23.9552   19.4333 H   0  0  0  0  0  0
  -28.2307  -23.8981   18.7331 H   0  0  0  0  0  0
  -28.9359  -24.9827   21.4928 H   0  0  0  0  0  0
  -27.2931  -24.8172   21.0112 H   0  0  0  0  0  0
  -29.1729  -15.7176   21.4585 H   0  0  0  0  0  0
  -27.6740  -22.0738   20.4418 H   0  0  0  0  0  0
  1 25  1  0  0  0
  1 30  2  0  0  0
  1 81  1  0  0  0
  2  3  1  0  0  0
  2 25  1  0  0  0
  2 86  1  0  0  0
  2 87  1  0  0  0
  3  4  1  0  0  0
  3 88  1  0  0  0
  3 89  1  0  0  0
  4  5  1  0  0  0
  4 90  1  0  0  0
  4 91  1  0  0  0
  5  6  1  0  0  0
  5 26  1  0  0  0
  5 92  1  0  0  0
  6 25  1  0  0  0
  6 93  1  0  0  0
  6 94  1  0  0  0
  7  8  2  0  0  0
  7 26  1  0  0  0
  7 29  1  0  0  0
  8  9  1  0  0  0
  8 22  1  0  0  0
  9 10  1  0  0  0
  9 27  2  0  0  0
 10 11  2  0  0  0
 10 15  1  0  0  0
 11 12  1  0  0  0
 11 95  1  0  0  0
 12 13  2  0  0  0
 12 96  1  0  0  0
 13 14  1  0  0  0
 13 31  1  0  0  0
 14 15  2  0  0  0
 14 97  1  0  0  0
 15 98  1  0  0  0
 16 17  2  0  0  0
 16 21  1  0  0  0
 16 31  1  0  0  0
 17 18  1  0  0  0
 17 99  1  0  0  0
 18 19  2  0  0  0
 18100  1  0  0  0
 19 20  1  0  0  0
 19 24  1  0  0  0
 20 21  2  0  0  0
 20101  1  0  0  0
 21 23  1  0  0  0
 22 28  1  0  0  0
 22 32  2  0  0  0
 26 27  1  0  0  0
 28102  1  0  0  0
 28103  1  0  0  0
 29104  1  0  0  0
 29105  1  0  0  0
 33 34  1  0  0  0
 33 66  1  0  0  0
 33 70  2  0  0  0
 34 36  1  0  0  0
 34 59  1  0  0  0
 34106  1  0  0  0
 35 44  2  0  0  0
 35 45  1  0  0  0
 35 68  1  0  0  0
 36 56  1  0  0  0
 36107  1  0  0  0
 37 39  1  0  0  0
 37 47  1  0  0  0
 37 66  1  0  0  0
 37108  1  0  0  0
 38 43  2  0  0  0
 38 46  1  0  0  0
 38 47  1  0  0  0
 39 64  1  0  0  0
 39 67  2  0  0  0
 40 52  1  0  0  0
 40 53  2  0  0  0
 40 58  1  0  0  0
 41109  1  0  0  0
 41110  1  0  0  0
 41111  1  0  0  0
 41 48  1  0  0  0
 42 43  1  0  0  0
 42 66  1  0  0  0
 42112  1  0  0  0
 42113  1  0  0  0
 43 44  1  0  0  0
 44114  1  0  0  0
 45 46  2  0  0  0
 45115  1  0  0  0
 46116  1  0  0  0
 47117  1  0  0  0
 47118  1  0  0  0
 48 56  1  0  0  0
 48 65  1  0  0  0
 48119  1  0  0  0
 49 50  1  0  0  0
 49 53  1  0  0  0
 49 64  1  0  0  0
 49120  1  0  0  0
 50 51  1  0  0  0
 50121  1  0  0  0
 50122  1  0  0  0
 51 52  1  0  0  0
 51123  1  0  0  0
 51124  1  0  0  0
 52125  1  0  0  0
 52126  1  0  0  0
 53 54  1  0  0  0
 54 55  2  0  0  0
 54127  1  0  0  0
 55 57  1  0  0  0
 55128  1  0  0  0
 56 69  2  0  0  0
 57 58  2  0  0  0
 57129  1  0  0  0
 58130  1  0  0  0
 59 60  1  0  0  0
 59 61  1  0  0  0
 59 62  1  0  0  0
 60131  1  0  0  0
 60132  1  0  0  0
 60133  1  0  0  0
 61134  1  0  0  0
 61135  1  0  0  0
 61136  1  0  0  0
 62137  1  0  0  0
 62138  1  0  0  0
 62139  1  0  0  0
 63 65  1  0  0  0
 63140  1  0  0  0
 63141  1  0  0  0
 63142  1  0  0  0
 64143  1  0  0  0
 65144  1  0  0  0
 68 80  1  0  0  0
 71 74  2  0  0  0
 71 75  1  0  0  0
 71145  1  0  0  0
 72 73  2  0  0  0
 72 76  1  0  0  0
 72 77  1  0  0  0
 73 74  1  0  0  0
 73 78  1  0  0  0
 74 81  1  0  0  0
 75 76  2  0  0  0
 75 84  1  0  0  0
 76 85  1  0  0  0
 77 82  1  0  0  0
 77 83  2  0  0  0
 78146  1  0  0  0
 78147  1  0  0  0
 78148  1  0  0  0
 79 80  1  0  0  0
 79 82  1  0  0  0
 79149  1  0  0  0
 79150  1  0  0  0
 80151  1  0  0  0
 80152  1  0  0  0
 81153  1  0  0  0
 82154  1  0  0  0
M  ISO  4   1 100  68 101  80 101  81 100
M  END
> <chiral flag>
0

> <version>
0

> <s_m_source_file>
/data/baiqing/PycharmProjects/Reinvent-master-3.2/result/LINK_invent/BTK/process_docking_weight1_custom_product_contain_oxygen_bond_distance_aromatic_linkinvent_7_9_3/rearranged_h_0039.sdf

> <i_m_source_file_index>
60

> <r_mmod_Potential_Energy-OPLS-2005>
237.475769042969

> <r_mmod_Stretch_Energy-OPLS-2005>
140.087890625

> <r_mmod_Bend_Energy-OPLS-2005>
188.207153320312

> <r_mmod_Torsional_Energy-OPLS-2005>
322.220153808594

> <r_mmod_Improper_Torsional_Energy-OPLS-2005>
8.16618824005127

> <r_mmod_Van_der_Waal_Energy-OPLS-2005>
133.776641845703

> <r_mmod_Electrostatic_Energy-OPLS-2005>
-422.51416015625

> <r_mmod_Solvation_Energy-OPLS-2005>
-237.529602050781

> <b_mmod_Minimization_Converged-OPLS-2005>
0

> <r_mmod_RMS_Derivative-OPLS-2005>
15.8425951004028

$$$$
61
                    3D
 Structure written by MMmdl.
172181  0  0  1  0            999 V2000
  -30.7028  -14.5088   20.5560 C   0  0  0  0  0  0
  -30.4245  -12.3325   19.4240 C   0  0  0  0  0  0
  -29.4845  -12.5195   18.2170 C   0  0  0  0  0  0
  -28.0109  -12.3716   18.6389 C   0  0  0  0  0  0
  -27.6614  -13.2209   19.8906 C   0  0  2  0  0  0
  -28.7120  -13.0082   21.0031 C   0  0  0  0  0  0
  -25.2545  -13.8229   20.5830 C   0  0  0  0  0  0
  -24.1817  -13.0476   20.9285 C   0  0  0  0  0  0
  -24.6377  -11.6961   20.8790 C   0  0  0  0  0  0
  -23.9020  -10.4334   21.0401 C   0  0  0  0  0  0
  -24.3584   -9.4249   21.9179 C   0  0  0  0  0  0
  -23.6273   -8.2286   22.0753 C   0  0  0  0  0  0
  -22.4261   -8.0309   21.3541 C   0  0  0  0  0  0
  -21.9900   -9.0286   20.4624 C   0  0  0  0  0  0
  -22.7202  -10.2178   20.3043 C   0  0  0  0  0  0
  -21.6804   -6.0708   22.5302 C   0  0  0  0  0  0
  -21.3966   -6.5617   23.8243 C   0  0  0  0  0  0
  -21.3700   -5.6783   24.9234 C   0  0  0  0  0  0
  -21.6091   -4.3050   24.7267 C   0  0  0  0  0  0
  -21.8766   -3.8124   23.4382 C   0  0  0  0  0  0
  -21.9163   -4.6930   22.3429 C   0  0  0  0  0  0
  -22.7796  -13.5231   21.1915 C   0  0  0  0  0  0
  -22.1584   -4.2125   21.0983 F   0  0  0  0  0  0
  -21.5720   -3.4523   25.7772 F   0  0  0  0  0  0
  -30.0343  -13.3251   20.4398 N   0  0  0  0  0  0
  -26.3032  -12.9443   20.3553 N   0  0  0  0  0  0
  -25.9320  -11.6576   20.5853 N   0  0  0  0  0  0
  -22.0365  -12.8315   22.0488 N   0  0  0  0  0  0
  -25.4096  -15.1994   20.4197 N   0  0  0  0  0  0
  -31.8359  -14.6714   20.0902 O   0  0  0  0  0  0
  -21.6632   -6.8895   21.4258 O   0  0  0  0  0  0
  -22.3485  -14.5467   20.6603 O   0  0  0  0  0  0
  -24.6141  -31.8660   23.2063 C   0  0  0  0  0  0
  -25.9033  -32.4818   23.8359 C   0  0  1  0  0  0
  -27.2702  -27.4334   20.1275 C   0  0  0  0  0  0
  -25.5892  -33.8608   24.2292 N   0  0  0  0  0  0
  -23.4035  -30.4833   21.5431 C   0  0  2  0  0  0
  -24.8660  -28.9423   20.1190 C   0  0  0  0  0  0
  -22.7393  -29.4648   22.4973 C   0  0  0  0  0  0
  -18.0262  -28.1339   22.8493 C   0  0  0  0  0  0
  -24.1488  -36.7330   23.2639 C   0  0  0  0  0  0
  -25.9288  -30.8341   21.3585 C   0  0  0  0  0  0
  -26.0173  -29.4607   20.7237 C   0  0  0  0  0  0
  -27.2214  -28.7171   20.7210 C   0  0  0  0  0  0
  -26.0989  -26.9245   19.5253 C   0  0  0  0  0  0
  -24.9017  -27.6715   19.5152 C   0  0  0  0  0  0
  -23.6179  -29.7993   20.1639 C   0  0  0  0  0  0
  -25.4109  -36.3096   24.0331 C   0  0  1  0  0  0
  -20.5861  -28.3630   23.1312 C   0  0  2  0  0  0
  -20.6748  -26.9362   22.5426 C   0  0  0  0  0  0
  -19.5733  -26.6348   21.5212 C   0  0  0  0  0  0
  -18.1906  -26.7884   22.1618 C   0  0  0  0  0  0
  -19.1513  -28.8796   23.2910 C   0  0  0  0  0  0
  -18.9440  -30.1406   23.8914 C   0  0  0  0  0  0
  -17.6437  -30.6555   24.0550 C   0  0  0  0  0  0
  -25.9033  -34.9470   23.5098 C   0  0  0  0  0  0
  -16.5333  -29.9055   23.6309 C   0  0  0  0  0  0
  -16.7248  -28.6465   23.0354 C   0  0  0  0  0  0
  -26.4483  -31.6585   25.0666 C   0  0  0  0  0  0
  -25.3791  -31.3675   26.1431 C   0  0  0  0  0  0
  -27.0289  -30.3008   24.6012 C   0  0  0  0  0  0
  -27.6018  -32.4331   25.7469 C   0  0  0  0  0  0
  -27.5580  -37.1820   24.8462 C   0  0  0  0  0  0
  -21.4124  -29.3019   22.3733 N   0  0  0  0  0  0
  -26.4298  -37.3781   23.9397 N   0  0  0  0  0  0
  -24.6656  -31.0771   22.0958 N   0  0  0  0  0  0
  -23.4173  -28.8203   23.3019 O   0  0  0  0  0  0
  -28.4577  -26.7303   20.0363 O   0  0  0  0  0  0
  -26.5595  -34.8919   22.4657 O   0  0  0  0  0  0
  -23.5341  -32.1412   23.7470 O   0  0  0  0  0  0
  -30.2137  -19.4920   20.7142 C   0  0  0  0  0  0
  -28.4747  -20.7680   21.8227 C   0  0  0  0  0  0
  -29.5813  -20.7440   20.9541 C   0  0  0  0  0  0
  -29.7458  -18.2802   21.3042 C   0  0  0  0  0  0
  -28.6371  -18.3463   22.2034 C   0  0  0  0  0  0
  -28.0175  -19.5972   22.4531 C   0  0  0  0  0  0
  -29.7034  -25.2783   23.3188 C   0  0  0  0  0  0
  -29.5170  -26.2459   22.1362 C   0  0  0  0  0  0
  -30.8231  -24.2197   23.2072 C   0  0  0  0  0  0
  -29.4059  -24.4925   20.1995 C   0  0  0  0  0  0
  -28.6963  -25.6555   20.9688 C   0  0  2  0  0  0
  -31.1056  -23.5621   21.8351 C   0  0  2  0  0  0
  -28.0803  -17.0899   22.8688 C   0  0  0  0  0  0
  -32.2603  -24.2781   21.0903 C   0  0  0  0  0  0
  -30.4764  -16.9694   20.9040 C   0  0  0  0  0  0
  -29.9839  -22.0332   20.2081 C   0  0  0  0  0  0
  -30.0126  -15.5654   21.0394 N   0  0  0  0  0  0
  -29.8786  -23.3073   21.0103 N   0  3  2  0  0  0
  -26.6490  -19.7474   23.5014 Cl  0  0  0  0  0  0
  -31.4652  -12.4382   19.1073 H   0  0  0  0  0  0
  -30.3402  -11.3191   19.8277 H   0  0  0  0  0  0
  -29.7281  -11.7907   17.4418 H   0  0  0  0  0  0
  -29.6330  -13.5057   17.7755 H   0  0  0  0  0  0
  -27.8330  -11.3168   18.8519 H   0  0  0  0  0  0
  -27.3544  -12.6324   17.8091 H   0  0  0  0  0  0
  -27.6992  -14.2702   19.5952 H   0  0  0  0  0  0
  -28.7143  -11.9674   21.3316 H   0  0  0  0  0  0
  -28.4922  -13.6029   21.8919 H   0  0  0  0  0  0
  -25.2729   -9.5771   22.4748 H   0  0  0  0  0  0
  -23.9966   -7.4676   22.7483 H   0  0  0  0  0  0
  -21.0845   -8.8801   19.8917 H   0  0  0  0  0  0
  -22.3660  -10.9698   19.6165 H   0  0  0  0  0  0
  -21.1862   -7.6117   23.9754 H   0  0  0  0  0  0
  -21.1606   -6.0510   25.9153 H   0  0  0  0  0  0
  -22.0508   -2.7570   23.2881 H   0  0  0  0  0  0
  -22.3807  -11.9971   22.4977 H   0  0  0  0  0  0
  -21.0950  -13.1426   22.2530 H   0  0  0  0  0  0
  -24.6256  -15.8340   20.5185 H   0  0  0  0  0  0
  -26.2453  -15.6563   20.0854 H   0  0  0  0  0  0
  -26.7103  -32.5516   23.1135 H   0  0  0  0  0  0
  -25.0033  -33.9757   25.0435 H   0  0  0  0  0  0
  -22.6913  -31.2986   21.3940 H   0  0  0  0  0  0
  -23.3728  -35.9688   23.3312 H   0  0  0  0  0  0
  -24.3580  -36.8936   22.2055 H   0  0  0  0  0  0
  -23.7288  -37.6553   23.6659 H   0  0  0  0  0  0
  -26.0252  -31.5904   20.5788 H   0  0  0  0  0  0
  -26.8239  -30.9062   21.9640 H   0  0  0  0  0  0
  -28.1115  -29.1305   21.1723 H   0  0  0  0  0  0
  -26.1177  -25.9560   19.0478 H   0  0  0  0  0  0
  -24.0223  -27.2677   19.0320 H   0  0  0  0  0  0
  -23.7084  -30.5616   19.3904 H   0  0  0  0  0  0
  -22.7479  -29.2028   19.8827 H   0  0  0  0  0  0
  -25.1306  -36.1950   25.0832 H   0  0  0  0  0  0
  -20.9952  -28.3179   24.1432 H   0  0  0  0  0  0
  -20.5598  -26.2237   23.3604 H   0  0  0  0  0  0
  -21.6611  -26.7357   22.1245 H   0  0  0  0  0  0
  -19.6881  -25.6267   21.1215 H   0  0  0  0  0  0
  -19.6675  -27.3171   20.6753 H   0  0  0  0  0  0
  -17.4185  -26.6652   21.4009 H   0  0  0  0  0  0
  -18.0291  -26.0001   22.8987 H   0  0  0  0  0  0
  -19.7927  -30.7214   24.2290 H   0  0  0  0  0  0
  -17.5002  -31.6238   24.5133 H   0  0  0  0  0  0
  -15.5341  -30.2963   23.7605 H   0  0  0  0  0  0
  -15.8653  -28.0774   22.7074 H   0  0  0  0  0  0
  -24.5912  -30.7078   25.7780 H   0  0  0  0  0  0
  -24.9065  -32.2828   26.4976 H   0  0  0  0  0  0
  -25.8181  -30.8758   27.0116 H   0  0  0  0  0  0
  -26.2770  -29.6770   24.1130 H   0  0  0  0  0  0
  -27.4118  -29.7224   25.4444 H   0  0  0  0  0  0
  -27.8607  -30.4279   23.9068 H   0  0  0  0  0  0
  -27.2536  -33.3557   26.2122 H   0  0  0  0  0  0
  -28.3815  -32.7028   25.0337 H   0  0  0  0  0  0
  -28.0712  -31.8432   26.5352 H   0  0  0  0  0  0
  -28.2604  -38.0107   24.7472 H   0  0  0  0  0  0
  -28.1053  -36.2632   24.6320 H   0  0  0  0  0  0
  -27.2274  -37.1517   25.8856 H   0  0  0  0  0  0
  -20.9260  -29.8748   21.6978 H   0  0  0  0  0  0
  -26.0172  -38.2854   24.1377 H   0  0  0  0  0  0
  -31.0432  -19.4435   20.0210 H   0  0  0  0  0  0
  -27.9351  -21.6870   21.9955 H   0  0  0  0  0  0
  -28.7539  -24.7831   23.5299 H   0  0  0  0  0  0
  -29.9131  -25.8780   24.2059 H   0  0  0  0  0  0
  -30.4706  -26.6539   21.7954 H   0  0  0  0  0  0
  -28.9673  -27.1031   22.5279 H   0  0  0  0  0  0
  -30.5905  -23.4311   23.9246 H   0  0  0  0  0  0
  -31.7572  -24.6512   23.5760 H   0  0  0  0  0  0
  -30.2199  -24.8822   19.5908 H   0  0  0  0  0  0
  -28.6689  -24.1419   19.4801 H   0  0  0  0  0  0
  -27.7406  -25.2910   21.3534 H   0  0  0  0  0  0
  -31.5002  -22.5742   22.0875 H   0  0  0  0  0  0
  -28.8624  -16.4728   23.3051 H   0  0  0  0  0  0
  -27.5360  -16.5098   22.1279 H   0  0  0  0  0  0
  -27.3907  -17.2896   23.6836 H   0  0  0  0  0  0
  -32.0526  -25.3307   20.8986 H   0  0  0  0  0  0
  -32.4947  -23.8002   20.1395 H   0  0  0  0  0  0
  -33.1722  -24.2340   21.6898 H   0  0  0  0  0  0
  -29.6108  -16.9413   20.2352 H   0  0  0  0  0  0
  -30.6489  -16.8638   21.9760 H   0  0  0  0  0  0
  -29.3137  -22.0629   19.3503 H   0  0  0  0  0  0
  -30.9843  -21.9335   19.7858 H   0  0  0  0  0  0
  -29.0769  -15.4033   21.3813 H   0  0  0  0  0  0
  -29.1389  -23.1009   21.6652 H   0  0  0  0  0  0
  1 25  1  0  0  0
  1 30  2  0  0  0
  1 87  1  0  0  0
  2  3  1  0  0  0
  2 25  1  0  0  0
  2 90  1  0  0  0
  2 91  1  0  0  0
  3  4  1  0  0  0
  3 92  1  0  0  0
  3 93  1  0  0  0
  4  5  1  0  0  0
  4 94  1  0  0  0
  4 95  1  0  0  0
  5  6  1  0  0  0
  5 26  1  0  0  0
  5 96  1  0  0  0
  6 25  1  0  0  0
  6 97  1  0  0  0
  6 98  1  0  0  0
  7  8  2  0  0  0
  7 26  1  0  0  0
  7 29  1  0  0  0
  8  9  1  0  0  0
  8 22  1  0  0  0
  9 10  1  0  0  0
  9 27  2  0  0  0
 10 11  2  0  0  0
 10 15  1  0  0  0
 11 12  1  0  0  0
 11 99  1  0  0  0
 12 13  2  0  0  0
 12100  1  0  0  0
 13 14  1  0  0  0
 13 31  1  0  0  0
 14 15  2  0  0  0
 14101  1  0  0  0
 15102  1  0  0  0
 16 17  2  0  0  0
 16 21  1  0  0  0
 16 31  1  0  0  0
 17 18  1  0  0  0
 17103  1  0  0  0
 18 19  2  0  0  0
 18104  1  0  0  0
 19 20  1  0  0  0
 19 24  1  0  0  0
 20 21  2  0  0  0
 20105  1  0  0  0
 21 23  1  0  0  0
 22 28  1  0  0  0
 22 32  2  0  0  0
 26 27  1  0  0  0
 28106  1  0  0  0
 28107  1  0  0  0
 29108  1  0  0  0
 29109  1  0  0  0
 33 34  1  0  0  0
 33 66  1  0  0  0
 33 70  2  0  0  0
 34 36  1  0  0  0
 34 59  1  0  0  0
 34110  1  0  0  0
 35 44  2  0  0  0
 35 45  1  0  0  0
 35 68  1  0  0  0
 36 56  1  0  0  0
 36111  1  0  0  0
 37 39  1  0  0  0
 37 47  1  0  0  0
 37 66  1  0  0  0
 37112  1  0  0  0
 38 43  2  0  0  0
 38 46  1  0  0  0
 38 47  1  0  0  0
 39 64  1  0  0  0
 39 67  2  0  0  0
 40 52  1  0  0  0
 40 53  2  0  0  0
 40 58  1  0  0  0
 41113  1  0  0  0
 41114  1  0  0  0
 41115  1  0  0  0
 41 48  1  0  0  0
 42 43  1  0  0  0
 42 66  1  0  0  0
 42116  1  0  0  0
 42117  1  0  0  0
 43 44  1  0  0  0
 44118  1  0  0  0
 45 46  2  0  0  0
 45119  1  0  0  0
 46120  1  0  0  0
 47121  1  0  0  0
 47122  1  0  0  0
 48 56  1  0  0  0
 48 65  1  0  0  0
 48123  1  0  0  0
 49 50  1  0  0  0
 49 53  1  0  0  0
 49 64  1  0  0  0
 49124  1  0  0  0
 50 51  1  0  0  0
 50125  1  0  0  0
 50126  1  0  0  0
 51 52  1  0  0  0
 51127  1  0  0  0
 51128  1  0  0  0
 52129  1  0  0  0
 52130  1  0  0  0
 53 54  1  0  0  0
 54 55  2  0  0  0
 54131  1  0  0  0
 55 57  1  0  0  0
 55132  1  0  0  0
 56 69  2  0  0  0
 57 58  2  0  0  0
 57133  1  0  0  0
 58134  1  0  0  0
 59 60  1  0  0  0
 59 61  1  0  0  0
 59 62  1  0  0  0
 60135  1  0  0  0
 60136  1  0  0  0
 60137  1  0  0  0
 61138  1  0  0  0
 61139  1  0  0  0
 61140  1  0  0  0
 62141  1  0  0  0
 62142  1  0  0  0
 62143  1  0  0  0
 63 65  1  0  0  0
 63144  1  0  0  0
 63145  1  0  0  0
 63146  1  0  0  0
 64147  1  0  0  0
 65148  1  0  0  0
 68 81  1  0  0  0
 71 73  2  0  0  0
 71 74  1  0  0  0
 71149  1  0  0  0
 72 73  1  0  0  0
 72 76  2  0  0  0
 72150  1  0  0  0
 73 86  1  0  0  0
 74 75  2  0  0  0
 74 85  1  0  0  0
 75 76  1  0  0  0
 75 83  1  0  0  0
 76 89  1  0  0  0
 77 78  1  0  0  0
 77 79  1  0  0  0
 77151  1  0  0  0
 77152  1  0  0  0
 78 81  1  0  0  0
 78153  1  0  0  0
 78154  1  0  0  0
 79 82  1  0  0  0
 79155  1  0  0  0
 79156  1  0  0  0
 80 81  1  0  0  0
 80 88  1  0  0  0
 80157  1  0  0  0
 80158  1  0  0  0
 81159  1  0  0  0
 82 84  1  0  0  0
 82 88  1  0  0  0
 82160  1  0  0  0
 83161  1  0  0  0
 83162  1  0  0  0
 83163  1  0  0  0
 84164  1  0  0  0
 84165  1  0  0  0
 84166  1  0  0  0
 85 87  1  0  0  0
 85167  1  0  0  0
 85168  1  0  0  0
 86169  1  0  0  0
 86170  1  0  0  0
 86 88  1  0  0  0
 87171  1  0  0  0
 88172  1  0  0  0
M  CHG  1  88   1
M  ISO  4   1 100  68 101  81 101  87 100
M  END
> <chiral flag>
0

> <version>
0

> <s_m_source_file>
/data/baiqing/PycharmProjects/Reinvent-master-3.2/result/LINK_invent/BTK/process_docking_weight1_custom_product_contain_oxygen_bond_distance_aromatic_linkinvent_7_9_3/rearranged_h_0039.sdf

> <i_m_source_file_index>
61

> <r_mmod_Potential_Energy-OPLS-2005>
122.265464782715

> <r_mmod_Stretch_Energy-OPLS-2005>
53.6570892333984

> <r_mmod_Bend_Energy-OPLS-2005>
335.466064453125

> <r_mmod_Torsional_Energy-OPLS-2005>
277.765502929688

> <r_mmod_Improper_Torsional_Energy-OPLS-2005>
4.90257549285889

> <r_mmod_Van_der_Waal_Energy-OPLS-2005>
148.37873840332

> <r_mmod_Electrostatic_Energy-OPLS-2005>
-298.358520507812

> <r_mmod_Solvation_Energy-OPLS-2005>
-413.927032470703

> <b_mmod_Minimization_Converged-OPLS-2005>
0

> <r_mmod_RMS_Derivative-OPLS-2005>
6.43733978271484

$$$$
62
                    3D
 Structure written by MMmdl.
164173  0  0  1  0            999 V2000
  -30.7455  -14.4409   20.6675 C   0  0  0  0  0  0
  -30.4092  -12.3159   19.4239 C   0  0  0  0  0  0
  -29.4838  -12.5049   18.2045 C   0  0  0  0  0  0
  -28.0114  -12.3583   18.6238 C   0  0  0  0  0  0
  -27.6581  -13.2086   19.8755 C   0  0  2  0  0  0
  -28.6927  -12.9986   21.0038 C   0  0  0  0  0  0
  -25.2561  -13.8179   20.5733 C   0  0  0  0  0  0
  -24.1831  -13.0436   20.9258 C   0  0  0  0  0  0
  -24.6391  -11.6895   20.8729 C   0  0  0  0  0  0
  -23.9058  -10.4280   21.0370 C   0  0  0  0  0  0
  -24.3635   -9.4199   21.9149 C   0  0  0  0  0  0
  -23.6320   -8.2238   22.0726 C   0  0  0  0  0  0
  -22.4276   -8.0303   21.3534 C   0  0  0  0  0  0
  -21.9915   -9.0265   20.4618 C   0  0  0  0  0  0
  -22.7245  -10.2144   20.3011 C   0  0  0  0  0  0
  -21.6869   -6.0740   22.5294 C   0  0  0  0  0  0
  -21.4003   -6.5641   23.8224 C   0  0  0  0  0  0
  -21.3668   -5.6793   24.9184 C   0  0  0  0  0  0
  -21.6024   -4.3051   24.7232 C   0  0  0  0  0  0
  -21.8809   -3.8137   23.4357 C   0  0  0  0  0  0
  -21.9208   -4.6960   22.3411 C   0  0  0  0  0  0
  -22.7837  -13.5224   21.1974 C   0  0  0  0  0  0
  -22.1685   -4.2134   21.0996 F   0  0  0  0  0  0
  -21.5616   -3.4557   25.7752 F   0  0  0  0  0  0
  -30.0286  -13.2983   20.4592 N   0  0  0  0  0  0
  -26.2995  -12.9362   20.3357 N   0  0  0  0  0  0
  -25.9308  -11.6494   20.5718 N   0  0  0  0  0  0
  -22.0517  -12.8170   22.0519 N   0  0  0  0  0  0
  -25.4139  -15.1926   20.4133 N   0  0  0  0  0  0
  -31.8406  -14.6426   20.1371 O   0  0  0  0  0  0
  -21.6639   -6.8903   21.4265 O   0  0  0  0  0  0
  -22.3510  -14.5550   20.6876 O   0  0  0  0  0  0
  -24.6200  -31.8675   23.2154 C   0  0  0  0  0  0
  -25.9073  -32.4838   23.8440 C   0  0  1  0  0  0
  -27.2144  -27.3696   20.1135 C   0  0  0  0  0  0
  -25.5900  -33.8642   24.2360 N   0  0  0  0  0  0
  -23.4156  -30.4941   21.5579 C   0  0  2  0  0  0
  -24.8611  -28.9731   20.1158 C   0  0  0  0  0  0
  -22.7476  -29.4635   22.5005 C   0  0  0  0  0  0
  -18.0311  -28.1364   22.8460 C   0  0  0  0  0  0
  -24.1491  -36.7304   23.2650 C   0  0  0  0  0  0
  -25.9563  -30.8080   21.3926 C   0  0  0  0  0  0
  -26.0287  -29.4415   20.7374 C   0  0  0  0  0  0
  -27.2031  -28.6441   20.7492 C   0  0  0  0  0  0
  -26.0543  -27.0040   19.3958 C   0  0  0  0  0  0
  -24.8752  -27.7544   19.4358 C   0  0  0  0  0  0
  -23.6295  -29.8425   20.1695 C   0  0  0  0  0  0
  -25.4118  -36.3152   24.0369 C   0  0  1  0  0  0
  -20.5880  -28.3633   23.1295 C   0  0  2  0  0  0
  -20.6790  -26.9381   22.5397 C   0  0  0  0  0  0
  -19.5781  -26.6356   21.5195 C   0  0  0  0  0  0
  -18.1963  -26.7906   22.1604 C   0  0  0  0  0  0
  -19.1547  -28.8821   23.2871 C   0  0  0  0  0  0
  -18.9454  -30.1420   23.8890 C   0  0  0  0  0  0
  -17.6451  -30.6555   24.0533 C   0  0  0  0  0  0
  -25.9045  -34.9497   23.5149 C   0  0  0  0  0  0
  -16.5349  -29.9032   23.6306 C   0  0  0  0  0  0
  -16.7288  -28.6453   23.0316 C   0  0  0  0  0  0
  -26.4472  -31.6618   25.0764 C   0  0  0  0  0  0
  -25.3717  -31.3708   26.1476 C   0  0  0  0  0  0
  -27.0284  -30.3052   24.6175 C   0  0  0  0  0  0
  -27.6078  -32.4303   25.7495 C   0  0  0  0  0  0
  -27.5587  -37.1817   24.8487 C   0  0  0  0  0  0
  -21.4206  -29.3008   22.3719 N   0  0  0  0  0  0
  -26.4314  -37.3820   23.9414 N   0  0  0  0  0  0
  -24.6837  -31.0696   22.1127 N   0  0  0  0  0  0
  -23.4207  -28.8206   23.3103 O   0  0  0  0  0  0
  -28.3042  -26.5031   20.1768 O   0  0  0  0  0  0
  -26.5599  -34.8936   22.4717 O   0  0  0  0  0  0
  -23.5356  -32.1491   23.7443 O   0  0  0  0  0  0
  -29.2504  -19.8611   22.8091 C   0  0  0  0  0  0
  -30.3412  -18.5101   20.6182 C   0  0  0  0  0  0
  -29.0134  -18.4721   22.6572 C   0  0  0  0  0  0
  -29.9955  -20.5940   21.8575 C   0  0  0  0  0  0
  -29.5402  -17.7825   21.5264 C   0  0  0  0  0  0
  -30.5567  -19.8956   20.7665 C   0  0  0  0  0  0
  -29.2106  -24.3252   21.1647 C   0  0  0  0  0  0
  -27.5340  -22.7342   19.4737 C   0  0  0  0  0  0
  -27.3421  -24.2512   19.4064 C   0  0  0  0  0  0
  -27.8365  -22.3115   20.9049 C   0  0  0  0  0  0
  -28.0031  -25.1006   20.5374 C   0  0  2  0  0  0
  -28.1459  -17.7928   23.7013 C   0  0  0  0  0  0
  -30.1316  -22.1264   21.9801 C   0  0  0  0  0  0
  -29.2140  -16.3168   21.1861 C   0  0  0  0  0  0
  -29.0786  -22.9725   21.3509 N   0  0  0  0  0  0
  -30.2581  -15.3453   21.5400 N   0  0  0  0  0  0
  -30.2309  -24.9465   21.4874 O   0  0  0  0  0  0
  -31.2694  -20.5648   19.8295 F   0  0  0  0  0  0
  -31.4575  -12.3950   19.1280 H   0  0  0  0  0  0
  -30.2967  -11.3018   19.8089 H   0  0  0  0  0  0
  -29.7197  -11.7642   17.4380 H   0  0  0  0  0  0
  -29.6496  -13.4826   17.7520 H   0  0  0  0  0  0
  -27.8355  -11.3005   18.8302 H   0  0  0  0  0  0
  -27.3505  -12.6169   17.7945 H   0  0  0  0  0  0
  -27.7008  -14.2547   19.5704 H   0  0  0  0  0  0
  -28.6729  -11.9658   21.3572 H   0  0  0  0  0  0
  -28.4427  -13.6094   21.8734 H   0  0  0  0  0  0
  -25.2775   -9.5680   22.4747 H   0  0  0  0  0  0
  -24.0042   -7.4608   22.7412 H   0  0  0  0  0  0
  -21.0847   -8.8747   19.8940 H   0  0  0  0  0  0
  -22.3664  -10.9684   19.6123 H   0  0  0  0  0  0
  -21.1965   -7.6136   23.9719 H   0  0  0  0  0  0
  -21.1520   -6.0523   25.9090 H   0  0  0  0  0  0
  -22.0577   -2.7589   23.2854 H   0  0  0  0  0  0
  -22.4234  -11.9843   22.4785 H   0  0  0  0  0  0
  -21.1071  -13.1026   22.2694 H   0  0  0  0  0  0
  -24.6348  -15.8266   20.5569 H   0  0  0  0  0  0
  -26.2363  -15.6588   20.0521 H   0  0  0  0  0  0
  -26.7137  -32.5552   23.1190 H   0  0  0  0  0  0
  -25.0032  -33.9826   25.0481 H   0  0  0  0  0  0
  -22.7103  -31.3147   21.4201 H   0  0  0  0  0  0
  -23.3763  -35.9625   23.3374 H   0  0  0  0  0  0
  -24.3588  -36.8837   22.2055 H   0  0  0  0  0  0
  -23.7208  -37.6527   23.6589 H   0  0  0  0  0  0
  -26.0859  -31.5729   20.6243 H   0  0  0  0  0  0
  -26.8384  -30.8500   22.0211 H   0  0  0  0  0  0
  -28.0888  -28.9834   21.2710 H   0  0  0  0  0  0
  -26.0312  -26.1698   18.7275 H   0  0  0  0  0  0
  -24.0069  -27.4099   18.8934 H   0  0  0  0  0  0
  -23.7538  -30.6257   19.4195 H   0  0  0  0  0  0
  -22.7520  -29.2720   19.8605 H   0  0  0  0  0  0
  -25.1283  -36.2054   25.0859 H   0  0  0  0  0  0
  -20.9958  -28.3202   24.1418 H   0  0  0  0  0  0
  -20.5715  -26.2250   23.3582 H   0  0  0  0  0  0
  -21.6663  -26.7422   22.1175 H   0  0  0  0  0  0
  -19.6941  -25.6277   21.1231 H   0  0  0  0  0  0
  -19.6741  -27.3196   20.6744 H   0  0  0  0  0  0
  -17.4232  -26.6609   21.4028 H   0  0  0  0  0  0
  -18.0362  -26.0038   22.8995 H   0  0  0  0  0  0
  -19.7930  -30.7210   24.2298 H   0  0  0  0  0  0
  -17.5013  -31.6255   24.5105 H   0  0  0  0  0  0
  -15.5336  -30.2904   23.7622 H   0  0  0  0  0  0
  -15.8730  -28.0747   22.6989 H   0  0  0  0  0  0
  -24.5924  -30.7024   25.7800 H   0  0  0  0  0  0
  -24.8843  -32.2831   26.4922 H   0  0  0  0  0  0
  -25.8032  -30.8885   27.0244 H   0  0  0  0  0  0
  -26.2835  -29.6832   24.1187 H   0  0  0  0  0  0
  -27.3995  -29.7281   25.4657 H   0  0  0  0  0  0
  -27.8724  -30.4390   23.9397 H   0  0  0  0  0  0
  -27.2770  -33.3608   26.2114 H   0  0  0  0  0  0
  -28.3844  -32.6824   25.0265 H   0  0  0  0  0  0
  -28.0787  -31.8378   26.5347 H   0  0  0  0  0  0
  -28.2662  -38.0062   24.7484 H   0  0  0  0  0  0
  -28.1021  -36.2585   24.6375 H   0  0  0  0  0  0
  -27.2295  -37.1568   25.8893 H   0  0  0  0  0  0
  -20.9392  -29.8744   21.6945 H   0  0  0  0  0  0
  -26.0224  -38.2927   24.1331 H   0  0  0  0  0  0
  -28.8173  -20.3895   23.6474 H   0  0  0  0  0  0
  -30.7512  -18.0066   19.7559 H   0  0  0  0  0  0
  -28.3435  -22.4198   18.8140 H   0  0  0  0  0  0
  -26.6364  -22.2271   19.1136 H   0  0  0  0  0  0
  -26.2628  -24.3582   19.5029 H   0  0  0  0  0  0
  -27.6499  -24.6071   18.4222 H   0  0  0  0  0  0
  -27.8611  -21.2261   20.9032 H   0  0  0  0  0  0
  -27.0242  -22.5857   21.5829 H   0  0  0  0  0  0
  -27.2853  -25.1482   21.3610 H   0  0  0  0  0  0
  -28.3352  -18.2120   24.6937 H   0  0  0  0  0  0
  -28.3345  -16.7211   23.7608 H   0  0  0  0  0  0
  -27.0903  -17.9535   23.4701 H   0  0  0  0  0  0
  -31.1075  -22.4067   21.5820 H   0  0  0  0  0  0
  -30.1728  -22.3729   23.0428 H   0  0  0  0  0  0
  -29.0392  -16.2834   20.1065 H   0  0  0  0  0  0
  -28.2627  -16.0187   21.6277 H   0  0  0  0  0  0
  -31.0110  -15.8216   22.0104 H   0  0  0  0  0  0
  1 25  1  0  0  0
  1 30  2  0  0  0
  1 86  1  0  0  0
  2  3  1  0  0  0
  2 25  1  0  0  0
  2 89  1  0  0  0
  2 90  1  0  0  0
  3  4  1  0  0  0
  3 91  1  0  0  0
  3 92  1  0  0  0
  4  5  1  0  0  0
  4 93  1  0  0  0
  4 94  1  0  0  0
  5  6  1  0  0  0
  5 26  1  0  0  0
  5 95  1  0  0  0
  6 25  1  0  0  0
  6 96  1  0  0  0
  6 97  1  0  0  0
  7  8  2  0  0  0
  7 26  1  0  0  0
  7 29  1  0  0  0
  8  9  1  0  0  0
  8 22  1  0  0  0
  9 10  1  0  0  0
  9 27  2  0  0  0
 10 11  2  0  0  0
 10 15  1  0  0  0
 11 12  1  0  0  0
 11 98  1  0  0  0
 12 13  2  0  0  0
 12 99  1  0  0  0
 13 14  1  0  0  0
 13 31  1  0  0  0
 14 15  2  0  0  0
 14100  1  0  0  0
 15101  1  0  0  0
 16 17  2  0  0  0
 16 21  1  0  0  0
 16 31  1  0  0  0
 17 18  1  0  0  0
 17102  1  0  0  0
 18 19  2  0  0  0
 18103  1  0  0  0
 19 20  1  0  0  0
 19 24  1  0  0  0
 20 21  2  0  0  0
 20104  1  0  0  0
 21 23  1  0  0  0
 22 28  1  0  0  0
 22 32  2  0  0  0
 26 27  1  0  0  0
 28105  1  0  0  0
 28106  1  0  0  0
 29107  1  0  0  0
 29108  1  0  0  0
 33 34  1  0  0  0
 33 66  1  0  0  0
 33 70  2  0  0  0
 34 36  1  0  0  0
 34 59  1  0  0  0
 34109  1  0  0  0
 35 44  2  0  0  0
 35 45  1  0  0  0
 35 68  1  0  0  0
 36 56  1  0  0  0
 36110  1  0  0  0
 37 39  1  0  0  0
 37 47  1  0  0  0
 37 66  1  0  0  0
 37111  1  0  0  0
 38 43  2  0  0  0
 38 46  1  0  0  0
 38 47  1  0  0  0
 39 64  1  0  0  0
 39 67  2  0  0  0
 40 52  1  0  0  0
 40 53  2  0  0  0
 40 58  1  0  0  0
 41112  1  0  0  0
 41113  1  0  0  0
 41114  1  0  0  0
 41 48  1  0  0  0
 42 43  1  0  0  0
 42 66  1  0  0  0
 42115  1  0  0  0
 42116  1  0  0  0
 43 44  1  0  0  0
 44117  1  0  0  0
 45 46  2  0  0  0
 45118  1  0  0  0
 46119  1  0  0  0
 47120  1  0  0  0
 47121  1  0  0  0
 48 56  1  0  0  0
 48 65  1  0  0  0
 48122  1  0  0  0
 49 50  1  0  0  0
 49 53  1  0  0  0
 49 64  1  0  0  0
 49123  1  0  0  0
 50 51  1  0  0  0
 50124  1  0  0  0
 50125  1  0  0  0
 51 52  1  0  0  0
 51126  1  0  0  0
 51127  1  0  0  0
 52128  1  0  0  0
 52129  1  0  0  0
 53 54  1  0  0  0
 54 55  2  0  0  0
 54130  1  0  0  0
 55 57  1  0  0  0
 55131  1  0  0  0
 56 69  2  0  0  0
 57 58  2  0  0  0
 57132  1  0  0  0
 58133  1  0  0  0
 59 60  1  0  0  0
 59 61  1  0  0  0
 59 62  1  0  0  0
 60134  1  0  0  0
 60135  1  0  0  0
 60136  1  0  0  0
 61137  1  0  0  0
 61138  1  0  0  0
 61139  1  0  0  0
 62140  1  0  0  0
 62141  1  0  0  0
 62142  1  0  0  0
 63 65  1  0  0  0
 63143  1  0  0  0
 63144  1  0  0  0
 63145  1  0  0  0
 64146  1  0  0  0
 65147  1  0  0  0
 68 81  1  0  0  0
 71 73  2  0  0  0
 71 74  1  0  0  0
 71148  1  0  0  0
 72 75  2  0  0  0
 72 76  1  0  0  0
 72149  1  0  0  0
 73 75  1  0  0  0
 73 82  1  0  0  0
 74 76  2  0  0  0
 74 83  1  0  0  0
 75 84  1  0  0  0
 76 88  1  0  0  0
 77 81  1  0  0  0
 77 85  1  0  0  0
 77 87  2  0  0  0
 78 79  1  0  0  0
 78 80  1  0  0  0
 78150  1  0  0  0
 78151  1  0  0  0
 79 81  1  0  0  0
 79152  1  0  0  0
 79153  1  0  0  0
 80 85  1  0  0  0
 80154  1  0  0  0
 80155  1  0  0  0
 81156  1  0  0  0
 82157  1  0  0  0
 82158  1  0  0  0
 82159  1  0  0  0
 83 85  1  0  0  0
 83160  1  0  0  0
 83161  1  0  0  0
 84 86  1  0  0  0
 84162  1  0  0  0
 84163  1  0  0  0
 86164  1  0  0  0
M  ISO  4   1 100  68 101  81 101  86 100
M  END
> <chiral flag>
0

> <version>
0

> <s_m_source_file>
/data/baiqing/PycharmProjects/Reinvent-master-3.2/result/LINK_invent/BTK/process_docking_weight1_custom_product_contain_oxygen_bond_distance_aromatic_linkinvent_7_9_3/rearranged_h_0039.sdf

> <i_m_source_file_index>
62

> <r_mmod_Potential_Energy-OPLS-2005>
84.4231033325195

> <r_mmod_Stretch_Energy-OPLS-2005>
56.414623260498

> <r_mmod_Bend_Energy-OPLS-2005>
123.206047058105

> <r_mmod_Torsional_Energy-OPLS-2005>
311.051635742188

> <r_mmod_Improper_Torsional_Energy-OPLS-2005>
7.21849203109741

> <r_mmod_Van_der_Waal_Energy-OPLS-2005>
174.95768737793

> <r_mmod_Electrostatic_Energy-OPLS-2005>
-387.966705322266

> <r_mmod_Solvation_Energy-OPLS-2005>
-226.781036376953

> <b_mmod_Minimization_Converged-OPLS-2005>
0

> <r_mmod_RMS_Derivative-OPLS-2005>
5.69519948959351

$$$$
63
                    3D
 Structure written by MMmdl.
164173  0  0  1  0            999 V2000
  -30.6027  -14.7173   20.4208 C   0  0  0  0  0  0
  -30.4205  -12.4260   19.4524 C   0  0  0  0  0  0
  -29.4956  -12.5136   18.2185 C   0  0  0  0  0  0
  -28.0195  -12.3556   18.6350 C   0  0  0  0  0  0
  -27.6384  -13.2372   19.8557 C   0  0  2  0  0  0
  -28.6925  -13.1455   20.9810 C   0  0  0  0  0  0
  -25.2487  -13.8188   20.5753 C   0  0  0  0  0  0
  -24.1787  -13.0442   20.9208 C   0  0  0  0  0  0
  -24.6386  -11.6919   20.8770 C   0  0  0  0  0  0
  -23.9059  -10.4321   21.0424 C   0  0  0  0  0  0
  -24.3636   -9.4250   21.9188 C   0  0  0  0  0  0
  -23.6296   -8.2297   22.0785 C   0  0  0  0  0  0
  -22.4264   -8.0322   21.3597 C   0  0  0  0  0  0
  -21.9898   -9.0280   20.4677 C   0  0  0  0  0  0
  -22.7240  -10.2148   20.3056 C   0  0  0  0  0  0
  -21.6876   -6.0748   22.5313 C   0  0  0  0  0  0
  -21.4041   -6.5667   23.8235 C   0  0  0  0  0  0
  -21.3654   -5.6810   24.9175 C   0  0  0  0  0  0
  -21.6027   -4.3066   24.7242 C   0  0  0  0  0  0
  -21.8830   -3.8152   23.4360 C   0  0  0  0  0  0
  -21.9197   -4.6965   22.3412 C   0  0  0  0  0  0
  -22.7811  -13.5228   21.1839 C   0  0  0  0  0  0
  -22.1654   -4.2157   21.0974 F   0  0  0  0  0  0
  -21.5580   -3.4580   25.7761 F   0  0  0  0  0  0
  -29.9886  -13.4869   20.3894 N   0  0  0  0  0  0
  -26.2936  -12.9427   20.3337 N   0  0  0  0  0  0
  -25.9309  -11.6558   20.5723 N   0  0  0  0  0  0
  -22.0438  -12.8236   22.0364 N   0  0  0  0  0  0
  -25.4059  -15.1931   20.4249 N   0  0  0  0  0  0
  -31.7998  -14.8116   20.1362 O   0  0  0  0  0  0
  -21.6646   -6.8898   21.4281 O   0  0  0  0  0  0
  -22.3513  -14.5545   20.6676 O   0  0  0  0  0  0
  -24.6273  -31.8551   23.1979 C   0  0  0  0  0  0
  -25.9117  -32.4769   23.8316 C   0  0  1  0  0  0
  -27.2322  -27.2928   20.1238 C   0  0  0  0  0  0
  -25.5907  -33.8577   24.2226 N   0  0  0  0  0  0
  -23.4231  -30.4719   21.5388 C   0  0  2  0  0  0
  -24.8707  -28.9169   20.1033 C   0  0  0  0  0  0
  -22.7486  -29.4564   22.4926 C   0  0  0  0  0  0
  -18.0278  -28.1411   22.8485 C   0  0  0  0  0  0
  -24.1467  -36.7278   23.2644 C   0  0  0  0  0  0
  -25.9607  -30.7775   21.3679 C   0  0  0  0  0  0
  -26.0332  -29.4009   20.7134 C   0  0  0  0  0  0
  -27.2089  -28.5957   20.7171 C   0  0  0  0  0  0
  -26.0486  -26.8558   19.4965 C   0  0  0  0  0  0
  -24.8784  -27.6509   19.4875 C   0  0  0  0  0  0
  -23.6394  -29.8030   20.1531 C   0  0  0  0  0  0
  -25.4097  -36.3069   24.0324 C   0  0  1  0  0  0
  -20.5866  -28.3688   23.1308 C   0  0  2  0  0  0
  -20.6764  -26.9417   22.5420 C   0  0  0  0  0  0
  -19.5735  -26.6397   21.5228 C   0  0  0  0  0  0
  -18.1918  -26.7952   22.1629 C   0  0  0  0  0  0
  -19.1528  -28.8866   23.2897 C   0  0  0  0  0  0
  -18.9462  -30.1473   23.8910 C   0  0  0  0  0  0
  -17.6465  -30.6620   24.0569 C   0  0  0  0  0  0
  -25.9052  -34.9451   23.5069 C   0  0  0  0  0  0
  -16.5350  -29.9123   23.6346 C   0  0  0  0  0  0
  -16.7267  -28.6539   23.0366 C   0  0  0  0  0  0
  -26.4500  -31.6608   25.0714 C   0  0  0  0  0  0
  -25.3739  -31.3778   26.1458 C   0  0  0  0  0  0
  -27.0393  -30.3047   24.6198 C   0  0  0  0  0  0
  -27.6022  -32.4393   25.7503 C   0  0  0  0  0  0
  -27.5558  -37.1783   24.8459 C   0  0  0  0  0  0
  -21.4194  -29.3025   22.3703 N   0  0  0  0  0  0
  -26.4254  -37.3774   23.9438 N   0  0  0  0  0  0
  -24.6903  -31.0534   22.0932 N   0  0  0  0  0  0
  -23.4192  -28.8130   23.3044 O   0  0  0  0  0  0
  -28.3732  -26.4820   20.2611 O   0  0  0  0  0  0
  -26.5627  -34.8913   22.4640 O   0  0  0  0  0  0
  -23.5433  -32.1377   23.7278 O   0  0  0  0  0  0
  -28.4739  -18.5340   21.4815 C   0  0  0  0  0  0
  -28.0916  -20.9590   21.3995 C   0  0  0  0  0  0
  -29.3809  -18.5992   20.4094 C   0  0  0  0  0  0
  -29.5685  -19.9173   19.7837 C   0  0  0  0  0  0
  -28.9624  -21.1743   20.2962 C   0  0  0  0  0  0
  -27.8330  -19.6906   21.9571 C   0  0  0  0  0  0
  -28.3846  -23.7720   20.0865 C   0  0  0  0  0  0
  -29.7819  -24.7269   17.2337 C   0  0  0  0  0  0
  -30.0796  -23.2495   17.5576 C   0  0  0  0  0  0
  -28.6051  -25.3488   18.0053 C   0  0  0  0  0  0
  -30.3964  -22.9305   19.0467 C   0  0  0  0  0  0
  -28.7644  -25.2410   19.5271 C   0  0  1  0  0  0
  -30.3978  -19.9020   18.5039 C   0  0  0  0  0  0
  -30.1725  -17.2582   20.0204 C   0  0  0  0  0  0
  -29.1799  -22.6234   19.8290 N   0  0  0  0  0  0
  -29.8062  -15.8509   20.5000 N   0  0  0  0  0  0
  -27.3225  -23.7208   20.7133 O   0  0  0  0  0  0
  -26.7311  -19.5527   23.2803 Cl  0  0  0  0  0  0
  -31.4634  -12.5376   19.1490 H   0  0  0  0  0  0
  -30.3402  -11.4372   19.9110 H   0  0  0  0  0  0
  -29.7588  -11.7486   17.4877 H   0  0  0  0  0  0
  -29.6352  -13.4756   17.7186 H   0  0  0  0  0  0
  -27.8518  -11.3031   18.8678 H   0  0  0  0  0  0
  -27.3717  -12.5825   17.7883 H   0  0  0  0  0  0
  -27.6303  -14.2655   19.4958 H   0  0  0  0  0  0
  -28.7230  -12.1424   21.4091 H   0  0  0  0  0  0
  -28.4536  -13.8230   21.8001 H   0  0  0  0  0  0
  -25.2826   -9.5758   22.4698 H   0  0  0  0  0  0
  -24.0052   -7.4689   22.7482 H   0  0  0  0  0  0
  -21.0835   -8.8774   19.8981 H   0  0  0  0  0  0
  -22.3689  -10.9660   19.6140 H   0  0  0  0  0  0
  -21.2064   -7.6178   23.9778 H   0  0  0  0  0  0
  -21.1433   -6.0509   25.9078 H   0  0  0  0  0  0
  -22.0601   -2.7622   23.2838 H   0  0  0  0  0  0
  -22.4097  -11.9911   22.4782 H   0  0  0  0  0  0
  -21.1073  -13.1311   22.2573 H   0  0  0  0  0  0
  -24.6254  -15.8303   20.5476 H   0  0  0  0  0  0
  -26.2511  -15.6542   20.1241 H   0  0  0  0  0  0
  -26.7179  -32.5427   23.1061 H   0  0  0  0  0  0
  -25.0099  -33.9726   25.0397 H   0  0  0  0  0  0
  -22.7174  -31.2942   21.3951 H   0  0  0  0  0  0
  -23.3744  -35.9588   23.3260 H   0  0  0  0  0  0
  -24.3555  -36.8959   22.2066 H   0  0  0  0  0  0
  -23.7201  -37.6447   23.6713 H   0  0  0  0  0  0
  -26.0855  -31.5361   20.5929 H   0  0  0  0  0  0
  -26.8429  -30.8353   21.9928 H   0  0  0  0  0  0
  -28.0992  -28.9559   21.2103 H   0  0  0  0  0  0
  -26.0053  -25.8728   19.0517 H   0  0  0  0  0  0
  -23.9827  -27.2702   19.0176 H   0  0  0  0  0  0
  -23.7627  -30.5837   19.4006 H   0  0  0  0  0  0
  -22.7571  -29.2384   19.8470 H   0  0  0  0  0  0
  -25.1269  -36.1881   25.0813 H   0  0  0  0  0  0
  -20.9959  -28.3254   24.1422 H   0  0  0  0  0  0
  -20.5686  -26.2302   23.3635 H   0  0  0  0  0  0
  -21.6651  -26.7482   22.1197 H   0  0  0  0  0  0
  -19.6910  -25.6310   21.1278 H   0  0  0  0  0  0
  -19.6682  -27.3211   20.6768 H   0  0  0  0  0  0
  -17.4198  -26.6718   21.4021 H   0  0  0  0  0  0
  -18.0282  -26.0100   22.9021 H   0  0  0  0  0  0
  -19.7938  -30.7294   24.2272 H   0  0  0  0  0  0
  -17.5026  -31.6301   24.5183 H   0  0  0  0  0  0
  -15.5355  -30.3040   23.7689 H   0  0  0  0  0  0
  -15.8654  -28.0893   22.7064 H   0  0  0  0  0  0
  -24.5872  -30.7170   25.7788 H   0  0  0  0  0  0
  -24.9004  -32.2987   26.4885 H   0  0  0  0  0  0
  -25.8059  -30.8948   27.0236 H   0  0  0  0  0  0
  -26.3006  -29.6777   24.1206 H   0  0  0  0  0  0
  -27.4093  -29.7319   25.4702 H   0  0  0  0  0  0
  -27.8832  -30.4359   23.9432 H   0  0  0  0  0  0
  -27.2584  -33.3697   26.2040 H   0  0  0  0  0  0
  -28.3854  -32.6979   25.0361 H   0  0  0  0  0  0
  -28.0680  -31.8587   26.5480 H   0  0  0  0  0  0
  -28.2532  -38.0120   24.7564 H   0  0  0  0  0  0
  -28.1087  -36.2656   24.6184 H   0  0  0  0  0  0
  -27.2301  -37.1314   25.8864 H   0  0  0  0  0  0
  -20.9376  -29.8744   21.6906 H   0  0  0  0  0  0
  -26.0108  -38.2814   24.1510 H   0  0  0  0  0  0
  -28.2792  -17.5896   21.9670 H   0  0  0  0  0  0
  -27.5853  -21.7747   21.8858 H   0  0  0  0  0  0
  -29.5576  -24.8168   16.1692 H   0  0  0  0  0  0
  -30.6846  -25.3143   17.3951 H   0  0  0  0  0  0
  -30.9424  -22.9470   16.9615 H   0  0  0  0  0  0
  -29.2504  -22.6376   17.2004 H   0  0  0  0  0  0
  -27.6718  -24.8899   17.6891 H   0  0  0  0  0  0
  -28.5289  -26.3980   17.7222 H   0  0  0  0  0  0
  -30.9870  -23.7228   19.5017 H   0  0  0  0  0  0
  -31.1267  -22.1359   19.1274 H   0  0  0  0  0  0
  -29.8251  -25.3703   19.7191 H   0  0  0  0  0  0
  -30.2778  -18.9920   17.9234 H   0  0  0  0  0  0
  -31.4616  -20.0172   18.7189 H   0  0  0  0  0  0
  -30.0632  -20.6656   17.8126 H   0  0  0  0  0  0
  -31.2072  -17.4393   20.3158 H   0  0  0  0  0  0
  -30.2066  -17.1694   18.9364 H   0  0  0  0  0  0
  -28.8257  -15.6745   20.6567 H   0  0  0  0  0  0
  1 25  1  0  0  0
  1 30  2  0  0  0
  1 86  1  0  0  0
  2  3  1  0  0  0
  2 25  1  0  0  0
  2 89  1  0  0  0
  2 90  1  0  0  0
  3  4  1  0  0  0
  3 91  1  0  0  0
  3 92  1  0  0  0
  4  5  1  0  0  0
  4 93  1  0  0  0
  4 94  1  0  0  0
  5  6  1  0  0  0
  5 26  1  0  0  0
  5 95  1  0  0  0
  6 25  1  0  0  0
  6 96  1  0  0  0
  6 97  1  0  0  0
  7  8  2  0  0  0
  7 26  1  0  0  0
  7 29  1  0  0  0
  8  9  1  0  0  0
  8 22  1  0  0  0
  9 10  1  0  0  0
  9 27  2  0  0  0
 10 11  2  0  0  0
 10 15  1  0  0  0
 11 12  1  0  0  0
 11 98  1  0  0  0
 12 13  2  0  0  0
 12 99  1  0  0  0
 13 14  1  0  0  0
 13 31  1  0  0  0
 14 15  2  0  0  0
 14100  1  0  0  0
 15101  1  0  0  0
 16 17  2  0  0  0
 16 21  1  0  0  0
 16 31  1  0  0  0
 17 18  1  0  0  0
 17102  1  0  0  0
 18 19  2  0  0  0
 18103  1  0  0  0
 19 20  1  0  0  0
 19 24  1  0  0  0
 20 21  2  0  0  0
 20104  1  0  0  0
 21 23  1  0  0  0
 22 28  1  0  0  0
 22 32  2  0  0  0
 26 27  1  0  0  0
 28105  1  0  0  0
 28106  1  0  0  0
 29107  1  0  0  0
 29108  1  0  0  0
 33 34  1  0  0  0
 33 66  1  0  0  0
 33 70  2  0  0  0
 34 36  1  0  0  0
 34 59  1  0  0  0
 34109  1  0  0  0
 35 44  2  0  0  0
 35 45  1  0  0  0
 35 68  1  0  0  0
 36 56  1  0  0  0
 36110  1  0  0  0
 37 39  1  0  0  0
 37 47  1  0  0  0
 37 66  1  0  0  0
 37111  1  0  0  0
 38 43  2  0  0  0
 38 46  1  0  0  0
 38 47  1  0  0  0
 39 64  1  0  0  0
 39 67  2  0  0  0
 40 52  1  0  0  0
 40 53  2  0  0  0
 40 58  1  0  0  0
 41112  1  0  0  0
 41113  1  0  0  0
 41114  1  0  0  0
 41 48  1  0  0  0
 42 43  1  0  0  0
 42 66  1  0  0  0
 42115  1  0  0  0
 42116  1  0  0  0
 43 44  1  0  0  0
 44117  1  0  0  0
 45 46  2  0  0  0
 45118  1  0  0  0
 46119  1  0  0  0
 47120  1  0  0  0
 47121  1  0  0  0
 48 56  1  0  0  0
 48 65  1  0  0  0
 48122  1  0  0  0
 49 50  1  0  0  0
 49 53  1  0  0  0
 49 64  1  0  0  0
 49123  1  0  0  0
 50 51  1  0  0  0
 50124  1  0  0  0
 50125  1  0  0  0
 51 52  1  0  0  0
 51126  1  0  0  0
 51127  1  0  0  0
 52128  1  0  0  0
 52129  1  0  0  0
 53 54  1  0  0  0
 54 55  2  0  0  0
 54130  1  0  0  0
 55 57  1  0  0  0
 55131  1  0  0  0
 56 69  2  0  0  0
 57 58  2  0  0  0
 57132  1  0  0  0
 58133  1  0  0  0
 59 60  1  0  0  0
 59 61  1  0  0  0
 59 62  1  0  0  0
 60134  1  0  0  0
 60135  1  0  0  0
 60136  1  0  0  0
 61137  1  0  0  0
 61138  1  0  0  0
 61139  1  0  0  0
 62140  1  0  0  0
 62141  1  0  0  0
 62142  1  0  0  0
 63 65  1  0  0  0
 63143  1  0  0  0
 63144  1  0  0  0
 63145  1  0  0  0
 64146  1  0  0  0
 65147  1  0  0  0
 68 82  1  0  0  0
 71 73  2  0  0  0
 71 76  1  0  0  0
 71148  1  0  0  0
 72 75  1  0  0  0
 72 76  2  0  0  0
 72149  1  0  0  0
 73 74  1  0  0  0
 73 84  1  0  0  0
 74 75  2  0  0  0
 74 83  1  0  0  0
 75 85  1  0  0  0
 76 88  1  0  0  0
 77 82  1  0  0  0
 77 85  1  0  0  0
 77 87  2  0  0  0
 78 79  1  0  0  0
 78 80  1  0  0  0
 78150  1  0  0  0
 78151  1  0  0  0
 79 81  1  0  0  0
 79152  1  0  0  0
 79153  1  0  0  0
 80 82  1  0  0  0
 80154  1  0  0  0
 80155  1  0  0  0
 81 85  1  0  0  0
 81156  1  0  0  0
 81157  1  0  0  0
 82158  1  0  0  0
 83159  1  0  0  0
 83160  1  0  0  0
 83161  1  0  0  0
 84 86  1  0  0  0
 84162  1  0  0  0
 84163  1  0  0  0
 86164  1  0  0  0
M  ISO  4   1 100  68 101  82 101  86 100
M  END
> <chiral flag>
0

> <version>
0

> <s_m_source_file>
/data/baiqing/PycharmProjects/Reinvent-master-3.2/result/LINK_invent/BTK/process_docking_weight1_custom_product_contain_oxygen_bond_distance_aromatic_linkinvent_7_9_3/rearranged_h_0039.sdf

> <i_m_source_file_index>
63

> <r_mmod_Potential_Energy-OPLS-2005>
331.635498046875

> <r_mmod_Stretch_Energy-OPLS-2005>
159.154357910156

> <r_mmod_Bend_Energy-OPLS-2005>
227.688247680664

> <r_mmod_Torsional_Energy-OPLS-2005>
259.190093994141

> <r_mmod_Improper_Torsional_Energy-OPLS-2005>
7.85390424728394

> <r_mmod_Van_der_Waal_Energy-OPLS-2005>
165.773315429688

> <r_mmod_Electrostatic_Energy-OPLS-2005>
-336.798736572266

> <r_mmod_Solvation_Energy-OPLS-2005>
-223.248306274414

> <b_mmod_Minimization_Converged-OPLS-2005>
0

> <r_mmod_RMS_Derivative-OPLS-2005>
5.40229558944702

$$$$
64
                    3D
 Structure written by MMmdl.
171180  0  0  1  0            999 V2000
  -30.6282  -14.7462   20.4704 C   0  0  0  0  0  0
  -30.4408  -12.4636   19.4571 C   0  0  0  0  0  0
  -29.5105  -12.5147   18.2237 C   0  0  0  0  0  0
  -28.0361  -12.3340   18.6402 C   0  0  0  0  0  0
  -27.6437  -13.2288   19.8419 C   0  0  2  0  0  0
  -28.6936  -13.1699   20.9719 C   0  0  0  0  0  0
  -25.2546  -13.8208   20.5690 C   0  0  0  0  0  0
  -24.1819  -13.0454   20.9197 C   0  0  0  0  0  0
  -24.6395  -11.6933   20.8685 C   0  0  0  0  0  0
  -23.9047  -10.4307   21.0315 C   0  0  0  0  0  0
  -24.3597   -9.4248   21.9125 C   0  0  0  0  0  0
  -23.6315   -8.2255   22.0716 C   0  0  0  0  0  0
  -22.4291   -8.0254   21.3510 C   0  0  0  0  0  0
  -21.9893   -9.0217   20.4610 C   0  0  0  0  0  0
  -22.7195  -10.2115   20.3021 C   0  0  0  0  0  0
  -21.6883   -6.0698   22.5264 C   0  0  0  0  0  0
  -21.4030   -6.5602   23.8193 C   0  0  0  0  0  0
  -21.3674   -5.6758   24.9140 C   0  0  0  0  0  0
  -21.6077   -4.3027   24.7206 C   0  0  0  0  0  0
  -21.8837   -3.8109   23.4340 C   0  0  0  0  0  0
  -21.9229   -4.6926   22.3384 C   0  0  0  0  0  0
  -22.7819  -13.5214   21.1870 C   0  0  0  0  0  0
  -22.1692   -4.2081   21.0956 F   0  0  0  0  0  0
  -21.5636   -3.4543   25.7741 F   0  0  0  0  0  0
  -29.9904  -13.5257   20.3818 N   0  0  0  0  0  0
  -26.2961  -12.9392   20.3252 N   0  0  0  0  0  0
  -25.9323  -11.6534   20.5704 N   0  0  0  0  0  0
  -22.0486  -12.8171   22.0412 N   0  0  0  0  0  0
  -25.4259  -15.1938   20.4125 N   0  0  0  0  0  0
  -31.8307  -14.8320   20.2189 O   0  0  0  0  0  0
  -21.6680   -6.8831   21.4221 O   0  0  0  0  0  0
  -22.3466  -14.5504   20.6704 O   0  0  0  0  0  0
  -24.6362  -31.8529   23.2017 C   0  0  0  0  0  0
  -25.9180  -32.4745   23.8343 C   0  0  1  0  0  0
  -27.2226  -27.2538   20.1137 C   0  0  0  0  0  0
  -25.5954  -33.8539   24.2261 N   0  0  0  0  0  0
  -23.4286  -30.4808   21.5467 C   0  0  2  0  0  0
  -24.8686  -28.9268   20.1179 C   0  0  0  0  0  0
  -22.7485  -29.4623   22.4940 C   0  0  0  0  0  0
  -18.0298  -28.1395   22.8500 C   0  0  0  0  0  0
  -24.1483  -36.7285   23.2643 C   0  0  0  0  0  0
  -25.9770  -30.7644   21.3765 C   0  0  0  0  0  0
  -26.0473  -29.3871   20.7157 C   0  0  0  0  0  0
  -27.2234  -28.5677   20.6989 C   0  0  0  0  0  0
  -26.0006  -26.8520   19.5192 C   0  0  0  0  0  0
  -24.8475  -27.6622   19.5150 C   0  0  0  0  0  0
  -23.6408  -29.8177   20.1623 C   0  0  0  0  0  0
  -25.4119  -36.3060   24.0327 C   0  0  1  0  0  0
  -20.5897  -28.3718   23.1287 C   0  0  2  0  0  0
  -20.6801  -26.9446   22.5420 C   0  0  0  0  0  0
  -19.5762  -26.6396   21.5232 C   0  0  0  0  0  0
  -18.1938  -26.7957   22.1640 C   0  0  0  0  0  0
  -19.1539  -28.8871   23.2894 C   0  0  0  0  0  0
  -18.9455  -30.1481   23.8910 C   0  0  0  0  0  0
  -17.6449  -30.6601   24.0573 C   0  0  0  0  0  0
  -25.9064  -34.9426   23.5093 C   0  0  0  0  0  0
  -16.5347  -29.9097   23.6352 C   0  0  0  0  0  0
  -16.7283  -28.6510   23.0375 C   0  0  0  0  0  0
  -26.4526  -31.6583   25.0740 C   0  0  0  0  0  0
  -25.3725  -31.3742   26.1434 C   0  0  0  0  0  0
  -27.0365  -30.2989   24.6242 C   0  0  0  0  0  0
  -27.6066  -32.4335   25.7517 C   0  0  0  0  0  0
  -27.5591  -37.1794   24.8467 C   0  0  0  0  0  0
  -21.4201  -29.3046   22.3640 N   0  0  0  0  0  0
  -26.4297  -37.3770   23.9424 N   0  0  0  0  0  0
  -24.7008  -31.0500   22.0980 N   0  0  0  0  0  0
  -23.4174  -28.8152   23.3028 O   0  0  0  0  0  0
  -28.3419  -26.3734   20.1443 O   0  0  0  0  0  0
  -26.5622  -34.8924   22.4660 O   0  0  0  0  0  0
  -23.5514  -32.1333   23.7330 O   0  0  0  0  0  0
  -30.5275  -19.8487   22.1676 C   0  0  0  0  0  0
  -29.8272  -18.5037   20.2629 C   0  0  0  0  0  0
  -30.0476  -19.8296   20.8392 C   0  0  0  0  0  0
  -30.8247  -18.6604   22.8717 C   0  0  0  0  0  0
  -30.1261  -17.2609   20.9699 C   0  0  0  0  0  0
  -30.6313  -17.3916   22.2812 C   0  0  0  0  0  0
  -27.8250  -21.9664   19.2150 C   0  0  0  0  0  0
  -25.1417  -20.4677   21.2563 C   0  0  0  0  0  0
  -26.6795  -21.3604   19.5780 C   0  0  0  0  0  0
  -26.3659  -20.8974   20.9179 C   0  0  0  0  0  0
  -28.1698  -22.4194   17.8029 C   0  0  0  0  0  0
  -27.5489  -23.7791   17.4735 C   0  0  0  0  0  0
  -28.2498  -24.9600   18.1649 C   0  0  0  0  0  0
  -29.2871  -23.7920   20.2125 C   0  0  0  0  0  0
  -28.2200  -24.9259   19.7151 C   0  0  1  0  0  0
  -31.3637  -18.7396   24.2891 C   0  0  0  0  0  0
  -30.0428  -21.2376   20.0755 C   0  0  0  0  0  0
  -29.8330  -15.8843   20.5019 N   0  0  0  0  0  0
  -28.9100  -22.2803   20.1820 N   0  3  2  0  0  0
  -30.9070  -16.2820   23.0078 F   0  0  0  0  0  0
  -31.4786  -12.5955   19.1422 H   0  0  0  0  0  0
  -30.3930  -11.4852   19.9400 H   0  0  0  0  0  0
  -29.7874  -11.7419   17.5036 H   0  0  0  0  0  0
  -29.6407  -13.4712   17.7146 H   0  0  0  0  0  0
  -27.8966  -11.2845   18.8995 H   0  0  0  0  0  0
  -27.3749  -12.5330   17.7956 H   0  0  0  0  0  0
  -27.6345  -14.2472   19.4589 H   0  0  0  0  0  0
  -28.7347  -12.1731   21.4171 H   0  0  0  0  0  0
  -28.4243  -13.8616   21.7704 H   0  0  0  0  0  0
  -25.2740   -9.5754   22.4702 H   0  0  0  0  0  0
  -24.0050   -7.4655   22.7455 H   0  0  0  0  0  0
  -21.0832   -8.8705   19.8929 H   0  0  0  0  0  0
  -22.3620  -10.9633   19.6122 H   0  0  0  0  0  0
  -21.2002   -7.6107   23.9659 H   0  0  0  0  0  0
  -21.1484   -6.0478   25.9035 H   0  0  0  0  0  0
  -22.0612   -2.7576   23.2856 H   0  0  0  0  0  0
  -22.4166  -11.9882   22.4825 H   0  0  0  0  0  0
  -21.1073  -13.1091   22.2606 H   0  0  0  0  0  0
  -24.6577  -15.8475   20.5189 H   0  0  0  0  0  0
  -26.2703  -15.6351   20.0729 H   0  0  0  0  0  0
  -26.7232  -32.5358   23.1069 H   0  0  0  0  0  0
  -25.0081  -33.9673   25.0384 H   0  0  0  0  0  0
  -22.7310  -31.3088   21.4085 H   0  0  0  0  0  0
  -23.3749  -35.9611   23.3266 H   0  0  0  0  0  0
  -24.3593  -36.8935   22.2066 H   0  0  0  0  0  0
  -23.7207  -37.6474   23.6679 H   0  0  0  0  0  0
  -26.1191  -31.5225   20.6060 H   0  0  0  0  0  0
  -26.8549  -30.8092   22.0078 H   0  0  0  0  0  0
  -28.1293  -28.9271   21.1661 H   0  0  0  0  0  0
  -25.8808  -25.8858   19.0538 H   0  0  0  0  0  0
  -23.9373  -27.2910   19.0625 H   0  0  0  0  0  0
  -23.7750  -30.5963   19.4115 H   0  0  0  0  0  0
  -22.7528  -29.2625   19.8564 H   0  0  0  0  0  0
  -25.1297  -36.1910   25.0823 H   0  0  0  0  0  0
  -21.0019  -28.3293   24.1397 H   0  0  0  0  0  0
  -20.5749  -26.2315   23.3605 H   0  0  0  0  0  0
  -21.6667  -26.7503   22.1176 H   0  0  0  0  0  0
  -19.6944  -25.6295   21.1267 H   0  0  0  0  0  0
  -19.6717  -27.3201   20.6741 H   0  0  0  0  0  0
  -17.4230  -26.6718   21.4018 H   0  0  0  0  0  0
  -18.0338  -26.0087   22.9013 H   0  0  0  0  0  0
  -19.7922  -30.7307   24.2284 H   0  0  0  0  0  0
  -17.4997  -31.6292   24.5140 H   0  0  0  0  0  0
  -15.5353  -30.2995   23.7668 H   0  0  0  0  0  0
  -15.8670  -28.0816   22.7113 H   0  0  0  0  0  0
  -24.5915  -30.7084   25.7744 H   0  0  0  0  0  0
  -24.8907  -32.2915   26.4839 H   0  0  0  0  0  0
  -25.8023  -30.8922   27.0220 H   0  0  0  0  0  0
  -26.2943  -29.6729   24.1267 H   0  0  0  0  0  0
  -27.4015  -29.7285   25.4796 H   0  0  0  0  0  0
  -27.8853  -30.4258   23.9511 H   0  0  0  0  0  0
  -27.2675  -33.3655   26.2065 H   0  0  0  0  0  0
  -28.3908  -32.6850   25.0359 H   0  0  0  0  0  0
  -28.0698  -31.8460   26.5459 H   0  0  0  0  0  0
  -28.2577  -38.0116   24.7552 H   0  0  0  0  0  0
  -28.1103  -36.2646   24.6234 H   0  0  0  0  0  0
  -27.2320  -37.1394   25.8869 H   0  0  0  0  0  0
  -20.9379  -29.8710   21.6795 H   0  0  0  0  0  0
  -26.0153  -38.2839   24.1433 H   0  0  0  0  0  0
  -30.7280  -20.7972   22.6480 H   0  0  0  0  0  0
  -29.4670  -18.4441   19.2433 H   0  0  0  0  0  0
  -24.9270  -20.1158   22.2555 H   0  0  0  0  0  0
  -24.3266  -20.4641   20.5441 H   0  0  0  0  0  0
  -25.9536  -21.1812   18.7988 H   0  0  0  0  0  0
  -27.1314  -20.8691   21.6804 H   0  0  0  0  0  0
  -27.7836  -21.6723   17.1111 H   0  0  0  0  0  0
  -29.2462  -22.4586   17.6297 H   0  0  0  0  0  0
  -26.4890  -23.7774   17.7340 H   0  0  0  0  0  0
  -27.5924  -23.9356   16.3951 H   0  0  0  0  0  0
  -27.7887  -25.8745   17.7952 H   0  0  0  0  0  0
  -29.2834  -25.0269   17.8204 H   0  0  0  0  0  0
  -29.5824  -24.0233   21.2362 H   0  0  0  0  0  0
  -30.1993  -23.9173   19.6250 H   0  0  0  0  0  0
  -27.2506  -24.5777   20.0706 H   0  0  0  0  0  0
  -31.6502  -19.7552   24.5694 H   0  0  0  0  0  0
  -32.2402  -18.1013   24.4064 H   0  0  0  0  0  0
  -30.5993  -18.4030   24.9878 H   0  0  0  0  0  0
  -30.2557  -21.0370   19.0268 H   0  0  0  0  0  0
  -30.9401  -21.7526   20.4204 H   0  0  0  0  0  0
  -28.8502  -15.6866   20.4054 H   0  0  0  0  0  0
  -28.5224  -22.1227   21.0998 H   0  0  0  0  0  0
  1 25  1  0  0  0
  1 30  2  0  0  0
  1 88  1  0  0  0
  2  3  1  0  0  0
  2 25  1  0  0  0
  2 91  1  0  0  0
  2 92  1  0  0  0
  3  4  1  0  0  0
  3 93  1  0  0  0
  3 94  1  0  0  0
  4  5  1  0  0  0
  4 95  1  0  0  0
  4 96  1  0  0  0
  5  6  1  0  0  0
  5 26  1  0  0  0
  5 97  1  0  0  0
  6 25  1  0  0  0
  6 98  1  0  0  0
  6 99  1  0  0  0
  7  8  2  0  0  0
  7 26  1  0  0  0
  7 29  1  0  0  0
  8  9  1  0  0  0
  8 22  1  0  0  0
  9 10  1  0  0  0
  9 27  2  0  0  0
 10 11  2  0  0  0
 10 15  1  0  0  0
 11 12  1  0  0  0
 11100  1  0  0  0
 12 13  2  0  0  0
 12101  1  0  0  0
 13 14  1  0  0  0
 13 31  1  0  0  0
 14 15  2  0  0  0
 14102  1  0  0  0
 15103  1  0  0  0
 16 17  2  0  0  0
 16 21  1  0  0  0
 16 31  1  0  0  0
 17 18  1  0  0  0
 17104  1  0  0  0
 18 19  2  0  0  0
 18105  1  0  0  0
 19 20  1  0  0  0
 19 24  1  0  0  0
 20 21  2  0  0  0
 20106  1  0  0  0
 21 23  1  0  0  0
 22 28  1  0  0  0
 22 32  2  0  0  0
 26 27  1  0  0  0
 28107  1  0  0  0
 28108  1  0  0  0
 29109  1  0  0  0
 29110  1  0  0  0
 33 34  1  0  0  0
 33 66  1  0  0  0
 33 70  2  0  0  0
 34 36  1  0  0  0
 34 59  1  0  0  0
 34111  1  0  0  0
 35 44  2  0  0  0
 35 45  1  0  0  0
 35 68  1  0  0  0
 36 56  1  0  0  0
 36112  1  0  0  0
 37 39  1  0  0  0
 37 47  1  0  0  0
 37 66  1  0  0  0
 37113  1  0  0  0
 38 43  2  0  0  0
 38 46  1  0  0  0
 38 47  1  0  0  0
 39 64  1  0  0  0
 39 67  2  0  0  0
 40 52  1  0  0  0
 40 53  2  0  0  0
 40 58  1  0  0  0
 41114  1  0  0  0
 41115  1  0  0  0
 41116  1  0  0  0
 41 48  1  0  0  0
 42 43  1  0  0  0
 42 66  1  0  0  0
 42117  1  0  0  0
 42118  1  0  0  0
 43 44  1  0  0  0
 44119  1  0  0  0
 45 46  2  0  0  0
 45120  1  0  0  0
 46121  1  0  0  0
 47122  1  0  0  0
 47123  1  0  0  0
 48 56  1  0  0  0
 48 65  1  0  0  0
 48124  1  0  0  0
 49 50  1  0  0  0
 49 53  1  0  0  0
 49 64  1  0  0  0
 49125  1  0  0  0
 50 51  1  0  0  0
 50126  1  0  0  0
 50127  1  0  0  0
 51 52  1  0  0  0
 51128  1  0  0  0
 51129  1  0  0  0
 52130  1  0  0  0
 52131  1  0  0  0
 53 54  1  0  0  0
 54 55  2  0  0  0
 54132  1  0  0  0
 55 57  1  0  0  0
 55133  1  0  0  0
 56 69  2  0  0  0
 57 58  2  0  0  0
 57134  1  0  0  0
 58135  1  0  0  0
 59 60  1  0  0  0
 59 61  1  0  0  0
 59 62  1  0  0  0
 60136  1  0  0  0
 60137  1  0  0  0
 60138  1  0  0  0
 61139  1  0  0  0
 61140  1  0  0  0
 61141  1  0  0  0
 62142  1  0  0  0
 62143  1  0  0  0
 62144  1  0  0  0
 63 65  1  0  0  0
 63145  1  0  0  0
 63146  1  0  0  0
 63147  1  0  0  0
 64148  1  0  0  0
 65149  1  0  0  0
 68 85  1  0  0  0
 71 73  2  0  0  0
 71 74  1  0  0  0
 71150  1  0  0  0
 72 73  1  0  0  0
 72 75  2  0  0  0
 72151  1  0  0  0
 73 87  1  0  0  0
 74 76  2  0  0  0
 74 86  1  0  0  0
 75 76  1  0  0  0
 75 88  1  0  0  0
 76 90  1  0  0  0
 77 79  2  0  0  0
 77 81  1  0  0  0
 77 89  1  0  0  0
 78 80  2  0  0  0
 78152  1  0  0  0
 78153  1  0  0  0
 79 80  1  0  0  0
 79154  1  0  0  0
 80155  1  0  0  0
 81 82  1  0  0  0
 81156  1  0  0  0
 81157  1  0  0  0
 82 83  1  0  0  0
 82158  1  0  0  0
 82159  1  0  0  0
 83 85  1  0  0  0
 83160  1  0  0  0
 83161  1  0  0  0
 84 85  1  0  0  0
 84 89  1  0  0  0
 84162  1  0  0  0
 84163  1  0  0  0
 85164  1  0  0  0
 86165  1  0  0  0
 86166  1  0  0  0
 86167  1  0  0  0
 87168  1  0  0  0
 87169  1  0  0  0
 87 89  1  0  0  0
 88170  1  0  0  0
 89171  1  0  0  0
M  CHG  1  89   1
M  ISO  4   1 100  68 101  85 101  88 100
M  END
> <chiral flag>
0

> <version>
0

> <s_m_source_file>
/data/baiqing/PycharmProjects/Reinvent-master-3.2/result/LINK_invent/BTK/process_docking_weight1_custom_product_contain_oxygen_bond_distance_aromatic_linkinvent_7_9_3/rearranged_h_0039.sdf

> <i_m_source_file_index>
64

> <r_mmod_Potential_Energy-OPLS-2005>
121.090774536133

> <r_mmod_Stretch_Energy-OPLS-2005>
136.895278930664

> <r_mmod_Bend_Energy-OPLS-2005>
187.255279541016

> <r_mmod_Torsional_Energy-OPLS-2005>
258.174468994141

> <r_mmod_Improper_Torsional_Energy-OPLS-2005>
11.1316404342651

> <r_mmod_Van_der_Waal_Energy-OPLS-2005>
139.963745117188

> <r_mmod_Electrostatic_Energy-OPLS-2005>
-270.527618408203

> <r_mmod_Solvation_Energy-OPLS-2005>
-428.724334716797

> <b_mmod_Minimization_Converged-OPLS-2005>
0

> <r_mmod_RMS_Derivative-OPLS-2005>
5.08131551742554

$$$$
65
                    3D
 Structure written by MMmdl.
160168  0  0  1  0            999 V2000
  -30.6253  -14.6363   20.5055 C   0  0  0  0  0  0
  -30.4384  -12.3901   19.4566 C   0  0  0  0  0  0
  -29.5090  -12.5129   18.2285 C   0  0  0  0  0  0
  -28.0313  -12.3525   18.6384 C   0  0  0  0  0  0
  -27.6550  -13.2186   19.8697 C   0  0  2  0  0  0
  -28.6998  -13.0660   20.9989 C   0  0  0  0  0  0
  -25.2557  -13.8179   20.5689 C   0  0  0  0  0  0
  -24.1825  -13.0438   20.9190 C   0  0  0  0  0  0
  -24.6398  -11.6910   20.8739 C   0  0  0  0  0  0
  -23.9070  -10.4290   21.0401 C   0  0  0  0  0  0
  -24.3620   -9.4206   21.9179 C   0  0  0  0  0  0
  -23.6291   -8.2243   22.0755 C   0  0  0  0  0  0
  -22.4276   -8.0279   21.3543 C   0  0  0  0  0  0
  -21.9909   -9.0257   20.4648 C   0  0  0  0  0  0
  -22.7241  -10.2134   20.3052 C   0  0  0  0  0  0
  -21.6851   -6.0737   22.5283 C   0  0  0  0  0  0
  -21.4010   -6.5641   23.8215 C   0  0  0  0  0  0
  -21.3661   -5.6795   24.9178 C   0  0  0  0  0  0
  -21.6045   -4.3057   24.7229 C   0  0  0  0  0  0
  -21.8817   -3.8148   23.4347 C   0  0  0  0  0  0
  -21.9192   -4.6964   22.3403 C   0  0  0  0  0  0
  -22.7844  -13.5226   21.1856 C   0  0  0  0  0  0
  -22.1660   -4.2152   21.0978 F   0  0  0  0  0  0
  -21.5636   -3.4536   25.7739 F   0  0  0  0  0  0
  -30.0176  -13.4086   20.4399 N   0  0  0  0  0  0
  -26.2996  -12.9362   20.3352 N   0  0  0  0  0  0
  -25.9332  -11.6513   20.5776 N   0  0  0  0  0  0
  -22.0493  -12.8213   22.0415 N   0  0  0  0  0  0
  -25.4264  -15.1899   20.4105 N   0  0  0  0  0  0
  -31.7765  -14.8045   20.0920 O   0  0  0  0  0  0
  -21.6639   -6.8876   21.4241 O   0  0  0  0  0  0
  -22.3521  -14.5530   20.6710 O   0  0  0  0  0  0
  -24.6257  -31.8606   23.2036 C   0  0  0  0  0  0
  -25.9106  -32.4785   23.8364 C   0  0  1  0  0  0
  -27.2236  -27.3235   20.1211 C   0  0  0  0  0  0
  -25.5924  -33.8585   24.2289 N   0  0  0  0  0  0
  -23.4196  -30.4845   21.5459 C   0  0  2  0  0  0
  -24.8674  -28.9411   20.1123 C   0  0  0  0  0  0
  -22.7471  -29.4632   22.4942 C   0  0  0  0  0  0
  -18.0285  -28.1387   22.8488 C   0  0  0  0  0  0
  -24.1489  -36.7299   23.2638 C   0  0  0  0  0  0
  -25.9607  -30.7923   21.3755 C   0  0  0  0  0  0
  -26.0358  -29.4196   20.7194 C   0  0  0  0  0  0
  -27.2187  -28.6221   20.7156 C   0  0  0  0  0  0
  -26.0390  -26.9065   19.4735 C   0  0  0  0  0  0
  -24.8706  -27.6894   19.4797 C   0  0  0  0  0  0
  -23.6349  -29.8200   20.1612 C   0  0  0  0  0  0
  -25.4112  -36.3088   24.0331 C   0  0  1  0  0  0
  -20.5884  -28.3692   23.1283 C   0  0  2  0  0  0
  -20.6777  -26.9416   22.5408 C   0  0  0  0  0  0
  -19.5751  -26.6387   21.5211 C   0  0  0  0  0  0
  -18.1931  -26.7930   22.1625 C   0  0  0  0  0  0
  -19.1537  -28.8856   23.2882 C   0  0  0  0  0  0
  -18.9462  -30.1457   23.8898 C   0  0  0  0  0  0
  -17.6462  -30.6588   24.0565 C   0  0  0  0  0  0
  -25.9048  -34.9456   23.5109 C   0  0  0  0  0  0
  -16.5353  -29.9088   23.6330 C   0  0  0  0  0  0
  -16.7272  -28.6506   23.0350 C   0  0  0  0  0  0
  -26.4494  -31.6590   25.0729 C   0  0  0  0  0  0
  -25.3729  -31.3725   26.1458 C   0  0  0  0  0  0
  -27.0334  -30.3014   24.6180 C   0  0  0  0  0  0
  -27.6057  -32.4323   25.7495 C   0  0  0  0  0  0
  -27.5581  -37.1803   24.8464 C   0  0  0  0  0  0
  -21.4185  -29.3045   22.3677 N   0  0  0  0  0  0
  -26.4292  -37.3781   23.9410 N   0  0  0  0  0  0
  -24.6873  -31.0621   22.0987 N   0  0  0  0  0  0
  -23.4197  -28.8165   23.3017 O   0  0  0  0  0  0
  -28.3300  -26.4630   20.1533 O   0  0  0  0  0  0
  -26.5616  -34.8921   22.4675 O   0  0  0  0  0  0
  -23.5422  -32.1402   23.7363 O   0  0  0  0  0  0
  -29.9592  -19.4558   21.5762 C   0  0  0  0  0  0
  -29.7439  -19.1135   19.2103 C   0  0  0  0  0  0
  -29.8363  -20.0343   20.2875 C   0  0  0  0  0  0
  -29.9944  -18.0395   21.7771 C   0  0  0  0  0  0
  -29.7807  -17.6970   19.3924 C   0  0  0  0  0  0
  -29.9287  -17.1201   20.6878 C   0  0  0  0  0  0
  -29.1280  -23.9698   20.1516 C   0  0  0  0  0  0
  -30.1184  -17.5117   23.1952 C   0  0  0  0  0  0
  -29.6361  -16.8117   18.1665 C   0  0  0  0  0  0
  -27.8532  -22.1083   21.2520 C   0  0  0  0  0  0
  -29.9768  -21.5842   20.0157 C   0  0  0  0  0  0
  -28.0656  -25.0619   20.5789 C   0  0  0  0  0  0
  -29.8428  -15.6771   20.9295 N   0  0  0  0  0  0
  -28.9724  -22.6234   20.4571 N   0  0  0  0  0  0
  -30.1150  -24.3573   19.5166 O   0  0  0  0  0  0
  -31.4805  -12.5120   19.1564 H   0  0  0  0  0  0
  -30.3698  -11.3930   19.8943 H   0  0  0  0  0  0
  -29.7715  -11.7635   17.4805 H   0  0  0  0  0  0
  -29.6542  -13.4839   17.7523 H   0  0  0  0  0  0
  -27.8639  -11.2989   18.8657 H   0  0  0  0  0  0
  -27.3786  -12.5890   17.7973 H   0  0  0  0  0  0
  -27.6746  -14.2558   19.5364 H   0  0  0  0  0  0
  -28.7090  -12.0421   21.3752 H   0  0  0  0  0  0
  -28.4452  -13.6917   21.8553 H   0  0  0  0  0  0
  -25.2770   -9.5686   22.4749 H   0  0  0  0  0  0
  -24.0004   -7.4634   22.7470 H   0  0  0  0  0  0
  -21.0841   -8.8778   19.8948 H   0  0  0  0  0  0
  -22.3702  -10.9673   19.6160 H   0  0  0  0  0  0
  -21.1994   -7.6147   23.9716 H   0  0  0  0  0  0
  -21.1489   -6.0527   25.9081 H   0  0  0  0  0  0
  -22.0593   -2.7608   23.2852 H   0  0  0  0  0  0
  -22.4118  -11.9870   22.4791 H   0  0  0  0  0  0
  -21.1114  -13.1237   22.2638 H   0  0  0  0  0  0
  -24.6609  -15.8460   20.5232 H   0  0  0  0  0  0
  -26.2797  -15.6308   20.0910 H   0  0  0  0  0  0
  -26.7175  -32.5459   23.1116 H   0  0  0  0  0  0
  -25.0073  -33.9734   25.0434 H   0  0  0  0  0  0
  -22.7134  -31.3049   21.4027 H   0  0  0  0  0  0
  -23.3752  -35.9630   23.3297 H   0  0  0  0  0  0
  -24.3582  -36.8921   22.2053 H   0  0  0  0  0  0
  -23.7240  -37.6500   23.6660 H   0  0  0  0  0  0
  -26.0905  -31.5547   20.6059 H   0  0  0  0  0  0
  -26.8419  -30.8427   22.0036 H   0  0  0  0  0  0
  -28.1146  -28.9835   21.2008 H   0  0  0  0  0  0
  -25.9981  -25.9626   18.9504 H   0  0  0  0  0  0
  -23.9795  -27.3221   18.9893 H   0  0  0  0  0  0
  -23.7540  -30.5963   19.4048 H   0  0  0  0  0  0
  -22.7556  -29.2485   19.8585 H   0  0  0  0  0  0
  -25.1291  -36.1944   25.0823 H   0  0  0  0  0  0
  -20.9979  -28.3268   24.1402 H   0  0  0  0  0  0
  -20.5680  -26.2304   23.3609 H   0  0  0  0  0  0
  -21.6645  -26.7449   22.1200 H   0  0  0  0  0  0
  -19.6914  -25.6297   21.1242 H   0  0  0  0  0  0
  -19.6686  -27.3197   20.6741 H   0  0  0  0  0  0
  -17.4199  -26.6675   21.4029 H   0  0  0  0  0  0
  -18.0335  -26.0071   22.9022 H   0  0  0  0  0  0
  -19.7936  -30.7273   24.2271 H   0  0  0  0  0  0
  -17.5015  -31.6268   24.5167 H   0  0  0  0  0  0
  -15.5353  -30.2992   23.7651 H   0  0  0  0  0  0
  -15.8674  -28.0826   22.7066 H   0  0  0  0  0  0
  -24.5904  -30.7076   25.7786 H   0  0  0  0  0  0
  -24.8922  -32.2889   26.4890 H   0  0  0  0  0  0
  -25.8055  -30.8896   27.0229 H   0  0  0  0  0  0
  -26.2905  -29.6766   24.1209 H   0  0  0  0  0  0
  -27.4036  -29.7270   25.4682 H   0  0  0  0  0  0
  -27.8773  -30.4300   23.9399 H   0  0  0  0  0  0
  -27.2675  -33.3626   26.2071 H   0  0  0  0  0  0
  -28.3866  -32.6878   25.0319 H   0  0  0  0  0  0
  -28.0728  -31.8449   26.5410 H   0  0  0  0  0  0
  -28.2596  -38.0102   24.7517 H   0  0  0  0  0  0
  -28.1079  -36.2635   24.6282 H   0  0  0  0  0  0
  -27.2301  -37.1443   25.8867 H   0  0  0  0  0  0
  -20.9364  -29.8774   21.6890 H   0  0  0  0  0  0
  -26.0175  -38.2857   24.1411 H   0  0  0  0  0  0
  -30.0551  -20.1146   22.4285 H   0  0  0  0  0  0
  -29.6601  -19.5064   18.2061 H   0  0  0  0  0  0
  -30.9687  -16.8343   23.2772 H   0  0  0  0  0  0
  -29.2169  -16.9691   23.4799 H   0  0  0  0  0  0
  -30.2662  -18.3187   23.9132 H   0  0  0  0  0  0
  -29.3334  -17.3880   17.2921 H   0  0  0  0  0  0
  -28.8824  -16.0411   18.3279 H   0  0  0  0  0  0
  -30.5839  -16.3263   17.9348 H   0  0  0  0  0  0
  -27.0183  -22.7984   21.3549 H   0  0  0  0  0  0
  -28.1957  -21.8591   22.2567 H   0  0  0  0  0  0
  -27.4464  -21.2028   20.8009 H   0  0  0  0  0  0
  -30.1049  -21.7080   18.9389 H   0  0  0  0  0  0
  -30.9374  -21.8749   20.4437 H   0  0  0  0  0  0
  -28.0018  -25.0579   21.6673 H   0  0  0  0  0  0
  -27.1052  -24.7030   20.2193 H   0  0  0  0  0  0
  -28.9895  -15.3780   21.3764 H   0  0  0  0  0  0
  1 25  1  0  0  0
  1 30  2  0  0  0
  1 83  1  0  0  0
  2  3  1  0  0  0
  2 25  1  0  0  0
  2 86  1  0  0  0
  2 87  1  0  0  0
  3  4  1  0  0  0
  3 88  1  0  0  0
  3 89  1  0  0  0
  4  5  1  0  0  0
  4 90  1  0  0  0
  4 91  1  0  0  0
  5  6  1  0  0  0
  5 26  1  0  0  0
  5 92  1  0  0  0
  6 25  1  0  0  0
  6 93  1  0  0  0
  6 94  1  0  0  0
  7  8  2  0  0  0
  7 26  1  0  0  0
  7 29  1  0  0  0
  8  9  1  0  0  0
  8 22  1  0  0  0
  9 10  1  0  0  0
  9 27  2  0  0  0
 10 11  2  0  0  0
 10 15  1  0  0  0
 11 12  1  0  0  0
 11 95  1  0  0  0
 12 13  2  0  0  0
 12 96  1  0  0  0
 13 14  1  0  0  0
 13 31  1  0  0  0
 14 15  2  0  0  0
 14 97  1  0  0  0
 15 98  1  0  0  0
 16 17  2  0  0  0
 16 21  1  0  0  0
 16 31  1  0  0  0
 17 18  1  0  0  0
 17 99  1  0  0  0
 18 19  2  0  0  0
 18100  1  0  0  0
 19 20  1  0  0  0
 19 24  1  0  0  0
 20 21  2  0  0  0
 20101  1  0  0  0
 21 23  1  0  0  0
 22 28  1  0  0  0
 22 32  2  0  0  0
 26 27  1  0  0  0
 28102  1  0  0  0
 28103  1  0  0  0
 29104  1  0  0  0
 29105  1  0  0  0
 33 34  1  0  0  0
 33 66  1  0  0  0
 33 70  2  0  0  0
 34 36  1  0  0  0
 34 59  1  0  0  0
 34106  1  0  0  0
 35 44  2  0  0  0
 35 45  1  0  0  0
 35 68  1  0  0  0
 36 56  1  0  0  0
 36107  1  0  0  0
 37 39  1  0  0  0
 37 47  1  0  0  0
 37 66  1  0  0  0
 37108  1  0  0  0
 38 43  2  0  0  0
 38 46  1  0  0  0
 38 47  1  0  0  0
 39 64  1  0  0  0
 39 67  2  0  0  0
 40 52  1  0  0  0
 40 53  2  0  0  0
 40 58  1  0  0  0
 41109  1  0  0  0
 41110  1  0  0  0
 41111  1  0  0  0
 41 48  1  0  0  0
 42 43  1  0  0  0
 42 66  1  0  0  0
 42112  1  0  0  0
 42113  1  0  0  0
 43 44  1  0  0  0
 44114  1  0  0  0
 45 46  2  0  0  0
 45115  1  0  0  0
 46116  1  0  0  0
 47117  1  0  0  0
 47118  1  0  0  0
 48 56  1  0  0  0
 48 65  1  0  0  0
 48119  1  0  0  0
 49 50  1  0  0  0
 49 53  1  0  0  0
 49 64  1  0  0  0
 49120  1  0  0  0
 50 51  1  0  0  0
 50121  1  0  0  0
 50122  1  0  0  0
 51 52  1  0  0  0
 51123  1  0  0  0
 51124  1  0  0  0
 52125  1  0  0  0
 52126  1  0  0  0
 53 54  1  0  0  0
 54 55  2  0  0  0
 54127  1  0  0  0
 55 57  1  0  0  0
 55128  1  0  0  0
 56 69  2  0  0  0
 57 58  2  0  0  0
 57129  1  0  0  0
 58130  1  0  0  0
 59 60  1  0  0  0
 59 61  1  0  0  0
 59 62  1  0  0  0
 60131  1  0  0  0
 60132  1  0  0  0
 60133  1  0  0  0
 61134  1  0  0  0
 61135  1  0  0  0
 61136  1  0  0  0
 62137  1  0  0  0
 62138  1  0  0  0
 62139  1  0  0  0
 63 65  1  0  0  0
 63140  1  0  0  0
 63141  1  0  0  0
 63142  1  0  0  0
 64143  1  0  0  0
 65144  1  0  0  0
 68 82  1  0  0  0
 71 73  2  0  0  0
 71 74  1  0  0  0
 71145  1  0  0  0
 72 73  1  0  0  0
 72 75  2  0  0  0
 72146  1  0  0  0
 73 81  1  0  0  0
 74 76  2  0  0  0
 74 78  1  0  0  0
 75 76  1  0  0  0
 75 79  1  0  0  0
 76 83  1  0  0  0
 77 82  1  0  0  0
 77 84  1  0  0  0
 77 85  2  0  0  0
 78147  1  0  0  0
 78148  1  0  0  0
 78149  1  0  0  0
 79150  1  0  0  0
 79151  1  0  0  0
 79152  1  0  0  0
 80 84  1  0  0  0
 80153  1  0  0  0
 80154  1  0  0  0
 80155  1  0  0  0
 81 84  1  0  0  0
 81156  1  0  0  0
 81157  1  0  0  0
 82158  1  0  0  0
 82159  1  0  0  0
 83160  1  0  0  0
M  ISO  4   1 100  68 101  82 101  83 100
M  END
> <chiral flag>
0

> <version>
0

> <s_m_source_file>
/data/baiqing/PycharmProjects/Reinvent-master-3.2/result/LINK_invent/BTK/process_docking_weight1_custom_product_contain_oxygen_bond_distance_aromatic_linkinvent_7_9_3/rearranged_h_0039.sdf

> <i_m_source_file_index>
65

> <r_mmod_Potential_Energy-OPLS-2005>
55.2856788635254

> <r_mmod_Stretch_Energy-OPLS-2005>
84.4556884765625

> <r_mmod_Bend_Energy-OPLS-2005>
134.030059814453

> <r_mmod_Torsional_Energy-OPLS-2005>
266.753631591797

> <r_mmod_Improper_Torsional_Energy-OPLS-2005>
4.66243696212769

> <r_mmod_Van_der_Waal_Energy-OPLS-2005>
146.251235961914

> <r_mmod_Electrostatic_Energy-OPLS-2005>
-386.275909423828

> <r_mmod_Solvation_Energy-OPLS-2005>
-241.773208618164

> <b_mmod_Minimization_Converged-OPLS-2005>
0

> <r_mmod_RMS_Derivative-OPLS-2005>
0.68974781036377

$$$$
66
                    3D
 Structure written by MMmdl.
171180  0  0  1  0            999 V2000
  -30.6406  -14.5477   20.5594 C   0  0  0  0  0  0
  -30.4352  -12.3520   19.4314 C   0  0  0  0  0  0
  -29.5000  -12.5275   18.2138 C   0  0  0  0  0  0
  -28.0238  -12.3573   18.6276 C   0  0  0  0  0  0
  -27.6599  -13.2043   19.8765 C   0  0  2  0  0  0
  -28.7025  -12.9938   20.9981 C   0  0  0  0  0  0
  -25.2584  -13.8146   20.5686 C   0  0  0  0  0  0
  -24.1831  -13.0427   20.9194 C   0  0  0  0  0  0
  -24.6375  -11.6887   20.8745 C   0  0  0  0  0  0
  -23.9026  -10.4280   21.0400 C   0  0  0  0  0  0
  -24.3601   -9.4214   21.9186 C   0  0  0  0  0  0
  -23.6295   -8.2240   22.0734 C   0  0  0  0  0  0
  -22.4277   -8.0268   21.3536 C   0  0  0  0  0  0
  -21.9902   -9.0215   20.4622 C   0  0  0  0  0  0
  -22.7205  -10.2106   20.3029 C   0  0  0  0  0  0
  -21.6840   -6.0723   22.5281 C   0  0  0  0  0  0
  -21.4003   -6.5625   23.8217 C   0  0  0  0  0  0
  -21.3676   -5.6780   24.9180 C   0  0  0  0  0  0
  -21.6054   -4.3042   24.7225 C   0  0  0  0  0  0
  -21.8820   -3.8130   23.4347 C   0  0  0  0  0  0
  -21.9195   -4.6952   22.3408 C   0  0  0  0  0  0
  -22.7850  -13.5236   21.1856 C   0  0  0  0  0  0
  -22.1665   -4.2139   21.0984 F   0  0  0  0  0  0
  -21.5648   -3.4529   25.7740 F   0  0  0  0  0  0
  -30.0277  -13.3337   20.4517 N   0  0  0  0  0  0
  -26.3007  -12.9307   20.3362 N   0  0  0  0  0  0
  -25.9305  -11.6471   20.5771 N   0  0  0  0  0  0
  -22.0474  -12.8216   22.0394 N   0  0  0  0  0  0
  -25.4336  -15.1860   20.4079 N   0  0  0  0  0  0
  -31.7702  -14.7641   20.1073 O   0  0  0  0  0  0
  -21.6646   -6.8866   21.4236 O   0  0  0  0  0  0
  -22.3547  -14.5552   20.6704 O   0  0  0  0  0  0
  -24.6176  -31.8642   23.2064 C   0  0  0  0  0  0
  -25.9074  -32.4779   23.8353 C   0  0  1  0  0  0
  -27.2186  -27.3960   20.1030 C   0  0  0  0  0  0
  -25.5948  -33.8573   24.2351 N   0  0  0  0  0  0
  -23.4037  -30.4850   21.5505 C   0  0  2  0  0  0
  -24.8497  -28.9454   20.1147 C   0  0  0  0  0  0
  -22.7417  -29.4619   22.5019 C   0  0  0  0  0  0
  -18.0266  -28.1345   22.8498 C   0  0  0  0  0  0
  -24.1515  -36.7291   23.2628 C   0  0  0  0  0  0
  -25.9370  -30.8127   21.3702 C   0  0  0  0  0  0
  -26.0136  -29.4447   20.7199 C   0  0  0  0  0  0
  -27.2039  -28.6740   20.7185 C   0  0  0  0  0  0
  -26.0496  -26.9299   19.4717 C   0  0  0  0  0  0
  -24.8654  -27.6878   19.4878 C   0  0  0  0  0  0
  -23.6074  -29.8064   20.1695 C   0  0  0  0  0  0
  -25.4131  -36.3081   24.0332 C   0  0  1  0  0  0
  -20.5860  -28.3611   23.1347 C   0  0  2  0  0  0
  -20.6766  -26.9360   22.5412 C   0  0  0  0  0  0
  -19.5739  -26.6346   21.5218 C   0  0  0  0  0  0
  -18.1913  -26.7910   22.1600 C   0  0  0  0  0  0
  -19.1523  -28.8808   23.2907 C   0  0  0  0  0  0
  -18.9445  -30.1438   23.8866 C   0  0  0  0  0  0
  -17.6440  -30.6561   24.0543 C   0  0  0  0  0  0
  -25.9044  -34.9437   23.5143 C   0  0  0  0  0  0
  -16.5329  -29.9026   23.6359 C   0  0  0  0  0  0
  -16.7249  -28.6447   23.0371 C   0  0  0  0  0  0
  -26.4487  -31.6521   25.0671 C   0  0  0  0  0  0
  -25.3732  -31.3646   26.1408 C   0  0  0  0  0  0
  -27.0269  -30.2931   24.6045 C   0  0  0  0  0  0
  -27.6073  -32.4194   25.7461 C   0  0  0  0  0  0
  -27.5610  -37.1810   24.8465 C   0  0  0  0  0  0
  -21.4141  -29.2982   22.3755 N   0  0  0  0  0  0
  -26.4330  -37.3752   23.9385 N   0  0  0  0  0  0
  -24.6710  -31.0699   22.0997 N   0  0  0  0  0  0
  -23.4190  -28.8188   23.3082 O   0  0  0  0  0  0
  -28.3390  -26.5906   20.0373 O   0  0  0  0  0  0
  -26.5561  -34.8895   22.4689 O   0  0  0  0  0  0
  -23.5372  -32.1426   23.7454 O   0  0  0  0  0  0
  -29.6301  -19.0199   19.6445 C   0  0  0  0  0  0
  -29.9941  -19.8473   20.7365 C   0  0  0  0  0  0
  -30.3262  -19.1968   21.9663 C   0  0  0  0  0  0
  -29.9874  -16.9558   20.9443 C   0  0  0  0  0  0
  -29.6035  -17.6058   19.7443 C   0  0  0  0  0  0
  -30.3369  -17.7688   22.0542 C   0  0  0  0  0  0
  -29.3731  -23.6304   19.6705 C   0  0  0  0  0  0
  -28.7642  -23.2190   16.0443 C   0  0  0  0  0  0
  -29.3016  -23.8675   18.3458 C   0  0  0  0  0  0
  -28.9186  -22.8916   17.3370 C   0  0  0  0  0  0
  -29.7374  -24.6877   20.7290 C   0  0  0  0  0  0
  -26.9650  -23.5207   21.1370 C   0  0  0  0  0  0
  -27.3707  -24.8937   21.7399 C   0  0  0  0  0  0
  -28.0036  -22.3708   21.3445 C   0  0  0  0  0  0
  -28.5837  -25.6580   21.1175 C   0  0  2  0  0  0
  -30.7073  -20.0278   23.1933 C   0  0  0  0  0  0
  -30.1924  -21.3847   20.5181 C   0  0  0  0  0  0
  -29.8760  -15.5246   21.0990 N   0  0  0  0  0  0
  -29.0110  -22.2805   20.2501 N   0  3  2  0  0  0
  -29.0675  -16.6899   18.3782 Cl  0  0  0  0  0  0
  -30.7877  -16.9816   23.5334 Cl  0  0  0  0  0  0
  -31.4787  -12.4750   19.1352 H   0  0  0  0  0  0
  -30.3610  -11.3393   19.8314 H   0  0  0  0  0  0
  -29.7589  -11.8128   17.4330 H   0  0  0  0  0  0
  -29.6413  -13.5193   17.7827 H   0  0  0  0  0  0
  -27.8617  -11.2997   18.8413 H   0  0  0  0  0  0
  -27.3615  -12.6032   17.7961 H   0  0  0  0  0  0
  -27.6958  -14.2489   19.5702 H   0  0  0  0  0  0
  -28.6976  -11.9533   21.3263 H   0  0  0  0  0  0
  -28.4529  -13.5760   21.8859 H   0  0  0  0  0  0
  -25.2735   -9.5723   22.4768 H   0  0  0  0  0  0
  -24.0013   -7.4633   22.7446 H   0  0  0  0  0  0
  -21.0836   -8.8702   19.8921 H   0  0  0  0  0  0
  -22.3653  -10.9630   19.6131 H   0  0  0  0  0  0
  -21.1966   -7.6125   23.9718 H   0  0  0  0  0  0
  -21.1515   -6.0506   25.9093 H   0  0  0  0  0  0
  -22.0590   -2.7579   23.2842 H   0  0  0  0  0  0
  -22.4052  -11.9865   22.4792 H   0  0  0  0  0  0
  -21.1070  -13.1212   22.2526 H   0  0  0  0  0  0
  -24.6633  -15.8405   20.4989 H   0  0  0  0  0  0
  -26.2766  -15.6123   20.0447 H   0  0  0  0  0  0
  -26.7127  -32.5439   23.1083 H   0  0  0  0  0  0
  -25.0189  -33.9715   25.0569 H   0  0  0  0  0  0
  -22.6914  -31.2985   21.4089 H   0  0  0  0  0  0
  -23.3775  -35.9619   23.3250 H   0  0  0  0  0  0
  -24.3675  -36.8940   22.2062 H   0  0  0  0  0  0
  -23.7249  -37.6483   23.6652 H   0  0  0  0  0  0
  -26.0624  -31.5801   20.6050 H   0  0  0  0  0  0
  -26.8212  -30.8617   21.9933 H   0  0  0  0  0  0
  -28.1008  -29.0518   21.1897 H   0  0  0  0  0  0
  -26.0530  -25.9707   18.9720 H   0  0  0  0  0  0
  -23.9750  -27.3041   19.0074 H   0  0  0  0  0  0
  -23.6814  -30.5656   19.3910 H   0  0  0  0  0  0
  -22.7377  -29.2018   19.9011 H   0  0  0  0  0  0
  -25.1326  -36.1940   25.0820 H   0  0  0  0  0  0
  -20.9930  -28.3133   24.1475 H   0  0  0  0  0  0
  -20.5719  -26.2196   23.3571 H   0  0  0  0  0  0
  -21.6634  -26.7430   22.1174 H   0  0  0  0  0  0
  -19.6895  -25.6256   21.1232 H   0  0  0  0  0  0
  -19.6704  -27.3178   20.6775 H   0  0  0  0  0  0
  -17.4217  -26.6707   21.3962 H   0  0  0  0  0  0
  -18.0253  -26.0031   22.8967 H   0  0  0  0  0  0
  -19.7927  -30.7291   24.2176 H   0  0  0  0  0  0
  -17.4983  -31.6251   24.5128 H   0  0  0  0  0  0
  -15.5326  -30.2893   23.7748 H   0  0  0  0  0  0
  -15.8643  -28.0752   22.7103 H   0  0  0  0  0  0
  -24.5885  -30.7039   25.7726 H   0  0  0  0  0  0
  -24.8952  -32.2814   26.4853 H   0  0  0  0  0  0
  -25.8055  -30.8775   27.0152 H   0  0  0  0  0  0
  -26.2776  -29.6704   24.1140 H   0  0  0  0  0  0
  -27.4076  -29.7154   25.4480 H   0  0  0  0  0  0
  -27.8619  -30.4227   23.9154 H   0  0  0  0  0  0
  -27.2715  -33.3492   26.2055 H   0  0  0  0  0  0
  -28.3900  -32.6726   25.0301 H   0  0  0  0  0  0
  -28.0689  -31.8262   26.5367 H   0  0  0  0  0  0
  -28.2603  -38.0125   24.7508 H   0  0  0  0  0  0
  -28.1137  -36.2660   24.6303 H   0  0  0  0  0  0
  -27.2329  -37.1459   25.8866 H   0  0  0  0  0  0
  -20.9296  -29.8656   21.6946 H   0  0  0  0  0  0
  -26.0220  -38.2843   24.1317 H   0  0  0  0  0  0
  -29.3813  -19.4621   18.6903 H   0  0  0  0  0  0
  -28.4844  -22.4751   15.3118 H   0  0  0  0  0  0
  -28.9084  -24.2320   15.6931 H   0  0  0  0  0  0
  -29.5387  -24.8688   18.0140 H   0  0  0  0  0  0
  -28.7479  -21.8608   17.6031 H   0  0  0  0  0  0
  -30.5787  -25.2734   20.3551 H   0  0  0  0  0  0
  -30.1128  -24.1986   21.6293 H   0  0  0  0  0  0
  -26.6810  -23.6268   20.0884 H   0  0  0  0  0  0
  -26.0448  -23.2215   21.6393 H   0  0  0  0  0  0
  -27.6041  -24.7209   22.7911 H   0  0  0  0  0  0
  -26.4945  -25.5365   21.7807 H   0  0  0  0  0  0
  -27.4830  -21.4128   21.4003 H   0  0  0  0  0  0
  -28.4967  -22.4966   22.3073 H   0  0  0  0  0  0
  -28.9711  -26.2944   21.9150 H   0  0  0  0  0  0
  -30.0870  -20.9188   23.2772 H   0  0  0  0  0  0
  -31.7528  -20.3350   23.1385 H   0  0  0  0  0  0
  -30.5703  -19.4984   24.1348 H   0  0  0  0  0  0
  -30.8395  -21.4620   19.6434 H   0  0  0  0  0  0
  -30.7818  -21.8221   21.3218 H   0  0  0  0  0  0
  -29.0152  -15.2027   21.5111 H   0  0  0  0  0  0
  -28.5140  -21.8030   19.5142 H   0  0  0  0  0  0
  1 25  1  0  0  0
  1 30  2  0  0  0
  1 88  1  0  0  0
  2  3  1  0  0  0
  2 25  1  0  0  0
  2 92  1  0  0  0
  2 93  1  0  0  0
  3  4  1  0  0  0
  3 94  1  0  0  0
  3 95  1  0  0  0
  4  5  1  0  0  0
  4 96  1  0  0  0
  4 97  1  0  0  0
  5  6  1  0  0  0
  5 26  1  0  0  0
  5 98  1  0  0  0
  6 25  1  0  0  0
  6 99  1  0  0  0
  6100  1  0  0  0
  7  8  2  0  0  0
  7 26  1  0  0  0
  7 29  1  0  0  0
  8  9  1  0  0  0
  8 22  1  0  0  0
  9 10  1  0  0  0
  9 27  2  0  0  0
 10 11  2  0  0  0
 10 15  1  0  0  0
 11 12  1  0  0  0
 11101  1  0  0  0
 12 13  2  0  0  0
 12102  1  0  0  0
 13 14  1  0  0  0
 13 31  1  0  0  0
 14 15  2  0  0  0
 14103  1  0  0  0
 15104  1  0  0  0
 16 17  2  0  0  0
 16 21  1  0  0  0
 16 31  1  0  0  0
 17 18  1  0  0  0
 17105  1  0  0  0
 18 19  2  0  0  0
 18106  1  0  0  0
 19 20  1  0  0  0
 19 24  1  0  0  0
 20 21  2  0  0  0
 20107  1  0  0  0
 21 23  1  0  0  0
 22 28  1  0  0  0
 22 32  2  0  0  0
 26 27  1  0  0  0
 28108  1  0  0  0
 28109  1  0  0  0
 29110  1  0  0  0
 29111  1  0  0  0
 33 34  1  0  0  0
 33 66  1  0  0  0
 33 70  2  0  0  0
 34 36  1  0  0  0
 34 59  1  0  0  0
 34112  1  0  0  0
 35 44  2  0  0  0
 35 45  1  0  0  0
 35 68  1  0  0  0
 36 56  1  0  0  0
 36113  1  0  0  0
 37 39  1  0  0  0
 37 47  1  0  0  0
 37 66  1  0  0  0
 37114  1  0  0  0
 38 43  2  0  0  0
 38 46  1  0  0  0
 38 47  1  0  0  0
 39 64  1  0  0  0
 39 67  2  0  0  0
 40 52  1  0  0  0
 40 53  2  0  0  0
 40 58  1  0  0  0
 41115  1  0  0  0
 41116  1  0  0  0
 41117  1  0  0  0
 41 48  1  0  0  0
 42 43  1  0  0  0
 42 66  1  0  0  0
 42118  1  0  0  0
 42119  1  0  0  0
 43 44  1  0  0  0
 44120  1  0  0  0
 45 46  2  0  0  0
 45121  1  0  0  0
 46122  1  0  0  0
 47123  1  0  0  0
 47124  1  0  0  0
 48 56  1  0  0  0
 48 65  1  0  0  0
 48125  1  0  0  0
 49 50  1  0  0  0
 49 53  1  0  0  0
 49 64  1  0  0  0
 49126  1  0  0  0
 50 51  1  0  0  0
 50127  1  0  0  0
 50128  1  0  0  0
 51 52  1  0  0  0
 51129  1  0  0  0
 51130  1  0  0  0
 52131  1  0  0  0
 52132  1  0  0  0
 53 54  1  0  0  0
 54 55  2  0  0  0
 54133  1  0  0  0
 55 57  1  0  0  0
 55134  1  0  0  0
 56 69  2  0  0  0
 57 58  2  0  0  0
 57135  1  0  0  0
 58136  1  0  0  0
 59 60  1  0  0  0
 59 61  1  0  0  0
 59 62  1  0  0  0
 60137  1  0  0  0
 60138  1  0  0  0
 60139  1  0  0  0
 61140  1  0  0  0
 61141  1  0  0  0
 61142  1  0  0  0
 62143  1  0  0  0
 62144  1  0  0  0
 62145  1  0  0  0
 63 65  1  0  0  0
 63146  1  0  0  0
 63147  1  0  0  0
 63148  1  0  0  0
 64149  1  0  0  0
 65150  1  0  0  0
 68 85  1  0  0  0
 71 72  2  0  0  0
 71 75  1  0  0  0
 71151  1  0  0  0
 72 73  1  0  0  0
 72 87  1  0  0  0
 73 76  2  0  0  0
 73 86  1  0  0  0
 74 75  2  0  0  0
 74 76  1  0  0  0
 74 88  1  0  0  0
 75 90  1  0  0  0
 76 91  1  0  0  0
 77 79  2  0  0  0
 77 81  1  0  0  0
 77 89  1  0  0  0
 78 80  2  0  0  0
 78152  1  0  0  0
 78153  1  0  0  0
 79 80  1  0  0  0
 79154  1  0  0  0
 80155  1  0  0  0
 81 85  1  0  0  0
 81156  1  0  0  0
 81157  1  0  0  0
 82 83  1  0  0  0
 82 84  1  0  0  0
 82158  1  0  0  0
 82159  1  0  0  0
 83 85  1  0  0  0
 83160  1  0  0  0
 83161  1  0  0  0
 84 89  1  0  0  0
 84162  1  0  0  0
 84163  1  0  0  0
 85164  1  0  0  0
 86165  1  0  0  0
 86166  1  0  0  0
 86167  1  0  0  0
 87168  1  0  0  0
 87169  1  0  0  0
 87 89  1  0  0  0
 88170  1  0  0  0
 89171  1  0  0  0
M  CHG  1  89   1
M  ISO  4   1 100  68 101  85 101  88 100
M  END
> <chiral flag>
0

> <version>
0

> <s_m_source_file>
/data/baiqing/PycharmProjects/Reinvent-master-3.2/result/LINK_invent/BTK/process_docking_weight1_custom_product_contain_oxygen_bond_distance_aromatic_linkinvent_7_9_3/rearranged_h_0039.sdf

> <i_m_source_file_index>
66

> <r_mmod_Potential_Energy-OPLS-2005>
-111.156715393066

> <r_mmod_Stretch_Energy-OPLS-2005>
57.3647956848145

> <r_mmod_Bend_Energy-OPLS-2005>
136.400375366211

> <r_mmod_Torsional_Energy-OPLS-2005>
285.051208496094

> <r_mmod_Improper_Torsional_Energy-OPLS-2005>
4.7723445892334

> <r_mmod_Van_der_Waal_Energy-OPLS-2005>
140.808547973633

> <r_mmod_Electrostatic_Energy-OPLS-2005>
-310.063293457031

> <r_mmod_Solvation_Energy-OPLS-2005>
-447.850708007812

> <b_mmod_Minimization_Converged-OPLS-2005>
0

> <r_mmod_RMS_Derivative-OPLS-2005>
3.65186858177185

$$$$
67
                    3D
 Structure written by MMmdl.
175184  0  0  1  0            999 V2000
  -30.7320  -14.3703   20.6918 C   0  0  0  0  0  0
  -30.4179  -12.2898   19.3856 C   0  0  0  0  0  0
  -29.4830  -12.5396   18.1871 C   0  0  0  0  0  0
  -28.0073  -12.3867   18.6023 C   0  0  0  0  0  0
  -27.6662  -13.1984   19.8803 C   0  0  2  0  0  0
  -28.7042  -12.9267   20.9914 C   0  0  0  0  0  0
  -25.2602  -13.8140   20.5671 C   0  0  0  0  0  0
  -24.1835  -13.0421   20.9158 C   0  0  0  0  0  0
  -24.6384  -11.6899   20.8717 C   0  0  0  0  0  0
  -23.9055  -10.4295   21.0397 C   0  0  0  0  0  0
  -24.3612   -9.4211   21.9179 C   0  0  0  0  0  0
  -23.6290   -8.2247   22.0754 C   0  0  0  0  0  0
  -22.4275   -8.0282   21.3554 C   0  0  0  0  0  0
  -21.9906   -9.0249   20.4650 C   0  0  0  0  0  0
  -22.7231  -10.2126   20.3052 C   0  0  0  0  0  0
  -21.6851   -6.0736   22.5285 C   0  0  0  0  0  0
  -21.4022   -6.5642   23.8218 C   0  0  0  0  0  0
  -21.3654   -5.6789   24.9179 C   0  0  0  0  0  0
  -21.6044   -4.3059   24.7229 C   0  0  0  0  0  0
  -21.8820   -3.8147   23.4354 C   0  0  0  0  0  0
  -21.9197   -4.6968   22.3403 C   0  0  0  0  0  0
  -22.7867  -13.5238   21.1830 C   0  0  0  0  0  0
  -22.1663   -4.2156   21.0983 F   0  0  0  0  0  0
  -21.5620   -3.4540   25.7736 F   0  0  0  0  0  0
  -30.0420  -13.2263   20.4523 N   0  0  0  0  0  0
  -26.3033  -12.9295   20.3364 N   0  0  0  0  0  0
  -25.9307  -11.6465   20.5738 N   0  0  0  0  0  0
  -22.0514  -12.8226   22.0389 N   0  0  0  0  0  0
  -25.4315  -15.1856   20.4096 N   0  0  0  0  0  0
  -31.7819  -14.6515   20.1012 O   0  0  0  0  0  0
  -21.6646   -6.8882   21.4246 O   0  0  0  0  0  0
  -22.3565  -14.5564   20.6706 O   0  0  0  0  0  0
  -24.6155  -31.8715   23.2105 C   0  0  0  0  0  0
  -25.9035  -32.4847   23.8415 C   0  0  1  0  0  0
  -27.2514  -27.4500   20.0911 C   0  0  0  0  0  0
  -25.5881  -33.8626   24.2346 N   0  0  0  0  0  0
  -23.4062  -30.4918   21.5537 C   0  0  2  0  0  0
  -24.8569  -28.9507   20.1319 C   0  0  0  0  0  0
  -22.7435  -29.4671   22.5032 C   0  0  0  0  0  0
  -18.0276  -28.1386   22.8499 C   0  0  0  0  0  0
  -24.1469  -36.7311   23.2648 C   0  0  0  0  0  0
  -25.9364  -30.8327   21.3706 C   0  0  0  0  0  0
  -26.0170  -29.4616   20.7332 C   0  0  0  0  0  0
  -27.2196  -28.7148   20.7219 C   0  0  0  0  0  0
  -26.0791  -26.9496   19.4919 C   0  0  0  0  0  0
  -24.8800  -27.6860   19.5162 C   0  0  0  0  0  0
  -23.6179  -29.8200   20.1719 C   0  0  0  0  0  0
  -25.4090  -36.3114   24.0351 C   0  0  1  0  0  0
  -20.5876  -28.3676   23.1312 C   0  0  2  0  0  0
  -20.6770  -26.9407   22.5412 C   0  0  0  0  0  0
  -19.5742  -26.6395   21.5219 C   0  0  0  0  0  0
  -18.1914  -26.7944   22.1623 C   0  0  0  0  0  0
  -19.1530  -28.8848   23.2902 C   0  0  0  0  0  0
  -18.9472  -30.1466   23.8902 C   0  0  0  0  0  0
  -17.6476  -30.6606   24.0563 C   0  0  0  0  0  0
  -25.9036  -34.9481   23.5148 C   0  0  0  0  0  0
  -16.5356  -29.9126   23.6313 C   0  0  0  0  0  0
  -16.7269  -28.6534   23.0340 C   0  0  0  0  0  0
  -26.4446  -31.6633   25.0743 C   0  0  0  0  0  0
  -25.3683  -31.3748   26.1480 C   0  0  0  0  0  0
  -27.0291  -30.3080   24.6122 C   0  0  0  0  0  0
  -27.6013  -32.4371   25.7487 C   0  0  0  0  0  0
  -27.5570  -37.1803   24.8468 C   0  0  0  0  0  0
  -21.4163  -29.3056   22.3748 N   0  0  0  0  0  0
  -26.4269  -37.3800   23.9435 N   0  0  0  0  0  0
  -24.6706  -31.0799   22.1028 N   0  0  0  0  0  0
  -23.4183  -28.8203   23.3095 O   0  0  0  0  0  0
  -28.3977  -26.7069   19.9235 O   0  0  0  0  0  0
  -26.5609  -34.8938   22.4719 O   0  0  0  0  0  0
  -23.5350  -32.1465   23.7498 O   0  0  0  0  0  0
  -30.5091  -21.0612   21.7670 C   0  0  0  0  0  0
  -30.7130  -19.8658   22.4835 C   0  0  0  0  0  0
  -32.9115  -21.2808   21.4678 C   0  0  0  0  0  0
  -31.6096  -21.7842   21.2566 C   0  0  0  0  0  0
  -33.1219  -20.0828   22.1864 C   0  0  0  0  0  0
  -32.0136  -19.3596   22.7019 C   0  0  0  0  0  0
  -29.9874  -24.5776   23.5705 C   0  0  0  0  0  0
  -28.7038  -24.8788   23.2867 C   0  0  0  0  0  0
  -31.0456  -24.4595   22.5867 C   0  0  0  0  0  0
  -32.3508  -24.5511   22.9050 C   0  0  0  0  0  0
  -30.9288  -16.6448   21.9705 C   0  0  0  0  0  0
  -31.4783  -16.9836   23.1501 C   0  0  0  0  0  0
  -28.1183  -25.2912   21.9368 C   0  0  0  0  0  0
  -30.1991  -25.2756   20.3927 C   0  0  0  0  0  0
  -29.0748  -26.1327   21.0453 C   0  0  1  0  0  0
  -34.5487  -19.5740   22.3469 C   0  0  0  0  0  0
  -32.9105  -18.3153   24.6758 C   0  0  0  0  0  0
  -31.3987  -23.0820   20.4700 C   0  0  0  0  0  0
  -30.1578  -15.3637   21.7158 C   0  0  0  0  0  0
  -32.1746  -18.1567   23.4220 N   0  0  0  0  0  0
  -30.6018  -24.1020   21.2112 N   0  3  2  0  0  0
  -31.4602  -12.4012   19.0837 H   0  0  0  0  0  0
  -30.3173  -11.2630   19.7397 H   0  0  0  0  0  0
  -29.7186  -11.8557   17.3721 H   0  0  0  0  0  0
  -29.6495  -13.5469   17.8003 H   0  0  0  0  0  0
  -27.8117  -11.3273   18.7688 H   0  0  0  0  0  0
  -27.3555  -12.6923   17.7831 H   0  0  0  0  0  0
  -27.7281  -14.2547   19.6183 H   0  0  0  0  0  0
  -28.6631  -11.8807   21.2970 H   0  0  0  0  0  0
  -28.4477  -13.4925   21.8850 H   0  0  0  0  0  0
  -25.2764   -9.5690   22.4756 H   0  0  0  0  0  0
  -24.0003   -7.4641   22.7480 H   0  0  0  0  0  0
  -21.0838   -8.8778   19.8954 H   0  0  0  0  0  0
  -22.3700  -10.9671   19.6162 H   0  0  0  0  0  0
  -21.2022   -7.6153   23.9727 H   0  0  0  0  0  0
  -21.1469   -6.0522   25.9081 H   0  0  0  0  0  0
  -22.0602   -2.7616   23.2850 H   0  0  0  0  0  0
  -22.4112  -11.9857   22.4742 H   0  0  0  0  0  0
  -21.1143  -13.1267   22.2627 H   0  0  0  0  0  0
  -24.6645  -15.8406   20.5202 H   0  0  0  0  0  0
  -26.2931  -15.6314   20.1174 H   0  0  0  0  0  0
  -26.7123  -32.5577   23.1212 H   0  0  0  0  0  0
  -24.9913  -33.9774   25.0416 H   0  0  0  0  0  0
  -22.6944  -31.3067   21.4084 H   0  0  0  0  0  0
  -23.3724  -35.9649   23.3310 H   0  0  0  0  0  0
  -24.3564  -36.8936   22.2065 H   0  0  0  0  0  0
  -23.7213  -37.6509   23.6664 H   0  0  0  0  0  0
  -26.0514  -31.5883   20.5916 H   0  0  0  0  0  0
  -26.8240  -30.8919   21.9879 H   0  0  0  0  0  0
  -28.1192  -29.1182   21.1641 H   0  0  0  0  0  0
  -26.1022  -25.9884   18.9980 H   0  0  0  0  0  0
  -23.9927  -27.2864   19.0423 H   0  0  0  0  0  0
  -23.7296  -30.5902   19.4084 H   0  0  0  0  0  0
  -22.7419  -29.2402   19.8749 H   0  0  0  0  0  0
  -25.1262  -36.1970   25.0840 H   0  0  0  0  0  0
  -20.9965  -28.3248   24.1436 H   0  0  0  0  0  0
  -20.5694  -26.2287   23.3615 H   0  0  0  0  0  0
  -21.6638  -26.7463   22.1189 H   0  0  0  0  0  0
  -19.6884  -25.6312   21.1251 H   0  0  0  0  0  0
  -19.6673  -27.3211   20.6757 H   0  0  0  0  0  0
  -17.4186  -26.6708   21.4018 H   0  0  0  0  0  0
  -18.0268  -26.0091   22.9015 H   0  0  0  0  0  0
  -19.7949  -30.7261   24.2280 H   0  0  0  0  0  0
  -17.5042  -31.6284   24.5168 H   0  0  0  0  0  0
  -15.5362  -30.3034   23.7659 H   0  0  0  0  0  0
  -15.8655  -28.0878   22.7048 H   0  0  0  0  0  0
  -24.5837  -30.7111   25.7819 H   0  0  0  0  0  0
  -24.8862  -32.2912   26.4904 H   0  0  0  0  0  0
  -25.8002  -30.8920   27.0265 H   0  0  0  0  0  0
  -26.2863  -29.6837   24.1142 H   0  0  0  0  0  0
  -27.4039  -29.7304   25.4595 H   0  0  0  0  0  0
  -27.8698  -30.4413   23.9307 H   0  0  0  0  0  0
  -27.2620  -33.3684   26.2029 H   0  0  0  0  0  0
  -28.3795  -32.6942   25.0287 H   0  0  0  0  0  0
  -28.0685  -31.8518   26.5411 H   0  0  0  0  0  0
  -28.2598  -38.0100   24.7530 H   0  0  0  0  0  0
  -28.1063  -36.2636   24.6267 H   0  0  0  0  0  0
  -27.2302  -37.1417   25.8877 H   0  0  0  0  0  0
  -20.9343  -29.8743   21.6931 H   0  0  0  0  0  0
  -26.0160  -38.2876   24.1441 H   0  0  0  0  0  0
  -29.4984  -21.4131   21.6177 H   0  0  0  0  0  0
  -29.8570  -19.3298   22.8701 H   0  0  0  0  0  0
  -33.7606  -21.8082   21.0536 H   0  0  0  0  0  0
  -30.2235  -24.3270   24.5952 H   0  0  0  0  0  0
  -27.9965  -24.8593   24.1026 H   0  0  0  0  0  0
  -32.6593  -24.7659   23.9171 H   0  0  0  0  0  0
  -33.1371  -24.4178   22.1752 H   0  0  0  0  0  0
  -31.0231  -17.3034   21.1194 H   0  0  0  0  0  0
  -31.3933  -16.3257   24.0058 H   0  0  0  0  0  0
  -27.2367  -25.8836   22.1781 H   0  0  0  0  0  0
  -27.7467  -24.4124   21.4105 H   0  0  0  0  0  0
  -31.0624  -25.8975   20.1538 H   0  0  0  0  0  0
  -29.8271  -24.8970   19.4408 H   0  0  0  0  0  0
  -29.5142  -26.9375   21.6361 H   0  0  0  0  0  0
  -35.2269  -20.0603   21.6481 H   0  0  0  0  0  0
  -34.6078  -18.4981   22.1718 H   0  0  0  0  0  0
  -34.9126  -19.7788   23.3525 H   0  0  0  0  0  0
  -33.1790  -19.3532   24.8789 H   0  0  0  0  0  0
  -33.8305  -17.7311   24.6464 H   0  0  0  0  0  0
  -32.3196  -17.9675   25.5238 H   0  0  0  0  0  0
  -32.3581  -23.5119   20.1820 H   0  0  0  0  0  0
  -30.8921  -22.8224   19.5374 H   0  0  0  0  0  0
  -29.1620  -15.6594   21.3820 H   0  0  0  0  0  0
  -30.0413  -14.8423   22.6678 H   0  0  0  0  0  0
  -29.7242  -23.6219   21.3443 H   0  0  0  0  0  0
  1 25  1  0  0  0
  1 30  2  0  0  0
  1 89  1  0  0  0
  2  3  1  0  0  0
  2 25  1  0  0  0
  2 92  1  0  0  0
  2 93  1  0  0  0
  3  4  1  0  0  0
  3 94  1  0  0  0
  3 95  1  0  0  0
  4  5  1  0  0  0
  4 96  1  0  0  0
  4 97  1  0  0  0
  5  6  1  0  0  0
  5 26  1  0  0  0
  5 98  1  0  0  0
  6 25  1  0  0  0
  6 99  1  0  0  0
  6100  1  0  0  0
  7  8  2  0  0  0
  7 26  1  0  0  0
  7 29  1  0  0  0
  8  9  1  0  0  0
  8 22  1  0  0  0
  9 10  1  0  0  0
  9 27  2  0  0  0
 10 11  2  0  0  0
 10 15  1  0  0  0
 11 12  1  0  0  0
 11101  1  0  0  0
 12 13  2  0  0  0
 12102  1  0  0  0
 13 14  1  0  0  0
 13 31  1  0  0  0
 14 15  2  0  0  0
 14103  1  0  0  0
 15104  1  0  0  0
 16 17  2  0  0  0
 16 21  1  0  0  0
 16 31  1  0  0  0
 17 18  1  0  0  0
 17105  1  0  0  0
 18 19  2  0  0  0
 18106  1  0  0  0
 19 20  1  0  0  0
 19 24  1  0  0  0
 20 21  2  0  0  0
 20107  1  0  0  0
 21 23  1  0  0  0
 22 28  1  0  0  0
 22 32  2  0  0  0
 26 27  1  0  0  0
 28108  1  0  0  0
 28109  1  0  0  0
 29110  1  0  0  0
 29111  1  0  0  0
 33 34  1  0  0  0
 33 66  1  0  0  0
 33 70  2  0  0  0
 34 36  1  0  0  0
 34 59  1  0  0  0
 34112  1  0  0  0
 35 44  2  0  0  0
 35 45  1  0  0  0
 35 68  1  0  0  0
 36 56  1  0  0  0
 36113  1  0  0  0
 37 39  1  0  0  0
 37 47  1  0  0  0
 37 66  1  0  0  0
 37114  1  0  0  0
 38 43  2  0  0  0
 38 46  1  0  0  0
 38 47  1  0  0  0
 39 64  1  0  0  0
 39 67  2  0  0  0
 40 52  1  0  0  0
 40 53  2  0  0  0
 40 58  1  0  0  0
 41115  1  0  0  0
 41116  1  0  0  0
 41117  1  0  0  0
 41 48  1  0  0  0
 42 43  1  0  0  0
 42 66  1  0  0  0
 42118  1  0  0  0
 42119  1  0  0  0
 43 44  1  0  0  0
 44120  1  0  0  0
 45 46  2  0  0  0
 45121  1  0  0  0
 46122  1  0  0  0
 47123  1  0  0  0
 47124  1  0  0  0
 48 56  1  0  0  0
 48 65  1  0  0  0
 48125  1  0  0  0
 49 50  1  0  0  0
 49 53  1  0  0  0
 49 64  1  0  0  0
 49126  1  0  0  0
 50 51  1  0  0  0
 50127  1  0  0  0
 50128  1  0  0  0
 51 52  1  0  0  0
 51129  1  0  0  0
 51130  1  0  0  0
 52131  1  0  0  0
 52132  1  0  0  0
 53 54  1  0  0  0
 54 55  2  0  0  0
 54133  1  0  0  0
 55 57  1  0  0  0
 55134  1  0  0  0
 56 69  2  0  0  0
 57 58  2  0  0  0
 57135  1  0  0  0
 58136  1  0  0  0
 59 60  1  0  0  0
 59 61  1  0  0  0
 59 62  1  0  0  0
 60137  1  0  0  0
 60138  1  0  0  0
 60139  1  0  0  0
 61140  1  0  0  0
 61141  1  0  0  0
 61142  1  0  0  0
 62143  1  0  0  0
 62144  1  0  0  0
 62145  1  0  0  0
 63 65  1  0  0  0
 63146  1  0  0  0
 63147  1  0  0  0
 63148  1  0  0  0
 64149  1  0  0  0
 65150  1  0  0  0
 68 85  1  0  0  0
 71 72  2  0  0  0
 71 74  1  0  0  0
 71151  1  0  0  0
 72 76  1  0  0  0
 72152  1  0  0  0
 73 74  2  0  0  0
 73 75  1  0  0  0
 73153  1  0  0  0
 74 88  1  0  0  0
 75 76  2  0  0  0
 75 86  1  0  0  0
 76 90  1  0  0  0
 77 78  2  0  0  0
 77 79  1  0  0  0
 77154  1  0  0  0
 78 83  1  0  0  0
 78155  1  0  0  0
 79 80  2  0  0  0
 79 91  1  0  0  0
 80156  1  0  0  0
 80157  1  0  0  0
 81 82  2  0  0  0
 81 89  1  0  0  0
 81158  1  0  0  0
 82 90  1  0  0  0
 82159  1  0  0  0
 83 85  1  0  0  0
 83160  1  0  0  0
 83161  1  0  0  0
 84 85  1  0  0  0
 84 91  1  0  0  0
 84162  1  0  0  0
 84163  1  0  0  0
 85164  1  0  0  0
 86165  1  0  0  0
 86166  1  0  0  0
 86167  1  0  0  0
 87 90  1  0  0  0
 87168  1  0  0  0
 87169  1  0  0  0
 87170  1  0  0  0
 88171  1  0  0  0
 88172  1  0  0  0
 88 91  1  0  0  0
 89173  1  0  0  0
 89174  1  0  0  0
 91175  1  0  0  0
M  CHG  1  91   1
M  ISO  4   1 100  68 101  85 101  89 100
M  END
> <chiral flag>
0

> <version>
0

> <s_m_source_file>
/data/baiqing/PycharmProjects/Reinvent-master-3.2/result/LINK_invent/BTK/process_docking_weight1_custom_product_contain_oxygen_bond_distance_aromatic_linkinvent_7_9_3/rearranged_h_0039.sdf

> <i_m_source_file_index>
67

> <r_mmod_Potential_Energy-OPLS-2005>
-105.214859008789

> <r_mmod_Stretch_Energy-OPLS-2005>
37.5179328918457

> <r_mmod_Bend_Energy-OPLS-2005>
110.987930297852

> <r_mmod_Torsional_Energy-OPLS-2005>
228.01530456543

> <r_mmod_Improper_Torsional_Energy-OPLS-2005>
2.75985479354858

> <r_mmod_Van_der_Waal_Energy-OPLS-2005>
162.591888427734

> <r_mmod_Electrostatic_Energy-OPLS-2005>
-256.682189941406

> <r_mmod_Solvation_Energy-OPLS-2005>
-398.626953125

> <b_mmod_Minimization_Converged-OPLS-2005>
0

> <r_mmod_RMS_Derivative-OPLS-2005>
3.68668127059937

$$$$
68
                    3D
 Structure written by MMmdl.
169177  0  0  1  0            999 V2000
  -30.5999  -14.6885   20.5303 C   0  0  0  0  0  0
  -30.4509  -12.4330   19.4562 C   0  0  0  0  0  0
  -29.5125  -12.5310   18.2304 C   0  0  0  0  0  0
  -28.0360  -12.3559   18.6412 C   0  0  0  0  0  0
  -27.6563  -13.2194   19.8732 C   0  0  2  0  0  0
  -28.7038  -13.0674   21.0004 C   0  0  0  0  0  0
  -25.2434  -13.8091   20.5402 C   0  0  0  0  0  0
  -24.1777  -13.0381   20.9111 C   0  0  0  0  0  0
  -24.6417  -11.6876   20.8778 C   0  0  0  0  0  0
  -23.9099  -10.4268   21.0445 C   0  0  0  0  0  0
  -24.3640   -9.4179   21.9219 C   0  0  0  0  0  0
  -23.6297   -8.2225   22.0781 C   0  0  0  0  0  0
  -22.4284   -8.0280   21.3558 C   0  0  0  0  0  0
  -21.9931   -9.0263   20.4664 C   0  0  0  0  0  0
  -22.7278  -10.2128   20.3080 C   0  0  0  0  0  0
  -21.6848   -6.0737   22.5278 C   0  0  0  0  0  0
  -21.4013   -6.5644   23.8211 C   0  0  0  0  0  0
  -21.3652   -5.6796   24.9171 C   0  0  0  0  0  0
  -21.6036   -4.3057   24.7220 C   0  0  0  0  0  0
  -21.8825   -3.8151   23.4342 C   0  0  0  0  0  0
  -21.9194   -4.6967   22.3398 C   0  0  0  0  0  0
  -22.7804  -13.5180   21.1791 C   0  0  0  0  0  0
  -22.1660   -4.2152   21.0979 F   0  0  0  0  0  0
  -21.5627   -3.4541   25.7736 F   0  0  0  0  0  0
  -30.0172  -13.4429   20.4446 N   0  0  0  0  0  0
  -26.2994  -12.9343   20.3356 N   0  0  0  0  0  0
  -25.9369  -11.6499   20.5875 N   0  0  0  0  0  0
  -22.0490  -12.8193   22.0400 N   0  0  0  0  0  0
  -25.3888  -15.1738   20.3336 N   0  0  0  0  0  0
  -31.7369  -14.8958   20.0966 O   0  0  0  0  0  0
  -21.6641   -6.8880   21.4246 O   0  0  0  0  0  0
  -22.3469  -14.5488   20.6660 O   0  0  0  0  0  0
  -24.6259  -31.8566   23.1999 C   0  0  0  0  0  0
  -25.9096  -32.4760   23.8330 C   0  0  1  0  0  0
  -27.2294  -27.3089   20.1374 C   0  0  0  0  0  0
  -25.5899  -33.8569   24.2263 N   0  0  0  0  0  0
  -23.4212  -30.4794   21.5419 C   0  0  2  0  0  0
  -24.8702  -28.9221   20.1205 C   0  0  0  0  0  0
  -22.7465  -29.4606   22.4910 C   0  0  0  0  0  0
  -18.0289  -28.1402   22.8494 C   0  0  0  0  0  0
  -24.1485  -36.7292   23.2639 C   0  0  0  0  0  0
  -25.9611  -30.7853   21.3718 C   0  0  0  0  0  0
  -26.0366  -29.4065   20.7277 C   0  0  0  0  0  0
  -27.2210  -28.6103   20.7266 C   0  0  0  0  0  0
  -26.0435  -26.8684   19.5167 C   0  0  0  0  0  0
  -24.8728  -27.6568   19.5101 C   0  0  0  0  0  0
  -23.6388  -29.8077   20.1593 C   0  0  0  0  0  0
  -25.4101  -36.3069   24.0329 C   0  0  1  0  0  0
  -20.5897  -28.3676   23.1289 C   0  0  2  0  0  0
  -20.6791  -26.9400   22.5419 C   0  0  0  0  0  0
  -19.5765  -26.6377   21.5226 C   0  0  0  0  0  0
  -18.1932  -26.7954   22.1622 C   0  0  0  0  0  0
  -19.1543  -28.8850   23.2898 C   0  0  0  0  0  0
  -18.9474  -30.1465   23.8895 C   0  0  0  0  0  0
  -17.6469  -30.6598   24.0566 C   0  0  0  0  0  0
  -25.9026  -34.9439   23.5096 C   0  0  0  0  0  0
  -16.5359  -29.9106   23.6333 C   0  0  0  0  0  0
  -16.7272  -28.6534   23.0337 C   0  0  0  0  0  0
  -26.4482  -31.6582   25.0707 C   0  0  0  0  0  0
  -25.3730  -31.3750   26.1450 C   0  0  0  0  0  0
  -27.0303  -30.3002   24.6148 C   0  0  0  0  0  0
  -27.6024  -32.4319   25.7496 C   0  0  0  0  0  0
  -27.5572  -37.1794   24.8462 C   0  0  0  0  0  0
  -21.4174  -29.3044   22.3674 N   0  0  0  0  0  0
  -26.4281  -37.3761   23.9407 N   0  0  0  0  0  0
  -24.6883  -31.0577   22.0955 N   0  0  0  0  0  0
  -23.4198  -28.8134   23.2973 O   0  0  0  0  0  0
  -28.3630  -26.4936   20.0490 O   0  0  0  0  0  0
  -26.5604  -34.8919   22.4662 O   0  0  0  0  0  0
  -23.5414  -32.1366   23.7322 O   0  0  0  0  0  0
  -30.5774  -18.1128   20.4687 C   0  0  0  0  0  0
  -28.1337  -19.0641   21.4710 C   0  0  0  0  0  0
  -30.3141  -19.5374   20.5297 C   0  0  0  0  0  0
  -29.0794  -20.0590   21.0542 C   0  0  0  0  0  0
  -29.6643  -17.1440   20.9772 C   0  0  0  0  0  0
  -28.4611  -17.6739   21.5068 C   0  0  0  0  0  0
  -35.7573  -19.6787   18.0375 C   0  0  0  0  0  0
  -26.7583  -19.4247   21.8731 C   0  0  0  0  0  0
  -34.4176  -19.6099   18.1302 C   0  0  0  0  0  0
  -25.9128  -20.1144   21.0853 C   0  0  0  0  0  0
  -33.7103  -20.2253   19.2378 C   0  0  0  0  0  0
  -28.2672  -23.8855   20.4822 C   0  0  0  0  0  0
  -24.4958  -20.4910   21.4572 C   0  0  0  0  0  0
  -31.3899  -20.5257   20.0845 C   0  0  0  0  0  0
  -28.7930  -21.5837   21.4630 C   0  0  0  0  0  0
  -28.5512  -25.3667   20.9875 C   0  0  0  0  0  0
  -29.7878  -15.6731   21.0342 N   0  0  0  0  0  0
  -32.3981  -19.9787   19.1812 N   0  0  0  0  0  0
  -29.1541  -22.8622   20.7436 N   0  0  0  0  0  0
  -34.2272  -20.9090   20.1246 O   0  0  0  0  0  0
  -27.1719  -23.6357   19.9752 O   0  0  0  0  0  0
  -27.3661  -16.5681   22.2727 Cl  0  0  0  0  0  0
  -31.4870  -12.5843   19.1501 H   0  0  0  0  0  0
  -30.4113  -11.4349   19.8944 H   0  0  0  0  0  0
  -29.7843  -11.7801   17.4876 H   0  0  0  0  0  0
  -29.6404  -13.5004   17.7455 H   0  0  0  0  0  0
  -27.8788  -11.3011   18.8672 H   0  0  0  0  0  0
  -27.3796  -12.5890   17.8011 H   0  0  0  0  0  0
  -27.6748  -14.2582   19.5416 H   0  0  0  0  0  0
  -28.7298  -12.0394   21.3640 H   0  0  0  0  0  0
  -28.4331  -13.6738   21.8654 H   0  0  0  0  0  0
  -25.2793   -9.5632   22.4793 H   0  0  0  0  0  0
  -24.0001   -7.4606   22.7495 H   0  0  0  0  0  0
  -21.0870   -8.8796   19.8954 H   0  0  0  0  0  0
  -22.3773  -10.9674   19.6183 H   0  0  0  0  0  0
  -21.2010   -7.6154   23.9713 H   0  0  0  0  0  0
  -21.1461   -6.0528   25.9073 H   0  0  0  0  0  0
  -22.0612   -2.7615   23.2846 H   0  0  0  0  0  0
  -22.4147  -11.9857   22.4762 H   0  0  0  0  0  0
  -21.1129  -13.1222   22.2677 H   0  0  0  0  0  0
  -24.6185  -15.8220   20.4473 H   0  0  0  0  0  0
  -26.2536  -15.6313   20.0808 H   0  0  0  0  0  0
  -26.7146  -32.5427   23.1069 H   0  0  0  0  0  0
  -25.0066  -33.9710   25.0418 H   0  0  0  0  0  0
  -22.7153  -31.2994   21.3921 H   0  0  0  0  0  0
  -23.3742  -35.9631   23.3292 H   0  0  0  0  0  0
  -24.3579  -36.8911   22.2054 H   0  0  0  0  0  0
  -23.7257  -37.6497   23.6670 H   0  0  0  0  0  0
  -26.0859  -31.5403   20.5940 H   0  0  0  0  0  0
  -26.8452  -30.8415   21.9950 H   0  0  0  0  0  0
  -28.1261  -28.9862   21.1818 H   0  0  0  0  0  0
  -26.0230  -25.9029   19.0316 H   0  0  0  0  0  0
  -23.9782  -27.2812   19.0332 H   0  0  0  0  0  0
  -23.7650  -30.5818   19.3993 H   0  0  0  0  0  0
  -22.7599  -29.2378   19.8536 H   0  0  0  0  0  0
  -25.1291  -36.1897   25.0823 H   0  0  0  0  0  0
  -20.9984  -28.3252   24.1411 H   0  0  0  0  0  0
  -20.5693  -26.2278   23.3609 H   0  0  0  0  0  0
  -21.6654  -26.7441   22.1196 H   0  0  0  0  0  0
  -19.6923  -25.6287   21.1251 H   0  0  0  0  0  0
  -19.6726  -27.3203   20.6770 H   0  0  0  0  0  0
  -17.4212  -26.6691   21.4021 H   0  0  0  0  0  0
  -18.0327  -26.0121   22.9029 H   0  0  0  0  0  0
  -19.7953  -30.7295   24.2250 H   0  0  0  0  0  0
  -17.5032  -31.6282   24.5173 H   0  0  0  0  0  0
  -15.5366  -30.3003   23.7687 H   0  0  0  0  0  0
  -15.8672  -28.0866   22.7023 H   0  0  0  0  0  0
  -24.5894  -30.7094   25.7807 H   0  0  0  0  0  0
  -24.8957  -32.2946   26.4848 H   0  0  0  0  0  0
  -25.8077  -30.8960   27.0233 H   0  0  0  0  0  0
  -26.2873  -29.6768   24.1163 H   0  0  0  0  0  0
  -27.3998  -29.7217   25.4624 H   0  0  0  0  0  0
  -27.8742  -30.4273   23.9360 H   0  0  0  0  0  0
  -27.2608  -33.3615   26.2057 H   0  0  0  0  0  0
  -28.3869  -32.6870   25.0359 H   0  0  0  0  0  0
  -28.0654  -31.8458   26.5442 H   0  0  0  0  0  0
  -28.2569  -38.0106   24.7487 H   0  0  0  0  0  0
  -28.1080  -36.2631   24.6299 H   0  0  0  0  0  0
  -27.2292  -37.1448   25.8865 H   0  0  0  0  0  0
  -20.9330  -29.8766   21.6908 H   0  0  0  0  0  0
  -26.0150  -38.2819   24.1439 H   0  0  0  0  0  0
  -31.5211  -17.7574   20.0800 H   0  0  0  0  0  0
  -36.2760  -19.2233   17.2060 H   0  0  0  0  0  0
  -36.3587  -20.1848   18.7806 H   0  0  0  0  0  0
  -26.4346  -19.1109   22.8567 H   0  0  0  0  0  0
  -33.8689  -19.0888   17.3571 H   0  0  0  0  0  0
  -26.2452  -20.4352   20.1071 H   0  0  0  0  0  0
  -24.2294  -20.1187   22.4470 H   0  0  0  0  0  0
  -23.7958  -20.0716   20.7333 H   0  0  0  0  0  0
  -24.3805  -21.5757   21.4513 H   0  0  0  0  0  0
  -31.8462  -20.9425   20.9840 H   0  0  0  0  0  0
  -30.9208  -21.3529   19.5537 H   0  0  0  0  0  0
  -29.3226  -21.6782   22.4113 H   0  0  0  0  0  0
  -27.7603  -21.7101   21.7746 H   0  0  0  0  0  0
  -29.5810  -25.4115   21.3417 H   0  0  0  0  0  0
  -27.9329  -25.5353   21.8705 H   0  0  0  0  0  0
  -28.9523  -15.2606   21.4231 H   0  0  0  0  0  0
  -32.0652  -19.4166   18.4118 H   0  0  0  0  0  0
  -30.0772  -23.1962   20.9836 H   0  0  0  0  0  0
  1 25  1  0  0  0
  1 30  2  0  0  0
  1 87  1  0  0  0
  2  3  1  0  0  0
  2 25  1  0  0  0
  2 93  1  0  0  0
  2 94  1  0  0  0
  3  4  1  0  0  0
  3 95  1  0  0  0
  3 96  1  0  0  0
  4  5  1  0  0  0
  4 97  1  0  0  0
  4 98  1  0  0  0
  5  6  1  0  0  0
  5 26  1  0  0  0
  5 99  1  0  0  0
  6 25  1  0  0  0
  6100  1  0  0  0
  6101  1  0  0  0
  7  8  2  0  0  0
  7 26  1  0  0  0
  7 29  1  0  0  0
  8  9  1  0  0  0
  8 22  1  0  0  0
  9 10  1  0  0  0
  9 27  2  0  0  0
 10 11  2  0  0  0
 10 15  1  0  0  0
 11 12  1  0  0  0
 11102  1  0  0  0
 12 13  2  0  0  0
 12103  1  0  0  0
 13 14  1  0  0  0
 13 31  1  0  0  0
 14 15  2  0  0  0
 14104  1  0  0  0
 15105  1  0  0  0
 16 17  2  0  0  0
 16 21  1  0  0  0
 16 31  1  0  0  0
 17 18  1  0  0  0
 17106  1  0  0  0
 18 19  2  0  0  0
 18107  1  0  0  0
 19 20  1  0  0  0
 19 24  1  0  0  0
 20 21  2  0  0  0
 20108  1  0  0  0
 21 23  1  0  0  0
 22 28  1  0  0  0
 22 32  2  0  0  0
 26 27  1  0  0  0
 28109  1  0  0  0
 28110  1  0  0  0
 29111  1  0  0  0
 29112  1  0  0  0
 33 34  1  0  0  0
 33 66  1  0  0  0
 33 70  2  0  0  0
 34 36  1  0  0  0
 34 59  1  0  0  0
 34113  1  0  0  0
 35 44  2  0  0  0
 35 45  1  0  0  0
 35 68  1  0  0  0
 36 56  1  0  0  0
 36114  1  0  0  0
 37 39  1  0  0  0
 37 47  1  0  0  0
 37 66  1  0  0  0
 37115  1  0  0  0
 38 43  2  0  0  0
 38 46  1  0  0  0
 38 47  1  0  0  0
 39 64  1  0  0  0
 39 67  2  0  0  0
 40 52  1  0  0  0
 40 53  2  0  0  0
 40 58  1  0  0  0
 41116  1  0  0  0
 41117  1  0  0  0
 41118  1  0  0  0
 41 48  1  0  0  0
 42 43  1  0  0  0
 42 66  1  0  0  0
 42119  1  0  0  0
 42120  1  0  0  0
 43 44  1  0  0  0
 44121  1  0  0  0
 45 46  2  0  0  0
 45122  1  0  0  0
 46123  1  0  0  0
 47124  1  0  0  0
 47125  1  0  0  0
 48 56  1  0  0  0
 48 65  1  0  0  0
 48126  1  0  0  0
 49 50  1  0  0  0
 49 53  1  0  0  0
 49 64  1  0  0  0
 49127  1  0  0  0
 50 51  1  0  0  0
 50128  1  0  0  0
 50129  1  0  0  0
 51 52  1  0  0  0
 51130  1  0  0  0
 51131  1  0  0  0
 52132  1  0  0  0
 52133  1  0  0  0
 53 54  1  0  0  0
 54 55  2  0  0  0
 54134  1  0  0  0
 55 57  1  0  0  0
 55135  1  0  0  0
 56 69  2  0  0  0
 57 58  2  0  0  0
 57136  1  0  0  0
 58137  1  0  0  0
 59 60  1  0  0  0
 59 61  1  0  0  0
 59 62  1  0  0  0
 60138  1  0  0  0
 60139  1  0  0  0
 60140  1  0  0  0
 61141  1  0  0  0
 61142  1  0  0  0
 61143  1  0  0  0
 62144  1  0  0  0
 62145  1  0  0  0
 62146  1  0  0  0
 63 65  1  0  0  0
 63147  1  0  0  0
 63148  1  0  0  0
 63149  1  0  0  0
 64150  1  0  0  0
 65151  1  0  0  0
 68 86  1  0  0  0
 71 73  2  0  0  0
 71 75  1  0  0  0
 71152  1  0  0  0
 72 74  2  0  0  0
 72 76  1  0  0  0
 72 78  1  0  0  0
 73 74  1  0  0  0
 73 84  1  0  0  0
 74 85  1  0  0  0
 75 76  2  0  0  0
 75 87  1  0  0  0
 76 92  1  0  0  0
 77 79  2  0  0  0
 77153  1  0  0  0
 77154  1  0  0  0
 78 80  2  0  0  0
 78155  1  0  0  0
 79 81  1  0  0  0
 79156  1  0  0  0
 80 83  1  0  0  0
 80157  1  0  0  0
 81 88  1  0  0  0
 81 90  2  0  0  0
 82 86  1  0  0  0
 82 89  1  0  0  0
 82 91  2  0  0  0
 83158  1  0  0  0
 83159  1  0  0  0
 83160  1  0  0  0
 84 88  1  0  0  0
 84161  1  0  0  0
 84162  1  0  0  0
 85 89  1  0  0  0
 85163  1  0  0  0
 85164  1  0  0  0
 86165  1  0  0  0
 86166  1  0  0  0
 87167  1  0  0  0
 88168  1  0  0  0
 89169  1  0  0  0
M  ISO  4   1 100  68 101  86 101  87 100
M  END
> <chiral flag>
0

> <version>
0

> <s_m_source_file>
/data/baiqing/PycharmProjects/Reinvent-master-3.2/result/LINK_invent/BTK/process_docking_weight1_custom_product_contain_oxygen_bond_distance_aromatic_linkinvent_7_9_3/rearranged_h_0039.sdf

> <i_m_source_file_index>
68

> <r_mmod_Potential_Energy-OPLS-2005>
31.3874683380127

> <r_mmod_Stretch_Energy-OPLS-2005>
97.9807586669922

> <r_mmod_Bend_Energy-OPLS-2005>
204.1630859375

> <r_mmod_Torsional_Energy-OPLS-2005>
297.079498291016

> <r_mmod_Improper_Torsional_Energy-OPLS-2005>
9.86408615112305

> <r_mmod_Van_der_Waal_Energy-OPLS-2005>
148.212661743164

> <r_mmod_Electrostatic_Energy-OPLS-2005>
-524.96484375

> <r_mmod_Solvation_Energy-OPLS-2005>
-256.799560546875

> <b_mmod_Minimization_Converged-OPLS-2005>
0

> <r_mmod_RMS_Derivative-OPLS-2005>
2.56651282310486

$$$$
69
                    3D
 Structure written by MMmdl.
165173  0  0  1  0            999 V2000
  -30.7548  -14.4370   20.3953 C   0  0  0  0  0  0
  -30.4272  -12.2572   19.3906 C   0  0  0  0  0  0
  -29.4609  -12.4421   18.2000 C   0  0  0  0  0  0
  -28.0025  -12.2923   18.6665 C   0  0  0  0  0  0
  -27.6660  -13.1913   19.8763 C   0  0  2  0  0  0
  -28.7371  -13.0513   20.9863 C   0  0  0  0  0  0
  -25.2657  -13.8152   20.5807 C   0  0  0  0  0  0
  -24.1869  -13.0490   20.9218 C   0  0  0  0  0  0
  -24.6381  -11.6904   20.8786 C   0  0  0  0  0  0
  -23.8965  -10.4317   21.0425 C   0  0  0  0  0  0
  -24.3562   -9.4249   21.9184 C   0  0  0  0  0  0
  -23.6299   -8.2274   22.0737 C   0  0  0  0  0  0
  -22.4284   -8.0297   21.3539 C   0  0  0  0  0  0
  -21.9918   -9.0198   20.4643 C   0  0  0  0  0  0
  -22.7149  -10.2126   20.3077 C   0  0  0  0  0  0
  -21.6900   -6.0694   22.5214 C   0  0  0  0  0  0
  -21.4027   -6.5616   23.8144 C   0  0  0  0  0  0
  -21.3657   -5.6796   24.9123 C   0  0  0  0  0  0
  -21.6080   -4.3055   24.7197 C   0  0  0  0  0  0
  -21.8817   -3.8110   23.4315 C   0  0  0  0  0  0
  -21.9233   -4.6929   22.3359 C   0  0  0  0  0  0
  -22.7861  -13.5246   21.1864 C   0  0  0  0  0  0
  -22.1704   -4.2112   21.0958 F   0  0  0  0  0  0
  -21.5668   -3.4559   25.7713 F   0  0  0  0  0  0
  -30.0610  -13.2735   20.3872 N   0  0  0  0  0  0
  -26.3096  -12.9285   20.3594 N   0  0  0  0  0  0
  -25.9341  -11.6431   20.5899 N   0  0  0  0  0  0
  -22.0529  -12.8212   22.0406 N   0  0  0  0  0  0
  -25.4450  -15.1870   20.4114 N   0  0  0  0  0  0
  -31.9646  -14.4926   20.1905 O   0  0  0  0  0  0
  -21.6684   -6.8845   21.4193 O   0  0  0  0  0  0
  -22.3533  -14.5613   20.6809 O   0  0  0  0  0  0
  -24.6142  -31.8647   23.2033 C   0  0  0  0  0  0
  -25.9039  -32.4791   23.8319 C   0  0  1  0  0  0
  -27.2480  -27.4444   20.0582 C   0  0  0  0  0  0
  -25.5882  -33.8588   24.2243 N   0  0  0  0  0  0
  -23.4010  -30.4836   21.5492 C   0  0  2  0  0  0
  -24.8444  -28.9521   20.1112 C   0  0  0  0  0  0
  -22.7414  -29.4591   22.5000 C   0  0  0  0  0  0
  -18.0249  -28.1368   22.8520 C   0  0  0  0  0  0
  -24.1514  -36.7311   23.2634 C   0  0  0  0  0  0
  -25.9279  -30.8325   21.3562 C   0  0  0  0  0  0
  -26.0068  -29.4686   20.7006 C   0  0  0  0  0  0
  -27.2072  -28.7230   20.6614 C   0  0  0  0  0  0
  -26.0533  -26.9237   19.5014 C   0  0  0  0  0  0
  -24.8665  -27.6830   19.5088 C   0  0  0  0  0  0
  -23.6016  -29.8148   20.1644 C   0  0  0  0  0  0
  -25.4134  -36.3053   24.0304 C   0  0  1  0  0  0
  -20.5859  -28.3624   23.1340 C   0  0  2  0  0  0
  -20.6743  -26.9352   22.5454 C   0  0  0  0  0  0
  -19.5717  -26.6374   21.5255 C   0  0  0  0  0  0
  -18.1897  -26.7913   22.1662 C   0  0  0  0  0  0
  -19.1517  -28.8807   23.2917 C   0  0  0  0  0  0
  -18.9428  -30.1415   23.8928 C   0  0  0  0  0  0
  -17.6436  -30.6575   24.0553 C   0  0  0  0  0  0
  -25.9056  -34.9444   23.5059 C   0  0  0  0  0  0
  -16.5323  -29.9083   23.6320 C   0  0  0  0  0  0
  -16.7233  -28.6489   23.0357 C   0  0  0  0  0  0
  -26.4465  -31.6576   25.0667 C   0  0  0  0  0  0
  -25.3720  -31.3719   26.1413 C   0  0  0  0  0  0
  -27.0297  -30.3005   24.6070 C   0  0  0  0  0  0
  -27.6011  -32.4339   25.7451 C   0  0  0  0  0  0
  -27.5594  -37.1803   24.8456 C   0  0  0  0  0  0
  -21.4132  -29.2999   22.3789 N   0  0  0  0  0  0
  -26.4308  -37.3761   23.9382 N   0  0  0  0  0  0
  -24.6663  -31.0742   22.0946 N   0  0  0  0  0  0
  -23.4230  -28.8171   23.3046 O   0  0  0  0  0  0
  -28.4616  -26.7805   20.0168 O   0  0  0  0  0  0
  -26.5658  -34.8914   22.4665 O   0  0  0  0  0  0
  -23.5343  -32.1418   23.7439 O   0  0  0  0  0  0
  -29.4566  -18.8504   19.2827 C   0  0  0  0  0  0
  -30.6249  -20.6800   20.4230 C   0  0  0  0  0  0
  -29.4972  -20.1951   19.7042 C   0  0  0  0  0  0
  -30.4964  -17.9516   19.5982 C   0  0  0  0  0  0
  -31.7206  -19.7936   20.6672 C   0  0  0  0  0  0
  -31.6311  -18.4173   20.3075 C   0  0  0  0  0  0
  -30.5780  -21.9924   21.1445 C   0  0  0  0  0  0
  -28.2640  -21.0398   19.4105 C   0  0  0  0  0  0
  -32.9908  -20.2555   21.3871 C   0  0  0  0  0  0
  -32.7281  -17.4192   20.7045 C   0  0  0  0  0  0
  -30.3829  -16.5015   19.1279 C   0  0  0  0  0  0
  -30.0506  -25.0462   19.4142 C   0  0  0  0  0  0
  -28.5582  -25.4552   19.4785 C   0  0  0  0  0  0
  -30.4217  -23.2603   20.7133 N   0  0  0  0  0  0
  -30.1201  -23.5648   19.5508 N   0  0  0  0  0  0
  -30.0007  -15.5163   20.1508 N   0  0  0  0  0  0
  -30.6379  -21.9325   22.4315 N   0  3  0  0  0  0
  -31.4614  -12.3509   19.0475 H   0  0  0  0  0  0
  -30.3368  -11.2491   19.7982 H   0  0  0  0  0  0
  -29.6620  -11.6911   17.4349 H   0  0  0  0  0  0
  -29.5880  -13.4188   17.7343 H   0  0  0  0  0  0
  -27.8631  -11.2459   18.9454 H   0  0  0  0  0  0
  -27.3060  -12.4941   17.8569 H   0  0  0  0  0  0
  -27.6920  -14.2115   19.5024 H   0  0  0  0  0  0
  -28.5509  -13.7619   21.7925 H   0  0  0  0  0  0
  -28.7103  -12.0603   21.4460 H   0  0  0  0  0  0
  -25.2657   -9.5816   22.4776 H   0  0  0  0  0  0
  -24.0032   -7.4698   22.7458 H   0  0  0  0  0  0
  -21.0910   -8.8686   19.8913 H   0  0  0  0  0  0
  -22.3530  -10.9701   19.6270 H   0  0  0  0  0  0
  -21.1957   -7.6125   23.9645 H   0  0  0  0  0  0
  -21.1525   -6.0513   25.9037 H   0  0  0  0  0  0
  -22.0601   -2.7579   23.2803 H   0  0  0  0  0  0
  -22.4077  -11.9781   22.4672 H   0  0  0  0  0  0
  -21.1147  -13.1221   22.2605 H   0  0  0  0  0  0
  -24.6808  -15.8475   20.5029 H   0  0  0  0  0  0
  -26.2910  -15.6196   20.0653 H   0  0  0  0  0  0
  -26.7108  -32.5482   23.1085 H   0  0  0  0  0  0
  -24.9929  -33.9738   25.0313 H   0  0  0  0  0  0
  -22.6871  -31.3005   21.4189 H   0  0  0  0  0  0
  -23.3743  -35.9685   23.3302 H   0  0  0  0  0  0
  -24.3581  -36.8930   22.2035 H   0  0  0  0  0  0
  -23.7328  -37.6545   23.6672 H   0  0  0  0  0  0
  -26.0486  -31.6066   20.5979 H   0  0  0  0  0  0
  -26.8128  -30.8725   21.9780 H   0  0  0  0  0  0
  -28.1119  -29.1330   21.0895 H   0  0  0  0  0  0
  -26.0298  -25.9447   19.0458 H   0  0  0  0  0  0
  -23.9730  -27.2808   19.0475 H   0  0  0  0  0  0
  -23.6852  -30.5954   19.4032 H   0  0  0  0  0  0
  -22.7254  -29.2250   19.8802 H   0  0  0  0  0  0
  -25.1329  -36.1886   25.0797 H   0  0  0  0  0  0
  -20.9920  -28.3188   24.1468 H   0  0  0  0  0  0
  -20.5651  -26.2227   23.3639 H   0  0  0  0  0  0
  -21.6602  -26.7416   22.1235 H   0  0  0  0  0  0
  -19.6878  -25.6314   21.1205 H   0  0  0  0  0  0
  -19.6632  -27.3250   20.6825 H   0  0  0  0  0  0
  -17.4165  -26.6662   21.4034 H   0  0  0  0  0  0
  -18.0259  -26.0047   22.9031 H   0  0  0  0  0  0
  -19.7891  -30.7218   24.2332 H   0  0  0  0  0  0
  -17.4970  -31.6252   24.5141 H   0  0  0  0  0  0
  -15.5319  -30.2972   23.7602 H   0  0  0  0  0  0
  -15.8645  -28.0785   22.7076 H   0  0  0  0  0  0
  -24.5866  -30.7112   25.7741 H   0  0  0  0  0  0
  -24.8965  -32.2891   26.4863 H   0  0  0  0  0  0
  -25.8015  -30.8867   27.0174 H   0  0  0  0  0  0
  -26.2830  -29.6799   24.1103 H   0  0  0  0  0  0
  -27.4065  -29.7228   25.4514 H   0  0  0  0  0  0
  -27.8659  -30.4317   23.9223 H   0  0  0  0  0  0
  -27.2570  -33.3621   26.2049 H   0  0  0  0  0  0
  -28.3804  -32.6938   25.0272 H   0  0  0  0  0  0
  -28.0734  -31.8490   26.5359 H   0  0  0  0  0  0
  -28.2594  -38.0117   24.7462 H   0  0  0  0  0  0
  -28.1085  -36.2613   24.6308 H   0  0  0  0  0  0
  -27.2277  -37.1498   25.8858 H   0  0  0  0  0  0
  -20.9316  -29.8694   21.6978 H   0  0  0  0  0  0
  -26.0164  -38.2835   24.1391 H   0  0  0  0  0  0
  -28.5906  -18.5032   18.7398 H   0  0  0  0  0  0
  -27.3910  -20.3953   19.3329 H   0  0  0  0  0  0
  -28.3832  -21.5818   18.4676 H   0  0  0  0  0  0
  -28.0342  -21.7611   20.1950 H   0  0  0  0  0  0
  -33.0076  -19.8584   22.4040 H   0  0  0  0  0  0
  -33.1384  -21.3333   21.4345 H   0  0  0  0  0  0
  -33.8616  -19.8800   20.8530 H   0  0  0  0  0  0
  -33.1419  -16.9343   19.8206 H   0  0  0  0  0  0
  -32.3234  -16.6392   21.3507 H   0  0  0  0  0  0
  -33.5579  -17.8296   21.2746 H   0  0  0  0  0  0
  -29.6522  -16.4180   18.3206 H   0  0  0  0  0  0
  -31.3173  -16.2403   18.6357 H   0  0  0  0  0  0
  -30.5778  -25.5467   20.2299 H   0  0  0  0  0  0
  -30.5313  -25.3471   18.4860 H   0  0  0  0  0  0
  -28.0148  -24.7712   20.1319 H   0  0  0  0  0  0
  -28.1268  -25.3900   18.4813 H   0  0  0  0  0  0
  -29.0114  -15.4175   20.3098 H   0  0  0  0  0  0
  -30.6328  -21.0550   22.9400 H   0  0  0  0  0  0
  -30.5763  -22.7736   22.9943 H   0  0  0  0  0  0
  1 25  1  0  0  0
  1 30  2  0  0  0
  1 86  1  0  0  0
  2  3  1  0  0  0
  2 25  1  0  0  0
  2 88  1  0  0  0
  2 89  1  0  0  0
  3  4  1  0  0  0
  3 90  1  0  0  0
  3 91  1  0  0  0
  4  5  1  0  0  0
  4 92  1  0  0  0
  4 93  1  0  0  0
  5  6  1  0  0  0
  5 26  1  0  0  0
  5 94  1  0  0  0
  6 25  1  0  0  0
  6 95  1  0  0  0
  6 96  1  0  0  0
  7  8  2  0  0  0
  7 26  1  0  0  0
  7 29  1  0  0  0
  8  9  1  0  0  0
  8 22  1  0  0  0
  9 10  1  0  0  0
  9 27  2  0  0  0
 10 11  2  0  0  0
 10 15  1  0  0  0
 11 12  1  0  0  0
 11 97  1  0  0  0
 12 13  2  0  0  0
 12 98  1  0  0  0
 13 14  1  0  0  0
 13 31  1  0  0  0
 14 15  2  0  0  0
 14 99  1  0  0  0
 15100  1  0  0  0
 16 17  2  0  0  0
 16 21  1  0  0  0
 16 31  1  0  0  0
 17 18  1  0  0  0
 17101  1  0  0  0
 18 19  2  0  0  0
 18102  1  0  0  0
 19 20  1  0  0  0
 19 24  1  0  0  0
 20 21  2  0  0  0
 20103  1  0  0  0
 21 23  1  0  0  0
 22 28  1  0  0  0
 22 32  2  0  0  0
 26 27  1  0  0  0
 28104  1  0  0  0
 28105  1  0  0  0
 29106  1  0  0  0
 29107  1  0  0  0
 33 34  1  0  0  0
 33 66  1  0  0  0
 33 70  2  0  0  0
 34 36  1  0  0  0
 34 59  1  0  0  0
 34108  1  0  0  0
 35 44  2  0  0  0
 35 45  1  0  0  0
 35 68  1  0  0  0
 36 56  1  0  0  0
 36109  1  0  0  0
 37 39  1  0  0  0
 37 47  1  0  0  0
 37 66  1  0  0  0
 37110  1  0  0  0
 38 43  2  0  0  0
 38 46  1  0  0  0
 38 47  1  0  0  0
 39 64  1  0  0  0
 39 67  2  0  0  0
 40 52  1  0  0  0
 40 53  2  0  0  0
 40 58  1  0  0  0
 41111  1  0  0  0
 41112  1  0  0  0
 41113  1  0  0  0
 41 48  1  0  0  0
 42 43  1  0  0  0
 42 66  1  0  0  0
 42114  1  0  0  0
 42115  1  0  0  0
 43 44  1  0  0  0
 44116  1  0  0  0
 45 46  2  0  0  0
 45117  1  0  0  0
 46118  1  0  0  0
 47119  1  0  0  0
 47120  1  0  0  0
 48 56  1  0  0  0
 48 65  1  0  0  0
 48121  1  0  0  0
 49 50  1  0  0  0
 49 53  1  0  0  0
 49 64  1  0  0  0
 49122  1  0  0  0
 50 51  1  0  0  0
 50123  1  0  0  0
 50124  1  0  0  0
 51 52  1  0  0  0
 51125  1  0  0  0
 51126  1  0  0  0
 52127  1  0  0  0
 52128  1  0  0  0
 53 54  1  0  0  0
 54 55  2  0  0  0
 54129  1  0  0  0
 55 57  1  0  0  0
 55130  1  0  0  0
 56 69  2  0  0  0
 57 58  2  0  0  0
 57131  1  0  0  0
 58132  1  0  0  0
 59 60  1  0  0  0
 59 61  1  0  0  0
 59 62  1  0  0  0
 60133  1  0  0  0
 60134  1  0  0  0
 60135  1  0  0  0
 61136  1  0  0  0
 61137  1  0  0  0
 61138  1  0  0  0
 62139  1  0  0  0
 62140  1  0  0  0
 62141  1  0  0  0
 63 65  1  0  0  0
 63142  1  0  0  0
 63143  1  0  0  0
 63144  1  0  0  0
 64145  1  0  0  0
 65146  1  0  0  0
 68 83  1  0  0  0
 71 73  2  0  0  0
 71 74  1  0  0  0
 71147  1  0  0  0
 72 73  1  0  0  0
 72 75  2  0  0  0
 72 77  1  0  0  0
 73 78  1  0  0  0
 74 76  2  0  0  0
 74 81  1  0  0  0
 75 76  1  0  0  0
 75 79  1  0  0  0
 76 80  1  0  0  0
 77 84  1  0  0  0
 77 87  2  0  0  0
 78148  1  0  0  0
 78149  1  0  0  0
 78150  1  0  0  0
 79151  1  0  0  0
 79152  1  0  0  0
 79153  1  0  0  0
 80154  1  0  0  0
 80155  1  0  0  0
 80156  1  0  0  0
 81 86  1  0  0  0
 81157  1  0  0  0
 81158  1  0  0  0
 82 83  1  0  0  0
 82 85  1  0  0  0
 82159  1  0  0  0
 82160  1  0  0  0
 83161  1  0  0  0
 83162  1  0  0  0
 84 85  2  0  0  0
 86163  1  0  0  0
 87164  1  0  0  0
 87165  1  0  0  0
M  CHG  1  87   1
M  ISO  4   1 100  68 101  83 101  86 100
M  END
> <chiral flag>
0

> <version>
0

> <s_m_source_file>
/data/baiqing/PycharmProjects/Reinvent-master-3.2/result/LINK_invent/BTK/process_docking_weight1_custom_product_contain_oxygen_bond_distance_aromatic_linkinvent_7_9_3/rearranged_h_0039.sdf

> <i_m_source_file_index>
69

> <r_mmod_Potential_Energy-OPLS-2005>
-1.22302329540253

> <r_mmod_Stretch_Energy-OPLS-2005>
42.4656867980957

> <r_mmod_Bend_Energy-OPLS-2005>
125.492126464844

> <r_mmod_Torsional_Energy-OPLS-2005>
239.655838012695

> <r_mmod_Improper_Torsional_Energy-OPLS-2005>
19.4260902404785

> <r_mmod_Van_der_Waal_Energy-OPLS-2005>
179.50065612793

> <r_mmod_Electrostatic_Energy-OPLS-2005>
-208.244110107422

> <r_mmod_Solvation_Energy-OPLS-2005>
-428.455993652344

> <b_mmod_Minimization_Converged-OPLS-2005>
0

> <r_mmod_RMS_Derivative-OPLS-2005>
10.1362447738647

$$$$
70
                    3D
 Structure written by MMmdl.
170179  0  0  1  0            999 V2000
  -30.6109  -14.7255   20.4759 C   0  0  0  0  0  0
  -30.4288  -12.4368   19.4961 C   0  0  0  0  0  0
  -29.5179  -12.5172   18.2506 C   0  0  0  0  0  0
  -28.0391  -12.3494   18.6505 C   0  0  0  0  0  0
  -27.6462  -13.2343   19.8649 C   0  0  2  0  0  0
  -28.6851  -13.1440   21.0065 C   0  0  0  0  0  0
  -25.2510  -13.8210   20.5711 C   0  0  0  0  0  0
  -24.1794  -13.0451   20.9186 C   0  0  0  0  0  0
  -24.6372  -11.6923   20.8713 C   0  0  0  0  0  0
  -23.9048  -10.4293   21.0379 C   0  0  0  0  0  0
  -24.3599   -9.4217   21.9166 C   0  0  0  0  0  0
  -23.6282   -8.2253   22.0756 C   0  0  0  0  0  0
  -22.4262   -8.0280   21.3553 C   0  0  0  0  0  0
  -21.9898   -9.0242   20.4648 C   0  0  0  0  0  0
  -22.7218  -10.2122   20.3041 C   0  0  0  0  0  0
  -21.6860   -6.0730   22.5277 C   0  0  0  0  0  0
  -21.4012   -6.5633   23.8210 C   0  0  0  0  0  0
  -21.3667   -5.6792   24.9172 C   0  0  0  0  0  0
  -21.6051   -4.3053   24.7228 C   0  0  0  0  0  0
  -21.8818   -3.8140   23.4351 C   0  0  0  0  0  0
  -21.9191   -4.6956   22.3403 C   0  0  0  0  0  0
  -22.7814  -13.5223   21.1858 C   0  0  0  0  0  0
  -22.1659   -4.2137   21.0983 F   0  0  0  0  0  0
  -21.5633   -3.4542   25.7745 F   0  0  0  0  0  0
  -29.9979  -13.4914   20.4458 N   0  0  0  0  0  0
  -26.2945  -12.9417   20.3329 N   0  0  0  0  0  0
  -25.9306  -11.6552   20.5743 N   0  0  0  0  0  0
  -22.0473  -12.8189   22.0409 N   0  0  0  0  0  0
  -25.4231  -15.1939   20.4165 N   0  0  0  0  0  0
  -31.7610  -14.8509   20.0458 O   0  0  0  0  0  0
  -21.6651   -6.8865   21.4235 O   0  0  0  0  0  0
  -22.3492  -14.5533   20.6721 O   0  0  0  0  0  0
  -24.6316  -31.8549   23.1974 C   0  0  0  0  0  0
  -25.9131  -32.4759   23.8331 C   0  0  1  0  0  0
  -27.2234  -27.2547   20.1268 C   0  0  0  0  0  0
  -25.5914  -33.8559   24.2260 N   0  0  0  0  0  0
  -23.4291  -30.4757   21.5414 C   0  0  2  0  0  0
  -24.8770  -28.9236   20.1059 C   0  0  0  0  0  0
  -22.7510  -29.4584   22.4914 C   0  0  0  0  0  0
  -18.0292  -28.1365   22.8480 C   0  0  0  0  0  0
  -24.1485  -36.7285   23.2642 C   0  0  0  0  0  0
  -25.9752  -30.7641   21.3799 C   0  0  0  0  0  0
  -26.0468  -29.3866   20.7200 C   0  0  0  0  0  0
  -27.2178  -28.5629   20.7222 C   0  0  0  0  0  0
  -26.0325  -26.8688   19.4677 C   0  0  0  0  0  0
  -24.8767  -27.6740   19.4686 C   0  0  0  0  0  0
  -23.6470  -29.8091   20.1572 C   0  0  0  0  0  0
  -25.4113  -36.3075   24.0336 C   0  0  1  0  0  0
  -20.5899  -28.3679   23.1263 C   0  0  2  0  0  0
  -20.6770  -26.9392   22.5404 C   0  0  0  0  0  0
  -19.5746  -26.6361   21.5200 C   0  0  0  0  0  0
  -18.1928  -26.7903   22.1617 C   0  0  0  0  0  0
  -19.1547  -28.8843   23.2862 C   0  0  0  0  0  0
  -18.9473  -30.1442   23.8882 C   0  0  0  0  0  0
  -17.6471  -30.6566   24.0550 C   0  0  0  0  0  0
  -25.9056  -34.9443   23.5103 C   0  0  0  0  0  0
  -16.5361  -29.9066   23.6319 C   0  0  0  0  0  0
  -16.7280  -28.6482   23.0349 C   0  0  0  0  0  0
  -26.4484  -31.6588   25.0729 C   0  0  0  0  0  0
  -25.3694  -31.3740   26.1449 C   0  0  0  0  0  0
  -27.0341  -30.3008   24.6222 C   0  0  0  0  0  0
  -27.6036  -32.4344   25.7494 C   0  0  0  0  0  0
  -27.5581  -37.1802   24.8466 C   0  0  0  0  0  0
  -21.4220  -29.3027   22.3661 N   0  0  0  0  0  0
  -26.4290  -37.3777   23.9410 N   0  0  0  0  0  0
  -24.6976  -31.0502   22.0953 N   0  0  0  0  0  0
  -23.4214  -28.8125   23.3009 O   0  0  0  0  0  0
  -28.3242  -26.3673   20.2397 O   0  0  0  0  0  0
  -26.5635  -34.8921   22.4678 O   0  0  0  0  0  0
  -23.5467  -32.1375   23.7256 O   0  0  0  0  0  0
  -28.6901  -18.1012   18.1521 C   0  0  0  0  0  0
  -29.2345  -17.0016   18.8368 C   0  0  0  0  0  0
  -29.5277  -18.4369   20.7762 C   0  0  0  0  0  0
  -28.5294  -19.3668   18.7582 C   0  0  0  0  0  0
  -29.0240  -19.6165   20.0709 C   0  0  0  0  0  0
  -29.6178  -17.1037   20.1875 C   0  0  0  0  0  0
  -29.0842  -23.8357   20.5838 C   0  0  0  0  0  0
  -29.6952  -24.1571   21.7457 C   0  0  0  0  0  0
  -29.4203  -23.9305   17.5242 C   0  0  0  0  0  0
  -30.7043  -23.3594   18.1586 C   0  0  0  0  0  0
  -28.8871  -25.1511   18.2944 C   0  0  0  0  0  0
  -30.4647  -22.2221   19.1657 C   0  0  0  0  0  0
  -28.3175  -24.9480   19.7228 C   0  0  2  0  0  0
  -27.7701  -20.4019   17.9438 C   0  0  0  0  0  0
  -30.5616  -23.2801   22.6311 C   0  0  0  0  0  0
  -28.8967  -21.0816   20.7371 C   0  0  0  0  0  0
  -29.8902  -15.8323   20.8999 N   0  0  0  0  0  0
  -29.2095  -22.3814   19.9452 N   0  3  1  0  0  0
  -31.4753  -12.5411   19.2066 H   0  0  0  0  0  0
  -30.3488  -11.4541   19.9655 H   0  0  0  0  0  0
  -29.7983  -11.7520   17.5262 H   0  0  0  0  0  0
  -29.6585  -13.4776   17.7517 H   0  0  0  0  0  0
  -27.8784  -11.2971   18.8903 H   0  0  0  0  0  0
  -27.3917  -12.5667   17.7999 H   0  0  0  0  0  0
  -27.6481  -14.2633   19.5055 H   0  0  0  0  0  0
  -28.7053  -12.1381   21.4291 H   0  0  0  0  0  0
  -28.4159  -13.8099   21.8275 H   0  0  0  0  0  0
  -25.2743   -9.5712   22.4732 H   0  0  0  0  0  0
  -24.0008   -7.4653   22.7461 H   0  0  0  0  0  0
  -21.0846   -8.8731   19.8944 H   0  0  0  0  0  0
  -22.3662  -10.9642   19.6142 H   0  0  0  0  0  0
  -21.1996   -7.6137   23.9706 H   0  0  0  0  0  0
  -21.1501   -6.0527   25.9077 H   0  0  0  0  0  0
  -22.0588   -2.7599   23.2866 H   0  0  0  0  0  0
  -22.4106  -11.9848   22.4778 H   0  0  0  0  0  0
  -21.1086  -13.1192   22.2618 H   0  0  0  0  0  0
  -24.6594  -15.8525   20.5259 H   0  0  0  0  0  0
  -26.2805  -15.6311   20.1037 H   0  0  0  0  0  0
  -26.7202  -32.5407   23.1076 H   0  0  0  0  0  0
  -25.0029  -33.9692   25.0389 H   0  0  0  0  0  0
  -22.7248  -31.2970   21.3941 H   0  0  0  0  0  0
  -23.3757  -35.9605   23.3295 H   0  0  0  0  0  0
  -24.3568  -36.8921   22.2055 H   0  0  0  0  0  0
  -23.7234  -37.6486   23.6672 H   0  0  0  0  0  0
  -26.1168  -31.5237   20.6103 H   0  0  0  0  0  0
  -26.8533  -30.8133   22.0131 H   0  0  0  0  0  0
  -28.1110  -28.9106   21.2225 H   0  0  0  0  0  0
  -25.9455  -25.9235   18.9568 H   0  0  0  0  0  0
  -23.9846  -27.3143   18.9748 H   0  0  0  0  0  0
  -23.7683  -30.5849   19.4004 H   0  0  0  0  0  0
  -22.7663  -29.2404   19.8543 H   0  0  0  0  0  0
  -25.1295  -36.1930   25.0835 H   0  0  0  0  0  0
  -20.9984  -28.3245   24.1385 H   0  0  0  0  0  0
  -20.5635  -26.2290   23.3610 H   0  0  0  0  0  0
  -21.6642  -26.7377   22.1222 H   0  0  0  0  0  0
  -19.6899  -25.6270   21.1229 H   0  0  0  0  0  0
  -19.6678  -27.3165   20.6722 H   0  0  0  0  0  0
  -17.4194  -26.6651   21.4020 H   0  0  0  0  0  0
  -18.0323  -26.0042   22.9012 H   0  0  0  0  0  0
  -19.7951  -30.7250   24.2244 H   0  0  0  0  0  0
  -17.5030  -31.6247   24.5153 H   0  0  0  0  0  0
  -15.5365  -30.2963   23.7646 H   0  0  0  0  0  0
  -15.8683  -28.0795   22.7071 H   0  0  0  0  0  0
  -24.5864  -30.7094   25.7776 H   0  0  0  0  0  0
  -24.8874  -32.2901   26.4871 H   0  0  0  0  0  0
  -25.7999  -30.8919   27.0233 H   0  0  0  0  0  0
  -26.2930  -29.6757   24.1223 H   0  0  0  0  0  0
  -27.4002  -29.7282   25.4754 H   0  0  0  0  0  0
  -27.8813  -30.4300   23.9483 H   0  0  0  0  0  0
  -27.2646  -33.3667   26.2028 H   0  0  0  0  0  0
  -28.3846  -32.6881   25.0312 H   0  0  0  0  0  0
  -28.0692  -31.8495   26.5439 H   0  0  0  0  0  0
  -28.2602  -38.0098   24.7522 H   0  0  0  0  0  0
  -28.1081  -36.2633   24.6284 H   0  0  0  0  0  0
  -27.2294  -37.1446   25.8868 H   0  0  0  0  0  0
  -20.9406  -29.8796   21.6905 H   0  0  0  0  0  0
  -26.0175  -38.2857   24.1405 H   0  0  0  0  0  0
  -28.3356  -17.9456   17.1423 H   0  0  0  0  0  0
  -29.2708  -16.0491   18.3271 H   0  0  0  0  0  0
  -29.8139  -18.5546   21.8122 H   0  0  0  0  0  0
  -29.5653  -25.1643   22.1173 H   0  0  0  0  0  0
  -28.6458  -23.1760   17.3861 H   0  0  0  0  0  0
  -29.6673  -24.2652   16.5151 H   0  0  0  0  0  0
  -31.2685  -24.1608   18.6391 H   0  0  0  0  0  0
  -31.3614  -22.9807   17.3749 H   0  0  0  0  0  0
  -28.1262  -25.6434   17.6869 H   0  0  0  0  0  0
  -29.7049  -25.8720   18.3518 H   0  0  0  0  0  0
  -31.3186  -22.1408   19.8377 H   0  0  0  0  0  0
  -30.4432  -21.2883   18.6062 H   0  0  0  0  0  0
  -27.3039  -24.5579   19.6635 H   0  0  0  0  0  0
  -26.9694  -19.9131   17.3856 H   0  0  0  0  0  0
  -28.4253  -20.8751   17.2126 H   0  0  0  0  0  0
  -27.2847  -21.1616   18.5543 H   0  0  0  0  0  0
  -31.0760  -22.4971   22.0795 H   0  0  0  0  0  0
  -29.9714  -22.8274   23.4284 H   0  0  0  0  0  0
  -31.3378  -23.8890   23.0954 H   0  0  0  0  0  0
  -29.5134  -21.0538   21.6305 H   0  0  0  0  0  0
  -27.8759  -21.1733   21.1104 H   0  0  0  0  0  0
  -29.1611  -15.5869   21.5536 H   0  0  0  0  0  0
  -28.4995  -22.3491   19.2301 H   0  0  0  0  0  0
  1 25  1  0  0  0
  1 30  2  0  0  0
  1 87  1  0  0  0
  2  3  1  0  0  0
  2 25  1  0  0  0
  2 89  1  0  0  0
  2 90  1  0  0  0
  3  4  1  0  0  0
  3 91  1  0  0  0
  3 92  1  0  0  0
  4  5  1  0  0  0
  4 93  1  0  0  0
  4 94  1  0  0  0
  5  6  1  0  0  0
  5 26  1  0  0  0
  5 95  1  0  0  0
  6 25  1  0  0  0
  6 96  1  0  0  0
  6 97  1  0  0  0
  7  8  2  0  0  0
  7 26  1  0  0  0
  7 29  1  0  0  0
  8  9  1  0  0  0
  8 22  1  0  0  0
  9 10  1  0  0  0
  9 27  2  0  0  0
 10 11  2  0  0  0
 10 15  1  0  0  0
 11 12  1  0  0  0
 11 98  1  0  0  0
 12 13  2  0  0  0
 12 99  1  0  0  0
 13 14  1  0  0  0
 13 31  1  0  0  0
 14 15  2  0  0  0
 14100  1  0  0  0
 15101  1  0  0  0
 16 17  2  0  0  0
 16 21  1  0  0  0
 16 31  1  0  0  0
 17 18  1  0  0  0
 17102  1  0  0  0
 18 19  2  0  0  0
 18103  1  0  0  0
 19 20  1  0  0  0
 19 24  1  0  0  0
 20 21  2  0  0  0
 20104  1  0  0  0
 21 23  1  0  0  0
 22 28  1  0  0  0
 22 32  2  0  0  0
 26 27  1  0  0  0
 28105  1  0  0  0
 28106  1  0  0  0
 29107  1  0  0  0
 29108  1  0  0  0
 33 34  1  0  0  0
 33 66  1  0  0  0
 33 70  2  0  0  0
 34 36  1  0  0  0
 34 59  1  0  0  0
 34109  1  0  0  0
 35 44  2  0  0  0
 35 45  1  0  0  0
 35 68  1  0  0  0
 36 56  1  0  0  0
 36110  1  0  0  0
 37 39  1  0  0  0
 37 47  1  0  0  0
 37 66  1  0  0  0
 37111  1  0  0  0
 38 43  2  0  0  0
 38 46  1  0  0  0
 38 47  1  0  0  0
 39 64  1  0  0  0
 39 67  2  0  0  0
 40 52  1  0  0  0
 40 53  2  0  0  0
 40 58  1  0  0  0
 41112  1  0  0  0
 41113  1  0  0  0
 41114  1  0  0  0
 41 48  1  0  0  0
 42 43  1  0  0  0
 42 66  1  0  0  0
 42115  1  0  0  0
 42116  1  0  0  0
 43 44  1  0  0  0
 44117  1  0  0  0
 45 46  2  0  0  0
 45118  1  0  0  0
 46119  1  0  0  0
 47120  1  0  0  0
 47121  1  0  0  0
 48 56  1  0  0  0
 48 65  1  0  0  0
 48122  1  0  0  0
 49 50  1  0  0  0
 49 53  1  0  0  0
 49 64  1  0  0  0
 49123  1  0  0  0
 50 51  1  0  0  0
 50124  1  0  0  0
 50125  1  0  0  0
 51 52  1  0  0  0
 51126  1  0  0  0
 51127  1  0  0  0
 52128  1  0  0  0
 52129  1  0  0  0
 53 54  1  0  0  0
 54 55  2  0  0  0
 54130  1  0  0  0
 55 57  1  0  0  0
 55131  1  0  0  0
 56 69  2  0  0  0
 57 58  2  0  0  0
 57132  1  0  0  0
 58133  1  0  0  0
 59 60  1  0  0  0
 59 61  1  0  0  0
 59 62  1  0  0  0
 60134  1  0  0  0
 60135  1  0  0  0
 60136  1  0  0  0
 61137  1  0  0  0
 61138  1  0  0  0
 61139  1  0  0  0
 62140  1  0  0  0
 62141  1  0  0  0
 62142  1  0  0  0
 63 65  1  0  0  0
 63143  1  0  0  0
 63144  1  0  0  0
 63145  1  0  0  0
 64146  1  0  0  0
 65147  1  0  0  0
 68 83  1  0  0  0
 71 72  2  0  0  0
 71 74  1  0  0  0
 71148  1  0  0  0
 72 76  1  0  0  0
 72149  1  0  0  0
 73 75  1  0  0  0
 73 76  2  0  0  0
 73150  1  0  0  0
 74 75  2  0  0  0
 74 84  1  0  0  0
 75 86  1  0  0  0
 76 87  1  0  0  0
 77 78  2  0  0  0
 77 83  1  0  0  0
 77 88  1  0  0  0
 78 85  1  0  0  0
 78151  1  0  0  0
 79 80  1  0  0  0
 79 81  1  0  0  0
 79152  1  0  0  0
 79153  1  0  0  0
 80 82  1  0  0  0
 80154  1  0  0  0
 80155  1  0  0  0
 81 83  1  0  0  0
 81156  1  0  0  0
 81157  1  0  0  0
 82 88  1  0  0  0
 82158  1  0  0  0
 82159  1  0  0  0
 83160  1  0  0  0
 84161  1  0  0  0
 84162  1  0  0  0
 84163  1  0  0  0
 85164  1  0  0  0
 85165  1  0  0  0
 85166  1  0  0  0
 86167  1  0  0  0
 86168  1  0  0  0
 86 88  1  0  0  0
 87169  1  0  0  0
 88170  1  0  0  0
M  CHG  1  88   1
M  ISO  4   1 100  68 101  83 101  87 100
M  END
> <chiral flag>
0

> <version>
0

> <s_m_source_file>
/data/baiqing/PycharmProjects/Reinvent-master-3.2/result/LINK_invent/BTK/process_docking_weight1_custom_product_contain_oxygen_bond_distance_aromatic_linkinvent_7_9_3/rearranged_h_0039.sdf

> <i_m_source_file_index>
70

> <r_mmod_Potential_Energy-OPLS-2005>
151.654449462891

> <r_mmod_Stretch_Energy-OPLS-2005>
144.555313110352

> <r_mmod_Bend_Energy-OPLS-2005>
192.839233398438

> <r_mmod_Torsional_Energy-OPLS-2005>
277.303894042969

> <r_mmod_Improper_Torsional_Energy-OPLS-2005>
6.00717067718506

> <r_mmod_Van_der_Waal_Energy-OPLS-2005>
140.969909667969

> <r_mmod_Electrostatic_Energy-OPLS-2005>
-270.640228271484

> <r_mmod_Solvation_Energy-OPLS-2005>
-422.136444091797

> <b_mmod_Minimization_Converged-OPLS-2005>
0

> <r_mmod_RMS_Derivative-OPLS-2005>
1.81544089317322

$$$$
71
                    3D
 Structure written by MMmdl.
154162  0  0  1  0            999 V2000
  -30.7073  -14.4668   20.4993 C   0  0  0  0  0  0
  -30.4166  -12.2896   19.4181 C   0  0  0  0  0  0
  -29.4947  -12.4917   18.1983 C   0  0  0  0  0  0
  -28.0126  -12.3783   18.6076 C   0  0  0  0  0  0
  -27.6596  -13.2064   19.8738 C   0  0  2  0  0  0
  -28.7051  -13.0180   20.9962 C   0  0  0  0  0  0
  -25.2631  -13.8194   20.5693 C   0  0  0  0  0  0
  -24.1893  -13.0489   20.9190 C   0  0  0  0  0  0
  -24.6447  -11.6943   20.8735 C   0  0  0  0  0  0
  -23.9142  -10.4321   21.0413 C   0  0  0  0  0  0
  -24.3672   -9.4224   21.9196 C   0  0  0  0  0  0
  -23.6334   -8.2263   22.0780 C   0  0  0  0  0  0
  -22.4319   -8.0315   21.3559 C   0  0  0  0  0  0
  -21.9949   -9.0303   20.4679 C   0  0  0  0  0  0
  -22.7298  -10.2172   20.3087 C   0  0  0  0  0  0
  -21.6860   -6.0800   22.5271 C   0  0  0  0  0  0
  -21.4011   -6.5701   23.8207 C   0  0  0  0  0  0
  -21.3641   -5.6830   24.9160 C   0  0  0  0  0  0
  -21.6039   -4.3095   24.7177 C   0  0  0  0  0  0
  -21.8843   -3.8213   23.4291 C   0  0  0  0  0  0
  -21.9204   -4.7042   22.3369 C   0  0  0  0  0  0
  -22.7900  -13.5288   21.1812 C   0  0  0  0  0  0
  -22.1708   -4.2253   21.0938 F   0  0  0  0  0  0
  -21.5589   -3.4559   25.7676 F   0  0  0  0  0  0
  -30.0300  -13.2919   20.4223 N   0  0  0  0  0  0
  -26.3044  -12.9355   20.3368 N   0  0  0  0  0  0
  -25.9350  -11.6525   20.5724 N   0  0  0  0  0  0
  -22.0509  -12.8287   22.0343 N   0  0  0  0  0  0
  -25.4387  -15.1897   20.4070 N   0  0  0  0  0  0
  -31.8730  -14.5892   20.1193 O   0  0  0  0  0  0
  -21.6678   -6.8926   21.4239 O   0  0  0  0  0  0
  -22.3599  -14.5596   20.6664 O   0  0  0  0  0  0
  -24.6187  -31.8704   23.2148 C   0  0  0  0  0  0
  -25.9063  -32.4865   23.8462 C   0  0  1  0  0  0
  -27.2164  -27.4263   20.1081 C   0  0  0  0  0  0
  -25.5905  -33.8670   24.2375 N   0  0  0  0  0  0
  -23.4085  -30.4940   21.5594 C   0  0  2  0  0  0
  -24.8524  -28.9786   20.1095 C   0  0  0  0  0  0
  -22.7468  -29.4641   22.5046 C   0  0  0  0  0  0
  -18.0291  -28.1374   22.8569 C   0  0  0  0  0  0
  -24.1494  -36.7329   23.2630 C   0  0  0  0  0  0
  -25.9412  -30.8375   21.3728 C   0  0  0  0  0  0
  -26.0180  -29.4785   20.7069 C   0  0  0  0  0  0
  -27.2089  -28.7103   20.7008 C   0  0  0  0  0  0
  -26.0385  -26.9703   19.4663 C   0  0  0  0  0  0
  -24.8591  -27.7271   19.4810 C   0  0  0  0  0  0
  -23.6193  -29.8439   20.1683 C   0  0  0  0  0  0
  -25.4105  -36.3143   24.0342 C   0  0  1  0  0  0
  -20.5866  -28.3711   23.1419 C   0  0  2  0  0  0
  -20.6861  -26.9515   22.5472 C   0  0  0  0  0  0
  -19.5815  -26.6383   21.5324 C   0  0  0  0  0  0
  -18.1974  -26.7924   22.1713 C   0  0  0  0  0  0
  -19.1526  -28.8851   23.2984 C   0  0  0  0  0  0
  -18.9440  -30.1470   23.8958 C   0  0  0  0  0  0
  -17.6432  -30.6611   24.0511 C   0  0  0  0  0  0
  -25.9016  -34.9495   23.5156 C   0  0  0  0  0  0
  -16.5318  -29.9065   23.6342 C   0  0  0  0  0  0
  -16.7268  -28.6452   23.0421 C   0  0  0  0  0  0
  -26.4484  -31.6627   25.0769 C   0  0  0  0  0  0
  -25.3762  -31.3728   26.1513 C   0  0  0  0  0  0
  -27.0306  -30.3065   24.6161 C   0  0  0  0  0  0
  -27.6059  -32.4352   25.7529 C   0  0  0  0  0  0
  -27.5582  -37.1815   24.8458 C   0  0  0  0  0  0
  -21.4165  -29.3158   22.3960 N   0  0  0  0  0  0
  -26.4298  -37.3813   23.9402 N   0  0  0  0  0  0
  -24.6752  -31.0810   22.1068 N   0  0  0  0  0  0
  -23.4254  -28.8041   23.2955 O   0  0  0  0  0  0
  -28.3227  -26.6034   20.2036 O   0  0  0  0  0  0
  -26.5556  -34.8913   22.4708 O   0  0  0  0  0  0
  -23.5353  -32.1452   23.7479 O   0  0  0  0  0  0
  -28.0466  -20.4756   19.9698 C   0  0  0  0  0  0
  -27.6888  -19.2548   19.3798 C   0  0  0  0  0  0
  -29.1844  -20.5603   20.8025 C   0  0  0  0  0  0
  -29.5823  -18.1289   20.4688 C   0  0  0  0  0  0
  -28.4564  -18.0953   19.5986 C   0  0  0  0  0  0
  -29.9321  -19.3815   21.0622 C   0  0  0  0  0  0
  -29.1082  -24.3249   20.9077 C   0  0  0  0  0  0
  -29.6694  -21.9156   21.3466 C   0  0  0  0  0  0
  -30.5264  -16.9160   20.6424 C   0  0  0  0  0  0
  -27.9454  -25.2383   20.5088 C   0  0  0  0  0  0
  -28.7641  -23.0437   21.1262 N   0  0  0  0  0  0
  -29.9760  -15.5559   20.7969 N   0  0  0  0  0  0
  -30.2661  -24.7424   20.9943 O   0  0  0  0  0  0
  -28.0198  -16.6883   18.7036 Cl  0  0  0  0  0  0
  -31.3292  -19.5212   22.0788 Cl  0  0  0  0  0  0
  -31.4598  -12.3814   19.1077 H   0  0  0  0  0  0
  -30.3147  -11.2815   19.8206 H   0  0  0  0  0  0
  -29.7254  -11.7552   17.4275 H   0  0  0  0  0  0
  -29.6784  -13.4689   17.7472 H   0  0  0  0  0  0
  -27.7987  -11.3227   18.7765 H   0  0  0  0  0  0
  -27.3752  -12.6863   17.7794 H   0  0  0  0  0  0
  -27.6952  -14.2480   19.5777 H   0  0  0  0  0  0
  -28.6594  -12.0045   21.3993 H   0  0  0  0  0  0
  -28.4931  -13.6829   21.8364 H   0  0  0  0  0  0
  -25.2821   -9.5708   22.4775 H   0  0  0  0  0  0
  -24.0051   -7.4679   22.7517 H   0  0  0  0  0  0
  -21.0861   -8.8846   19.9001 H   0  0  0  0  0  0
  -22.3762  -10.9730   19.6211 H   0  0  0  0  0  0
  -21.2050   -7.6217   23.9728 H   0  0  0  0  0  0
  -21.1402   -6.0555   25.9049 H   0  0  0  0  0  0
  -22.0624   -2.7685   23.2734 H   0  0  0  0  0  0
  -22.4131  -11.9941   22.4715 H   0  0  0  0  0  0
  -21.1117  -13.1305   22.2548 H   0  0  0  0  0  0
  -24.6752  -15.8450   20.5275 H   0  0  0  0  0  0
  -26.2627  -15.6094   19.9901 H   0  0  0  0  0  0
  -26.7129  -32.5576   23.1222 H   0  0  0  0  0  0
  -25.0139  -33.9900   25.0568 H   0  0  0  0  0  0
  -22.6985  -31.3104   21.4231 H   0  0  0  0  0  0
  -23.3762  -35.9661   23.3313 H   0  0  0  0  0  0
  -24.3581  -36.8919   22.2041 H   0  0  0  0  0  0
  -23.7240  -37.6537   23.6632 H   0  0  0  0  0  0
  -26.0583  -31.6162   20.6196 H   0  0  0  0  0  0
  -26.8293  -30.8864   21.9921 H   0  0  0  0  0  0
  -28.1008  -29.0771   21.1891 H   0  0  0  0  0  0
  -25.9970  -26.0207   18.9577 H   0  0  0  0  0  0
  -23.9691  -27.3384   19.0042 H   0  0  0  0  0  0
  -23.7391  -30.6250   19.4178 H   0  0  0  0  0  0
  -22.7451  -29.2680   19.8609 H   0  0  0  0  0  0
  -25.1284  -36.2024   25.0840 H   0  0  0  0  0  0
  -20.9816  -28.3213   24.1601 H   0  0  0  0  0  0
  -21.6700  -26.7688   22.1176 H   0  0  0  0  0  0
  -20.5985  -26.2357   23.3664 H   0  0  0  0  0  0
  -19.6723  -27.3127   20.6793 H   0  0  0  0  0  0
  -19.7022  -25.6237   21.1506 H   0  0  0  0  0  0
  -17.4279  -26.6760   21.4069 H   0  0  0  0  0  0
  -18.0344  -25.9995   22.9041 H   0  0  0  0  0  0
  -19.7849  -30.7290   24.2440 H   0  0  0  0  0  0
  -17.4957  -31.6328   24.5017 H   0  0  0  0  0  0
  -15.5307  -30.2939   23.7661 H   0  0  0  0  0  0
  -15.8708  -28.0721   22.7173 H   0  0  0  0  0  0
  -24.5928  -30.7090   25.7850 H   0  0  0  0  0  0
  -24.8956  -32.2878   26.4997 H   0  0  0  0  0  0
  -25.8113  -30.8871   27.0257 H   0  0  0  0  0  0
  -26.2853  -29.6825   24.1214 H   0  0  0  0  0  0
  -27.4052  -29.7313   25.4637 H   0  0  0  0  0  0
  -27.8712  -30.4375   23.9339 H   0  0  0  0  0  0
  -27.2685  -33.3638   26.2156 H   0  0  0  0  0  0
  -28.3844  -32.6944   25.0340 H   0  0  0  0  0  0
  -28.0774  -31.8458   26.5407 H   0  0  0  0  0  0
  -28.2597  -38.0111   24.7501 H   0  0  0  0  0  0
  -28.1085  -36.2642   24.6311 H   0  0  0  0  0  0
  -27.2290  -37.1482   25.8855 H   0  0  0  0  0  0
  -20.9282  -29.9260   21.7568 H   0  0  0  0  0  0
  -26.0197  -38.2897   24.1417 H   0  0  0  0  0  0
  -27.4606  -21.3456   19.7240 H   0  0  0  0  0  0
  -26.8376  -19.2192   18.7104 H   0  0  0  0  0  0
  -30.6212  -22.1171   20.8533 H   0  0  0  0  0  0
  -29.8793  -21.8598   22.4158 H   0  0  0  0  0  0
  -31.1518  -16.9421   19.7475 H   0  0  0  0  0  0
  -31.2123  -17.0533   21.4745 H   0  0  0  0  0  0
  -27.2063  -25.2074   21.3156 H   0  0  0  0  0  0
  -27.4977  -24.7639   19.6355 H   0  0  0  0  0  0
  -27.7781  -22.8282   21.0889 H   0  0  0  0  0  0
  -29.0043  -15.4411   21.0420 H   0  0  0  0  0  0
  1 25  1  0  0  0
  1 30  2  0  0  0
  1 82  1  0  0  0
  2  3  1  0  0  0
  2 25  1  0  0  0
  2 86  1  0  0  0
  2 87  1  0  0  0
  3  4  1  0  0  0
  3 88  1  0  0  0
  3 89  1  0  0  0
  4  5  1  0  0  0
  4 90  1  0  0  0
  4 91  1  0  0  0
  5  6  1  0  0  0
  5 26  1  0  0  0
  5 92  1  0  0  0
  6 25  1  0  0  0
  6 93  1  0  0  0
  6 94  1  0  0  0
  7  8  2  0  0  0
  7 26  1  0  0  0
  7 29  1  0  0  0
  8  9  1  0  0  0
  8 22  1  0  0  0
  9 10  1  0  0  0
  9 27  2  0  0  0
 10 11  2  0  0  0
 10 15  1  0  0  0
 11 12  1  0  0  0
 11 95  1  0  0  0
 12 13  2  0  0  0
 12 96  1  0  0  0
 13 14  1  0  0  0
 13 31  1  0  0  0
 14 15  2  0  0  0
 14 97  1  0  0  0
 15 98  1  0  0  0
 16 17  2  0  0  0
 16 21  1  0  0  0
 16 31  1  0  0  0
 17 18  1  0  0  0
 17 99  1  0  0  0
 18 19  2  0  0  0
 18100  1  0  0  0
 19 20  1  0  0  0
 19 24  1  0  0  0
 20 21  2  0  0  0
 20101  1  0  0  0
 21 23  1  0  0  0
 22 28  1  0  0  0
 22 32  2  0  0  0
 26 27  1  0  0  0
 28102  1  0  0  0
 28103  1  0  0  0
 29104  1  0  0  0
 29105  1  0  0  0
 33 34  1  0  0  0
 33 66  1  0  0  0
 33 70  2  0  0  0
 34 36  1  0  0  0
 34 59  1  0  0  0
 34106  1  0  0  0
 35 44  2  0  0  0
 35 45  1  0  0  0
 35 68  1  0  0  0
 36 56  1  0  0  0
 36107  1  0  0  0
 37 39  1  0  0  0
 37 47  1  0  0  0
 37 66  1  0  0  0
 37108  1  0  0  0
 38 43  2  0  0  0
 38 46  1  0  0  0
 38 47  1  0  0  0
 39 64  1  0  0  0
 39 67  2  0  0  0
 40 52  1  0  0  0
 40 53  2  0  0  0
 40 58  1  0  0  0
 41109  1  0  0  0
 41110  1  0  0  0
 41111  1  0  0  0
 41 48  1  0  0  0
 42 43  1  0  0  0
 42 66  1  0  0  0
 42112  1  0  0  0
 42113  1  0  0  0
 43 44  1  0  0  0
 44114  1  0  0  0
 45 46  2  0  0  0
 45115  1  0  0  0
 46116  1  0  0  0
 47117  1  0  0  0
 47118  1  0  0  0
 48 56  1  0  0  0
 48 65  1  0  0  0
 48119  1  0  0  0
 49 50  1  0  0  0
 49 53  1  0  0  0
 49 64  1  0  0  0
 49120  1  0  0  0
 50 51  1  0  0  0
 50121  1  0  0  0
 50122  1  0  0  0
 51 52  1  0  0  0
 51123  1  0  0  0
 51124  1  0  0  0
 52125  1  0  0  0
 52126  1  0  0  0
 53 54  1  0  0  0
 54 55  2  0  0  0
 54127  1  0  0  0
 55 57  1  0  0  0
 55128  1  0  0  0
 56 69  2  0  0  0
 57 58  2  0  0  0
 57129  1  0  0  0
 58130  1  0  0  0
 59 60  1  0  0  0
 59 61  1  0  0  0
 59 62  1  0  0  0
 60131  1  0  0  0
 60132  1  0  0  0
 60133  1  0  0  0
 61134  1  0  0  0
 61135  1  0  0  0
 61136  1  0  0  0
 62137  1  0  0  0
 62138  1  0  0  0
 62139  1  0  0  0
 63 65  1  0  0  0
 63140  1  0  0  0
 63141  1  0  0  0
 63142  1  0  0  0
 64143  1  0  0  0
 65144  1  0  0  0
 68 80  1  0  0  0
 71 72  2  0  0  0
 71 73  1  0  0  0
 71145  1  0  0  0
 72 75  1  0  0  0
 72146  1  0  0  0
 73 76  2  0  0  0
 73 78  1  0  0  0
 74 75  2  0  0  0
 74 76  1  0  0  0
 74 79  1  0  0  0
 75 84  1  0  0  0
 76 85  1  0  0  0
 77 80  1  0  0  0
 77 81  1  0  0  0
 77 83  2  0  0  0
 78 81  1  0  0  0
 78147  1  0  0  0
 78148  1  0  0  0
 79 82  1  0  0  0
 79149  1  0  0  0
 79150  1  0  0  0
 80151  1  0  0  0
 80152  1  0  0  0
 81153  1  0  0  0
 82154  1  0  0  0
M  ISO  4   1 100  68 101  80 101  82 100
M  END
> <chiral flag>
0

> <version>
0

> <s_m_source_file>
/data/baiqing/PycharmProjects/Reinvent-master-3.2/result/LINK_invent/BTK/process_docking_weight1_custom_product_contain_oxygen_bond_distance_aromatic_linkinvent_7_9_3/rearranged_h_0039.sdf

> <i_m_source_file_index>
71

> <r_mmod_Potential_Energy-OPLS-2005>
-101.717514038086

> <r_mmod_Stretch_Energy-OPLS-2005>
39.7339363098145

> <r_mmod_Bend_Energy-OPLS-2005>
102.228210449219

> <r_mmod_Torsional_Energy-OPLS-2005>
211.652694702148

> <r_mmod_Improper_Torsional_Energy-OPLS-2005>
6.70820665359497

> <r_mmod_Van_der_Waal_Energy-OPLS-2005>
169.617324829102

> <r_mmod_Electrostatic_Energy-OPLS-2005>
-411.915283203125

> <r_mmod_Solvation_Energy-OPLS-2005>
-241.91081237793

> <b_mmod_Minimization_Converged-OPLS-2005>
0

> <r_mmod_RMS_Derivative-OPLS-2005>
6.17821311950684

$$$$
72
                    3D
 Structure written by MMmdl.
179188  0  0  1  0            999 V2000
  -31.1223  -13.4102   20.9093 C   0  0  0  0  0  0
  -31.0133  -14.7870   19.2277 C   0  0  0  0  0  0
  -28.9394  -13.5494   17.1214 C   0  0  0  0  0  0
  -27.6508  -12.6882   18.1330 C   0  0  0  0  0  0
  -27.4792  -13.0223   19.8889 C   0  0  2  0  0  0
  -28.6894  -13.6153   21.1353 C   0  0  0  0  0  0
  -25.1901  -13.7549   20.6779 C   0  0  0  0  0  0
  -24.1118  -12.9971   20.9783 C   0  0  0  0  0  0
  -24.5642  -11.6433   20.9168 C   0  0  0  0  0  0
  -23.8485  -10.3975   21.0621 C   0  0  0  0  0  0
  -24.3249   -9.3931   21.9309 C   0  0  0  0  0  0
  -23.6060   -8.1911   22.0751 C   0  0  0  0  0  0
  -22.4073   -8.0023   21.3495 C   0  0  0  0  0  0
  -21.9589   -8.9959   20.4600 C   0  0  0  0  0  0
  -22.6783  -10.1894   20.3130 C   0  0  0  0  0  0
  -21.6745   -6.0593   22.5295 C   0  0  0  0  0  0
  -21.3900   -6.5570   23.8189 C   0  0  0  0  0  0
  -21.3629   -5.6766   24.9179 C   0  0  0  0  0  0
  -21.6067   -4.3016   24.7259 C   0  0  0  0  0  0
  -21.8840   -3.8089   23.4377 C   0  0  0  0  0  0
  -21.9157   -4.6867   22.3427 C   0  0  0  0  0  0
  -22.7270  -13.5001   21.2110 C   0  0  0  0  0  0
  -22.1668   -4.2101   21.0980 F   0  0  0  0  0  0
  -21.5654   -3.4509   25.7748 F   0  0  0  0  0  0
  -30.2668  -14.3086   20.7986 N   0  0  0  0  0  0
  -26.2046  -12.8178   20.4366 N   0  0  0  0  0  0
  -25.8461  -11.5561   20.6231 N   0  0  0  0  0  0
  -21.9762  -12.8126   22.0575 N   0  0  0  0  0  0
  -25.3686  -15.1394   20.5422 N   0  0  0  0  0  0
  -32.3124  -13.7028   20.9958 O   0  0  0  0  0  0
  -21.6473   -6.8663   21.4215 O   0  0  0  0  0  0
  -22.3272  -14.5374   20.6843 O   0  0  0  0  0  0
  -24.6586  -31.8322   23.1758 C   0  0  0  0  0  0
  -25.9292  -32.4615   23.8195 C   0  0  1  0  0  0
  -27.1862  -27.0113   20.0561 C   0  0  0  0  0  0
  -25.6002  -33.8427   24.2103 N   0  0  0  0  0  0
  -23.4621  -30.4495   21.5350 C   0  0  2  0  0  0
  -24.8924  -28.8429   20.1242 C   0  0  0  0  0  0
  -22.7601  -29.4513   22.4892 C   0  0  0  0  0  0
  -18.0317  -28.1400   22.8475 C   0  0  0  0  0  0
  -24.1507  -36.7207   23.2643 C   0  0  0  0  0  0
  -26.0312  -30.6493   21.3979 C   0  0  0  0  0  0
  -26.0894  -29.2498   20.7293 C   0  0  0  0  0  0
  -27.2421  -28.3526   20.6692 C   0  0  0  0  0  0
  -25.9457  -26.7230   19.4639 C   0  0  0  0  0  0
  -24.8345  -27.5932   19.4907 C   0  0  0  0  0  0
  -23.6873  -29.7741   20.1600 C   0  0  0  0  0  0
  -25.4150  -36.2972   24.0293 C   0  0  1  0  0  0
  -20.5932  -28.3739   23.1237 C   0  0  2  0  0  0
  -20.6807  -26.9441   22.5422 C   0  0  0  0  0  0
  -19.5782  -26.6385   21.5228 C   0  0  0  0  0  0
  -18.1956  -26.7938   22.1622 C   0  0  0  0  0  0
  -19.1570  -28.8897   23.2839 C   0  0  0  0  0  0
  -18.9474  -30.1493   23.8869 C   0  0  0  0  0  0
  -17.6466  -30.6597   24.0561 C   0  0  0  0  0  0
  -25.9124  -34.9357   23.5016 C   0  0  0  0  0  0
  -16.5364  -29.9086   23.6333 C   0  0  0  0  0  0
  -16.7300  -28.6504   23.0359 C   0  0  0  0  0  0
  -26.4547  -31.6537   25.0701 C   0  0  0  0  0  0
  -25.3687  -31.3770   26.1366 C   0  0  0  0  0  0
  -27.0418  -30.2898   24.6413 C   0  0  0  0  0  0
  -27.6061  -32.4332   25.7488 C   0  0  0  0  0  0
  -27.5584  -37.1760   24.8462 C   0  0  0  0  0  0
  -21.4295  -29.3037   22.3604 N   0  0  0  0  0  0
  -26.4295  -37.3705   23.9404 N   0  0  0  0  0  0
  -24.7400  -31.0026   22.0890 N   0  0  0  0  0  0
  -23.4190  -28.8087   23.3099 O   0  0  0  0  0  0
  -28.2360  -26.0303   19.7807 O   0  0  0  0  0  0
  -26.5716  -34.8878   22.4594 O   0  0  0  0  0  0
  -23.5682  -32.1299   23.6880 O   0  0  0  0  0  0
  -28.8364  -14.8112   18.9246 C   0  0  0  0  0  0
  -29.3142  -15.9529   17.8880 C   0  0  0  0  0  0
  -30.4961  -15.4912   16.9084 C   0  0  0  0  0  0
  -31.3021  -14.0843   16.8924 C   0  0  0  0  0  0
  -31.0548  -12.8148   17.8706 C   0  0  0  0  0  0
  -29.8894  -12.9299   19.0145 C   0  0  0  0  0  0
  -28.7427  -21.7998   19.2718 C   0  0  0  0  0  0
  -28.1914  -20.3172   19.0726 C   0  0  0  0  0  0
  -28.0618  -23.0855   19.4157 C   0  0  0  0  0  0
  -27.1568  -20.0496   19.9105 C   0  0  0  0  0  0
  -28.4934  -24.4855   20.1849 C   0  0  0  0  0  0
  -30.2430  -21.7196   19.5382 C   0  0  0  0  0  0
  -30.9691  -20.6195   18.6970 C   0  0  0  0  0  0
  -30.4554  -19.1505   18.8737 C   0  0  0  0  0  0
  -30.9447  -16.5258   15.8851 C   0  0  0  0  0  0
  -32.4244  -13.9059   15.8754 C   0  0  0  0  0  0
  -26.6174  -18.7364   20.4548 C   0  0  0  0  0  0
  -31.1819  -10.2437   17.9923 C   0  0  0  0  0  0
  -31.9445  -11.5656   17.7872 C   0  0  0  0  0  0
  -28.6045  -17.5189   17.9132 C   0  0  0  0  0  0
  -30.6038  -12.4013   20.1820 N   0  0  0  0  0  0
  -29.0576  -19.0229   18.4145 N   0  3  1  0  0  0
  -29.1323  -24.3388   21.2262 O   0  0  0  0  0  0
  -31.0834  -15.8725   19.3681 H   0  0  0  0  0  0
  -32.0927  -14.6571   19.0340 H   0  0  0  0  0  0
  -29.2602  -12.8312   16.3558 H   0  0  0  0  0  0
  -28.3875  -14.2463   16.4797 H   0  0  0  0  0  0
  -27.8168  -11.6133   18.0368 H   0  0  0  0  0  0
  -26.6824  -12.8345   17.6405 H   0  0  0  0  0  0
  -26.9993  -13.8822   19.4836 H   0  0  0  0  0  0
  -28.7993  -12.8119   21.8697 H   0  0  0  0  0  0
  -28.1729  -14.3782   21.7199 H   0  0  0  0  0  0
  -25.2356   -9.5503   22.4908 H   0  0  0  0  0  0
  -23.9842   -7.4281   22.7411 H   0  0  0  0  0  0
  -21.0541   -8.8404   19.8876 H   0  0  0  0  0  0
  -22.3212  -10.9493   19.6307 H   0  0  0  0  0  0
  -21.1838   -7.6081   23.9687 H   0  0  0  0  0  0
  -21.1450   -6.0475   25.9082 H   0  0  0  0  0  0
  -22.0658   -2.7574   23.2867 H   0  0  0  0  0  0
  -22.3305  -11.9813   22.5045 H   0  0  0  0  0  0
  -21.0379  -13.1222   22.2636 H   0  0  0  0  0  0
  -24.6028  -15.7876   20.6668 H   0  0  0  0  0  0
  -26.2468  -15.5834   20.3137 H   0  0  0  0  0  0
  -26.7361  -32.5139   23.0913 H   0  0  0  0  0  0
  -25.0098  -33.9543   25.0220 H   0  0  0  0  0  0
  -22.7730  -31.2806   21.3762 H   0  0  0  0  0  0
  -23.3789  -35.9519   23.3264 H   0  0  0  0  0  0
  -24.3601  -36.8890   22.2071 H   0  0  0  0  0  0
  -23.7253  -37.6371   23.6732 H   0  0  0  0  0  0
  -26.2200  -31.4018   20.6316 H   0  0  0  0  0  0
  -26.8878  -30.6856   22.0590 H   0  0  0  0  0  0
  -28.1759  -28.6775   21.1063 H   0  0  0  0  0  0
  -25.8307  -25.7820   18.9429 H   0  0  0  0  0  0
  -23.9201  -27.2789   19.0084 H   0  0  0  0  0  0
  -23.8426  -30.5453   19.4041 H   0  0  0  0  0  0
  -22.7902  -29.2378   19.8445 H   0  0  0  0  0  0
  -25.1355  -36.1768   25.0788 H   0  0  0  0  0  0
  -21.0007  -28.3322   24.1362 H   0  0  0  0  0  0
  -20.5716  -26.2348   23.3639 H   0  0  0  0  0  0
  -21.6666  -26.7465   22.1203 H   0  0  0  0  0  0
  -19.6949  -25.6286   21.1281 H   0  0  0  0  0  0
  -19.6712  -27.3173   20.6734 H   0  0  0  0  0  0
  -17.4231  -26.6688   21.4019 H   0  0  0  0  0  0
  -18.0345  -26.0093   22.9027 H   0  0  0  0  0  0
  -19.7956  -30.7324   24.2204 H   0  0  0  0  0  0
  -17.5024  -31.6267   24.5171 H   0  0  0  0  0  0
  -15.5362  -30.2971   23.7695 H   0  0  0  0  0  0
  -15.8699  -28.0822   22.7088 H   0  0  0  0  0  0
  -24.5909  -30.7073   25.7678 H   0  0  0  0  0  0
  -24.8832  -32.2957   26.4660 H   0  0  0  0  0  0
  -25.7932  -30.9033   27.0228 H   0  0  0  0  0  0
  -26.3056  -29.6589   24.1422 H   0  0  0  0  0  0
  -27.3940  -29.7250   25.5057 H   0  0  0  0  0  0
  -27.9012  -30.4052   23.9805 H   0  0  0  0  0  0
  -27.2649  -33.3685   26.1934 H   0  0  0  0  0  0
  -28.3919  -32.6808   25.0338 H   0  0  0  0  0  0
  -28.0672  -31.8549   26.5506 H   0  0  0  0  0  0
  -28.2567  -38.0086   24.7525 H   0  0  0  0  0  0
  -28.1113  -36.2616   24.6272 H   0  0  0  0  0  0
  -27.2299  -37.1367   25.8860 H   0  0  0  0  0  0
  -20.9550  -29.8697   21.6718 H   0  0  0  0  0  0
  -26.0137  -38.2757   24.1415 H   0  0  0  0  0  0
  -28.2663  -15.3434   19.6786 H   0  0  0  0  0  0
  -27.0027  -23.0590   19.2071 H   0  0  0  0  0  0
  -26.7511  -20.8906   20.4588 H   0  0  0  0  0  0
  -30.3973  -21.5371   20.6018 H   0  0  0  0  0  0
  -30.6947  -22.6866   19.3145 H   0  0  0  0  0  0
  -32.0336  -20.6393   18.9345 H   0  0  0  0  0  0
  -30.9208  -20.8979   17.6431 H   0  0  0  0  0  0
  -30.5266  -18.8372   19.9157 H   0  0  0  0  0  0
  -31.0951  -18.4796   18.2969 H   0  0  0  0  0  0
  -30.3166  -17.4099   15.8570 H   0  0  0  0  0  0
  -30.9302  -16.1004   14.8787 H   0  0  0  0  0  0
  -31.9589  -16.8596   16.1089 H   0  0  0  0  0  0
  -32.7705  -14.8305   15.4238 H   0  0  0  0  0  0
  -32.0835  -13.2498   15.0760 H   0  0  0  0  0  0
  -33.3008  -13.4557   16.3437 H   0  0  0  0  0  0
  -26.5376  -17.9204   19.7553 H   0  0  0  0  0  0
  -25.6047  -18.8994   20.8231 H   0  0  0  0  0  0
  -27.2177  -18.4119   21.3096 H   0  0  0  0  0  0
  -31.8365   -9.3941   17.8073 H   0  0  0  0  0  0
  -30.3380  -10.1609   17.3083 H   0  0  0  0  0  0
  -30.7955  -10.1287   19.0033 H   0  0  0  0  0  0
  -32.7495  -11.6525   18.5192 H   0  0  0  0  0  0
  -32.4204  -11.5124   16.8102 H   0  0  0  0  0  0
  -27.5795  -17.3311   18.1856 H   0  0  0  0  0  0
  -28.4466  -17.7103   16.8547 H   0  0  0  0  0  0
  -31.2185  -11.6180   20.0206 H   0  0  0  0  0  0
  -29.1872  -19.3591   17.4702 H   0  0  0  0  0  0
  1 25  1  0  0  0
  1 30  2  0  0  0
  1 91  1  0  0  0
  2  3  1  0  0  0
  2 25  1  0  0  0
  2 94  1  0  0  0
  2 95  1  0  0  0
  3  4  1  0  0  0
  3 96  1  0  0  0
  3 97  1  0  0  0
  4  5  1  0  0  0
  4 98  1  0  0  0
  4 99  1  0  0  0
  5  6  1  0  0  0
  5 26  1  0  0  0
  5100  1  0  0  0
  6 25  1  0  0  0
  6101  1  0  0  0
  6102  1  0  0  0
  7  8  2  0  0  0
  7 26  1  0  0  0
  7 29  1  0  0  0
  8  9  1  0  0  0
  8 22  1  0  0  0
  9 10  1  0  0  0
  9 27  2  0  0  0
 10 11  2  0  0  0
 10 15  1  0  0  0
 11 12  1  0  0  0
 11103  1  0  0  0
 12 13  2  0  0  0
 12104  1  0  0  0
 13 14  1  0  0  0
 13 31  1  0  0  0
 14 15  2  0  0  0
 14105  1  0  0  0
 15106  1  0  0  0
 16 17  2  0  0  0
 16 21  1  0  0  0
 16 31  1  0  0  0
 17 18  1  0  0  0
 17107  1  0  0  0
 18 19  2  0  0  0
 18108  1  0  0  0
 19 20  1  0  0  0
 19 24  1  0  0  0
 20 21  2  0  0  0
 20109  1  0  0  0
 21 23  1  0  0  0
 22 28  1  0  0  0
 22 32  2  0  0  0
 26 27  1  0  0  0
 28110  1  0  0  0
 28111  1  0  0  0
 29112  1  0  0  0
 29113  1  0  0  0
 33 34  1  0  0  0
 33 66  1  0  0  0
 33 70  2  0  0  0
 34 36  1  0  0  0
 34 59  1  0  0  0
 34114  1  0  0  0
 35 44  2  0  0  0
 35 45  1  0  0  0
 35 68  1  0  0  0
 36 56  1  0  0  0
 36115  1  0  0  0
 37 39  1  0  0  0
 37 47  1  0  0  0
 37 66  1  0  0  0
 37116  1  0  0  0
 38 43  2  0  0  0
 38 46  1  0  0  0
 38 47  1  0  0  0
 39 64  1  0  0  0
 39 67  2  0  0  0
 40 52  1  0  0  0
 40 53  2  0  0  0
 40 58  1  0  0  0
 41117  1  0  0  0
 41118  1  0  0  0
 41119  1  0  0  0
 41 48  1  0  0  0
 42 43  1  0  0  0
 42 66  1  0  0  0
 42120  1  0  0  0
 42121  1  0  0  0
 43 44  1  0  0  0
 44122  1  0  0  0
 45 46  2  0  0  0
 45123  1  0  0  0
 46124  1  0  0  0
 47125  1  0  0  0
 47126  1  0  0  0
 48 56  1  0  0  0
 48 65  1  0  0  0
 48127  1  0  0  0
 49 50  1  0  0  0
 49 53  1  0  0  0
 49 64  1  0  0  0
 49128  1  0  0  0
 50 51  1  0  0  0
 50129  1  0  0  0
 50130  1  0  0  0
 51 52  1  0  0  0
 51131  1  0  0  0
 51132  1  0  0  0
 52133  1  0  0  0
 52134  1  0  0  0
 53 54  1  0  0  0
 54 55  2  0  0  0
 54135  1  0  0  0
 55 57  1  0  0  0
 55136  1  0  0  0
 56 69  2  0  0  0
 57 58  2  0  0  0
 57137  1  0  0  0
 58138  1  0  0  0
 59 60  1  0  0  0
 59 61  1  0  0  0
 59 62  1  0  0  0
 60139  1  0  0  0
 60140  1  0  0  0
 60141  1  0  0  0
 61142  1  0  0  0
 61143  1  0  0  0
 61144  1  0  0  0
 62145  1  0  0  0
 62146  1  0  0  0
 62147  1  0  0  0
 63 65  1  0  0  0
 63148  1  0  0  0
 63149  1  0  0  0
 63150  1  0  0  0
 64151  1  0  0  0
 65152  1  0  0  0
 68 81  1  0  0  0
 71 72  2  0  0  0
 71 76  1  0  0  0
 71153  1  0  0  0
 72 73  1  0  0  0
 72 90  1  0  0  0
 73 74  2  0  0  0
 73 85  1  0  0  0
 74 75  1  0  0  0
 74 86  1  0  0  0
 75 76  2  0  0  0
 75 89  1  0  0  0
 76 91  1  0  0  0
 77 78  1  0  0  0
 77 79  2  0  0  0
 77 82  1  0  0  0
 78 80  2  0  0  0
 78 92  1  0  0  0
 79 81  1  0  0  0
 79154  1  0  0  0
 80 87  1  0  0  0
 80155  1  0  0  0
 81 93  2  0  0  0
 82 83  1  0  0  0
 82156  1  0  0  0
 82157  1  0  0  0
 83 84  1  0  0  0
 83158  1  0  0  0
 83159  1  0  0  0
 84 92  1  0  0  0
 84160  1  0  0  0
 84161  1  0  0  0
 85162  1  0  0  0
 85163  1  0  0  0
 85164  1  0  0  0
 86165  1  0  0  0
 86166  1  0  0  0
 86167  1  0  0  0
 87168  1  0  0  0
 87169  1  0  0  0
 87170  1  0  0  0
 88 89  1  0  0  0
 88171  1  0  0  0
 88172  1  0  0  0
 88173  1  0  0  0
 89174  1  0  0  0
 89175  1  0  0  0
 90176  1  0  0  0
 90177  1  0  0  0
 90 92  1  0  0  0
 91178  1  0  0  0
 92179  1  0  0  0
M  CHG  1  92   1
M  ISO  4   1 100  68 101  81 101  91 100
M  END
> <chiral flag>
0

> <version>
0

> <s_m_source_file>
/data/baiqing/PycharmProjects/Reinvent-master-3.2/result/LINK_invent/BTK/process_docking_weight1_custom_product_contain_oxygen_bond_distance_aromatic_linkinvent_7_9_3/rearranged_h_0039.sdf

> <i_m_source_file_index>
72

> <r_mmod_Potential_Energy-OPLS-2005>
10859.61328125

> <r_mmod_Stretch_Energy-OPLS-2005>
5820.23095703125

> <r_mmod_Bend_Energy-OPLS-2005>
797.365600585938

> <r_mmod_Torsional_Energy-OPLS-2005>
514.115905761719

> <r_mmod_Improper_Torsional_Energy-OPLS-2005>
67.7825698852539

> <r_mmod_Van_der_Waal_Energy-OPLS-2005>
2788.63745117188

> <r_mmod_Electrostatic_Energy-OPLS-2005>
-309.270904541016

> <r_mmod_Solvation_Energy-OPLS-2005>
-448.286987304688

> <b_mmod_Minimization_Converged-OPLS-2005>
0

> <r_mmod_RMS_Derivative-OPLS-2005>
10.907977104187

$$$$
73
                    3D
 Structure written by MMmdl.
173182  0  0  1  0            999 V2000
  -30.6935  -14.5507   20.6092 C   0  0  0  0  0  0
  -30.4523  -12.3656   19.4548 C   0  0  0  0  0  0
  -29.5263  -12.5460   18.2330 C   0  0  0  0  0  0
  -28.0405  -12.4052   18.6288 C   0  0  0  0  0  0
  -27.6766  -13.2266   19.8940 C   0  0  2  0  0  0
  -28.7158  -13.0191   21.0214 C   0  0  0  0  0  0
  -25.2642  -13.8230   20.5707 C   0  0  0  0  0  0
  -24.1889  -13.0458   20.9162 C   0  0  0  0  0  0
  -24.6457  -11.6928   20.8660 C   0  0  0  0  0  0
  -23.9102  -10.4298   21.0335 C   0  0  0  0  0  0
  -24.3648   -9.4241   21.9147 C   0  0  0  0  0  0
  -23.6324   -8.2264   22.0731 C   0  0  0  0  0  0
  -22.4298   -8.0298   21.3526 C   0  0  0  0  0  0
  -21.9916   -9.0259   20.4616 C   0  0  0  0  0  0
  -22.7239  -10.2162   20.3012 C   0  0  0  0  0  0
  -21.6871   -6.0751   22.5266 C   0  0  0  0  0  0
  -21.4015   -6.5638   23.8207 C   0  0  0  0  0  0
  -21.3666   -5.6785   24.9151 C   0  0  0  0  0  0
  -21.6062   -4.3047   24.7212 C   0  0  0  0  0  0
  -21.8829   -3.8150   23.4318 C   0  0  0  0  0  0
  -21.9215   -4.6973   22.3379 C   0  0  0  0  0  0
  -22.7908  -13.5228   21.1867 C   0  0  0  0  0  0
  -22.1696   -4.2163   21.0959 F   0  0  0  0  0  0
  -21.5643   -3.4526   25.7716 F   0  0  0  0  0  0
  -30.0525  -13.3465   20.4883 N   0  0  0  0  0  0
  -26.3121  -12.9424   20.3414 N   0  0  0  0  0  0
  -25.9414  -11.6558   20.5721 N   0  0  0  0  0  0
  -22.0585  -12.8143   22.0406 N   0  0  0  0  0  0
  -25.4316  -15.1959   20.4156 N   0  0  0  0  0  0
  -31.7712  -14.7745   20.0544 O   0  0  0  0  0  0
  -21.6681   -6.8881   21.4220 O   0  0  0  0  0  0
  -22.3535  -14.5521   20.6774 O   0  0  0  0  0  0
  -24.6221  -31.8636   23.2049 C   0  0  0  0  0  0
  -25.9097  -32.4786   23.8365 C   0  0  1  0  0  0
  -27.2265  -27.3651   20.1343 C   0  0  0  0  0  0
  -25.5941  -33.8592   24.2308 N   0  0  0  0  0  0
  -23.4135  -30.4892   21.5446 C   0  0  2  0  0  0
  -24.8573  -28.9419   20.1142 C   0  0  0  0  0  0
  -22.7462  -29.4649   22.4920 C   0  0  0  0  0  0
  -18.0307  -28.1382   22.8490 C   0  0  0  0  0  0
  -24.1500  -36.7295   23.2643 C   0  0  0  0  0  0
  -25.9504  -30.8076   21.3699 C   0  0  0  0  0  0
  -26.0217  -29.4416   20.7099 C   0  0  0  0  0  0
  -27.2067  -28.6643   20.7095 C   0  0  0  0  0  0
  -26.0519  -26.9059   19.4999 C   0  0  0  0  0  0
  -24.8702  -27.6723   19.5073 C   0  0  0  0  0  0
  -23.6279  -29.8216   20.1597 C   0  0  0  0  0  0
  -25.4125  -36.3098   24.0345 C   0  0  1  0  0  0
  -20.5897  -28.3686   23.1288 C   0  0  2  0  0  0
  -20.6800  -26.9404   22.5414 C   0  0  0  0  0  0
  -19.5764  -26.6375   21.5236 C   0  0  0  0  0  0
  -18.1932  -26.7932   22.1618 C   0  0  0  0  0  0
  -19.1557  -28.8847   23.2896 C   0  0  0  0  0  0
  -18.9478  -30.1458   23.8899 C   0  0  0  0  0  0
  -17.6471  -30.6578   24.0573 C   0  0  0  0  0  0
  -25.9050  -34.9458   23.5128 C   0  0  0  0  0  0
  -16.5365  -29.9078   23.6335 C   0  0  0  0  0  0
  -16.7295  -28.6505   23.0345 C   0  0  0  0  0  0
  -26.4502  -31.6577   25.0715 C   0  0  0  0  0  0
  -25.3763  -31.3695   26.1456 C   0  0  0  0  0  0
  -27.0332  -30.3006   24.6121 C   0  0  0  0  0  0
  -27.6058  -32.4332   25.7466 C   0  0  0  0  0  0
  -27.5596  -37.1795   24.8478 C   0  0  0  0  0  0
  -21.4183  -29.3065   22.3674 N   0  0  0  0  0  0
  -26.4306  -37.3784   23.9419 N   0  0  0  0  0  0
  -24.6803  -31.0708   22.0961 N   0  0  0  0  0  0
  -23.4218  -28.8204   23.2999 O   0  0  0  0  0  0
  -28.3790  -26.5877   20.2291 O   0  0  0  0  0  0
  -26.5576  -34.8914   22.4674 O   0  0  0  0  0  0
  -23.5401  -32.1393   23.7411 O   0  0  0  0  0  0
  -31.3591  -18.1518   22.2468 C   0  0  0  0  0  0
  -31.9578  -19.3369   22.7173 C   0  0  0  0  0  0
  -30.3537  -18.2026   21.2577 C   0  0  0  0  0  0
  -29.9397  -19.5005   20.7769 C   0  0  0  0  0  0
  -30.5404  -20.7185   21.2567 C   0  0  0  0  0  0
  -31.5877  -20.5961   22.2018 C   0  0  0  0  0  0
  -28.6991  -23.0423   22.4959 C   0  0  0  0  0  0
  -28.8147  -22.9776   23.8384 C   0  0  0  0  0  0
  -27.3976  -23.1518   21.7379 C   0  0  0  0  0  0
  -27.1995  -24.6208   21.3335 C   0  0  0  0  0  0
  -29.7431  -24.6287   20.8750 C   0  0  0  0  0  0
  -28.3233  -25.1251   20.3825 C   0  0  2  0  0  0
  -28.8736  -19.5998   19.6885 C   0  0  0  0  0  0
  -29.9184  -24.0001   25.8935 C   0  0  0  0  0  0
  -29.7515  -16.8882   20.6735 C   0  0  0  0  0  0
  -30.2090  -22.1290   20.6421 C   0  0  0  0  0  0
  -30.0863  -23.0963   24.6630 C   0  0  0  0  0  0
  -30.0204  -15.5399   21.2479 N   0  0  0  0  0  0
  -29.8348  -23.2746   21.5552 N   0  3  2  0  0  0
  -32.5153  -21.9682   22.6874 Cl  0  0  0  0  0  0
  -31.4941  -12.4870   19.1507 H   0  0  0  0  0  0
  -30.3801  -11.3521   19.8490 H   0  0  0  0  0  0
  -29.7752  -11.8254   17.4538 H   0  0  0  0  0  0
  -29.7005  -13.5328   17.7969 H   0  0  0  0  0  0
  -27.8231  -11.3469   18.7891 H   0  0  0  0  0  0
  -27.4104  -12.7281   17.8003 H   0  0  0  0  0  0
  -27.7101  -14.2774   19.6118 H   0  0  0  0  0  0
  -28.6993  -11.9808   21.3530 H   0  0  0  0  0  0
  -28.4579  -13.6131   21.9018 H   0  0  0  0  0  0
  -25.2819   -9.5762   22.4673 H   0  0  0  0  0  0
  -24.0098   -7.4649   22.7421 H   0  0  0  0  0  0
  -21.0869   -8.8756   19.8867 H   0  0  0  0  0  0
  -22.3704  -10.9693   19.6098 H   0  0  0  0  0  0
  -21.1980   -7.6135   23.9696 H   0  0  0  0  0  0
  -21.1491   -6.0509   25.9065 H   0  0  0  0  0  0
  -22.0607   -2.7601   23.2820 H   0  0  0  0  0  0
  -22.4263  -11.9821   22.4785 H   0  0  0  0  0  0
  -21.1155  -13.1080   22.2569 H   0  0  0  0  0  0
  -24.6667  -15.8524   20.5320 H   0  0  0  0  0  0
  -26.2826  -15.6346   20.0872 H   0  0  0  0  0  0
  -26.7176  -32.5436   23.1126 H   0  0  0  0  0  0
  -25.0202  -33.9735   25.0524 H   0  0  0  0  0  0
  -22.7072  -31.3114   21.4018 H   0  0  0  0  0  0
  -23.3755  -35.9634   23.3312 H   0  0  0  0  0  0
  -24.3606  -36.8885   22.2056 H   0  0  0  0  0  0
  -23.7217  -37.6503   23.6631 H   0  0  0  0  0  0
  -26.0868  -31.5735   20.6068 H   0  0  0  0  0  0
  -26.8303  -30.8443   21.9997 H   0  0  0  0  0  0
  -28.0973  -29.0372   21.1916 H   0  0  0  0  0  0
  -26.0252  -25.9356   19.0248 H   0  0  0  0  0  0
  -23.9709  -27.2742   19.0576 H   0  0  0  0  0  0
  -23.7693  -30.6028   19.4125 H   0  0  0  0  0  0
  -22.7451  -29.2657   19.8389 H   0  0  0  0  0  0
  -25.1282  -36.1995   25.0829 H   0  0  0  0  0  0
  -21.0007  -28.3273   24.1396 H   0  0  0  0  0  0
  -20.5744  -26.2287   23.3614 H   0  0  0  0  0  0
  -21.6666  -26.7473   22.1166 H   0  0  0  0  0  0
  -19.6924  -25.6298   21.1234 H   0  0  0  0  0  0
  -19.6693  -27.3217   20.6786 H   0  0  0  0  0  0
  -17.4226  -26.6748   21.3994 H   0  0  0  0  0  0
  -18.0291  -26.0062   22.8991 H   0  0  0  0  0  0
  -19.7965  -30.7290   24.2230 H   0  0  0  0  0  0
  -17.5028  -31.6239   24.5202 H   0  0  0  0  0  0
  -15.5367  -30.2967   23.7633 H   0  0  0  0  0  0
  -15.8715  -28.0813   22.7028 H   0  0  0  0  0  0
  -24.5964  -30.7011   25.7815 H   0  0  0  0  0  0
  -24.8916  -32.2841   26.4890 H   0  0  0  0  0  0
  -25.8103  -30.8898   27.0231 H   0  0  0  0  0  0
  -26.2881  -29.6755   24.1191 H   0  0  0  0  0  0
  -27.4123  -29.7250   25.4574 H   0  0  0  0  0  0
  -27.8709  -30.4321   23.9262 H   0  0  0  0  0  0
  -27.2678  -33.3657   26.2007 H   0  0  0  0  0  0
  -28.3861  -32.6869   25.0278 H   0  0  0  0  0  0
  -28.0740  -31.8492   26.5403 H   0  0  0  0  0  0
  -28.2616  -38.0093   24.7531 H   0  0  0  0  0  0
  -28.1069  -36.2613   24.6290 H   0  0  0  0  0  0
  -27.2296  -37.1450   25.8875 H   0  0  0  0  0  0
  -20.9343  -29.8767   21.6867 H   0  0  0  0  0  0
  -26.0198  -38.2869   24.1394 H   0  0  0  0  0  0
  -31.7098  -17.2027   22.6258 H   0  0  0  0  0  0
  -32.7444  -19.2892   23.4586 H   0  0  0  0  0  0
  -27.9097  -22.8697   24.4193 H   0  0  0  0  0  0
  -26.5800  -22.7986   22.3674 H   0  0  0  0  0  0
  -27.4069  -22.5146   20.8537 H   0  0  0  0  0  0
  -27.1675  -25.2435   22.2278 H   0  0  0  0  0  0
  -26.2180  -24.7023   20.8750 H   0  0  0  0  0  0
  -30.1042  -25.3498   21.6084 H   0  0  0  0  0  0
  -30.4510  -24.6855   20.0470 H   0  0  0  0  0  0
  -28.1405  -24.6950   19.3962 H   0  0  0  0  0  0
  -29.2450  -20.1748   18.8385 H   0  0  0  0  0  0
  -27.9909  -20.0949   20.0889 H   0  0  0  0  0  0
  -28.5468  -18.6485   19.2729 H   0  0  0  0  0  0
  -30.8439  -24.0286   26.4719 H   0  0  0  0  0  0
  -29.1356  -23.6462   26.5635 H   0  0  0  0  0  0
  -29.6772  -25.0258   25.6074 H   0  0  0  0  0  0
  -28.6692  -16.9836   20.7538 H   0  0  0  0  0  0
  -29.9583  -16.8674   19.6024 H   0  0  0  0  0  0
  -29.4344  -22.0721   19.8858 H   0  0  0  0  0  0
  -31.1016  -22.4181   20.0833 H   0  0  0  0  0  0
  -30.8932  -23.5176   24.0704 H   0  0  0  0  0  0
  -30.3978  -22.0987   24.9722 H   0  0  0  0  0  0
  -29.2715  -15.2013   21.8344 H   0  0  0  0  0  0
  -30.6619  -23.3471   22.1320 H   0  0  0  0  0  0
  1 25  1  0  0  0
  1 30  2  0  0  0
  1 88  1  0  0  0
  2  3  1  0  0  0
  2 25  1  0  0  0
  2 91  1  0  0  0
  2 92  1  0  0  0
  3  4  1  0  0  0
  3 93  1  0  0  0
  3 94  1  0  0  0
  4  5  1  0  0  0
  4 95  1  0  0  0
  4 96  1  0  0  0
  5  6  1  0  0  0
  5 26  1  0  0  0
  5 97  1  0  0  0
  6 25  1  0  0  0
  6 98  1  0  0  0
  6 99  1  0  0  0
  7  8  2  0  0  0
  7 26  1  0  0  0
  7 29  1  0  0  0
  8  9  1  0  0  0
  8 22  1  0  0  0
  9 10  1  0  0  0
  9 27  2  0  0  0
 10 11  2  0  0  0
 10 15  1  0  0  0
 11 12  1  0  0  0
 11100  1  0  0  0
 12 13  2  0  0  0
 12101  1  0  0  0
 13 14  1  0  0  0
 13 31  1  0  0  0
 14 15  2  0  0  0
 14102  1  0  0  0
 15103  1  0  0  0
 16 17  2  0  0  0
 16 21  1  0  0  0
 16 31  1  0  0  0
 17 18  1  0  0  0
 17104  1  0  0  0
 18 19  2  0  0  0
 18105  1  0  0  0
 19 20  1  0  0  0
 19 24  1  0  0  0
 20 21  2  0  0  0
 20106  1  0  0  0
 21 23  1  0  0  0
 22 28  1  0  0  0
 22 32  2  0  0  0
 26 27  1  0  0  0
 28107  1  0  0  0
 28108  1  0  0  0
 29109  1  0  0  0
 29110  1  0  0  0
 33 34  1  0  0  0
 33 66  1  0  0  0
 33 70  2  0  0  0
 34 36  1  0  0  0
 34 59  1  0  0  0
 34111  1  0  0  0
 35 44  2  0  0  0
 35 45  1  0  0  0
 35 68  1  0  0  0
 36 56  1  0  0  0
 36112  1  0  0  0
 37 39  1  0  0  0
 37 47  1  0  0  0
 37 66  1  0  0  0
 37113  1  0  0  0
 38 43  2  0  0  0
 38 46  1  0  0  0
 38 47  1  0  0  0
 39 64  1  0  0  0
 39 67  2  0  0  0
 40 52  1  0  0  0
 40 53  2  0  0  0
 40 58  1  0  0  0
 41114  1  0  0  0
 41115  1  0  0  0
 41116  1  0  0  0
 41 48  1  0  0  0
 42 43  1  0  0  0
 42 66  1  0  0  0
 42117  1  0  0  0
 42118  1  0  0  0
 43 44  1  0  0  0
 44119  1  0  0  0
 45 46  2  0  0  0
 45120  1  0  0  0
 46121  1  0  0  0
 47122  1  0  0  0
 47123  1  0  0  0
 48 56  1  0  0  0
 48 65  1  0  0  0
 48124  1  0  0  0
 49 50  1  0  0  0
 49 53  1  0  0  0
 49 64  1  0  0  0
 49125  1  0  0  0
 50 51  1  0  0  0
 50126  1  0  0  0
 50127  1  0  0  0
 51 52  1  0  0  0
 51128  1  0  0  0
 51129  1  0  0  0
 52130  1  0  0  0
 52131  1  0  0  0
 53 54  1  0  0  0
 54 55  2  0  0  0
 54132  1  0  0  0
 55 57  1  0  0  0
 55133  1  0  0  0
 56 69  2  0  0  0
 57 58  2  0  0  0
 57134  1  0  0  0
 58135  1  0  0  0
 59 60  1  0  0  0
 59 61  1  0  0  0
 59 62  1  0  0  0
 60136  1  0  0  0
 60137  1  0  0  0
 60138  1  0  0  0
 61139  1  0  0  0
 61140  1  0  0  0
 61141  1  0  0  0
 62142  1  0  0  0
 62143  1  0  0  0
 62144  1  0  0  0
 63 65  1  0  0  0
 63145  1  0  0  0
 63146  1  0  0  0
 63147  1  0  0  0
 64148  1  0  0  0
 65149  1  0  0  0
 68 82  1  0  0  0
 71 72  2  0  0  0
 71 73  1  0  0  0
 71150  1  0  0  0
 72 76  1  0  0  0
 72151  1  0  0  0
 73 74  2  0  0  0
 73 85  1  0  0  0
 74 75  1  0  0  0
 74 83  1  0  0  0
 75 76  2  0  0  0
 75 86  1  0  0  0
 76 90  1  0  0  0
 77 78  2  0  0  0
 77 79  1  0  0  0
 77 89  1  0  0  0
 78 87  1  0  0  0
 78152  1  0  0  0
 79 80  1  0  0  0
 79153  1  0  0  0
 79154  1  0  0  0
 80 82  1  0  0  0
 80155  1  0  0  0
 80156  1  0  0  0
 81 82  1  0  0  0
 81 89  1  0  0  0
 81157  1  0  0  0
 81158  1  0  0  0
 82159  1  0  0  0
 83160  1  0  0  0
 83161  1  0  0  0
 83162  1  0  0  0
 84 87  1  0  0  0
 84163  1  0  0  0
 84164  1  0  0  0
 84165  1  0  0  0
 85 88  1  0  0  0
 85166  1  0  0  0
 85167  1  0  0  0
 86168  1  0  0  0
 86169  1  0  0  0
 86 89  1  0  0  0
 87170  1  0  0  0
 87171  1  0  0  0
 88172  1  0  0  0
 89173  1  0  0  0
M  CHG  1  89   1
M  ISO  4   1 100  68 101  82 101  88 100
M  END
> <chiral flag>
0

> <version>
0

> <s_m_source_file>
/data/baiqing/PycharmProjects/Reinvent-master-3.2/result/LINK_invent/BTK/process_docking_weight1_custom_product_contain_oxygen_bond_distance_aromatic_linkinvent_7_9_3/rearranged_h_0039.sdf

> <i_m_source_file_index>
73

> <r_mmod_Potential_Energy-OPLS-2005>
-86.8782272338867

> <r_mmod_Stretch_Energy-OPLS-2005>
71.7140731811523

> <r_mmod_Bend_Energy-OPLS-2005>
148.995162963867

> <r_mmod_Torsional_Energy-OPLS-2005>
249.431182861328

> <r_mmod_Improper_Torsional_Energy-OPLS-2005>
7.33004808425903

> <r_mmod_Van_der_Waal_Energy-OPLS-2005>
146.751403808594

> <r_mmod_Electrostatic_Energy-OPLS-2005>
-331.523956298828

> <r_mmod_Solvation_Energy-OPLS-2005>
-408.069885253906

> <b_mmod_Minimization_Converged-OPLS-2005>
0

> <r_mmod_RMS_Derivative-OPLS-2005>
5.46744823455811

$$$$
74
                    3D
 Structure written by MMmdl.
170179  0  0  1  0            999 V2000
  -30.6751  -14.5724   20.5036 C   0  0  0  0  0  0
  -30.4194  -12.3536   19.4255 C   0  0  0  0  0  0
  -29.4904  -12.4976   18.2027 C   0  0  0  0  0  0
  -28.0110  -12.3574   18.6230 C   0  0  0  0  0  0
  -27.6455  -13.2253   19.8592 C   0  0  2  0  0  0
  -28.6982  -13.0682   20.9772 C   0  0  0  0  0  0
  -25.2476  -13.8197   20.5763 C   0  0  0  0  0  0
  -24.1803  -13.0410   20.9229 C   0  0  0  0  0  0
  -24.6418  -11.6887   20.8770 C   0  0  0  0  0  0
  -23.9123  -10.4255   21.0418 C   0  0  0  0  0  0
  -24.3662   -9.4161   21.9200 C   0  0  0  0  0  0
  -23.6298   -8.2218   22.0766 C   0  0  0  0  0  0
  -22.4254   -8.0296   21.3577 C   0  0  0  0  0  0
  -21.9938   -9.0271   20.4658 C   0  0  0  0  0  0
  -22.7298  -10.2118   20.3064 C   0  0  0  0  0  0
  -21.6833   -6.0748   22.5266 C   0  0  0  0  0  0
  -21.4023   -6.5645   23.8205 C   0  0  0  0  0  0
  -21.3660   -5.6796   24.9176 C   0  0  0  0  0  0
  -21.6012   -4.3049   24.7216 C   0  0  0  0  0  0
  -21.8808   -3.8155   23.4333 C   0  0  0  0  0  0
  -21.9188   -4.6984   22.3391 C   0  0  0  0  0  0
  -22.7793  -13.5141   21.1854 C   0  0  0  0  0  0
  -22.1654   -4.2167   21.0975 F   0  0  0  0  0  0
  -21.5625   -3.4529   25.7729 F   0  0  0  0  0  0
  -30.0074  -13.3896   20.3877 N   0  0  0  0  0  0
  -26.2955  -12.9431   20.3340 N   0  0  0  0  0  0
  -25.9349  -11.6550   20.5769 N   0  0  0  0  0  0
  -22.0461  -12.8163   22.0422 N   0  0  0  0  0  0
  -25.3959  -15.1980   20.4271 N   0  0  0  0  0  0
  -31.8596  -14.6859   20.1716 O   0  0  0  0  0  0
  -21.6617   -6.8890   21.4227 O   0  0  0  0  0  0
  -22.3441  -14.5410   20.6639 O   0  0  0  0  0  0
  -24.6229  -31.8574   23.1987 C   0  0  0  0  0  0
  -25.9062  -32.4761   23.8310 C   0  0  1  0  0  0
  -27.2308  -27.3256   20.1094 C   0  0  0  0  0  0
  -25.5895  -33.8564   24.2233 N   0  0  0  0  0  0
  -23.4197  -30.4797   21.5403 C   0  0  2  0  0  0
  -24.8657  -28.9307   20.1076 C   0  0  0  0  0  0
  -22.7485  -29.4573   22.4906 C   0  0  0  0  0  0
  -18.0278  -28.1378   22.8451 C   0  0  0  0  0  0
  -24.1542  -36.7308   23.2631 C   0  0  0  0  0  0
  -25.9584  -30.7869   21.3715 C   0  0  0  0  0  0
  -26.0324  -29.4145   20.7159 C   0  0  0  0  0  0
  -27.2158  -28.6233   20.7041 C   0  0  0  0  0  0
  -26.0452  -26.8912   19.4738 C   0  0  0  0  0  0
  -24.8733  -27.6736   19.4814 C   0  0  0  0  0  0
  -23.6358  -29.8141   20.1548 C   0  0  0  0  0  0
  -25.4165  -36.3080   24.0312 C   0  0  1  0  0  0
  -20.5873  -28.3660   23.1279 C   0  0  2  0  0  0
  -20.6775  -26.9386   22.5413 C   0  0  0  0  0  0
  -19.5774  -26.6368   21.5192 C   0  0  0  0  0  0
  -18.1940  -26.7897   22.1601 C   0  0  0  0  0  0
  -19.1537  -28.8836   23.2840 C   0  0  0  0  0  0
  -18.9467  -30.1430   23.8867 C   0  0  0  0  0  0
  -17.6474  -30.6561   24.0579 C   0  0  0  0  0  0
  -25.9083  -34.9447   23.5081 C   0  0  0  0  0  0
  -16.5359  -29.9083   23.6308 C   0  0  0  0  0  0
  -16.7268  -28.6524   23.0270 C   0  0  0  0  0  0
  -26.4444  -31.6562   25.0678 C   0  0  0  0  0  0
  -25.3674  -31.3699   26.1407 C   0  0  0  0  0  0
  -27.0244  -30.2978   24.6093 C   0  0  0  0  0  0
  -27.6022  -32.4284   25.7445 C   0  0  0  0  0  0
  -27.5632  -37.1794   24.8441 C   0  0  0  0  0  0
  -21.4199  -29.3000   22.3671 N   0  0  0  0  0  0
  -26.4351  -37.3781   23.9377 N   0  0  0  0  0  0
  -24.6864  -31.0597   22.0943 N   0  0  0  0  0  0
  -23.4213  -28.8077   23.2957 O   0  0  0  0  0  0
  -28.3847  -26.5348   20.1213 O   0  0  0  0  0  0
  -26.5708  -34.8929   22.4678 O   0  0  0  0  0  0
  -23.5396  -32.1366   23.7327 O   0  0  0  0  0  0
  -29.6960  -18.1912   21.0977 C   0  0  0  0  0  0
  -31.2560  -16.8603   22.4094 C   0  0  0  0  0  0
  -29.9031  -19.3444   21.9344 C   0  0  0  0  0  0
  -31.4494  -17.9350   23.2958 C   0  0  0  0  0  0
  -30.6431  -19.1034   23.1401 C   0  0  0  0  0  0
  -30.3065  -16.9214   21.3745 C   0  0  0  0  0  0
  -29.3871  -23.3535   21.9713 C   0  0  0  0  0  0
  -28.7777  -24.4911   21.4999 C   0  0  0  0  0  0
  -30.0532  -23.3986   23.3263 C   0  0  0  0  0  0
  -31.4723  -22.9043   23.0530 C   0  0  0  0  0  0
  -31.3673  -22.0447   21.7767 C   0  0  0  0  0  0
  -30.4277  -19.9765   24.3602 C   0  0  0  0  0  0
  -33.9316  -18.0777   23.8755 C   0  0  0  0  0  0
  -29.1797  -20.7356   21.6356 C   0  0  0  0  0  0
  -28.3191  -25.0559   20.1400 C   0  0  0  0  0  0
  -32.5244  -17.7350   24.3902 C   0  0  0  0  0  0
  -29.9159  -15.6834   20.7319 N   0  0  0  0  0  0
  -29.9400  -22.0448   21.3559 N   0  3  1  0  0  0
  -32.5460  -16.4556   24.7693 F   0  0  0  0  0  0
  -32.3316  -18.4443   25.4993 F   0  0  0  0  0  0
  -31.4641  -12.4486   19.1225 H   0  0  0  0  0  0
  -30.3248  -11.3612   19.8705 H   0  0  0  0  0  0
  -29.7361  -11.7476   17.4468 H   0  0  0  0  0  0
  -29.6471  -13.4728   17.7359 H   0  0  0  0  0  0
  -27.8276  -11.3047   18.8456 H   0  0  0  0  0  0
  -27.3646  -12.6138   17.7849 H   0  0  0  0  0  0
  -27.6643  -14.2611   19.5255 H   0  0  0  0  0  0
  -28.7003  -12.0457   21.3613 H   0  0  0  0  0  0
  -28.4656  -13.7060   21.8302 H   0  0  0  0  0  0
  -25.2834   -9.5594   22.4750 H   0  0  0  0  0  0
  -23.9972   -7.4585   22.7489 H   0  0  0  0  0  0
  -21.0885   -8.8857   19.8938 H   0  0  0  0  0  0
  -22.3856  -10.9685   19.6145 H   0  0  0  0  0  0
  -21.2040   -7.6145   23.9718 H   0  0  0  0  0  0
  -21.1478   -6.0537   25.9074 H   0  0  0  0  0  0
  -22.0594   -2.7617   23.2849 H   0  0  0  0  0  0
  -22.4146  -11.9886   22.4889 H   0  0  0  0  0  0
  -21.1026  -13.1131   22.2521 H   0  0  0  0  0  0
  -24.5983  -15.8162   20.5469 H   0  0  0  0  0  0
  -26.2191  -15.6813   20.0955 H   0  0  0  0  0  0
  -26.7121  -32.5426   23.1051 H   0  0  0  0  0  0
  -24.9868  -33.9671   25.0255 H   0  0  0  0  0  0
  -22.7137  -31.2996   21.3968 H   0  0  0  0  0  0
  -23.3806  -35.9635   23.3268 H   0  0  0  0  0  0
  -24.3619  -36.8976   22.2048 H   0  0  0  0  0  0
  -23.7284  -37.6490   23.6684 H   0  0  0  0  0  0
  -26.0959  -31.5499   20.6054 H   0  0  0  0  0  0
  -26.8381  -30.8299   22.0004 H   0  0  0  0  0  0
  -28.1204  -28.9886   21.1699 H   0  0  0  0  0  0
  -26.0015  -25.9500   18.9464 H   0  0  0  0  0  0
  -23.9858  -27.2953   18.9941 H   0  0  0  0  0  0
  -23.7747  -30.5927   19.4035 H   0  0  0  0  0  0
  -22.7532  -29.2510   19.8400 H   0  0  0  0  0  0
  -25.1342  -36.1965   25.0810 H   0  0  0  0  0  0
  -20.9964  -28.3271   24.1401 H   0  0  0  0  0  0
  -20.5702  -26.2262   23.3600 H   0  0  0  0  0  0
  -21.6646  -26.7442   22.1208 H   0  0  0  0  0  0
  -19.6972  -25.6287   21.1193 H   0  0  0  0  0  0
  -19.6747  -27.3198   20.6741 H   0  0  0  0  0  0
  -17.4206  -26.6576   21.4004 H   0  0  0  0  0  0
  -18.0407  -26.0062   22.9049 H   0  0  0  0  0  0
  -19.7954  -30.7223   24.2265 H   0  0  0  0  0  0
  -17.5028  -31.6244   24.5186 H   0  0  0  0  0  0
  -15.5354  -30.2982   23.7637 H   0  0  0  0  0  0
  -15.8664  -28.0879   22.6932 H   0  0  0  0  0  0
  -24.5847  -30.7069   25.7694 H   0  0  0  0  0  0
  -24.8857  -32.2859   26.4845 H   0  0  0  0  0  0
  -25.7994  -30.8842   27.0166 H   0  0  0  0  0  0
  -26.2762  -29.6770   24.1139 H   0  0  0  0  0  0
  -27.3928  -29.7216   25.4578 H   0  0  0  0  0  0
  -27.8678  -30.4220   23.9300 H   0  0  0  0  0  0
  -27.2625  -33.3589   26.2017 H   0  0  0  0  0  0
  -28.3824  -32.6824   25.0256 H   0  0  0  0  0  0
  -28.0665  -31.8385   26.5350 H   0  0  0  0  0  0
  -28.2584  -38.0166   24.7566 H   0  0  0  0  0  0
  -28.1219  -36.2679   24.6211 H   0  0  0  0  0  0
  -27.2324  -37.1348   25.8841 H   0  0  0  0  0  0
  -20.9398  -29.8782   21.6934 H   0  0  0  0  0  0
  -26.0258  -38.2875   24.1391 H   0  0  0  0  0  0
  -29.0057  -18.2667   20.2683 H   0  0  0  0  0  0
  -31.7899  -15.9392   22.5922 H   0  0  0  0  0  0
  -28.6270  -25.2480   22.2573 H   0  0  0  0  0  0
  -29.5043  -22.7785   24.0287 H   0  0  0  0  0  0
  -30.0761  -24.4044   23.7511 H   0  0  0  0  0  0
  -31.9045  -22.3838   23.9027 H   0  0  0  0  0  0
  -32.1323  -23.7523   22.8614 H   0  0  0  0  0  0
  -31.8190  -21.0629   21.8988 H   0  0  0  0  0  0
  -31.9509  -22.5364   20.9975 H   0  0  0  0  0  0
  -29.5951  -20.6621   24.2595 H   0  0  0  0  0  0
  -31.3211  -20.5125   24.6700 H   0  0  0  0  0  0
  -30.1345  -19.3278   25.1877 H   0  0  0  0  0  0
  -34.1806  -17.5069   22.9809 H   0  0  0  0  0  0
  -34.6939  -17.8535   24.6218 H   0  0  0  0  0  0
  -34.0232  -19.1373   23.6318 H   0  0  0  0  0  0
  -28.4685  -20.9111   22.4407 H   0  0  0  0  0  0
  -28.5391  -20.5919   20.7654 H   0  0  0  0  0  0
  -27.3233  -24.6639   19.9409 H   0  0  0  0  0  0
  -28.9721  -24.6634   19.3567 H   0  0  0  0  0  0
  -28.9216  -15.5446   20.6467 H   0  0  0  0  0  0
  -29.9606  -22.1112   20.3489 H   0  0  0  0  0  0
  1 25  1  0  0  0
  1 30  2  0  0  0
  1 87  1  0  0  0
  2  3  1  0  0  0
  2 25  1  0  0  0
  2 91  1  0  0  0
  2 92  1  0  0  0
  3  4  1  0  0  0
  3 93  1  0  0  0
  3 94  1  0  0  0
  4  5  1  0  0  0
  4 95  1  0  0  0
  4 96  1  0  0  0
  5  6  1  0  0  0
  5 26  1  0  0  0
  5 97  1  0  0  0
  6 25  1  0  0  0
  6 98  1  0  0  0
  6 99  1  0  0  0
  7  8  2  0  0  0
  7 26  1  0  0  0
  7 29  1  0  0  0
  8  9  1  0  0  0
  8 22  1  0  0  0
  9 10  1  0  0  0
  9 27  2  0  0  0
 10 11  2  0  0  0
 10 15  1  0  0  0
 11 12  1  0  0  0
 11100  1  0  0  0
 12 13  2  0  0  0
 12101  1  0  0  0
 13 14  1  0  0  0
 13 31  1  0  0  0
 14 15  2  0  0  0
 14102  1  0  0  0
 15103  1  0  0  0
 16 17  2  0  0  0
 16 21  1  0  0  0
 16 31  1  0  0  0
 17 18  1  0  0  0
 17104  1  0  0  0
 18 19  2  0  0  0
 18105  1  0  0  0
 19 20  1  0  0  0
 19 24  1  0  0  0
 20 21  2  0  0  0
 20106  1  0  0  0
 21 23  1  0  0  0
 22 28  1  0  0  0
 22 32  2  0  0  0
 26 27  1  0  0  0
 28107  1  0  0  0
 28108  1  0  0  0
 29109  1  0  0  0
 29110  1  0  0  0
 33 34  1  0  0  0
 33 66  1  0  0  0
 33 70  2  0  0  0
 34 36  1  0  0  0
 34 59  1  0  0  0
 34111  1  0  0  0
 35 44  2  0  0  0
 35 45  1  0  0  0
 35 68  1  0  0  0
 36 56  1  0  0  0
 36112  1  0  0  0
 37 39  1  0  0  0
 37 47  1  0  0  0
 37 66  1  0  0  0
 37113  1  0  0  0
 38 43  2  0  0  0
 38 46  1  0  0  0
 38 47  1  0  0  0
 39 64  1  0  0  0
 39 67  2  0  0  0
 40 52  1  0  0  0
 40 53  2  0  0  0
 40 58  1  0  0  0
 41114  1  0  0  0
 41115  1  0  0  0
 41116  1  0  0  0
 41 48  1  0  0  0
 42 43  1  0  0  0
 42 66  1  0  0  0
 42117  1  0  0  0
 42118  1  0  0  0
 43 44  1  0  0  0
 44119  1  0  0  0
 45 46  2  0  0  0
 45120  1  0  0  0
 46121  1  0  0  0
 47122  1  0  0  0
 47123  1  0  0  0
 48 56  1  0  0  0
 48 65  1  0  0  0
 48124  1  0  0  0
 49 50  1  0  0  0
 49 53  1  0  0  0
 49 64  1  0  0  0
 49125  1  0  0  0
 50 51  1  0  0  0
 50126  1  0  0  0
 50127  1  0  0  0
 51 52  1  0  0  0
 51128  1  0  0  0
 51129  1  0  0  0
 52130  1  0  0  0
 52131  1  0  0  0
 53 54  1  0  0  0
 54 55  2  0  0  0
 54132  1  0  0  0
 55 57  1  0  0  0
 55133  1  0  0  0
 56 69  2  0  0  0
 57 58  2  0  0  0
 57134  1  0  0  0
 58135  1  0  0  0
 59 60  1  0  0  0
 59 61  1  0  0  0
 59 62  1  0  0  0
 60136  1  0  0  0
 60137  1  0  0  0
 60138  1  0  0  0
 61139  1  0  0  0
 61140  1  0  0  0
 61141  1  0  0  0
 62142  1  0  0  0
 62143  1  0  0  0
 62144  1  0  0  0
 63 65  1  0  0  0
 63145  1  0  0  0
 63146  1  0  0  0
 63147  1  0  0  0
 64148  1  0  0  0
 65149  1  0  0  0
 68 85  1  0  0  0
 71 73  2  0  0  0
 71 76  1  0  0  0
 71150  1  0  0  0
 72 74  1  0  0  0
 72 76  2  0  0  0
 72151  1  0  0  0
 73 75  1  0  0  0
 73 84  1  0  0  0
 74 75  2  0  0  0
 74 86  1  0  0  0
 75 82  1  0  0  0
 76 87  1  0  0  0
 77 78  2  0  0  0
 77 79  1  0  0  0
 77 88  1  0  0  0
 78 85  1  0  0  0
 78152  1  0  0  0
 79 80  1  0  0  0
 79153  1  0  0  0
 79154  1  0  0  0
 80 81  1  0  0  0
 80155  1  0  0  0
 80156  1  0  0  0
 81 88  1  0  0  0
 81157  1  0  0  0
 81158  1  0  0  0
 82159  1  0  0  0
 82160  1  0  0  0
 82161  1  0  0  0
 83162  1  0  0  0
 83163  1  0  0  0
 83164  1  0  0  0
 83 86  1  0  0  0
 84165  1  0  0  0
 84166  1  0  0  0
 84 88  1  0  0  0
 85167  1  0  0  0
 85168  1  0  0  0
 86 89  1  0  0  0
 86 90  1  0  0  0
 87169  1  0  0  0
 88170  1  0  0  0
M  CHG  1  88   1
M  ISO  4   1 100  68 101  85 101  87 100
M  END
> <chiral flag>
0

> <version>
0

> <s_m_source_file>
/data/baiqing/PycharmProjects/Reinvent-master-3.2/result/LINK_invent/BTK/process_docking_weight1_custom_product_contain_oxygen_bond_distance_aromatic_linkinvent_7_9_3/rearranged_h_0039.sdf

> <i_m_source_file_index>
74

> <r_mmod_Potential_Energy-OPLS-2005>
90.8022766113281

> <r_mmod_Stretch_Energy-OPLS-2005>
87.0486450195312

> <r_mmod_Bend_Energy-OPLS-2005>
217.466796875

> <r_mmod_Torsional_Energy-OPLS-2005>
318.164794921875

> <r_mmod_Improper_Torsional_Energy-OPLS-2005>
9.92980861663818

> <r_mmod_Van_der_Waal_Energy-OPLS-2005>
158.025390625

> <r_mmod_Electrostatic_Energy-OPLS-2005>
-298.327392578125

> <r_mmod_Solvation_Energy-OPLS-2005>
-438.766693115234

> <b_mmod_Minimization_Converged-OPLS-2005>
0

> <r_mmod_RMS_Derivative-OPLS-2005>
5.64986515045166

$$$$
75
                    3D
 Structure written by MMmdl.
158166  0  0  1  0            999 V2000
  -30.5760  -14.7662   20.4560 C   0  0  0  0  0  0
  -30.4303  -12.4687   19.4941 C   0  0  0  0  0  0
  -29.5106  -12.5163   18.2527 C   0  0  0  0  0  0
  -28.0369  -12.3265   18.6592 C   0  0  0  0  0  0
  -27.6393  -13.2301   19.8565 C   0  0  2  0  0  0
  -28.6787  -13.1525   20.9996 C   0  0  0  0  0  0
  -25.2488  -13.8186   20.5672 C   0  0  0  0  0  0
  -24.1782  -13.0415   20.9133 C   0  0  0  0  0  0
  -24.6376  -11.6899   20.8671 C   0  0  0  0  0  0
  -23.9060  -10.4270   21.0336 C   0  0  0  0  0  0
  -24.3608   -9.4205   21.9125 C   0  0  0  0  0  0
  -23.6288   -8.2233   22.0733 C   0  0  0  0  0  0
  -22.4276   -8.0244   21.3515 C   0  0  0  0  0  0
  -21.9889   -9.0223   20.4622 C   0  0  0  0  0  0
  -22.7222  -10.2097   20.3015 C   0  0  0  0  0  0
  -21.6870   -6.0692   22.5272 C   0  0  0  0  0  0
  -21.4021   -6.5609   23.8199 C   0  0  0  0  0  0
  -21.3651   -5.6767   24.9170 C   0  0  0  0  0  0
  -21.6053   -4.3033   24.7224 C   0  0  0  0  0  0
  -21.8831   -3.8114   23.4356 C   0  0  0  0  0  0
  -21.9200   -4.6915   22.3403 C   0  0  0  0  0  0
  -22.7816  -13.5194   21.1818 C   0  0  0  0  0  0
  -22.1674   -4.2092   21.0981 F   0  0  0  0  0  0
  -21.5616   -3.4528   25.7748 F   0  0  0  0  0  0
  -29.9820  -13.5214   20.4358 N   0  0  0  0  0  0
  -26.2903  -12.9402   20.3266 N   0  0  0  0  0  0
  -25.9316  -11.6533   20.5739 N   0  0  0  0  0  0
  -22.0535  -12.8149   22.0400 N   0  0  0  0  0  0
  -25.4207  -15.1902   20.4124 N   0  0  0  0  0  0
  -31.7401  -14.8922   20.0665 O   0  0  0  0  0  0
  -21.6660   -6.8833   21.4235 O   0  0  0  0  0  0
  -22.3457  -14.5502   20.6714 O   0  0  0  0  0  0
  -24.6346  -31.8509   23.1946 C   0  0  0  0  0  0
  -25.9168  -32.4706   23.8307 C   0  0  1  0  0  0
  -27.2195  -27.2195   20.1432 C   0  0  0  0  0  0
  -25.5943  -33.8516   24.2217 N   0  0  0  0  0  0
  -23.4327  -30.4727   21.5365 C   0  0  2  0  0  0
  -24.8800  -28.9125   20.1104 C   0  0  0  0  0  0
  -22.7513  -29.4597   22.4889 C   0  0  0  0  0  0
  -18.0305  -28.1341   22.8507 C   0  0  0  0  0  0
  -24.1492  -36.7265   23.2643 C   0  0  0  0  0  0
  -25.9822  -30.7492   21.3833 C   0  0  0  0  0  0
  -26.0509  -29.3696   20.7274 C   0  0  0  0  0  0
  -27.2163  -28.5332   20.7391 C   0  0  0  0  0  0
  -26.0205  -26.8441   19.4931 C   0  0  0  0  0  0
  -24.8735  -27.6610   19.4816 C   0  0  0  0  0  0
  -23.6518  -29.8007   20.1550 C   0  0  0  0  0  0
  -25.4126  -36.3040   24.0314 C   0  0  1  0  0  0
  -20.5915  -28.3701   23.1252 C   0  0  2  0  0  0
  -20.6844  -26.9428   22.5395 C   0  0  0  0  0  0
  -19.5798  -26.6420   21.5223 C   0  0  0  0  0  0
  -18.1989  -26.7902   22.1638 C   0  0  0  0  0  0
  -19.1551  -28.8828   23.2893 C   0  0  0  0  0  0
  -18.9467  -30.1447   23.8856 C   0  0  0  0  0  0
  -17.6460  -30.6573   24.0514 C   0  0  0  0  0  0
  -25.9081  -34.9409   23.5079 C   0  0  0  0  0  0
  -16.5370  -29.9042   23.6300 C   0  0  0  0  0  0
  -16.7288  -28.6444   23.0352 C   0  0  0  0  0  0
  -26.4517  -31.6545   25.0722 C   0  0  0  0  0  0
  -25.3720  -31.3734   26.1434 C   0  0  0  0  0  0
  -27.0385  -30.2949   24.6265 C   0  0  0  0  0  0
  -27.6044  -32.4299   25.7501 C   0  0  0  0  0  0
  -27.5573  -37.1793   24.8473 C   0  0  0  0  0  0
  -21.4219  -29.3067   22.3632 N   0  0  0  0  0  0
  -26.4307  -37.3731   23.9379 N   0  0  0  0  0  0
  -24.7009  -31.0452   22.0921 N   0  0  0  0  0  0
  -23.4202  -28.8130   23.2981 O   0  0  0  0  0  0
  -28.3199  -26.3235   20.2457 O   0  0  0  0  0  0
  -26.5649  -34.8903   22.4648 O   0  0  0  0  0  0
  -23.5485  -32.1369   23.7214 O   0  0  0  0  0  0
  -27.0245  -17.8777   19.1589 C   0  0  0  0  0  0
  -29.1497  -16.7871   18.6960 C   0  0  0  0  0  0
  -27.8545  -17.1582   18.2731 C   0  0  0  0  0  0
  -27.5599  -18.4223   20.3458 C   0  0  0  0  0  0
  -28.9633  -18.3626   20.5292 C   0  0  0  0  0  0
  -29.5767  -17.1305   20.0008 C   0  0  0  0  0  0
  -29.0668  -21.2556   20.7089 C   0  0  0  0  0  0
  -28.6231  -23.6478   20.6267 C   0  0  0  0  0  0
  -27.3153  -16.6488   16.9517 C   0  0  0  0  0  0
  -26.6510  -19.1982   21.2879 C   0  0  0  0  0  0
  -29.6279  -19.8024   20.2391 C   0  0  0  0  0  0
  -28.3534  -24.9171   19.6681 C   0  0  0  0  0  0
  -28.9673  -22.3828   20.0131 N   0  0  0  0  0  0
  -29.8047  -15.8797   20.7819 N   0  0  0  0  0  0
  -28.5178  -23.8294   21.8419 O   0  0  0  0  0  0
  -31.4702  -12.6021   19.1924 H   0  0  0  0  0  0
  -30.3853  -11.4922   19.9782 H   0  0  0  0  0  0
  -29.8067  -11.7524   17.5322 H   0  0  0  0  0  0
  -29.6257  -13.4758   17.7497 H   0  0  0  0  0  0
  -27.8926  -11.2815   18.9312 H   0  0  0  0  0  0
  -27.3832  -12.5061   17.8045 H   0  0  0  0  0  0
  -27.6374  -14.2523   19.4759 H   0  0  0  0  0  0
  -28.7154  -12.1455   21.4170 H   0  0  0  0  0  0
  -28.4003  -13.8098   21.8247 H   0  0  0  0  0  0
  -25.2747   -9.5701   22.4695 H   0  0  0  0  0  0
  -23.9983   -7.4646   22.7483 H   0  0  0  0  0  0
  -21.0795   -8.8746   19.8965 H   0  0  0  0  0  0
  -22.3653  -10.9620   19.6121 H   0  0  0  0  0  0
  -21.2049   -7.6121   23.9684 H   0  0  0  0  0  0
  -21.1455   -6.0502   25.9058 H   0  0  0  0  0  0
  -22.0631   -2.7575   23.2890 H   0  0  0  0  0  0
  -22.4214  -11.9805   22.4716 H   0  0  0  0  0  0
  -21.1184  -13.1178   22.2712 H   0  0  0  0  0  0
  -24.6584  -15.8463   20.5390 H   0  0  0  0  0  0
  -26.2761  -15.6339   20.1017 H   0  0  0  0  0  0
  -26.7229  -32.5331   23.1034 H   0  0  0  0  0  0
  -25.0048  -33.9617   25.0339 H   0  0  0  0  0  0
  -22.7327  -31.2982   21.3891 H   0  0  0  0  0  0
  -23.3734  -35.9621   23.3331 H   0  0  0  0  0  0
  -24.3588  -36.8867   22.2057 H   0  0  0  0  0  0
  -23.7286  -37.6489   23.6664 H   0  0  0  0  0  0
  -26.1340  -31.5048   20.6118 H   0  0  0  0  0  0
  -26.8513  -30.7931   22.0282 H   0  0  0  0  0  0
  -28.1034  -28.8752   21.2535 H   0  0  0  0  0  0
  -25.9039  -25.8899   19.0085 H   0  0  0  0  0  0
  -23.9776  -27.3032   18.9918 H   0  0  0  0  0  0
  -23.7727  -30.5692   19.3906 H   0  0  0  0  0  0
  -22.7702  -29.2318   19.8569 H   0  0  0  0  0  0
  -25.1314  -36.1872   25.0808 H   0  0  0  0  0  0
  -20.9974  -28.3303   24.1388 H   0  0  0  0  0  0
  -20.5758  -26.2287   23.3576 H   0  0  0  0  0  0
  -21.6723  -26.7480   22.1188 H   0  0  0  0  0  0
  -19.6941  -25.6323   21.1232 H   0  0  0  0  0  0
  -19.6763  -27.3254   20.6779 H   0  0  0  0  0  0
  -17.4291  -26.6666   21.4011 H   0  0  0  0  0  0
  -18.0427  -26.0027   22.9038 H   0  0  0  0  0  0
  -19.7932  -30.7286   24.2192 H   0  0  0  0  0  0
  -17.5008  -31.6265   24.5081 H   0  0  0  0  0  0
  -15.5384  -30.2946   23.7642 H   0  0  0  0  0  0
  -15.8683  -28.0796   22.7058 H   0  0  0  0  0  0
  -24.5896  -30.7067   25.7791 H   0  0  0  0  0  0
  -24.8916  -32.2923   26.4805 H   0  0  0  0  0  0
  -25.8031  -30.8971   27.0242 H   0  0  0  0  0  0
  -26.3016  -29.6662   24.1255 H   0  0  0  0  0  0
  -27.4005  -29.7248   25.4825 H   0  0  0  0  0  0
  -27.8902  -30.4199   23.9575 H   0  0  0  0  0  0
  -27.2627  -33.3593   26.2060 H   0  0  0  0  0  0
  -28.3872  -32.6853   25.0349 H   0  0  0  0  0  0
  -28.0690  -31.8439   26.5439 H   0  0  0  0  0  0
  -28.2608  -38.0068   24.7459 H   0  0  0  0  0  0
  -28.1042  -36.2589   24.6365 H   0  0  0  0  0  0
  -27.2276  -37.1521   25.8876 H   0  0  0  0  0  0
  -20.9453  -29.8752   21.6776 H   0  0  0  0  0  0
  -26.0173  -38.2806   24.1337 H   0  0  0  0  0  0
  -25.9833  -18.0362   18.9128 H   0  0  0  0  0  0
  -29.6360  -15.9958   18.1414 H   0  0  0  0  0  0
  -28.8086  -21.2476   21.7713 H   0  0  0  0  0  0
  -26.5990  -17.3487   16.5197 H   0  0  0  0  0  0
  -26.8185  -15.6854   17.0856 H   0  0  0  0  0  0
  -28.1265  -16.5109   16.2339 H   0  0  0  0  0  0
  -26.1101  -19.9845   20.7577 H   0  0  0  0  0  0
  -27.2087  -19.6445   22.1123 H   0  0  0  0  0  0
  -25.9126  -18.5308   21.7384 H   0  0  0  0  0  0
  -29.7225  -19.8522   19.1544 H   0  0  0  0  0  0
  -30.6543  -19.7420   20.6013 H   0  0  0  0  0  0
  -27.4754  -24.6593   19.0871 H   0  0  0  0  0  0
  -29.1623  -24.9242   18.9362 H   0  0  0  0  0  0
  -29.0312  -15.6453   21.3863 H   0  0  0  0  0  0
  1 25  1  0  0  0
  1 30  2  0  0  0
  1 84  1  0  0  0
  2  3  1  0  0  0
  2 25  1  0  0  0
  2 86  1  0  0  0
  2 87  1  0  0  0
  3  4  1  0  0  0
  3 88  1  0  0  0
  3 89  1  0  0  0
  4  5  1  0  0  0
  4 90  1  0  0  0
  4 91  1  0  0  0
  5  6  1  0  0  0
  5 26  1  0  0  0
  5 92  1  0  0  0
  6 25  1  0  0  0
  6 93  1  0  0  0
  6 94  1  0  0  0
  7  8  2  0  0  0
  7 26  1  0  0  0
  7 29  1  0  0  0
  8  9  1  0  0  0
  8 22  1  0  0  0
  9 10  1  0  0  0
  9 27  2  0  0  0
 10 11  2  0  0  0
 10 15  1  0  0  0
 11 12  1  0  0  0
 11 95  1  0  0  0
 12 13  2  0  0  0
 12 96  1  0  0  0
 13 14  1  0  0  0
 13 31  1  0  0  0
 14 15  2  0  0  0
 14 97  1  0  0  0
 15 98  1  0  0  0
 16 17  2  0  0  0
 16 21  1  0  0  0
 16 31  1  0  0  0
 17 18  1  0  0  0
 17 99  1  0  0  0
 18 19  2  0  0  0
 18100  1  0  0  0
 19 20  1  0  0  0
 19 24  1  0  0  0
 20 21  2  0  0  0
 20101  1  0  0  0
 21 23  1  0  0  0
 22 28  1  0  0  0
 22 32  2  0  0  0
 26 27  1  0  0  0
 28102  1  0  0  0
 28103  1  0  0  0
 29104  1  0  0  0
 29105  1  0  0  0
 33 34  1  0  0  0
 33 66  1  0  0  0
 33 70  2  0  0  0
 34 36  1  0  0  0
 34 59  1  0  0  0
 34106  1  0  0  0
 35 44  2  0  0  0
 35 45  1  0  0  0
 35 68  1  0  0  0
 36 56  1  0  0  0
 36107  1  0  0  0
 37 39  1  0  0  0
 37 47  1  0  0  0
 37 66  1  0  0  0
 37108  1  0  0  0
 38 43  2  0  0  0
 38 46  1  0  0  0
 38 47  1  0  0  0
 39 64  1  0  0  0
 39 67  2  0  0  0
 40 52  1  0  0  0
 40 53  2  0  0  0
 40 58  1  0  0  0
 41109  1  0  0  0
 41110  1  0  0  0
 41111  1  0  0  0
 41 48  1  0  0  0
 42 43  1  0  0  0
 42 66  1  0  0  0
 42112  1  0  0  0
 42113  1  0  0  0
 43 44  1  0  0  0
 44114  1  0  0  0
 45 46  2  0  0  0
 45115  1  0  0  0
 46116  1  0  0  0
 47117  1  0  0  0
 47118  1  0  0  0
 48 56  1  0  0  0
 48 65  1  0  0  0
 48119  1  0  0  0
 49 50  1  0  0  0
 49 53  1  0  0  0
 49 64  1  0  0  0
 49120  1  0  0  0
 50 51  1  0  0  0
 50121  1  0  0  0
 50122  1  0  0  0
 51 52  1  0  0  0
 51123  1  0  0  0
 51124  1  0  0  0
 52125  1  0  0  0
 52126  1  0  0  0
 53 54  1  0  0  0
 54 55  2  0  0  0
 54127  1  0  0  0
 55 57  1  0  0  0
 55128  1  0  0  0
 56 69  2  0  0  0
 57 58  2  0  0  0
 57129  1  0  0  0
 58130  1  0  0  0
 59 60  1  0  0  0
 59 61  1  0  0  0
 59 62  1  0  0  0
 60131  1  0  0  0
 60132  1  0  0  0
 60133  1  0  0  0
 61134  1  0  0  0
 61135  1  0  0  0
 61136  1  0  0  0
 62137  1  0  0  0
 62138  1  0  0  0
 62139  1  0  0  0
 63 65  1  0  0  0
 63140  1  0  0  0
 63141  1  0  0  0
 63142  1  0  0  0
 64143  1  0  0  0
 65144  1  0  0  0
 68 82  1  0  0  0
 71 73  2  0  0  0
 71 74  1  0  0  0
 71145  1  0  0  0
 72 73  1  0  0  0
 72 76  2  0  0  0
 72146  1  0  0  0
 73 79  1  0  0  0
 74 75  2  0  0  0
 74 80  1  0  0  0
 75 76  1  0  0  0
 75 81  1  0  0  0
 76 84  1  0  0  0
 77 81  1  0  0  0
 77 83  2  0  0  0
 77147  1  0  0  0
 78 82  1  0  0  0
 78 83  1  0  0  0
 78 85  2  0  0  0
 79148  1  0  0  0
 79149  1  0  0  0
 79150  1  0  0  0
 80151  1  0  0  0
 80152  1  0  0  0
 80153  1  0  0  0
 81154  1  0  0  0
 81155  1  0  0  0
 82156  1  0  0  0
 82157  1  0  0  0
 84158  1  0  0  0
M  ISO  4   1 100  68 101  82 101  84 100
M  END
> <chiral flag>
0

> <version>
0

> <s_m_source_file>
/data/baiqing/PycharmProjects/Reinvent-master-3.2/result/LINK_invent/BTK/process_docking_weight1_custom_product_contain_oxygen_bond_distance_aromatic_linkinvent_7_9_3/rearranged_h_0039.sdf

> <i_m_source_file_index>
75

> <r_mmod_Potential_Energy-OPLS-2005>
505.31884765625

> <r_mmod_Stretch_Energy-OPLS-2005>
155.900970458984

> <r_mmod_Bend_Energy-OPLS-2005>
210.010467529297

> <r_mmod_Torsional_Energy-OPLS-2005>
456.940979003906

> <r_mmod_Improper_Torsional_Energy-OPLS-2005>
37.5840492248535

> <r_mmod_Van_der_Waal_Energy-OPLS-2005>
136.530838012695

> <r_mmod_Electrostatic_Energy-OPLS-2005>
-387.799255371094

> <r_mmod_Solvation_Energy-OPLS-2005>
-206.467071533203

> <b_mmod_Minimization_Converged-OPLS-2005>
0

> <r_mmod_RMS_Derivative-OPLS-2005>
4.72021770477295

$$$$
76
                    3D
 Structure written by MMmdl.
162170  0  0  1  0            999 V2000
  -30.6695  -14.5214   20.6210 C   0  0  0  0  0  0
  -30.4442  -12.3577   19.4152 C   0  0  0  0  0  0
  -29.4991  -12.5377   18.2067 C   0  0  0  0  0  0
  -28.0228  -12.3781   18.6207 C   0  0  0  0  0  0
  -27.6692  -13.2075   19.8827 C   0  0  2  0  0  0
  -28.7126  -12.9666   20.9969 C   0  0  0  0  0  0
  -25.2624  -13.8169   20.5701 C   0  0  0  0  0  0
  -24.1861  -13.0446   20.9174 C   0  0  0  0  0  0
  -24.6410  -11.6915   20.8729 C   0  0  0  0  0  0
  -23.9070  -10.4300   21.0401 C   0  0  0  0  0  0
  -24.3619   -9.4214   21.9178 C   0  0  0  0  0  0
  -23.6294   -8.2250   22.0751 C   0  0  0  0  0  0
  -22.4275   -8.0287   21.3543 C   0  0  0  0  0  0
  -21.9912   -9.0266   20.4648 C   0  0  0  0  0  0
  -22.7243  -10.2143   20.3055 C   0  0  0  0  0  0
  -21.6854   -6.0738   22.5279 C   0  0  0  0  0  0
  -21.4018   -6.5641   23.8215 C   0  0  0  0  0  0
  -21.3660   -5.6792   24.9176 C   0  0  0  0  0  0
  -21.6045   -4.3057   24.7223 C   0  0  0  0  0  0
  -21.8820   -3.8149   23.4344 C   0  0  0  0  0  0
  -21.9196   -4.6967   22.3401 C   0  0  0  0  0  0
  -22.7884  -13.5250   21.1845 C   0  0  0  0  0  0
  -22.1661   -4.2153   21.0980 F   0  0  0  0  0  0
  -21.5630   -3.4540   25.7736 F   0  0  0  0  0  0
  -30.0480  -13.3128   20.4664 N   0  0  0  0  0  0
  -26.3069  -12.9337   20.3402 N   0  0  0  0  0  0
  -25.9342  -11.6496   20.5766 N   0  0  0  0  0  0
  -22.0513  -12.8242   22.0396 N   0  0  0  0  0  0
  -25.4351  -15.1887   20.4144 N   0  0  0  0  0  0
  -31.6951  -14.8311   20.0066 O   0  0  0  0  0  0
  -21.6642   -6.8879   21.4237 O   0  0  0  0  0  0
  -22.3572  -14.5555   20.6697 O   0  0  0  0  0  0
  -24.6223  -31.8639   23.2084 C   0  0  0  0  0  0
  -25.9090  -32.4803   23.8392 C   0  0  1  0  0  0
  -27.2266  -27.3610   20.0974 C   0  0  0  0  0  0
  -25.5912  -33.8604   24.2314 N   0  0  0  0  0  0
  -23.4136  -30.4899   21.5505 C   0  0  2  0  0  0
  -24.8581  -28.9543   20.1107 C   0  0  0  0  0  0
  -22.7454  -29.4643   22.4961 C   0  0  0  0  0  0
  -18.0285  -28.1395   22.8504 C   0  0  0  0  0  0
  -24.1481  -36.7301   23.2639 C   0  0  0  0  0  0
  -25.9515  -30.8051   21.3747 C   0  0  0  0  0  0
  -26.0243  -29.4359   20.7172 C   0  0  0  0  0  0
  -27.2075  -28.6467   20.7102 C   0  0  0  0  0  0
  -26.0390  -26.9329   19.4542 C   0  0  0  0  0  0
  -24.8646  -27.7051   19.4751 C   0  0  0  0  0  0
  -23.6252  -29.8297   20.1630 C   0  0  0  0  0  0
  -25.4106  -36.3100   24.0336 C   0  0  1  0  0  0
  -20.5885  -28.3688   23.1307 C   0  0  2  0  0  0
  -20.6776  -26.9418   22.5420 C   0  0  0  0  0  0
  -19.5746  -26.6396   21.5226 C   0  0  0  0  0  0
  -18.1927  -26.7942   22.1638 C   0  0  0  0  0  0
  -19.1539  -28.8858   23.2901 C   0  0  0  0  0  0
  -18.9458  -30.1463   23.8914 C   0  0  0  0  0  0
  -17.6457  -30.6597   24.0574 C   0  0  0  0  0  0
  -25.9042  -34.9466   23.5124 C   0  0  0  0  0  0
  -16.5351  -29.9099   23.6331 C   0  0  0  0  0  0
  -16.7270  -28.6517   23.0354 C   0  0  0  0  0  0
  -26.4492  -31.6599   25.0741 C   0  0  0  0  0  0
  -25.3734  -31.3728   26.1469 C   0  0  0  0  0  0
  -27.0326  -30.3032   24.6163 C   0  0  0  0  0  0
  -27.6059  -32.4325   25.7504 C   0  0  0  0  0  0
  -27.5579  -37.1809   24.8472 C   0  0  0  0  0  0
  -21.4174  -29.3042   22.3697 N   0  0  0  0  0  0
  -26.4292  -37.3787   23.9413 N   0  0  0  0  0  0
  -24.6812  -31.0684   22.1020 N   0  0  0  0  0  0
  -23.4197  -28.8180   23.3022 O   0  0  0  0  0  0
  -28.3665  -26.5511   20.1546 O   0  0  0  0  0  0
  -26.5605  -34.8923   22.4688 O   0  0  0  0  0  0
  -23.5397  -32.1416   23.7439 O   0  0  0  0  0  0
  -29.8816  -17.7582   20.7659 C   0  0  0  0  0  0
  -28.4226  -16.7243   22.4124 C   0  0  0  0  0  0
  -29.1292  -18.9855   20.8513 C   0  0  0  0  0  0
  -27.6617  -17.9004   22.5058 C   0  0  0  0  0  0
  -27.9780  -19.0253   21.7023 C   0  0  0  0  0  0
  -29.5142  -16.6075   21.5338 C   0  0  0  0  0  0
  -29.4815  -20.1726   20.0015 C   0  0  0  0  0  0
  -26.4891  -17.9085   23.4767 C   0  0  0  0  0  0
  -27.0376  -20.2366   21.7464 C   0  0  0  0  0  0
  -29.2475  -24.0999   20.3714 C   0  0  0  0  0  0
  -29.3122  -22.7212   19.6071 C   0  0  0  0  0  0
  -28.2606  -25.1484   19.7403 C   0  0  0  0  0  0
  -29.8350  -19.9672   18.7352 N   0  0  0  0  0  0
  -30.1393  -15.3065   21.5816 N   0  0  0  0  0  0
  -29.3880  -21.4649   20.4339 N   0  3  0  0  0  0
  -31.4817  -12.4972   19.1057 H   0  0  0  0  0  0
  -30.3859  -11.3371   19.7979 H   0  0  0  0  0  0
  -29.7469  -11.8176   17.4257 H   0  0  0  0  0  0
  -29.6507  -13.5259   17.7692 H   0  0  0  0  0  0
  -27.8426  -11.3190   18.8107 H   0  0  0  0  0  0
  -27.3674  -12.6542   17.7934 H   0  0  0  0  0  0
  -27.7191  -14.2600   19.6017 H   0  0  0  0  0  0
  -28.7028  -11.9173   21.2972 H   0  0  0  0  0  0
  -28.4418  -13.5192   21.8962 H   0  0  0  0  0  0
  -25.2766   -9.5697   22.4746 H   0  0  0  0  0  0
  -24.0015   -7.4645   22.7467 H   0  0  0  0  0  0
  -21.0842   -8.8788   19.8950 H   0  0  0  0  0  0
  -22.3706  -10.9682   19.6166 H   0  0  0  0  0  0
  -21.2005   -7.6151   23.9721 H   0  0  0  0  0  0
  -21.1482   -6.0519   25.9080 H   0  0  0  0  0  0
  -22.0594   -2.7610   23.2845 H   0  0  0  0  0  0
  -22.4123  -11.9910   22.4801 H   0  0  0  0  0  0
  -21.1127  -13.1270   22.2586 H   0  0  0  0  0  0
  -24.6672  -15.8426   20.5203 H   0  0  0  0  0  0
  -26.2911  -15.6299   20.1027 H   0  0  0  0  0  0
  -26.7158  -32.5492   23.1145 H   0  0  0  0  0  0
  -25.0067  -33.9764   25.0462 H   0  0  0  0  0  0
  -22.7065  -31.3105   21.4141 H   0  0  0  0  0  0
  -23.3742  -35.9635   23.3314 H   0  0  0  0  0  0
  -24.3570  -36.8903   22.2051 H   0  0  0  0  0  0
  -23.7234  -37.6510   23.6642 H   0  0  0  0  0  0
  -26.0769  -31.5690   20.6058 H   0  0  0  0  0  0
  -26.8348  -30.8544   21.9999 H   0  0  0  0  0  0
  -28.1014  -29.0111   21.1968 H   0  0  0  0  0  0
  -25.9807  -25.9959   18.9221 H   0  0  0  0  0  0
  -23.9720  -27.3365   18.9882 H   0  0  0  0  0  0
  -23.7416  -30.6087   19.4085 H   0  0  0  0  0  0
  -22.7463  -29.2574   19.8610 H   0  0  0  0  0  0
  -25.1283  -36.1964   25.0830 H   0  0  0  0  0  0
  -20.9987  -28.3257   24.1424 H   0  0  0  0  0  0
  -20.5700  -26.2293   23.3611 H   0  0  0  0  0  0
  -21.6643  -26.7464   22.1199 H   0  0  0  0  0  0
  -19.6903  -25.6308   21.1251 H   0  0  0  0  0  0
  -19.6683  -27.3214   20.6762 H   0  0  0  0  0  0
  -17.4198  -26.6702   21.4036 H   0  0  0  0  0  0
  -18.0317  -26.0082   22.9033 H   0  0  0  0  0  0
  -19.7929  -30.7283   24.2291 H   0  0  0  0  0  0
  -17.5006  -31.6280   24.5174 H   0  0  0  0  0  0
  -15.5353  -30.3005   23.7644 H   0  0  0  0  0  0
  -15.8670  -28.0840   22.7060 H   0  0  0  0  0  0
  -24.5913  -30.7071   25.7800 H   0  0  0  0  0  0
  -24.8916  -32.2892   26.4894 H   0  0  0  0  0  0
  -25.8062  -30.8913   27.0245 H   0  0  0  0  0  0
  -26.2891  -29.6795   24.1185 H   0  0  0  0  0  0
  -27.4040  -29.7275   25.4652 H   0  0  0  0  0  0
  -27.8753  -30.4338   23.9368 H   0  0  0  0  0  0
  -27.2678  -33.3623   26.2093 H   0  0  0  0  0  0
  -28.3858  -32.6891   25.0320 H   0  0  0  0  0  0
  -28.0731  -31.8440   26.5409 H   0  0  0  0  0  0
  -28.2611  -38.0093   24.7504 H   0  0  0  0  0  0
  -28.1059  -36.2626   24.6310 H   0  0  0  0  0  0
  -27.2297  -37.1475   25.8876 H   0  0  0  0  0  0
  -20.9342  -29.8763   21.6912 H   0  0  0  0  0  0
  -26.0179  -38.2867   24.1406 H   0  0  0  0  0  0
  -30.7369  -17.7023   20.1064 H   0  0  0  0  0  0
  -28.1387  -15.8793   23.0236 H   0  0  0  0  0  0
  -26.4887  -18.8123   24.0862 H   0  0  0  0  0  0
  -26.5294  -17.0600   24.1606 H   0  0  0  0  0  0
  -25.5446  -17.8501   22.9357 H   0  0  0  0  0  0
  -26.8776  -20.6594   20.7548 H   0  0  0  0  0  0
  -27.4362  -21.0114   22.4015 H   0  0  0  0  0  0
  -26.0384  -19.9923   22.1017 H   0  0  0  0  0  0
  -30.2480  -24.5323   20.3697 H   0  0  0  0  0  0
  -28.9911  -23.9472   21.4194 H   0  0  0  0  0  0
  -30.1508  -22.7488   18.9093 H   0  0  0  0  0  0
  -28.4201  -22.6311   18.9846 H   0  0  0  0  0  0
  -28.3543  -25.1225   18.6538 H   0  0  0  0  0  0
  -27.2761  -24.7498   19.9831 H   0  0  0  0  0  0
  -30.1196  -20.7156   18.1270 H   0  0  0  0  0  0
  -29.8240  -19.0289   18.3643 H   0  0  0  0  0  0
  -29.6701  -14.7074   22.2427 H   0  0  0  0  0  0
  -29.2021  -21.5656   21.4234 H   0  0  0  0  0  0
  1 25  1  0  0  0
  1 30  2  0  0  0
  1 84  1  0  0  0
  2  3  1  0  0  0
  2 25  1  0  0  0
  2 86  1  0  0  0
  2 87  1  0  0  0
  3  4  1  0  0  0
  3 88  1  0  0  0
  3 89  1  0  0  0
  4  5  1  0  0  0
  4 90  1  0  0  0
  4 91  1  0  0  0
  5  6  1  0  0  0
  5 26  1  0  0  0
  5 92  1  0  0  0
  6 25  1  0  0  0
  6 93  1  0  0  0
  6 94  1  0  0  0
  7  8  2  0  0  0
  7 26  1  0  0  0
  7 29  1  0  0  0
  8  9  1  0  0  0
  8 22  1  0  0  0
  9 10  1  0  0  0
  9 27  2  0  0  0
 10 11  2  0  0  0
 10 15  1  0  0  0
 11 12  1  0  0  0
 11 95  1  0  0  0
 12 13  2  0  0  0
 12 96  1  0  0  0
 13 14  1  0  0  0
 13 31  1  0  0  0
 14 15  2  0  0  0
 14 97  1  0  0  0
 15 98  1  0  0  0
 16 17  2  0  0  0
 16 21  1  0  0  0
 16 31  1  0  0  0
 17 18  1  0  0  0
 17 99  1  0  0  0
 18 19  2  0  0  0
 18100  1  0  0  0
 19 20  1  0  0  0
 19 24  1  0  0  0
 20 21  2  0  0  0
 20101  1  0  0  0
 21 23  1  0  0  0
 22 28  1  0  0  0
 22 32  2  0  0  0
 26 27  1  0  0  0
 28102  1  0  0  0
 28103  1  0  0  0
 29104  1  0  0  0
 29105  1  0  0  0
 33 34  1  0  0  0
 33 66  1  0  0  0
 33 70  2  0  0  0
 34 36  1  0  0  0
 34 59  1  0  0  0
 34106  1  0  0  0
 35 44  2  0  0  0
 35 45  1  0  0  0
 35 68  1  0  0  0
 36 56  1  0  0  0
 36107  1  0  0  0
 37 39  1  0  0  0
 37 47  1  0  0  0
 37 66  1  0  0  0
 37108  1  0  0  0
 38 43  2  0  0  0
 38 46  1  0  0  0
 38 47  1  0  0  0
 39 64  1  0  0  0
 39 67  2  0  0  0
 40 52  1  0  0  0
 40 53  2  0  0  0
 40 58  1  0  0  0
 41109  1  0  0  0
 41110  1  0  0  0
 41111  1  0  0  0
 41 48  1  0  0  0
 42 43  1  0  0  0
 42 66  1  0  0  0
 42112  1  0  0  0
 42113  1  0  0  0
 43 44  1  0  0  0
 44114  1  0  0  0
 45 46  2  0  0  0
 45115  1  0  0  0
 46116  1  0  0  0
 47117  1  0  0  0
 47118  1  0  0  0
 48 56  1  0  0  0
 48 65  1  0  0  0
 48119  1  0  0  0
 49 50  1  0  0  0
 49 53  1  0  0  0
 49 64  1  0  0  0
 49120  1  0  0  0
 50 51  1  0  0  0
 50121  1  0  0  0
 50122  1  0  0  0
 51 52  1  0  0  0
 51123  1  0  0  0
 51124  1  0  0  0
 52125  1  0  0  0
 52126  1  0  0  0
 53 54  1  0  0  0
 54 55  2  0  0  0
 54127  1  0  0  0
 55 57  1  0  0  0
 55128  1  0  0  0
 56 69  2  0  0  0
 57 58  2  0  0  0
 57129  1  0  0  0
 58130  1  0  0  0
 59 60  1  0  0  0
 59 61  1  0  0  0
 59 62  1  0  0  0
 60131  1  0  0  0
 60132  1  0  0  0
 60133  1  0  0  0
 61134  1  0  0  0
 61135  1  0  0  0
 61136  1  0  0  0
 62137  1  0  0  0
 62138  1  0  0  0
 62139  1  0  0  0
 63 65  1  0  0  0
 63140  1  0  0  0
 63141  1  0  0  0
 63142  1  0  0  0
 64143  1  0  0  0
 65144  1  0  0  0
 68 82  1  0  0  0
 71 73  2  0  0  0
 71 76  1  0  0  0
 71145  1  0  0  0
 72 74  1  0  0  0
 72 76  2  0  0  0
 72146  1  0  0  0
 73 75  1  0  0  0
 73 77  1  0  0  0
 74 75  2  0  0  0
 74 78  1  0  0  0
 75 79  1  0  0  0
 76 84  1  0  0  0
 77 83  1  0  0  0
 77 85  2  0  0  0
 78147  1  0  0  0
 78148  1  0  0  0
 78149  1  0  0  0
 79150  1  0  0  0
 79151  1  0  0  0
 79152  1  0  0  0
 80 81  1  0  0  0
 80 82  1  0  0  0
 80153  1  0  0  0
 80154  1  0  0  0
 81 85  1  0  0  0
 81155  1  0  0  0
 81156  1  0  0  0
 82157  1  0  0  0
 82158  1  0  0  0
 83159  1  0  0  0
 83160  1  0  0  0
 84161  1  0  0  0
 85162  1  0  0  0
M  CHG  1  85   1
M  ISO  4   1 100  68 101  82 101  84 100
M  END
> <chiral flag>
0

> <version>
0

> <s_m_source_file>
/data/baiqing/PycharmProjects/Reinvent-master-3.2/result/LINK_invent/BTK/process_docking_weight1_custom_product_contain_oxygen_bond_distance_aromatic_linkinvent_7_9_3/rearranged_h_0039.sdf

> <i_m_source_file_index>
76

> <r_mmod_Potential_Energy-OPLS-2005>
-150.516540527344

> <r_mmod_Stretch_Energy-OPLS-2005>
63.9093589782715

> <r_mmod_Bend_Energy-OPLS-2005>
138.601455688477

> <r_mmod_Torsional_Energy-OPLS-2005>
238.844833374023

> <r_mmod_Improper_Torsional_Energy-OPLS-2005>
6.79600954055786

> <r_mmod_Van_der_Waal_Energy-OPLS-2005>
158.285827636719

> <r_mmod_Electrostatic_Energy-OPLS-2005>
-374.713592529297

> <r_mmod_Solvation_Energy-OPLS-2005>
-409.585144042969

> <b_mmod_Minimization_Converged-OPLS-2005>
0

> <r_mmod_RMS_Derivative-OPLS-2005>
1.12484800815582

$$$$
77
                    3D
 Structure written by MMmdl.
159167  0  0  1  0            999 V2000
  -30.6097  -14.7202   20.4414 C   0  0  0  0  0  0
  -30.4386  -12.4211   19.4903 C   0  0  0  0  0  0
  -29.5187  -12.4466   18.2483 C   0  0  0  0  0  0
  -28.0361  -12.3211   18.6525 C   0  0  0  0  0  0
  -27.6467  -13.2257   19.8533 C   0  0  2  0  0  0
  -28.6884  -13.1483   20.9910 C   0  0  0  0  0  0
  -25.2535  -13.8193   20.5690 C   0  0  0  0  0  0
  -24.1815  -13.0446   20.9198 C   0  0  0  0  0  0
  -24.6394  -11.6920   20.8752 C   0  0  0  0  0  0
  -23.9070  -10.4297   21.0411 C   0  0  0  0  0  0
  -24.3620   -9.4210   21.9186 C   0  0  0  0  0  0
  -23.6296   -8.2246   22.0755 C   0  0  0  0  0  0
  -22.4278   -8.0285   21.3545 C   0  0  0  0  0  0
  -21.9915   -9.0257   20.4646 C   0  0  0  0  0  0
  -22.7244  -10.2136   20.3057 C   0  0  0  0  0  0
  -21.6854   -6.0738   22.5278 C   0  0  0  0  0  0
  -21.4015   -6.5641   23.8211 C   0  0  0  0  0  0
  -21.3658   -5.6793   24.9174 C   0  0  0  0  0  0
  -21.6045   -4.3056   24.7225 C   0  0  0  0  0  0
  -21.8819   -3.8148   23.4346 C   0  0  0  0  0  0
  -21.9193   -4.6965   22.3402 C   0  0  0  0  0  0
  -22.7835  -13.5229   21.1858 C   0  0  0  0  0  0
  -22.1662   -4.2150   21.0979 F   0  0  0  0  0  0
  -21.5627   -3.4540   25.7738 F   0  0  0  0  0  0
  -29.9962  -13.4887   20.4166 N   0  0  0  0  0  0
  -26.2960  -12.9388   20.3293 N   0  0  0  0  0  0
  -25.9325  -11.6538   20.5774 N   0  0  0  0  0  0
  -22.0482  -12.8217   22.0412 N   0  0  0  0  0  0
  -25.4241  -15.1916   20.4108 N   0  0  0  0  0  0
  -31.7936  -14.8266   20.1086 O   0  0  0  0  0  0
  -21.6642   -6.8882   21.4241 O   0  0  0  0  0  0
  -22.3518  -14.5537   20.6710 O   0  0  0  0  0  0
  -24.6294  -31.8573   23.2002 C   0  0  0  0  0  0
  -25.9129  -32.4764   23.8340 C   0  0  1  0  0  0
  -27.2195  -27.2783   20.1276 C   0  0  0  0  0  0
  -25.5936  -33.8566   24.2264 N   0  0  0  0  0  0
  -23.4250  -30.4803   21.5438 C   0  0  2  0  0  0
  -24.8722  -28.9337   20.1076 C   0  0  0  0  0  0
  -22.7496  -29.4605   22.4924 C   0  0  0  0  0  0
  -18.0291  -28.1379   22.8483 C   0  0  0  0  0  0
  -24.1490  -36.7286   23.2639 C   0  0  0  0  0  0
  -25.9695  -30.7749   21.3788 C   0  0  0  0  0  0
  -26.0422  -29.4000   20.7198 C   0  0  0  0  0  0
  -27.2172  -28.5841   20.7214 C   0  0  0  0  0  0
  -26.0290  -26.8855   19.4705 C   0  0  0  0  0  0
  -24.8705  -27.6842   19.4716 C   0  0  0  0  0  0
  -23.6415  -29.8171   20.1585 C   0  0  0  0  0  0
  -25.4117  -36.3075   24.0329 C   0  0  1  0  0  0
  -20.5893  -28.3688   23.1273 C   0  0  2  0  0  0
  -20.6781  -26.9410   22.5407 C   0  0  0  0  0  0
  -19.5756  -26.6381   21.5211 C   0  0  0  0  0  0
  -18.1934  -26.7921   22.1621 C   0  0  0  0  0  0
  -19.1544  -28.8851   23.2870 C   0  0  0  0  0  0
  -18.9467  -30.1454   23.8884 C   0  0  0  0  0  0
  -17.6466  -30.6582   24.0559 C   0  0  0  0  0  0
  -25.9058  -34.9445   23.5097 C   0  0  0  0  0  0
  -16.5358  -29.9079   23.6331 C   0  0  0  0  0  0
  -16.7278  -28.6495   23.0351 C   0  0  0  0  0  0
  -26.4501  -31.6584   25.0725 C   0  0  0  0  0  0
  -25.3725  -31.3731   26.1447 C   0  0  0  0  0  0
  -27.0353  -30.3005   24.6200 C   0  0  0  0  0  0
  -27.6051  -32.4330   25.7500 C   0  0  0  0  0  0
  -27.5579  -37.1800   24.8466 C   0  0  0  0  0  0
  -21.4207  -29.3037   22.3669 N   0  0  0  0  0  0
  -26.4292  -37.3772   23.9408 N   0  0  0  0  0  0
  -24.6934  -31.0551   22.0972 N   0  0  0  0  0  0
  -23.4206  -28.8143   23.3013 O   0  0  0  0  0  0
  -28.3162  -26.3899   20.2139 O   0  0  0  0  0  0
  -26.5630  -34.8918   22.4666 O   0  0  0  0  0  0
  -23.5449  -32.1390   23.7309 O   0  0  0  0  0  0
  -29.7450  -19.7630   18.7382 C   0  0  0  0  0  0
  -29.8629  -18.5726   18.0068 C   0  0  0  0  0  0
  -29.6312  -19.7527   20.1405 C   0  0  0  0  0  0
  -29.8902  -17.3102   18.6324 C   0  0  0  0  0  0
  -29.7014  -18.4444   20.7921 C   0  0  0  0  0  0
  -29.8550  -17.1918   20.0531 C   0  0  0  0  0  0
  -29.8847  -16.1060   17.7081 C   0  0  0  0  0  0
  -29.6256  -18.3872   22.3102 C   0  0  0  0  0  0
  -29.5321  -21.1754   20.8553 C   0  0  0  0  0  0
  -29.0603  -23.7875   20.5889 C   0  0  0  0  0  0
  -28.0944  -24.9242   19.9766 C   0  0  0  0  0  0
  -29.8260  -15.8396   20.6748 N   0  0  0  0  0  0
  -28.8199  -22.3320   20.1433 N   0  3  0  0  0  0
  -31.4802  -12.5409   19.1871 H   0  0  0  0  0  0
  -30.3850  -11.4506   19.9863 H   0  0  0  0  0  0
  -29.7839  -11.6289   17.5767 H   0  0  0  0  0  0
  -29.6815  -13.3557   17.6753 H   0  0  0  0  0  0
  -27.8654  -11.2762   18.9138 H   0  0  0  0  0  0
  -27.3908  -12.5263   17.7977 H   0  0  0  0  0  0
  -27.6454  -14.2483   19.4772 H   0  0  0  0  0  0
  -28.7125  -12.1486   21.4276 H   0  0  0  0  0  0
  -28.4257  -13.8278   21.8032 H   0  0  0  0  0  0
  -25.2764   -9.5685   22.4762 H   0  0  0  0  0  0
  -24.0003   -7.4637   22.7474 H   0  0  0  0  0  0
  -21.0847   -8.8778   19.8950 H   0  0  0  0  0  0
  -22.3704  -10.9676   19.6166 H   0  0  0  0  0  0
  -21.2010   -7.6149   23.9716 H   0  0  0  0  0  0
  -21.1479   -6.0524   25.9077 H   0  0  0  0  0  0
  -22.0599   -2.7610   23.2846 H   0  0  0  0  0  0
  -22.4098  -11.9872   22.4792 H   0  0  0  0  0  0
  -21.1096  -13.1233   22.2619 H   0  0  0  0  0  0
  -24.6566  -15.8453   20.5209 H   0  0  0  0  0  0
  -26.2732  -15.6319   20.0801 H   0  0  0  0  0  0
  -26.7197  -32.5421   23.1084 H   0  0  0  0  0  0
  -25.0085  -33.9704   25.0410 H   0  0  0  0  0  0
  -22.7202  -31.3019   21.4004 H   0  0  0  0  0  0
  -23.3756  -35.9616   23.3301 H   0  0  0  0  0  0
  -24.3581  -36.8909   22.2055 H   0  0  0  0  0  0
  -23.7242  -37.6486   23.6663 H   0  0  0  0  0  0
  -26.1084  -31.5371   20.6110 H   0  0  0  0  0  0
  -26.8469  -30.8211   22.0119 H   0  0  0  0  0  0
  -28.1095  -28.9331   21.2222 H   0  0  0  0  0  0
  -25.9556  -25.9382   18.9576 H   0  0  0  0  0  0
  -23.9766  -27.3255   18.9795 H   0  0  0  0  0  0
  -23.7627  -30.5948   19.4034 H   0  0  0  0  0  0
  -22.7603  -29.2492   19.8549 H   0  0  0  0  0  0
  -25.1295  -36.1926   25.0822 H   0  0  0  0  0  0
  -20.9979  -28.3266   24.1395 H   0  0  0  0  0  0
  -20.5686  -26.2298   23.3608 H   0  0  0  0  0  0
  -21.6648  -26.7439   22.1195 H   0  0  0  0  0  0
  -19.6921  -25.6293   21.1236 H   0  0  0  0  0  0
  -19.6691  -27.3196   20.6743 H   0  0  0  0  0  0
  -17.4206  -26.6669   21.4023 H   0  0  0  0  0  0
  -18.0330  -26.0060   22.9014 H   0  0  0  0  0  0
  -19.7947  -30.7266   24.2249 H   0  0  0  0  0  0
  -17.5026  -31.6262   24.5161 H   0  0  0  0  0  0
  -15.5358  -30.2976   23.7664 H   0  0  0  0  0  0
  -15.8678  -28.0815   22.7069 H   0  0  0  0  0  0
  -24.5904  -30.7073   25.7777 H   0  0  0  0  0  0
  -24.8914  -32.2901   26.4858 H   0  0  0  0  0  0
  -25.8046  -30.8921   27.0232 H   0  0  0  0  0  0
  -26.2937  -29.6749   24.1220 H   0  0  0  0  0  0
  -27.4039  -29.7267   25.4714 H   0  0  0  0  0  0
  -27.8810  -30.4285   23.9440 H   0  0  0  0  0  0
  -27.2650  -33.3638   26.2053 H   0  0  0  0  0  0
  -28.3871  -32.6883   25.0336 H   0  0  0  0  0  0
  -28.0705  -31.8475   26.5438 H   0  0  0  0  0  0
  -28.2592  -38.0102   24.7517 H   0  0  0  0  0  0
  -28.1080  -36.2634   24.6285 H   0  0  0  0  0  0
  -27.2298  -37.1437   25.8869 H   0  0  0  0  0  0
  -20.9393  -29.8763   21.6876 H   0  0  0  0  0  0
  -26.0173  -38.2847   24.1411 H   0  0  0  0  0  0
  -29.7390  -20.6943   18.1905 H   0  0  0  0  0  0
  -29.9099  -18.6398   16.9284 H   0  0  0  0  0  0
  -29.7288  -16.3943   16.6684 H   0  0  0  0  0  0
  -29.0640  -15.4440   17.9766 H   0  0  0  0  0  0
  -30.8288  -15.5648   17.7532 H   0  0  0  0  0  0
  -30.2392  -19.1679   22.7598 H   0  0  0  0  0  0
  -29.9874  -17.4398   22.7082 H   0  0  0  0  0  0
  -28.5969  -18.5219   22.6446 H   0  0  0  0  0  0
  -30.5564  -21.4920   21.0559 H   0  0  0  0  0  0
  -29.0628  -21.0540   21.8315 H   0  0  0  0  0  0
  -28.9838  -23.8283   21.6758 H   0  0  0  0  0  0
  -30.0936  -24.0419   20.3510 H   0  0  0  0  0  0
  -27.0997  -24.6667   20.3419 H   0  0  0  0  0  0
  -28.0631  -24.7898   18.8949 H   0  0  0  0  0  0
  -28.9678  -15.6303   21.1617 H   0  0  0  0  0  0
  -27.8333  -22.1333   20.2007 H   0  0  0  0  0  0
  -29.0675  -22.2743   19.1693 H   0  0  0  0  0  0
  1 25  1  0  0  0
  1 30  2  0  0  0
  1 82  1  0  0  0
  2  3  1  0  0  0
  2 25  1  0  0  0
  2 84  1  0  0  0
  2 85  1  0  0  0
  3  4  1  0  0  0
  3 86  1  0  0  0
  3 87  1  0  0  0
  4  5  1  0  0  0
  4 88  1  0  0  0
  4 89  1  0  0  0
  5  6  1  0  0  0
  5 26  1  0  0  0
  5 90  1  0  0  0
  6 25  1  0  0  0
  6 91  1  0  0  0
  6 92  1  0  0  0
  7  8  2  0  0  0
  7 26  1  0  0  0
  7 29  1  0  0  0
  8  9  1  0  0  0
  8 22  1  0  0  0
  9 10  1  0  0  0
  9 27  2  0  0  0
 10 11  2  0  0  0
 10 15  1  0  0  0
 11 12  1  0  0  0
 11 93  1  0  0  0
 12 13  2  0  0  0
 12 94  1  0  0  0
 13 14  1  0  0  0
 13 31  1  0  0  0
 14 15  2  0  0  0
 14 95  1  0  0  0
 15 96  1  0  0  0
 16 17  2  0  0  0
 16 21  1  0  0  0
 16 31  1  0  0  0
 17 18  1  0  0  0
 17 97  1  0  0  0
 18 19  2  0  0  0
 18 98  1  0  0  0
 19 20  1  0  0  0
 19 24  1  0  0  0
 20 21  2  0  0  0
 20 99  1  0  0  0
 21 23  1  0  0  0
 22 28  1  0  0  0
 22 32  2  0  0  0
 26 27  1  0  0  0
 28100  1  0  0  0
 28101  1  0  0  0
 29102  1  0  0  0
 29103  1  0  0  0
 33 34  1  0  0  0
 33 66  1  0  0  0
 33 70  2  0  0  0
 34 36  1  0  0  0
 34 59  1  0  0  0
 34104  1  0  0  0
 35 44  2  0  0  0
 35 45  1  0  0  0
 35 68  1  0  0  0
 36 56  1  0  0  0
 36105  1  0  0  0
 37 39  1  0  0  0
 37 47  1  0  0  0
 37 66  1  0  0  0
 37106  1  0  0  0
 38 43  2  0  0  0
 38 46  1  0  0  0
 38 47  1  0  0  0
 39 64  1  0  0  0
 39 67  2  0  0  0
 40 52  1  0  0  0
 40 53  2  0  0  0
 40 58  1  0  0  0
 41107  1  0  0  0
 41108  1  0  0  0
 41109  1  0  0  0
 41 48  1  0  0  0
 42 43  1  0  0  0
 42 66  1  0  0  0
 42110  1  0  0  0
 42111  1  0  0  0
 43 44  1  0  0  0
 44112  1  0  0  0
 45 46  2  0  0  0
 45113  1  0  0  0
 46114  1  0  0  0
 47115  1  0  0  0
 47116  1  0  0  0
 48 56  1  0  0  0
 48 65  1  0  0  0
 48117  1  0  0  0
 49 50  1  0  0  0
 49 53  1  0  0  0
 49 64  1  0  0  0
 49118  1  0  0  0
 50 51  1  0  0  0
 50119  1  0  0  0
 50120  1  0  0  0
 51 52  1  0  0  0
 51121  1  0  0  0
 51122  1  0  0  0
 52123  1  0  0  0
 52124  1  0  0  0
 53 54  1  0  0  0
 54 55  2  0  0  0
 54125  1  0  0  0
 55 57  1  0  0  0
 55126  1  0  0  0
 56 69  2  0  0  0
 57 58  2  0  0  0
 57127  1  0  0  0
 58128  1  0  0  0
 59 60  1  0  0  0
 59 61  1  0  0  0
 59 62  1  0  0  0
 60129  1  0  0  0
 60130  1  0  0  0
 60131  1  0  0  0
 61132  1  0  0  0
 61133  1  0  0  0
 61134  1  0  0  0
 62135  1  0  0  0
 62136  1  0  0  0
 62137  1  0  0  0
 63 65  1  0  0  0
 63138  1  0  0  0
 63139  1  0  0  0
 63140  1  0  0  0
 64141  1  0  0  0
 65142  1  0  0  0
 68 81  1  0  0  0
 71 72  2  0  0  0
 71 73  1  0  0  0
 71143  1  0  0  0
 72 74  1  0  0  0
 72144  1  0  0  0
 73 75  2  0  0  0
 73 79  1  0  0  0
 74 76  2  0  0  0
 74 77  1  0  0  0
 75 76  1  0  0  0
 75 78  1  0  0  0
 76 82  1  0  0  0
 77145  1  0  0  0
 77146  1  0  0  0
 77147  1  0  0  0
 78148  1  0  0  0
 78149  1  0  0  0
 78150  1  0  0  0
 79 83  1  0  0  0
 79151  1  0  0  0
 79152  1  0  0  0
 80 81  1  0  0  0
 80 83  1  0  0  0
 80153  1  0  0  0
 80154  1  0  0  0
 81155  1  0  0  0
 81156  1  0  0  0
 82157  1  0  0  0
 83158  1  0  0  0
 83159  1  0  0  0
M  CHG  1  83   1
M  ISO  4   1 100  68 101  81 101  82 100
M  END
> <chiral flag>
0

> <version>
0

> <s_m_source_file>
/data/baiqing/PycharmProjects/Reinvent-master-3.2/result/LINK_invent/BTK/process_docking_weight1_custom_product_contain_oxygen_bond_distance_aromatic_linkinvent_7_9_3/rearranged_h_0039.sdf

> <i_m_source_file_index>
77

> <r_mmod_Potential_Energy-OPLS-2005>
-43.9433441162109

> <r_mmod_Stretch_Energy-OPLS-2005>
117.417129516602

> <r_mmod_Bend_Energy-OPLS-2005>
150.208801269531

> <r_mmod_Torsional_Energy-OPLS-2005>
240.075836181641

> <r_mmod_Improper_Torsional_Energy-OPLS-2005>
5.37657785415649

> <r_mmod_Van_der_Waal_Energy-OPLS-2005>
144.463485717773

> <r_mmod_Electrostatic_Energy-OPLS-2005>
-313.149078369141

> <r_mmod_Solvation_Energy-OPLS-2005>
-466.204864501953

> <b_mmod_Minimization_Converged-OPLS-2005>
0

> <r_mmod_RMS_Derivative-OPLS-2005>
0.507076919078827

$$$$
78
                    3D
 Structure written by MMmdl.
171180  0  0  1  0            999 V2000
  -30.6201  -14.7137   20.4756 C   0  0  0  0  0  0
  -30.4230  -12.4352   19.4732 C   0  0  0  0  0  0
  -29.5063  -12.5049   18.2329 C   0  0  0  0  0  0
  -28.0305  -12.3384   18.6427 C   0  0  0  0  0  0
  -27.6400  -13.2309   19.8516 C   0  0  2  0  0  0
  -28.6818  -13.1484   20.9880 C   0  0  0  0  0  0
  -25.2490  -13.8183   20.5698 C   0  0  0  0  0  0
  -24.1782  -13.0436   20.9199 C   0  0  0  0  0  0
  -24.6377  -11.6909   20.8754 C   0  0  0  0  0  0
  -23.9057  -10.4281   21.0422 C   0  0  0  0  0  0
  -24.3608   -9.4195   21.9195 C   0  0  0  0  0  0
  -23.6282   -8.2240   22.0755 C   0  0  0  0  0  0
  -22.4274   -8.0285   21.3545 C   0  0  0  0  0  0
  -21.9916   -9.0247   20.4636 C   0  0  0  0  0  0
  -22.7241  -10.2129   20.3054 C   0  0  0  0  0  0
  -21.6837   -6.0733   22.5282 C   0  0  0  0  0  0
  -21.4005   -6.5634   23.8216 C   0  0  0  0  0  0
  -21.3652   -5.6789   24.9170 C   0  0  0  0  0  0
  -21.6056   -4.3053   24.7223 C   0  0  0  0  0  0
  -21.8824   -3.8146   23.4340 C   0  0  0  0  0  0
  -21.9195   -4.6960   22.3402 C   0  0  0  0  0  0
  -22.7809  -13.5218   21.1868 C   0  0  0  0  0  0
  -22.1664   -4.2141   21.0981 F   0  0  0  0  0  0
  -21.5632   -3.4540   25.7733 F   0  0  0  0  0  0
  -29.9845  -13.4955   20.4096 N   0  0  0  0  0  0
  -26.2916  -12.9407   20.3268 N   0  0  0  0  0  0
  -25.9305  -11.6548   20.5738 N   0  0  0  0  0  0
  -22.0448  -12.8205   22.0407 N   0  0  0  0  0  0
  -25.4184  -15.1912   20.4127 N   0  0  0  0  0  0
  -31.8035  -14.7843   20.1314 O   0  0  0  0  0  0
  -21.6649   -6.8880   21.4249 O   0  0  0  0  0  0
  -22.3506  -14.5534   20.6705 O   0  0  0  0  0  0
  -24.6331  -31.8563   23.1985 C   0  0  0  0  0  0
  -25.9164  -32.4741   23.8353 C   0  0  1  0  0  0
  -27.2109  -27.2575   20.1397 C   0  0  0  0  0  0
  -25.5969  -33.8547   24.2274 N   0  0  0  0  0  0
  -23.4278  -30.4820   21.5391 C   0  0  2  0  0  0
  -24.8712  -28.9232   20.1063 C   0  0  0  0  0  0
  -22.7498  -29.4641   22.4870 C   0  0  0  0  0  0
  -18.0298  -28.1407   22.8451 C   0  0  0  0  0  0
  -24.1484  -36.7248   23.2656 C   0  0  0  0  0  0
  -25.9726  -30.7664   21.3791 C   0  0  0  0  0  0
  -26.0401  -29.3901   20.7192 C   0  0  0  0  0  0
  -27.2091  -28.5696   20.7216 C   0  0  0  0  0  0
  -26.0200  -26.8501   19.5004 C   0  0  0  0  0  0
  -24.8665  -27.6630   19.4859 C   0  0  0  0  0  0
  -23.6471  -29.8198   20.1533 C   0  0  0  0  0  0
  -25.4113  -36.3055   24.0340 C   0  0  1  0  0  0
  -20.5905  -28.3739   23.1238 C   0  0  2  0  0  0
  -20.6780  -26.9461   22.5377 C   0  0  0  0  0  0
  -19.5754  -26.6404   21.5187 C   0  0  0  0  0  0
  -18.1932  -26.7948   22.1595 C   0  0  0  0  0  0
  -19.1554  -28.8872   23.2840 C   0  0  0  0  0  0
  -18.9486  -30.1452   23.8896 C   0  0  0  0  0  0
  -17.6495  -30.6599   24.0567 C   0  0  0  0  0  0
  -25.9066  -34.9428   23.5104 C   0  0  0  0  0  0
  -16.5371  -29.9107   23.6352 C   0  0  0  0  0  0
  -16.7292  -28.6523   23.0367 C   0  0  0  0  0  0
  -26.4551  -31.6567   25.0747 C   0  0  0  0  0  0
  -25.3803  -31.3621   26.1474 C   0  0  0  0  0  0
  -27.0460  -30.3013   24.6232 C   0  0  0  0  0  0
  -27.6094  -32.4328   25.7522 C   0  0  0  0  0  0
  -27.5560  -37.1770   24.8480 C   0  0  0  0  0  0
  -21.4209  -29.3068   22.3581 N   0  0  0  0  0  0
  -26.4276  -37.3762   23.9429 N   0  0  0  0  0  0
  -24.6964  -31.0548   22.0944 N   0  0  0  0  0  0
  -23.4185  -28.8225   23.3014 O   0  0  0  0  0  0
  -28.3294  -26.4054   20.2564 O   0  0  0  0  0  0
  -26.5633  -34.8928   22.4670 O   0  0  0  0  0  0
  -23.5478  -32.1400   23.7265 O   0  0  0  0  0  0
  -31.9739  -18.9508   21.2372 C   0  0  0  0  0  0
  -31.5713  -17.6303   21.0115 C   0  0  0  0  0  0
  -31.0581  -20.0175   21.2776 C   0  0  0  0  0  0
  -29.6785  -19.8162   20.9760 C   0  0  0  0  0  0
  -29.2828  -18.4184   20.7381 C   0  0  0  0  0  0
  -30.2201  -17.2934   20.7940 C   0  0  0  0  0  0
  -28.1290  -23.7691   20.7594 C   0  0  0  0  0  0
  -26.4978  -23.4617   24.0969 C   0  0  0  0  0  0
  -27.4626  -24.0039   21.9162 C   0  0  0  0  0  0
  -26.9050  -23.0680   22.8798 C   0  0  0  0  0  0
  -30.5520  -23.5739   19.3077 C   0  0  0  0  0  0
  -29.8406  -24.9210   19.1501 C   0  0  0  0  0  0
  -29.6008  -22.3743   19.1563 C   0  0  0  0  0  0
  -28.4275  -24.9856   19.7638 C   0  0  2  0  0  0
  -31.6440  -21.3487   21.7266 C   0  0  0  0  0  0
  -27.8218  -18.0955   20.4574 C   0  0  0  0  0  0
  -28.6729  -21.0684   21.1492 C   0  0  0  0  0  0
  -29.8506  -15.8517   20.7042 N   0  0  0  0  0  0
  -28.5799  -22.3225   20.2334 N   0  3  1  0  0  0
  -31.4669  -12.5475   19.1774 H   0  0  0  0  0  0
  -30.3548  -11.4579   19.9523 H   0  0  0  0  0  0
  -29.7841  -11.7344   17.5135 H   0  0  0  0  0  0
  -29.6406  -13.4608   17.7254 H   0  0  0  0  0  0
  -27.8798  -11.2883   18.8985 H   0  0  0  0  0  0
  -27.3763  -12.5455   17.7948 H   0  0  0  0  0  0
  -27.6385  -14.2543   19.4773 H   0  0  0  0  0  0
  -28.7118  -12.1447   21.4156 H   0  0  0  0  0  0
  -28.4226  -13.8212   21.8075 H   0  0  0  0  0  0
  -25.2747   -9.5680   22.4763 H   0  0  0  0  0  0
  -23.9986   -7.4647   22.7486 H   0  0  0  0  0  0
  -21.0845   -8.8765   19.8940 H   0  0  0  0  0  0
  -22.3697  -10.9664   19.6157 H   0  0  0  0  0  0
  -21.1990   -7.6144   23.9704 H   0  0  0  0  0  0
  -21.1468   -6.0522   25.9071 H   0  0  0  0  0  0
  -22.0606   -2.7607   23.2857 H   0  0  0  0  0  0
  -22.4042  -11.9860   22.4810 H   0  0  0  0  0  0
  -21.1067  -13.1234   22.2601 H   0  0  0  0  0  0
  -24.6487  -15.8431   20.5219 H   0  0  0  0  0  0
  -26.2542  -15.6222   20.0450 H   0  0  0  0  0  0
  -26.7220  -32.5383   23.1095 H   0  0  0  0  0  0
  -25.0158  -33.9691   25.0446 H   0  0  0  0  0  0
  -22.7237  -31.3036   21.3949 H   0  0  0  0  0  0
  -23.3766  -35.9556   23.3323 H   0  0  0  0  0  0
  -24.3570  -36.8871   22.2066 H   0  0  0  0  0  0
  -23.7213  -37.6436   23.6687 H   0  0  0  0  0  0
  -26.1293  -31.5286   20.6140 H   0  0  0  0  0  0
  -26.8431  -30.8024   22.0222 H   0  0  0  0  0  0
  -28.1054  -28.9190   21.2153 H   0  0  0  0  0  0
  -25.9393  -25.8817   19.0313 H   0  0  0  0  0  0
  -23.9687  -27.2997   19.0043 H   0  0  0  0  0  0
  -23.7887  -30.6032   19.4085 H   0  0  0  0  0  0
  -22.7594  -29.2708   19.8325 H   0  0  0  0  0  0
  -25.1294  -36.1899   25.0825 H   0  0  0  0  0  0
  -20.9992  -28.3356   24.1376 H   0  0  0  0  0  0
  -20.5691  -26.2381   23.3598 H   0  0  0  0  0  0
  -21.6660  -26.7478   22.1191 H   0  0  0  0  0  0
  -19.6933  -25.6306   21.1257 H   0  0  0  0  0  0
  -19.6705  -27.3182   20.6684 H   0  0  0  0  0  0
  -17.4210  -26.6674   21.3991 H   0  0  0  0  0  0
  -18.0348  -26.0102   22.9002 H   0  0  0  0  0  0
  -19.7971  -30.7233   24.2299 H   0  0  0  0  0  0
  -17.5077  -31.6294   24.5145 H   0  0  0  0  0  0
  -15.5379  -30.3024   23.7661 H   0  0  0  0  0  0
  -15.8682  -28.0826   22.7130 H   0  0  0  0  0  0
  -24.6014  -30.6953   25.7768 H   0  0  0  0  0  0
  -24.8980  -32.2742   26.4979 H   0  0  0  0  0  0
  -25.8180  -30.8749   27.0202 H   0  0  0  0  0  0
  -26.3045  -29.6667   24.1379 H   0  0  0  0  0  0
  -27.4305  -29.7365   25.4730 H   0  0  0  0  0  0
  -27.8851  -30.4323   23.9404 H   0  0  0  0  0  0
  -27.2710  -33.3635   26.2080 H   0  0  0  0  0  0
  -28.3902  -32.6856   25.0345 H   0  0  0  0  0  0
  -28.0794  -31.8500   26.5452 H   0  0  0  0  0  0
  -28.2564  -38.0080   24.7567 H   0  0  0  0  0  0
  -28.1076  -36.2614   24.6281 H   0  0  0  0  0  0
  -27.2302  -37.1387   25.8892 H   0  0  0  0  0  0
  -20.9407  -29.8775   21.6756 H   0  0  0  0  0  0
  -26.0162  -38.2836   24.1451 H   0  0  0  0  0  0
  -33.0200  -19.1326   21.4420 H   0  0  0  0  0  0
  -32.3449  -16.8809   21.0664 H   0  0  0  0  0  0
  -26.0673  -22.7570   24.7945 H   0  0  0  0  0  0
  -26.5868  -24.4898   24.4204 H   0  0  0  0  0  0
  -27.2282  -25.0417   22.1057 H   0  0  0  0  0  0
  -26.7597  -22.0277   22.6351 H   0  0  0  0  0  0
  -31.0377  -23.5576   20.2804 H   0  0  0  0  0  0
  -31.3561  -23.5057   18.5735 H   0  0  0  0  0  0
  -29.7837  -25.1885   18.0937 H   0  0  0  0  0  0
  -30.4767  -25.6802   19.6076 H   0  0  0  0  0  0
  -30.1701  -21.4507   19.0777 H   0  0  0  0  0  0
  -29.0709  -22.4603   18.2089 H   0  0  0  0  0  0
  -27.7438  -24.8370   18.9291 H   0  0  0  0  0  0
  -32.2733  -21.1878   22.6046 H   0  0  0  0  0  0
  -30.9134  -22.1001   22.0144 H   0  0  0  0  0  0
  -32.2857  -21.7542   20.9454 H   0  0  0  0  0  0
  -27.3508  -18.8737   19.8583 H   0  0  0  0  0  0
  -27.2648  -17.9862   21.3884 H   0  0  0  0  0  0
  -27.7178  -17.1700   19.8894 H   0  0  0  0  0  0
  -28.8551  -21.4165   22.1643 H   0  0  0  0  0  0
  -27.6652  -20.6601   21.1869 H   0  0  0  0  0  0
  -28.8748  -15.6517   20.8449 H   0  0  0  0  0  0
  -27.7898  -22.0188   19.6837 H   0  0  0  0  0  0
  1 25  1  0  0  0
  1 30  2  0  0  0
  1 88  1  0  0  0
  2  3  1  0  0  0
  2 25  1  0  0  0
  2 90  1  0  0  0
  2 91  1  0  0  0
  3  4  1  0  0  0
  3 92  1  0  0  0
  3 93  1  0  0  0
  4  5  1  0  0  0
  4 94  1  0  0  0
  4 95  1  0  0  0
  5  6  1  0  0  0
  5 26  1  0  0  0
  5 96  1  0  0  0
  6 25  1  0  0  0
  6 97  1  0  0  0
  6 98  1  0  0  0
  7  8  2  0  0  0
  7 26  1  0  0  0
  7 29  1  0  0  0
  8  9  1  0  0  0
  8 22  1  0  0  0
  9 10  1  0  0  0
  9 27  2  0  0  0
 10 11  2  0  0  0
 10 15  1  0  0  0
 11 12  1  0  0  0
 11 99  1  0  0  0
 12 13  2  0  0  0
 12100  1  0  0  0
 13 14  1  0  0  0
 13 31  1  0  0  0
 14 15  2  0  0  0
 14101  1  0  0  0
 15102  1  0  0  0
 16 17  2  0  0  0
 16 21  1  0  0  0
 16 31  1  0  0  0
 17 18  1  0  0  0
 17103  1  0  0  0
 18 19  2  0  0  0
 18104  1  0  0  0
 19 20  1  0  0  0
 19 24  1  0  0  0
 20 21  2  0  0  0
 20105  1  0  0  0
 21 23  1  0  0  0
 22 28  1  0  0  0
 22 32  2  0  0  0
 26 27  1  0  0  0
 28106  1  0  0  0
 28107  1  0  0  0
 29108  1  0  0  0
 29109  1  0  0  0
 33 34  1  0  0  0
 33 66  1  0  0  0
 33 70  2  0  0  0
 34 36  1  0  0  0
 34 59  1  0  0  0
 34110  1  0  0  0
 35 44  2  0  0  0
 35 45  1  0  0  0
 35 68  1  0  0  0
 36 56  1  0  0  0
 36111  1  0  0  0
 37 39  1  0  0  0
 37 47  1  0  0  0
 37 66  1  0  0  0
 37112  1  0  0  0
 38 43  2  0  0  0
 38 46  1  0  0  0
 38 47  1  0  0  0
 39 64  1  0  0  0
 39 67  2  0  0  0
 40 52  1  0  0  0
 40 53  2  0  0  0
 40 58  1  0  0  0
 41113  1  0  0  0
 41114  1  0  0  0
 41115  1  0  0  0
 41 48  1  0  0  0
 42 43  1  0  0  0
 42 66  1  0  0  0
 42116  1  0  0  0
 42117  1  0  0  0
 43 44  1  0  0  0
 44118  1  0  0  0
 45 46  2  0  0  0
 45119  1  0  0  0
 46120  1  0  0  0
 47121  1  0  0  0
 47122  1  0  0  0
 48 56  1  0  0  0
 48 65  1  0  0  0
 48123  1  0  0  0
 49 50  1  0  0  0
 49 53  1  0  0  0
 49 64  1  0  0  0
 49124  1  0  0  0
 50 51  1  0  0  0
 50125  1  0  0  0
 50126  1  0  0  0
 51 52  1  0  0  0
 51127  1  0  0  0
 51128  1  0  0  0
 52129  1  0  0  0
 52130  1  0  0  0
 53 54  1  0  0  0
 54 55  2  0  0  0
 54131  1  0  0  0
 55 57  1  0  0  0
 55132  1  0  0  0
 56 69  2  0  0  0
 57 58  2  0  0  0
 57133  1  0  0  0
 58134  1  0  0  0
 59 60  1  0  0  0
 59 61  1  0  0  0
 59 62  1  0  0  0
 60135  1  0  0  0
 60136  1  0  0  0
 60137  1  0  0  0
 61138  1  0  0  0
 61139  1  0  0  0
 61140  1  0  0  0
 62141  1  0  0  0
 62142  1  0  0  0
 62143  1  0  0  0
 63 65  1  0  0  0
 63144  1  0  0  0
 63145  1  0  0  0
 63146  1  0  0  0
 64147  1  0  0  0
 65148  1  0  0  0
 68 84  1  0  0  0
 71 72  2  0  0  0
 71 73  1  0  0  0
 71149  1  0  0  0
 72 76  1  0  0  0
 72150  1  0  0  0
 73 74  2  0  0  0
 73 85  1  0  0  0
 74 75  1  0  0  0
 74 87  1  0  0  0
 75 76  2  0  0  0
 75 86  1  0  0  0
 76 88  1  0  0  0
 77 79  2  0  0  0
 77 84  1  0  0  0
 77 89  1  0  0  0
 78 80  2  0  0  0
 78151  1  0  0  0
 78152  1  0  0  0
 79 80  1  0  0  0
 79153  1  0  0  0
 80154  1  0  0  0
 81 82  1  0  0  0
 81 83  1  0  0  0
 81155  1  0  0  0
 81156  1  0  0  0
 82 84  1  0  0  0
 82157  1  0  0  0
 82158  1  0  0  0
 83 89  1  0  0  0
 83159  1  0  0  0
 83160  1  0  0  0
 84161  1  0  0  0
 85162  1  0  0  0
 85163  1  0  0  0
 85164  1  0  0  0
 86165  1  0  0  0
 86166  1  0  0  0
 86167  1  0  0  0
 87168  1  0  0  0
 87169  1  0  0  0
 87 89  1  0  0  0
 88170  1  0  0  0
 89171  1  0  0  0
M  CHG  1  89   1
M  ISO  4   1 100  68 101  84 101  88 100
M  END
> <chiral flag>
0

> <version>
0

> <s_m_source_file>
/data/baiqing/PycharmProjects/Reinvent-master-3.2/result/LINK_invent/BTK/process_docking_weight1_custom_product_contain_oxygen_bond_distance_aromatic_linkinvent_7_9_3/rearranged_h_0039.sdf

> <i_m_source_file_index>
78

> <r_mmod_Potential_Energy-OPLS-2005>
133.118255615234

> <r_mmod_Stretch_Energy-OPLS-2005>
149.971130371094

> <r_mmod_Bend_Energy-OPLS-2005>
224.485992431641

> <r_mmod_Torsional_Energy-OPLS-2005>
242.332534790039

> <r_mmod_Improper_Torsional_Energy-OPLS-2005>
6.93790531158447

> <r_mmod_Van_der_Waal_Energy-OPLS-2005>
155.480514526367

> <r_mmod_Electrostatic_Energy-OPLS-2005>
-292.076904296875

> <r_mmod_Solvation_Energy-OPLS-2005>
-432.262023925781

> <b_mmod_Minimization_Converged-OPLS-2005>
0

> <r_mmod_RMS_Derivative-OPLS-2005>
3.63928961753845

$$$$
79
                    3D
 Structure written by MMmdl.
159167  0  0  1  0            999 V2000
  -30.7705  -14.3361   20.7162 C   0  0  0  0  0  0
  -30.4195  -12.2900   19.3792 C   0  0  0  0  0  0
  -29.4833  -12.5415   18.1833 C   0  0  0  0  0  0
  -28.0077  -12.3921   18.5984 C   0  0  0  0  0  0
  -27.6677  -13.2006   19.8772 C   0  0  2  0  0  0
  -28.7036  -12.9171   20.9860 C   0  0  0  0  0  0
  -25.2622  -13.8161   20.5689 C   0  0  0  0  0  0
  -24.1853  -13.0440   20.9163 C   0  0  0  0  0  0
  -24.6391  -11.6902   20.8698 C   0  0  0  0  0  0
  -23.9053  -10.4293   21.0395 C   0  0  0  0  0  0
  -24.3605   -9.4213   21.9176 C   0  0  0  0  0  0
  -23.6287   -8.2242   22.0750 C   0  0  0  0  0  0
  -22.4267   -8.0278   21.3542 C   0  0  0  0  0  0
  -21.9896   -9.0254   20.4648 C   0  0  0  0  0  0
  -22.7223  -10.2136   20.3052 C   0  0  0  0  0  0
  -21.6853   -6.0735   22.5281 C   0  0  0  0  0  0
  -21.4014   -6.5637   23.8214 C   0  0  0  0  0  0
  -21.3666   -5.6790   24.9177 C   0  0  0  0  0  0
  -21.6044   -4.3051   24.7223 C   0  0  0  0  0  0
  -21.8821   -3.8139   23.4347 C   0  0  0  0  0  0
  -21.9193   -4.6961   22.3404 C   0  0  0  0  0  0
  -22.7871  -13.5244   21.1831 C   0  0  0  0  0  0
  -22.1660   -4.2145   21.0980 F   0  0  0  0  0  0
  -21.5632   -3.4536   25.7736 F   0  0  0  0  0  0
  -30.0512  -13.2145   20.4604 N   0  0  0  0  0  0
  -26.3044  -12.9320   20.3345 N   0  0  0  0  0  0
  -25.9310  -11.6483   20.5701 N   0  0  0  0  0  0
  -22.0501  -12.8255   22.0398 N   0  0  0  0  0  0
  -25.4376  -15.1878   20.4162 N   0  0  0  0  0  0
  -31.7702  -14.6701   20.0720 O   0  0  0  0  0  0
  -21.6638   -6.8871   21.4240 O   0  0  0  0  0  0
  -22.3559  -14.5554   20.6694 O   0  0  0  0  0  0
  -24.6140  -31.8698   23.2118 C   0  0  0  0  0  0
  -25.9039  -32.4834   23.8401 C   0  0  1  0  0  0
  -27.2302  -27.4467   20.0880 C   0  0  0  0  0  0
  -25.5906  -33.8628   24.2341 N   0  0  0  0  0  0
  -23.4007  -30.4950   21.5534 C   0  0  2  0  0  0
  -24.8447  -28.9681   20.1142 C   0  0  0  0  0  0
  -22.7402  -29.4674   22.5001 C   0  0  0  0  0  0
  -18.0276  -28.1361   22.8491 C   0  0  0  0  0  0
  -24.1491  -36.7317   23.2639 C   0  0  0  0  0  0
  -25.9293  -30.8399   21.3640 C   0  0  0  0  0  0
  -26.0065  -29.4773   20.7069 C   0  0  0  0  0  0
  -27.2041  -28.7259   20.6885 C   0  0  0  0  0  0
  -26.0491  -26.9579   19.4811 C   0  0  0  0  0  0
  -24.8612  -27.7076   19.4966 C   0  0  0  0  0  0
  -23.6082  -29.8329   20.1662 C   0  0  0  0  0  0
  -25.4106  -36.3110   24.0339 C   0  0  1  0  0  0
  -20.5862  -28.3648   23.1327 C   0  0  2  0  0  0
  -20.6763  -26.9383   22.5428 C   0  0  0  0  0  0
  -19.5734  -26.6351   21.5228 C   0  0  0  0  0  0
  -18.1922  -26.7900   22.1640 C   0  0  0  0  0  0
  -19.1527  -28.8823   23.2901 C   0  0  0  0  0  0
  -18.9452  -30.1445   23.8896 C   0  0  0  0  0  0
  -17.6455  -30.6579   24.0556 C   0  0  0  0  0  0
  -25.9031  -34.9483   23.5132 C   0  0  0  0  0  0
  -16.5345  -29.9075   23.6320 C   0  0  0  0  0  0
  -16.7266  -28.6492   23.0344 C   0  0  0  0  0  0
  -26.4470  -31.6601   25.0716 C   0  0  0  0  0  0
  -25.3740  -31.3689   26.1464 C   0  0  0  0  0  0
  -27.0295  -30.3045   24.6083 C   0  0  0  0  0  0
  -27.6056  -32.4309   25.7469 C   0  0  0  0  0  0
  -27.5575  -37.1820   24.8466 C   0  0  0  0  0  0
  -21.4135  -29.3028   22.3743 N   0  0  0  0  0  0
  -26.4294  -37.3788   23.9403 N   0  0  0  0  0  0
  -24.6658  -31.0817   22.1013 N   0  0  0  0  0  0
  -23.4189  -28.8206   23.3018 O   0  0  0  0  0  0
  -28.3902  -26.6983   20.1045 O   0  0  0  0  0  0
  -26.5586  -34.8930   22.4690 O   0  0  0  0  0  0
  -23.5340  -32.1439   23.7537 O   0  0  0  0  0  0
  -29.5199  -17.6727   20.7659 C   0  0  0  0  0  0
  -29.3895  -19.7715   22.6199 C   0  0  0  0  0  0
  -30.1752  -17.5323   22.0104 C   0  0  0  0  0  0
  -28.7044  -19.8924   21.3908 C   0  0  0  0  0  0
  -30.1229  -18.6083   22.9317 C   0  0  0  0  0  0
  -28.7910  -18.8361   20.4536 C   0  0  0  0  0  0
  -30.9340  -16.2445   22.3393 C   0  0  0  0  0  0
  -27.8232  -21.1139   21.1325 C   0  0  0  0  0  0
  -29.5147  -24.5320   20.5898 C   0  0  0  0  0  0
  -29.3242  -23.1286   21.2214 C   0  0  0  0  0  0
  -28.1981  -25.3165   20.4383 C   0  0  0  0  0  0
  -30.3395  -15.0359   21.7715 N   0  0  0  0  0  0
  -28.4891  -22.2166   20.3991 N   0  3  0  0  0  0
  -30.9316  -18.5281   24.4584 Cl  0  0  0  0  0  0
  -28.0016  -18.9259   18.9189 Cl  0  0  0  0  0  0
  -31.4612  -12.4039   19.0728 H   0  0  0  0  0  0
  -30.3220  -11.2589   19.7250 H   0  0  0  0  0  0
  -29.7126  -11.8508   17.3712 H   0  0  0  0  0  0
  -29.6549  -13.5448   17.7888 H   0  0  0  0  0  0
  -27.8148  -11.3319   18.7691 H   0  0  0  0  0  0
  -27.3536  -12.6920   17.7788 H   0  0  0  0  0  0
  -27.7326  -14.2580   19.6191 H   0  0  0  0  0  0
  -28.6589  -11.8666   21.2781 H   0  0  0  0  0  0
  -28.4415  -13.4717   21.8867 H   0  0  0  0  0  0
  -25.2758   -9.5690   22.4742 H   0  0  0  0  0  0
  -24.0006   -7.4637   22.7471 H   0  0  0  0  0  0
  -21.0822   -8.8774   19.8960 H   0  0  0  0  0  0
  -22.3681  -10.9674   19.6156 H   0  0  0  0  0  0
  -21.2003   -7.6144   23.9716 H   0  0  0  0  0  0
  -21.1488   -6.0519   25.9084 H   0  0  0  0  0  0
  -22.0592   -2.7599   23.2849 H   0  0  0  0  0  0
  -22.4103  -11.9921   22.4816 H   0  0  0  0  0  0
  -21.1121  -13.1302   22.2590 H   0  0  0  0  0  0
  -24.6776  -15.8490   20.5344 H   0  0  0  0  0  0
  -26.3015  -15.6257   20.1225 H   0  0  0  0  0  0
  -26.7107  -32.5552   23.1168 H   0  0  0  0  0  0
  -25.0059  -33.9780   25.0486 H   0  0  0  0  0  0
  -22.6876  -31.3104   21.4181 H   0  0  0  0  0  0
  -23.3734  -35.9669   23.3330 H   0  0  0  0  0  0
  -24.3576  -36.8893   22.2044 H   0  0  0  0  0  0
  -23.7276  -37.6548   23.6626 H   0  0  0  0  0  0
  -26.0408  -31.6101   20.5993 H   0  0  0  0  0  0
  -26.8158  -30.8903   21.9838 H   0  0  0  0  0  0
  -28.1003  -29.1192   21.1476 H   0  0  0  0  0  0
  -26.0248  -26.0031   18.9772 H   0  0  0  0  0  0
  -23.9715  -27.3147   19.0257 H   0  0  0  0  0  0
  -23.7157  -30.6114   19.4095 H   0  0  0  0  0  0
  -22.7304  -29.2556   19.8696 H   0  0  0  0  0  0
  -25.1291  -36.1975   25.0832 H   0  0  0  0  0  0
  -20.9947  -28.3226   24.1456 H   0  0  0  0  0  0
  -20.5637  -26.2278   23.3626 H   0  0  0  0  0  0
  -21.6652  -26.7411   22.1263 H   0  0  0  0  0  0
  -19.6865  -25.6255   21.1271 H   0  0  0  0  0  0
  -19.6677  -27.3149   20.6740 H   0  0  0  0  0  0
  -17.4173  -26.6592   21.4071 H   0  0  0  0  0  0
  -18.0332  -26.0062   22.9075 H   0  0  0  0  0  0
  -19.7921  -30.7271   24.2259 H   0  0  0  0  0  0
  -17.5007  -31.6258   24.5150 H   0  0  0  0  0  0
  -15.5340  -30.2974   23.7639 H   0  0  0  0  0  0
  -15.8673  -28.0803   22.7051 H   0  0  0  0  0  0
  -24.5908  -30.7046   25.7800 H   0  0  0  0  0  0
  -24.8925  -32.2830   26.4938 H   0  0  0  0  0  0
  -25.8089  -30.8840   27.0214 H   0  0  0  0  0  0
  -26.2837  -29.6803   24.1153 H   0  0  0  0  0  0
  -27.4085  -29.7288   25.4539 H   0  0  0  0  0  0
  -27.8662  -30.4355   23.9219 H   0  0  0  0  0  0
  -27.2678  -33.3598   26.2079 H   0  0  0  0  0  0
  -28.3834  -32.6885   25.0265 H   0  0  0  0  0  0
  -28.0753  -31.8410   26.5351 H   0  0  0  0  0  0
  -28.2624  -38.0087   24.7473 H   0  0  0  0  0  0
  -28.1051  -36.2625   24.6349 H   0  0  0  0  0  0
  -27.2292  -37.1528   25.8871 H   0  0  0  0  0  0
  -20.9283  -29.8771   21.6993 H   0  0  0  0  0  0
  -26.0193  -38.2879   24.1376 H   0  0  0  0  0  0
  -29.5598  -16.8814   20.0325 H   0  0  0  0  0  0
  -29.3334  -20.5657   23.3507 H   0  0  0  0  0  0
  -30.9518  -16.0856   23.4179 H   0  0  0  0  0  0
  -31.9751  -16.3545   22.0334 H   0  0  0  0  0  0
  -27.4158  -21.4790   22.0763 H   0  0  0  0  0  0
  -26.9502  -20.8027   20.5590 H   0  0  0  0  0  0
  -30.0143  -24.4506   19.6246 H   0  0  0  0  0  0
  -30.1887  -25.1028   21.2299 H   0  0  0  0  0  0
  -28.8818  -23.2519   22.2118 H   0  0  0  0  0  0
  -30.2957  -22.6591   21.3793 H   0  0  0  0  0  0
  -27.6338  -25.2595   21.3719 H   0  0  0  0  0  0
  -27.6094  -24.8127   19.6731 H   0  0  0  0  0  0
  -29.5401  -14.6560   22.2564 H   0  0  0  0  0  0
  -27.7393  -22.7579   20.0033 H   0  0  0  0  0  0
  -29.0219  -21.8450   19.6296 H   0  0  0  0  0  0
  1 25  1  0  0  0
  1 30  2  0  0  0
  1 82  1  0  0  0
  2  3  1  0  0  0
  2 25  1  0  0  0
  2 86  1  0  0  0
  2 87  1  0  0  0
  3  4  1  0  0  0
  3 88  1  0  0  0
  3 89  1  0  0  0
  4  5  1  0  0  0
  4 90  1  0  0  0
  4 91  1  0  0  0
  5  6  1  0  0  0
  5 26  1  0  0  0
  5 92  1  0  0  0
  6 25  1  0  0  0
  6 93  1  0  0  0
  6 94  1  0  0  0
  7  8  2  0  0  0
  7 26  1  0  0  0
  7 29  1  0  0  0
  8  9  1  0  0  0
  8 22  1  0  0  0
  9 10  1  0  0  0
  9 27  2  0  0  0
 10 11  2  0  0  0
 10 15  1  0  0  0
 11 12  1  0  0  0
 11 95  1  0  0  0
 12 13  2  0  0  0
 12 96  1  0  0  0
 13 14  1  0  0  0
 13 31  1  0  0  0
 14 15  2  0  0  0
 14 97  1  0  0  0
 15 98  1  0  0  0
 16 17  2  0  0  0
 16 21  1  0  0  0
 16 31  1  0  0  0
 17 18  1  0  0  0
 17 99  1  0  0  0
 18 19  2  0  0  0
 18100  1  0  0  0
 19 20  1  0  0  0
 19 24  1  0  0  0
 20 21  2  0  0  0
 20101  1  0  0  0
 21 23  1  0  0  0
 22 28  1  0  0  0
 22 32  2  0  0  0
 26 27  1  0  0  0
 28102  1  0  0  0
 28103  1  0  0  0
 29104  1  0  0  0
 29105  1  0  0  0
 33 34  1  0  0  0
 33 66  1  0  0  0
 33 70  2  0  0  0
 34 36  1  0  0  0
 34 59  1  0  0  0
 34106  1  0  0  0
 35 44  2  0  0  0
 35 45  1  0  0  0
 35 68  1  0  0  0
 36 56  1  0  0  0
 36107  1  0  0  0
 37 39  1  0  0  0
 37 47  1  0  0  0
 37 66  1  0  0  0
 37108  1  0  0  0
 38 43  2  0  0  0
 38 46  1  0  0  0
 38 47  1  0  0  0
 39 64  1  0  0  0
 39 67  2  0  0  0
 40 52  1  0  0  0
 40 53  2  0  0  0
 40 58  1  0  0  0
 41109  1  0  0  0
 41110  1  0  0  0
 41111  1  0  0  0
 41 48  1  0  0  0
 42 43  1  0  0  0
 42 66  1  0  0  0
 42112  1  0  0  0
 42113  1  0  0  0
 43 44  1  0  0  0
 44114  1  0  0  0
 45 46  2  0  0  0
 45115  1  0  0  0
 46116  1  0  0  0
 47117  1  0  0  0
 47118  1  0  0  0
 48 56  1  0  0  0
 48 65  1  0  0  0
 48119  1  0  0  0
 49 50  1  0  0  0
 49 53  1  0  0  0
 49 64  1  0  0  0
 49120  1  0  0  0
 50 51  1  0  0  0
 50121  1  0  0  0
 50122  1  0  0  0
 51 52  1  0  0  0
 51123  1  0  0  0
 51124  1  0  0  0
 52125  1  0  0  0
 52126  1  0  0  0
 53 54  1  0  0  0
 54 55  2  0  0  0
 54127  1  0  0  0
 55 57  1  0  0  0
 55128  1  0  0  0
 56 69  2  0  0  0
 57 58  2  0  0  0
 57129  1  0  0  0
 58130  1  0  0  0
 59 60  1  0  0  0
 59 61  1  0  0  0
 59 62  1  0  0  0
 60131  1  0  0  0
 60132  1  0  0  0
 60133  1  0  0  0
 61134  1  0  0  0
 61135  1  0  0  0
 61136  1  0  0  0
 62137  1  0  0  0
 62138  1  0  0  0
 62139  1  0  0  0
 63 65  1  0  0  0
 63140  1  0  0  0
 63141  1  0  0  0
 63142  1  0  0  0
 64143  1  0  0  0
 65144  1  0  0  0
 68 81  1  0  0  0
 71 73  2  0  0  0
 71 76  1  0  0  0
 71145  1  0  0  0
 72 74  1  0  0  0
 72 75  2  0  0  0
 72146  1  0  0  0
 73 75  1  0  0  0
 73 77  1  0  0  0
 74 76  2  0  0  0
 74 78  1  0  0  0
 75 84  1  0  0  0
 76 85  1  0  0  0
 77 82  1  0  0  0
 77147  1  0  0  0
 77148  1  0  0  0
 78 83  1  0  0  0
 78149  1  0  0  0
 78150  1  0  0  0
 79 80  1  0  0  0
 79 81  1  0  0  0
 79151  1  0  0  0
 79152  1  0  0  0
 80 83  1  0  0  0
 80153  1  0  0  0
 80154  1  0  0  0
 81155  1  0  0  0
 81156  1  0  0  0
 82157  1  0  0  0
 83158  1  0  0  0
 83159  1  0  0  0
M  CHG  1  83   1
M  ISO  4   1 100  68 101  81 101  82 100
M  END
> <chiral flag>
0

> <version>
0

> <s_m_source_file>
/data/baiqing/PycharmProjects/Reinvent-master-3.2/result/LINK_invent/BTK/process_docking_weight1_custom_product_contain_oxygen_bond_distance_aromatic_linkinvent_7_9_3/rearranged_h_0039.sdf

> <i_m_source_file_index>
79

> <r_mmod_Potential_Energy-OPLS-2005>
-338.915008544922

> <r_mmod_Stretch_Energy-OPLS-2005>
34.2291793823242

> <r_mmod_Bend_Energy-OPLS-2005>
90.0460586547852

> <r_mmod_Torsional_Energy-OPLS-2005>
202.370178222656

> <r_mmod_Improper_Torsional_Energy-OPLS-2005>
1.98848819732666

> <r_mmod_Van_der_Waal_Energy-OPLS-2005>
153.71711730957

> <r_mmod_Electrostatic_Energy-OPLS-2005>
-348.312255859375

> <r_mmod_Solvation_Energy-OPLS-2005>
-481.584930419922

> <b_mmod_Minimization_Converged-OPLS-2005>
0

> <r_mmod_RMS_Derivative-OPLS-2005>
1.85295510292053

$$$$
80
                    3D
 Structure written by MMmdl.
172181  0  0  1  0            999 V2000
  -30.6421  -14.5150   20.5565 C   0  0  0  0  0  0
  -30.4345  -12.3281   19.4241 C   0  0  0  0  0  0
  -29.4982  -12.5071   18.2081 C   0  0  0  0  0  0
  -28.0197  -12.3569   18.6199 C   0  0  0  0  0  0
  -27.6619  -13.1934   19.8772 C   0  0  2  0  0  0
  -28.7030  -12.9675   20.9965 C   0  0  0  0  0  0
  -25.2605  -13.8113   20.5682 C   0  0  0  0  0  0
  -24.1836  -13.0412   20.9159 C   0  0  0  0  0  0
  -24.6370  -11.6873   20.8717 C   0  0  0  0  0  0
  -23.9026  -10.4275   21.0389 C   0  0  0  0  0  0
  -24.3591   -9.4208   21.9173 C   0  0  0  0  0  0
  -23.6278   -8.2237   22.0756 C   0  0  0  0  0  0
  -22.4264   -8.0262   21.3544 C   0  0  0  0  0  0
  -21.9883   -9.0227   20.4641 C   0  0  0  0  0  0
  -22.7195  -10.2114   20.3051 C   0  0  0  0  0  0
  -21.6852   -6.0725   22.5279 C   0  0  0  0  0  0
  -21.4008   -6.5633   23.8210 C   0  0  0  0  0  0
  -21.3661   -5.6787   24.9172 C   0  0  0  0  0  0
  -21.6047   -4.3053   24.7223 C   0  0  0  0  0  0
  -21.8820   -3.8141   23.4348 C   0  0  0  0  0  0
  -21.9191   -4.6955   22.3404 C   0  0  0  0  0  0
  -22.7870  -13.5234   21.1827 C   0  0  0  0  0  0
  -22.1663   -4.2143   21.0981 F   0  0  0  0  0  0
  -21.5630   -3.4540   25.7740 F   0  0  0  0  0  0
  -30.0288  -13.3034   20.4495 N   0  0  0  0  0  0
  -26.3021  -12.9249   20.3363 N   0  0  0  0  0  0
  -25.9294  -11.6417   20.5757 N   0  0  0  0  0  0
  -22.0508  -12.8238   22.0383 N   0  0  0  0  0  0
  -25.4330  -15.1835   20.4121 N   0  0  0  0  0  0
  -31.7696  -14.7357   20.1012 O   0  0  0  0  0  0
  -21.6632   -6.8858   21.4241 O   0  0  0  0  0  0
  -22.3568  -14.5549   20.6683 O   0  0  0  0  0  0
  -24.6164  -31.8658   23.2045 C   0  0  0  0  0  0
  -25.9047  -32.4809   23.8349 C   0  0  1  0  0  0
  -27.2432  -27.4188   20.0999 C   0  0  0  0  0  0
  -25.5900  -33.8601   24.2295 N   0  0  0  0  0  0
  -23.4051  -30.4885   21.5461 C   0  0  2  0  0  0
  -24.8537  -28.9424   20.1189 C   0  0  0  0  0  0
  -22.7414  -29.4665   22.4965 C   0  0  0  0  0  0
  -18.0291  -28.1365   22.8462 C   0  0  0  0  0  0
  -24.1494  -36.7309   23.2641 C   0  0  0  0  0  0
  -25.9349  -30.8243   21.3603 C   0  0  0  0  0  0
  -26.0135  -29.4551   20.7118 C   0  0  0  0  0  0
  -27.2122  -28.7031   20.6948 C   0  0  0  0  0  0
  -26.0652  -26.9188   19.5064 C   0  0  0  0  0  0
  -24.8731  -27.6709   19.5165 C   0  0  0  0  0  0
  -23.6165  -29.8133   20.1628 C   0  0  0  0  0  0
  -25.4105  -36.3096   24.0348 C   0  0  1  0  0  0
  -20.5880  -28.3660   23.1303 C   0  0  2  0  0  0
  -20.6780  -26.9384   22.5416 C   0  0  0  0  0  0
  -19.5775  -26.6366   21.5203 C   0  0  0  0  0  0
  -18.1939  -26.7909   22.1594 C   0  0  0  0  0  0
  -19.1539  -28.8825   23.2878 C   0  0  0  0  0  0
  -18.9478  -30.1424   23.8893 C   0  0  0  0  0  0
  -17.6486  -30.6563   24.0574 C   0  0  0  0  0  0
  -25.9039  -34.9470   23.5114 C   0  0  0  0  0  0
  -16.5376  -29.9068   23.6325 C   0  0  0  0  0  0
  -16.7286  -28.6498   23.0315 C   0  0  0  0  0  0
  -26.4470  -31.6602   25.0686 C   0  0  0  0  0  0
  -25.3733  -31.3735   26.1437 C   0  0  0  0  0  0
  -27.0290  -30.3050   24.6040 C   0  0  0  0  0  0
  -27.6037  -32.4321   25.7469 C   0  0  0  0  0  0
  -27.5596  -37.1788   24.8457 C   0  0  0  0  0  0
  -21.4146  -29.3038   22.3721 N   0  0  0  0  0  0
  -26.4293  -37.3781   23.9424 N   0  0  0  0  0  0
  -24.6706  -31.0738   22.0955 N   0  0  0  0  0  0
  -23.4186  -28.8228   23.3025 O   0  0  0  0  0  0
  -28.4184  -26.6911   20.0568 O   0  0  0  0  0  0
  -26.5596  -34.8933   22.4674 O   0  0  0  0  0  0
  -23.5352  -32.1419   23.7429 O   0  0  0  0  0  0
  -29.7812  -19.0208   19.7123 C   0  0  0  0  0  0
  -30.2900  -19.0977   22.0765 C   0  0  0  0  0  0
  -30.0623  -19.7898   20.8649 C   0  0  0  0  0  0
  -29.7398  -17.6028   19.7589 C   0  0  0  0  0  0
  -30.2436  -17.6848   22.1429 C   0  0  0  0  0  0
  -29.9946  -16.9138   20.9780 C   0  0  0  0  0  0
  -29.3406  -25.4355   21.8525 C   0  0  0  0  0  0
  -29.9356  -24.0978   22.3372 C   0  0  0  0  0  0
  -28.8468  -24.2689   19.6211 C   0  0  0  0  0  0
  -28.3402  -22.8223   19.9364 C   0  0  0  0  0  0
  -28.4050  -25.3654   20.6292 C   0  0  2  0  0  0
  -28.9528  -22.8992   22.3665 C   0  0  2  0  0  0
  -29.3985  -16.8506   18.4825 C   0  0  0  0  0  0
  -30.4723  -17.0031   23.4811 C   0  0  0  0  0  0
  -29.1796  -22.0305   23.6158 C   0  0  0  0  0  0
  -30.2056  -21.3274   20.7845 C   0  0  0  0  0  0
  -29.8695  -15.4883   21.0921 N   0  0  0  0  0  0
  -28.9591  -22.1023   21.0973 N   0  3  2  0  0  0
  -31.4767  -12.4536   19.1227 H   0  0  0  0  0  0
  -30.3589  -11.3146   19.8194 H   0  0  0  0  0  0
  -29.7456  -11.7792   17.4340 H   0  0  0  0  0  0
  -29.6559  -13.4911   17.7624 H   0  0  0  0  0  0
  -27.8384  -11.3001   18.8173 H   0  0  0  0  0  0
  -27.3674  -12.6253   17.7886 H   0  0  0  0  0  0
  -27.7026  -14.2404   19.5835 H   0  0  0  0  0  0
  -28.6929  -11.9253   21.3175 H   0  0  0  0  0  0
  -28.4557  -13.5436   21.8885 H   0  0  0  0  0  0
  -25.2737   -9.5694   22.4743 H   0  0  0  0  0  0
  -23.9994   -7.4636   22.7488 H   0  0  0  0  0  0
  -21.0815   -8.8725   19.8950 H   0  0  0  0  0  0
  -22.3635  -10.9647   19.6168 H   0  0  0  0  0  0
  -21.1998   -7.6137   23.9710 H   0  0  0  0  0  0
  -21.1484   -6.0518   25.9073 H   0  0  0  0  0  0
  -22.0597   -2.7602   23.2850 H   0  0  0  0  0  0
  -22.4118  -11.9899   22.4770 H   0  0  0  0  0  0
  -21.1130  -13.1270   22.2584 H   0  0  0  0  0  0
  -24.6643  -15.8345   20.5280 H   0  0  0  0  0  0
  -26.2886  -15.6312   20.1102 H   0  0  0  0  0  0
  -26.7115  -32.5533   23.1110 H   0  0  0  0  0  0
  -25.0114  -33.9761   25.0484 H   0  0  0  0  0  0
  -22.6960  -31.3057   21.3986 H   0  0  0  0  0  0
  -23.3764  -35.9633   23.3274 H   0  0  0  0  0  0
  -24.3621  -36.8931   22.2065 H   0  0  0  0  0  0
  -23.7218  -37.6498   23.6664 H   0  0  0  0  0  0
  -26.0438  -31.5862   20.5872 H   0  0  0  0  0  0
  -26.8233  -30.8823   21.9765 H   0  0  0  0  0  0
  -28.1104  -29.0982   21.1482 H   0  0  0  0  0  0
  -26.0680  -25.9514   19.0249 H   0  0  0  0  0  0
  -23.9805  -27.2670   19.0589 H   0  0  0  0  0  0
  -23.7324  -30.5834   19.4002 H   0  0  0  0  0  0
  -22.7391  -29.2369   19.8654 H   0  0  0  0  0  0
  -25.1273  -36.1963   25.0846 H   0  0  0  0  0  0
  -20.9975  -28.3213   24.1425 H   0  0  0  0  0  0
  -20.5675  -26.2267   23.3609 H   0  0  0  0  0  0
  -21.6661  -26.7412   22.1227 H   0  0  0  0  0  0
  -19.6954  -25.6277   21.1226 H   0  0  0  0  0  0
  -19.6730  -27.3189   20.6753 H   0  0  0  0  0  0
  -17.4231  -26.6681   21.3972 H   0  0  0  0  0  0
  -18.0313  -26.0018   22.8962 H   0  0  0  0  0  0
  -19.7965  -30.7228   24.2250 H   0  0  0  0  0  0
  -17.5057  -31.6251   24.5164 H   0  0  0  0  0  0
  -15.5377  -30.2990   23.7638 H   0  0  0  0  0  0
  -15.8688  -28.0850   22.6992 H   0  0  0  0  0  0
  -24.5927  -30.7048   25.7798 H   0  0  0  0  0  0
  -24.8922  -32.2920   26.4832 H   0  0  0  0  0  0
  -25.8096  -30.8963   27.0227 H   0  0  0  0  0  0
  -26.2825  -29.6832   24.1097 H   0  0  0  0  0  0
  -27.4091  -29.7255   25.4464 H   0  0  0  0  0  0
  -27.8645  -30.4380   23.9155 H   0  0  0  0  0  0
  -27.2642  -33.3612   26.2065 H   0  0  0  0  0  0
  -28.3865  -32.6890   25.0318 H   0  0  0  0  0  0
  -28.0690  -31.8438   26.5385 H   0  0  0  0  0  0
  -28.2556  -38.0136   24.7560 H   0  0  0  0  0  0
  -28.1142  -36.2674   24.6195 H   0  0  0  0  0  0
  -27.2351  -37.1343   25.8865 H   0  0  0  0  0  0
  -20.9302  -29.8792   21.6971 H   0  0  0  0  0  0
  -26.0186  -38.2853   24.1450 H   0  0  0  0  0  0
  -29.6074  -19.5261   18.7712 H   0  0  0  0  0  0
  -30.5213  -19.6521   22.9729 H   0  0  0  0  0  0
  -30.1770  -26.0980   21.6234 H   0  0  0  0  0  0
  -28.8076  -25.9209   22.6703 H   0  0  0  0  0  0
  -30.3293  -24.2716   23.3400 H   0  0  0  0  0  0
  -30.8150  -23.8575   21.7395 H   0  0  0  0  0  0
  -28.4252  -24.5386   18.6523 H   0  0  0  0  0  0
  -29.9265  -24.2855   19.4740 H   0  0  0  0  0  0
  -28.4476  -22.2032   19.0453 H   0  0  0  0  0  0
  -27.2647  -22.8638   20.1120 H   0  0  0  0  0  0
  -27.4028  -25.1190   20.9810 H   0  0  0  0  0  0
  -27.9403  -23.2903   22.4839 H   0  0  0  0  0  0
  -29.0323  -17.5247   17.7073 H   0  0  0  0  0  0
  -28.6191  -16.1123   18.6608 H   0  0  0  0  0  0
  -30.2799  -16.3412   18.0936 H   0  0  0  0  0  0
  -30.6505  -17.7270   24.2760 H   0  0  0  0  0  0
  -31.3397  -16.3452   23.4264 H   0  0  0  0  0  0
  -29.6042  -16.4063   23.7629 H   0  0  0  0  0  0
  -30.2184  -21.7205   23.7111 H   0  0  0  0  0  0
  -28.5476  -21.1423   23.6208 H   0  0  0  0  0  0
  -28.9382  -22.5964   24.5165 H   0  0  0  0  0  0
  -30.5674  -21.5918   19.7894 H   0  0  0  0  0  0
  -31.0151  -21.6188   21.4544 H   0  0  0  0  0  0
  -29.0218  -15.1594   21.5278 H   0  0  0  0  0  0
  -28.3007  -21.3581   21.2745 H   0  0  0  0  0  0
  1 25  1  0  0  0
  1 30  2  0  0  0
  1 87  1  0  0  0
  2  3  1  0  0  0
  2 25  1  0  0  0
  2 89  1  0  0  0
  2 90  1  0  0  0
  3  4  1  0  0  0
  3 91  1  0  0  0
  3 92  1  0  0  0
  4  5  1  0  0  0
  4 93  1  0  0  0
  4 94  1  0  0  0
  5  6  1  0  0  0
  5 26  1  0  0  0
  5 95  1  0  0  0
  6 25  1  0  0  0
  6 96  1  0  0  0
  6 97  1  0  0  0
  7  8  2  0  0  0
  7 26  1  0  0  0
  7 29  1  0  0  0
  8  9  1  0  0  0
  8 22  1  0  0  0
  9 10  1  0  0  0
  9 27  2  0  0  0
 10 11  2  0  0  0
 10 15  1  0  0  0
 11 12  1  0  0  0
 11 98  1  0  0  0
 12 13  2  0  0  0
 12 99  1  0  0  0
 13 14  1  0  0  0
 13 31  1  0  0  0
 14 15  2  0  0  0
 14100  1  0  0  0
 15101  1  0  0  0
 16 17  2  0  0  0
 16 21  1  0  0  0
 16 31  1  0  0  0
 17 18  1  0  0  0
 17102  1  0  0  0
 18 19  2  0  0  0
 18103  1  0  0  0
 19 20  1  0  0  0
 19 24  1  0  0  0
 20 21  2  0  0  0
 20104  1  0  0  0
 21 23  1  0  0  0
 22 28  1  0  0  0
 22 32  2  0  0  0
 26 27  1  0  0  0
 28105  1  0  0  0
 28106  1  0  0  0
 29107  1  0  0  0
 29108  1  0  0  0
 33 34  1  0  0  0
 33 66  1  0  0  0
 33 70  2  0  0  0
 34 36  1  0  0  0
 34 59  1  0  0  0
 34109  1  0  0  0
 35 44  2  0  0  0
 35 45  1  0  0  0
 35 68  1  0  0  0
 36 56  1  0  0  0
 36110  1  0  0  0
 37 39  1  0  0  0
 37 47  1  0  0  0
 37 66  1  0  0  0
 37111  1  0  0  0
 38 43  2  0  0  0
 38 46  1  0  0  0
 38 47  1  0  0  0
 39 64  1  0  0  0
 39 67  2  0  0  0
 40 52  1  0  0  0
 40 53  2  0  0  0
 40 58  1  0  0  0
 41112  1  0  0  0
 41113  1  0  0  0
 41114  1  0  0  0
 41 48  1  0  0  0
 42 43  1  0  0  0
 42 66  1  0  0  0
 42115  1  0  0  0
 42116  1  0  0  0
 43 44  1  0  0  0
 44117  1  0  0  0
 45 46  2  0  0  0
 45118  1  0  0  0
 46119  1  0  0  0
 47120  1  0  0  0
 47121  1  0  0  0
 48 56  1  0  0  0
 48 65  1  0  0  0
 48122  1  0  0  0
 49 50  1  0  0  0
 49 53  1  0  0  0
 49 64  1  0  0  0
 49123  1  0  0  0
 50 51  1  0  0  0
 50124  1  0  0  0
 50125  1  0  0  0
 51 52  1  0  0  0
 51126  1  0  0  0
 51127  1  0  0  0
 52128  1  0  0  0
 52129  1  0  0  0
 53 54  1  0  0  0
 54 55  2  0  0  0
 54130  1  0  0  0
 55 57  1  0  0  0
 55131  1  0  0  0
 56 69  2  0  0  0
 57 58  2  0  0  0
 57132  1  0  0  0
 58133  1  0  0  0
 59 60  1  0  0  0
 59 61  1  0  0  0
 59 62  1  0  0  0
 60134  1  0  0  0
 60135  1  0  0  0
 60136  1  0  0  0
 61137  1  0  0  0
 61138  1  0  0  0
 61139  1  0  0  0
 62140  1  0  0  0
 62141  1  0  0  0
 62142  1  0  0  0
 63 65  1  0  0  0
 63143  1  0  0  0
 63144  1  0  0  0
 63145  1  0  0  0
 64146  1  0  0  0
 65147  1  0  0  0
 68 81  1  0  0  0
 71 73  2  0  0  0
 71 74  1  0  0  0
 71148  1  0  0  0
 72 73  1  0  0  0
 72 75  2  0  0  0
 72149  1  0  0  0
 73 86  1  0  0  0
 74 76  2  0  0  0
 74 83  1  0  0  0
 75 76  1  0  0  0
 75 84  1  0  0  0
 76 87  1  0  0  0
 77 78  1  0  0  0
 77 81  1  0  0  0
 77150  1  0  0  0
 77151  1  0  0  0
 78 82  1  0  0  0
 78152  1  0  0  0
 78153  1  0  0  0
 79 80  1  0  0  0
 79 81  1  0  0  0
 79154  1  0  0  0
 79155  1  0  0  0
 80 88  1  0  0  0
 80156  1  0  0  0
 80157  1  0  0  0
 81158  1  0  0  0
 82 85  1  0  0  0
 82 88  1  0  0  0
 82159  1  0  0  0
 83160  1  0  0  0
 83161  1  0  0  0
 83162  1  0  0  0
 84163  1  0  0  0
 84164  1  0  0  0
 84165  1  0  0  0
 85166  1  0  0  0
 85167  1  0  0  0
 85168  1  0  0  0
 86169  1  0  0  0
 86170  1  0  0  0
 86 88  1  0  0  0
 87171  1  0  0  0
 88172  1  0  0  0
M  CHG  1  88   1
M  ISO  4   1 100  68 101  81 101  87 100
M  END
> <chiral flag>
0

> <version>
0

> <s_m_source_file>
/data/baiqing/PycharmProjects/Reinvent-master-3.2/result/LINK_invent/BTK/process_docking_weight1_custom_product_contain_oxygen_bond_distance_aromatic_linkinvent_7_9_3/rearranged_h_0039.sdf

> <i_m_source_file_index>
80

> <r_mmod_Potential_Energy-OPLS-2005>
-109.046051025391

> <r_mmod_Stretch_Energy-OPLS-2005>
46.6650085449219

> <r_mmod_Bend_Energy-OPLS-2005>
118.339050292969

> <r_mmod_Torsional_Energy-OPLS-2005>
308.395263671875

> <r_mmod_Improper_Torsional_Energy-OPLS-2005>
3.80343222618103

> <r_mmod_Van_der_Waal_Energy-OPLS-2005>
145.072799682617

> <r_mmod_Electrostatic_Energy-OPLS-2005>
-316.761108398438

> <r_mmod_Solvation_Energy-OPLS-2005>
-430.721740722656

> <b_mmod_Minimization_Converged-OPLS-2005>
0

> <r_mmod_RMS_Derivative-OPLS-2005>
2.43413615226746

$$$$
81
                    3D
 Structure written by MMmdl.
173182  0  0  1  0            999 V2000
  -30.6271  -14.6388   20.5167 C   0  0  0  0  0  0
  -30.4280  -12.3847   19.4723 C   0  0  0  0  0  0
  -29.5140  -12.5257   18.2383 C   0  0  0  0  0  0
  -28.0330  -12.3753   18.6342 C   0  0  0  0  0  0
  -27.6527  -13.2268   19.8773 C   0  0  2  0  0  0
  -28.6931  -13.0731   21.0083 C   0  0  0  0  0  0
  -25.2529  -13.8224   20.5681 C   0  0  0  0  0  0
  -24.1795  -13.0462   20.9194 C   0  0  0  0  0  0
  -24.6366  -11.6933   20.8723 C   0  0  0  0  0  0
  -23.9034  -10.4301   21.0365 C   0  0  0  0  0  0
  -24.3602   -9.4246   21.9185 C   0  0  0  0  0  0
  -23.6295   -8.2275   22.0776 C   0  0  0  0  0  0
  -22.4299   -8.0269   21.3537 C   0  0  0  0  0  0
  -21.9879   -9.0237   20.4669 C   0  0  0  0  0  0
  -22.7177  -10.2121   20.3055 C   0  0  0  0  0  0
  -21.6878   -6.0712   22.5269 C   0  0  0  0  0  0
  -21.4033   -6.5632   23.8193 C   0  0  0  0  0  0
  -21.3664   -5.6802   24.9163 C   0  0  0  0  0  0
  -21.6056   -4.3071   24.7230 C   0  0  0  0  0  0
  -21.8828   -3.8133   23.4369 C   0  0  0  0  0  0
  -21.9221   -4.6937   22.3405 C   0  0  0  0  0  0
  -22.7823  -13.5240   21.1841 C   0  0  0  0  0  0
  -22.1676   -4.2125   21.0982 F   0  0  0  0  0  0
  -21.5625   -3.4544   25.7747 F   0  0  0  0  0  0
  -30.0122  -13.4127   20.4537 N   0  0  0  0  0  0
  -26.2972  -12.9396   20.3381 N   0  0  0  0  0  0
  -25.9305  -11.6532   20.5778 N   0  0  0  0  0  0
  -22.0489  -12.8207   22.0406 N   0  0  0  0  0  0
  -25.4213  -15.1954   20.3990 N   0  0  0  0  0  0
  -31.7493  -14.7851   20.0341 O   0  0  0  0  0  0
  -21.6702   -6.8843   21.4217 O   0  0  0  0  0  0
  -22.3487  -14.5521   20.6688 O   0  0  0  0  0  0
  -24.6261  -31.8610   23.2076 C   0  0  0  0  0  0
  -25.9149  -32.4753   23.8342 C   0  0  1  0  0  0
  -27.2100  -27.3357   20.1137 C   0  0  0  0  0  0
  -25.6006  -33.8568   24.2300 N   0  0  0  0  0  0
  -23.4099  -30.4876   21.5562 C   0  0  2  0  0  0
  -24.8434  -28.9246   20.1317 C   0  0  0  0  0  0
  -22.7423  -29.4646   22.5046 C   0  0  0  0  0  0
  -18.0288  -28.1368   22.8480 C   0  0  0  0  0  0
  -24.1479  -36.7277   23.2645 C   0  0  0  0  0  0
  -25.9439  -30.7933   21.3672 C   0  0  0  0  0  0
  -26.0113  -29.4131   20.7298 C   0  0  0  0  0  0
  -27.1958  -28.6288   20.7152 C   0  0  0  0  0  0
  -26.0151  -26.8688   19.5266 C   0  0  0  0  0  0
  -24.8397  -27.6483   19.5392 C   0  0  0  0  0  0
  -23.6196  -29.8194   20.1716 C   0  0  0  0  0  0
  -25.4098  -36.3053   24.0321 C   0  0  1  0  0  0
  -20.5871  -28.3651   23.1332 C   0  0  2  0  0  0
  -20.6791  -26.9389   22.5434 C   0  0  0  0  0  0
  -19.5769  -26.6368   21.5239 C   0  0  0  0  0  0
  -18.1935  -26.7917   22.1623 C   0  0  0  0  0  0
  -19.1535  -28.8833   23.2893 C   0  0  0  0  0  0
  -18.9462  -30.1463   23.8858 C   0  0  0  0  0  0
  -17.6449  -30.6569   24.0566 C   0  0  0  0  0  0
  -25.9058  -34.9441   23.5083 C   0  0  0  0  0  0
  -16.5344  -29.9052   23.6347 C   0  0  0  0  0  0
  -16.7275  -28.6503   23.0311 C   0  0  0  0  0  0
  -26.4568  -31.6542   25.0675 C   0  0  0  0  0  0
  -25.3851  -31.3638   26.1432 C   0  0  0  0  0  0
  -27.0427  -30.2984   24.6073 C   0  0  0  0  0  0
  -27.6109  -32.4266   25.7489 C   0  0  0  0  0  0
  -27.5563  -37.1786   24.8461 C   0  0  0  0  0  0
  -21.4168  -29.2995   22.3741 N   0  0  0  0  0  0
  -26.4271  -37.3746   23.9411 N   0  0  0  0  0  0
  -24.6804  -31.0605   22.1033 N   0  0  0  0  0  0
  -23.4174  -28.8207   23.3119 O   0  0  0  0  0  0
  -28.3868  -26.6178   19.9340 O   0  0  0  0  0  0
  -26.5582  -34.8900   22.4627 O   0  0  0  0  0  0
  -23.5441  -32.1438   23.7433 O   0  0  0  0  0  0
  -28.2590  -19.0985   20.8705 C   0  0  0  0  0  0
  -28.5211  -17.7145   21.0549 C   0  0  0  0  0  0
  -29.2542  -20.0177   20.4470 C   0  0  0  0  0  0
  -30.5708  -19.4601   20.3020 C   0  0  0  0  0  0
  -30.8466  -18.0601   20.5543 C   0  0  0  0  0  0
  -29.8012  -17.1273   20.8666 C   0  0  0  0  0  0
  -29.9931  -23.0445   21.5760 C   0  0  0  0  0  0
  -30.1225  -22.6660   22.8687 C   0  0  0  0  0  0
  -30.8922  -23.9651   20.7521 C   0  0  0  0  0  0
  -30.2435  -25.3464   20.5051 C   0  0  0  0  0  0
  -28.1513  -23.9539   20.1178 C   0  0  0  0  0  0
  -28.7022  -25.3618   20.6227 C   0  0  2  0  0  0
  -31.7133  -20.3548   19.8154 C   0  0  0  0  0  0
  -32.2925  -17.5885   20.5071 C   0  0  0  0  0  0
  -29.0665  -21.8410   23.5886 C   0  0  0  0  0  0
  -31.2725  -23.0790   23.7702 C   0  0  0  0  0  0
  -28.8133  -21.4650   19.9401 C   0  0  0  0  0  0
  -29.8899  -15.6643   21.0723 N   0  0  0  0  0  0
  -28.7553  -22.7201   20.8067 N   0  3  1  0  0  0
  -31.4720  -12.4847   19.1771 H   0  0  0  0  0  0
  -30.3439  -11.3842   19.9035 H   0  0  0  0  0  0
  -29.7722  -11.7829   17.4828 H   0  0  0  0  0  0
  -29.6807  -13.5032   17.7849 H   0  0  0  0  0  0
  -27.8532  -11.3177   18.8308 H   0  0  0  0  0  0
  -27.3940  -12.6444   17.7961 H   0  0  0  0  0  0
  -27.6664  -14.2684   19.5572 H   0  0  0  0  0  0
  -28.7000  -12.0507   21.3888 H   0  0  0  0  0  0
  -28.4273  -13.6992   21.8610 H   0  0  0  0  0  0
  -25.2737   -9.5780   22.4774 H   0  0  0  0  0  0
  -24.0045   -7.4684   22.7478 H   0  0  0  0  0  0
  -21.0832   -8.8686   19.8979 H   0  0  0  0  0  0
  -22.3577  -10.9647   19.6182 H   0  0  0  0  0  0
  -21.2014   -7.6142   23.9661 H   0  0  0  0  0  0
  -21.1481   -6.0557   25.9057 H   0  0  0  0  0  0
  -22.0606   -2.7592   23.2891 H   0  0  0  0  0  0
  -22.4104  -11.9867   22.4794 H   0  0  0  0  0  0
  -21.1112  -13.1205   22.2600 H   0  0  0  0  0  0
  -24.6414  -15.8421   20.4495 H   0  0  0  0  0  0
  -26.2562  -15.6148   20.0105 H   0  0  0  0  0  0
  -26.7204  -32.5412   23.1069 H   0  0  0  0  0  0
  -25.0230  -33.9708   25.0504 H   0  0  0  0  0  0
  -22.7041  -31.3087   21.4208 H   0  0  0  0  0  0
  -23.3725  -35.9634   23.3301 H   0  0  0  0  0  0
  -24.3588  -36.8915   22.2064 H   0  0  0  0  0  0
  -23.7252  -37.6490   23.6665 H   0  0  0  0  0  0
  -26.0529  -31.5467   20.5853 H   0  0  0  0  0  0
  -26.8385  -30.8558   21.9765 H   0  0  0  0  0  0
  -28.0994  -29.0178   21.1596 H   0  0  0  0  0  0
  -25.9884  -25.9077   19.0298 H   0  0  0  0  0  0
  -23.9319  -27.2671   19.0893 H   0  0  0  0  0  0
  -23.7495  -30.6024   19.4224 H   0  0  0  0  0  0
  -22.7290  -29.2642   19.8700 H   0  0  0  0  0  0
  -25.1283  -36.1877   25.0812 H   0  0  0  0  0  0
  -20.9943  -28.3191   24.1467 H   0  0  0  0  0  0
  -20.5732  -26.2240   23.3604 H   0  0  0  0  0  0
  -21.6658  -26.7441   22.1209 H   0  0  0  0  0  0
  -19.6933  -25.6281   21.1267 H   0  0  0  0  0  0
  -19.6736  -27.3209   20.6788 H   0  0  0  0  0  0
  -17.4232  -26.6706   21.3992 H   0  0  0  0  0  0
  -18.0290  -26.0042   22.8987 H   0  0  0  0  0  0
  -19.7931  -30.7333   24.2161 H   0  0  0  0  0  0
  -17.4981  -31.6238   24.5178 H   0  0  0  0  0  0
  -15.5344  -30.2912   23.7693 H   0  0  0  0  0  0
  -15.8696  -28.0840   22.6952 H   0  0  0  0  0  0
  -24.6013  -30.6987   25.7782 H   0  0  0  0  0  0
  -24.9065  -32.2785   26.4919 H   0  0  0  0  0  0
  -25.8244  -30.8785   27.0148 H   0  0  0  0  0  0
  -26.2977  -29.6651   24.1209 H   0  0  0  0  0  0
  -27.4327  -29.7285   25.4515 H   0  0  0  0  0  0
  -27.8744  -30.4331   23.9145 H   0  0  0  0  0  0
  -27.2711  -33.3544   26.2092 H   0  0  0  0  0  0
  -28.3940  -32.6837   25.0351 H   0  0  0  0  0  0
  -28.0733  -31.8350   26.5397 H   0  0  0  0  0  0
  -28.2564  -38.0090   24.7491 H   0  0  0  0  0  0
  -28.1058  -36.2616   24.6282 H   0  0  0  0  0  0
  -27.2271  -37.1441   25.8861 H   0  0  0  0  0  0
  -20.9323  -29.8648   21.6905 H   0  0  0  0  0  0
  -26.0123  -38.2814   24.1417 H   0  0  0  0  0  0
  -27.2390  -19.4375   20.9920 H   0  0  0  0  0  0
  -27.6856  -17.0816   21.3269 H   0  0  0  0  0  0
  -31.0616  -23.4830   19.7893 H   0  0  0  0  0  0
  -31.8823  -24.0940   21.1848 H   0  0  0  0  0  0
  -30.5317  -25.6752   19.5046 H   0  0  0  0  0  0
  -30.6670  -26.0868   21.1854 H   0  0  0  0  0  0
  -28.3102  -23.8776   19.0406 H   0  0  0  0  0  0
  -27.0705  -23.9192   20.2608 H   0  0  0  0  0  0
  -28.4329  -25.4912   21.6710 H   0  0  0  0  0  0
  -31.3797  -21.1933   19.2175 H   0  0  0  0  0  0
  -32.4007  -19.8106   19.1696 H   0  0  0  0  0  0
  -32.2901  -20.7578   20.6477 H   0  0  0  0  0  0
  -32.9905  -18.3652   20.8169 H   0  0  0  0  0  0
  -32.5633  -17.2796   19.4972 H   0  0  0  0  0  0
  -32.4639  -16.7667   21.1963 H   0  0  0  0  0  0
  -28.3157  -21.4069   22.9276 H   0  0  0  0  0  0
  -28.5472  -22.4582   24.3224 H   0  0  0  0  0  0
  -29.5336  -21.0147   24.1215 H   0  0  0  0  0  0
  -32.0583  -23.6304   23.2568 H   0  0  0  0  0  0
  -31.7326  -22.1956   24.2129 H   0  0  0  0  0  0
  -30.9062  -23.7061   24.5835 H   0  0  0  0  0  0
  -27.7940  -21.3319   19.5789 H   0  0  0  0  0  0
  -29.3652  -21.7088   19.0365 H   0  0  0  0  0  0
  -29.0661  -15.2759   21.5058 H   0  0  0  0  0  0
  -28.0717  -22.4820   21.5122 H   0  0  0  0  0  0
  1 25  1  0  0  0
  1 30  2  0  0  0
  1 88  1  0  0  0
  2  3  1  0  0  0
  2 25  1  0  0  0
  2 90  1  0  0  0
  2 91  1  0  0  0
  3  4  1  0  0  0
  3 92  1  0  0  0
  3 93  1  0  0  0
  4  5  1  0  0  0
  4 94  1  0  0  0
  4 95  1  0  0  0
  5  6  1  0  0  0
  5 26  1  0  0  0
  5 96  1  0  0  0
  6 25  1  0  0  0
  6 97  1  0  0  0
  6 98  1  0  0  0
  7  8  2  0  0  0
  7 26  1  0  0  0
  7 29  1  0  0  0
  8  9  1  0  0  0
  8 22  1  0  0  0
  9 10  1  0  0  0
  9 27  2  0  0  0
 10 11  2  0  0  0
 10 15  1  0  0  0
 11 12  1  0  0  0
 11 99  1  0  0  0
 12 13  2  0  0  0
 12100  1  0  0  0
 13 14  1  0  0  0
 13 31  1  0  0  0
 14 15  2  0  0  0
 14101  1  0  0  0
 15102  1  0  0  0
 16 17  2  0  0  0
 16 21  1  0  0  0
 16 31  1  0  0  0
 17 18  1  0  0  0
 17103  1  0  0  0
 18 19  2  0  0  0
 18104  1  0  0  0
 19 20  1  0  0  0
 19 24  1  0  0  0
 20 21  2  0  0  0
 20105  1  0  0  0
 21 23  1  0  0  0
 22 28  1  0  0  0
 22 32  2  0  0  0
 26 27  1  0  0  0
 28106  1  0  0  0
 28107  1  0  0  0
 29108  1  0  0  0
 29109  1  0  0  0
 33 34  1  0  0  0
 33 66  1  0  0  0
 33 70  2  0  0  0
 34 36  1  0  0  0
 34 59  1  0  0  0
 34110  1  0  0  0
 35 44  2  0  0  0
 35 45  1  0  0  0
 35 68  1  0  0  0
 36 56  1  0  0  0
 36111  1  0  0  0
 37 39  1  0  0  0
 37 47  1  0  0  0
 37 66  1  0  0  0
 37112  1  0  0  0
 38 43  2  0  0  0
 38 46  1  0  0  0
 38 47  1  0  0  0
 39 64  1  0  0  0
 39 67  2  0  0  0
 40 52  1  0  0  0
 40 53  2  0  0  0
 40 58  1  0  0  0
 41113  1  0  0  0
 41114  1  0  0  0
 41115  1  0  0  0
 41 48  1  0  0  0
 42 43  1  0  0  0
 42 66  1  0  0  0
 42116  1  0  0  0
 42117  1  0  0  0
 43 44  1  0  0  0
 44118  1  0  0  0
 45 46  2  0  0  0
 45119  1  0  0  0
 46120  1  0  0  0
 47121  1  0  0  0
 47122  1  0  0  0
 48 56  1  0  0  0
 48 65  1  0  0  0
 48123  1  0  0  0
 49 50  1  0  0  0
 49 53  1  0  0  0
 49 64  1  0  0  0
 49124  1  0  0  0
 50 51  1  0  0  0
 50125  1  0  0  0
 50126  1  0  0  0
 51 52  1  0  0  0
 51127  1  0  0  0
 51128  1  0  0  0
 52129  1  0  0  0
 52130  1  0  0  0
 53 54  1  0  0  0
 54 55  2  0  0  0
 54131  1  0  0  0
 55 57  1  0  0  0
 55132  1  0  0  0
 56 69  2  0  0  0
 57 58  2  0  0  0
 57133  1  0  0  0
 58134  1  0  0  0
 59 60  1  0  0  0
 59 61  1  0  0  0
 59 62  1  0  0  0
 60135  1  0  0  0
 60136  1  0  0  0
 60137  1  0  0  0
 61138  1  0  0  0
 61139  1  0  0  0
 61140  1  0  0  0
 62141  1  0  0  0
 62142  1  0  0  0
 62143  1  0  0  0
 63 65  1  0  0  0
 63144  1  0  0  0
 63145  1  0  0  0
 63146  1  0  0  0
 64147  1  0  0  0
 65148  1  0  0  0
 68 82  1  0  0  0
 71 72  2  0  0  0
 71 73  1  0  0  0
 71149  1  0  0  0
 72 76  1  0  0  0
 72150  1  0  0  0
 73 74  2  0  0  0
 73 87  1  0  0  0
 74 75  1  0  0  0
 74 83  1  0  0  0
 75 76  2  0  0  0
 75 84  1  0  0  0
 76 88  1  0  0  0
 77 78  2  0  0  0
 77 79  1  0  0  0
 77 89  1  0  0  0
 78 85  1  0  0  0
 78 86  1  0  0  0
 79 80  1  0  0  0
 79151  1  0  0  0
 79152  1  0  0  0
 80 82  1  0  0  0
 80153  1  0  0  0
 80154  1  0  0  0
 81 82  1  0  0  0
 81 89  1  0  0  0
 81155  1  0  0  0
 81156  1  0  0  0
 82157  1  0  0  0
 83158  1  0  0  0
 83159  1  0  0  0
 83160  1  0  0  0
 84161  1  0  0  0
 84162  1  0  0  0
 84163  1  0  0  0
 85164  1  0  0  0
 85165  1  0  0  0
 85166  1  0  0  0
 86167  1  0  0  0
 86168  1  0  0  0
 86169  1  0  0  0
 87170  1  0  0  0
 87171  1  0  0  0
 87 89  1  0  0  0
 88172  1  0  0  0
 89173  1  0  0  0
M  CHG  1  89   1
M  ISO  4   1 100  68 101  82 101  88 100
M  END
> <chiral flag>
0

> <version>
0

> <s_m_source_file>
/data/baiqing/PycharmProjects/Reinvent-master-3.2/result/LINK_invent/BTK/process_docking_weight1_custom_product_contain_oxygen_bond_distance_aromatic_linkinvent_7_9_3/rearranged_h_0039.sdf

> <i_m_source_file_index>
81

> <r_mmod_Potential_Energy-OPLS-2005>
40.596263885498

> <r_mmod_Stretch_Energy-OPLS-2005>
92.9089965820312

> <r_mmod_Bend_Energy-OPLS-2005>
198.924224853516

> <r_mmod_Torsional_Energy-OPLS-2005>
275.135314941406

> <r_mmod_Improper_Torsional_Energy-OPLS-2005>
6.41825532913208

> <r_mmod_Van_der_Waal_Energy-OPLS-2005>
153.147766113281

> <r_mmod_Electrostatic_Energy-OPLS-2005>
-313.519439697266

> <r_mmod_Solvation_Energy-OPLS-2005>
-411.485473632812

> <b_mmod_Minimization_Converged-OPLS-2005>
0

> <r_mmod_RMS_Derivative-OPLS-2005>
5.43771743774414

$$$$
82
                    3D
 Structure written by MMmdl.
159167  0  0  1  0            999 V2000
  -30.6253  -14.6224   20.5059 C   0  0  0  0  0  0
  -30.4388  -12.3824   19.4497 C   0  0  0  0  0  0
  -29.5076  -12.5099   18.2232 C   0  0  0  0  0  0
  -28.0299  -12.3501   18.6344 C   0  0  0  0  0  0
  -27.6561  -13.2150   19.8675 C   0  0  2  0  0  0
  -28.7004  -13.0553   20.9958 C   0  0  0  0  0  0
  -25.2573  -13.8169   20.5688 C   0  0  0  0  0  0
  -24.1833  -13.0437   20.9182 C   0  0  0  0  0  0
  -24.6396  -11.6907   20.8733 C   0  0  0  0  0  0
  -23.9061  -10.4292   21.0402 C   0  0  0  0  0  0
  -24.3613   -9.4209   21.9181 C   0  0  0  0  0  0
  -23.6290   -8.2243   22.0753 C   0  0  0  0  0  0
  -22.4273   -8.0280   21.3543 C   0  0  0  0  0  0
  -21.9906   -9.0252   20.4645 C   0  0  0  0  0  0
  -22.7232  -10.2132   20.3053 C   0  0  0  0  0  0
  -21.6852   -6.0733   22.5277 C   0  0  0  0  0  0
  -21.4013   -6.5638   23.8211 C   0  0  0  0  0  0
  -21.3660   -5.6792   24.9173 C   0  0  0  0  0  0
  -21.6044   -4.3054   24.7224 C   0  0  0  0  0  0
  -21.8820   -3.8145   23.4346 C   0  0  0  0  0  0
  -21.9193   -4.6962   22.3402 C   0  0  0  0  0  0
  -22.7855  -13.5232   21.1849 C   0  0  0  0  0  0
  -22.1662   -4.2148   21.0979 F   0  0  0  0  0  0
  -21.5631   -3.4538   25.7737 F   0  0  0  0  0  0
  -30.0187  -13.3961   20.4364 N   0  0  0  0  0  0
  -26.3004  -12.9347   20.3338 N   0  0  0  0  0  0
  -25.9327  -11.6502   20.5761 N   0  0  0  0  0  0
  -22.0496  -12.8225   22.0404 N   0  0  0  0  0  0
  -25.4295  -15.1889   20.4112 N   0  0  0  0  0  0
  -31.7818  -14.7923   20.1086 O   0  0  0  0  0  0
  -21.6639   -6.8876   21.4239 O   0  0  0  0  0  0
  -22.3542  -14.5541   20.6701 O   0  0  0  0  0  0
  -24.6255  -31.8608   23.2038 C   0  0  0  0  0  0
  -25.9107  -32.4785   23.8363 C   0  0  1  0  0  0
  -27.2247  -27.3288   20.1118 C   0  0  0  0  0  0
  -25.5928  -33.8585   24.2291 N   0  0  0  0  0  0
  -23.4184  -30.4858   21.5464 C   0  0  2  0  0  0
  -24.8642  -28.9442   20.1111 C   0  0  0  0  0  0
  -22.7472  -29.4631   22.4938 C   0  0  0  0  0  0
  -18.0287  -28.1385   22.8490 C   0  0  0  0  0  0
  -24.1488  -36.7290   23.2638 C   0  0  0  0  0  0
  -25.9594  -30.7949   21.3738 C   0  0  0  0  0  0
  -26.0334  -29.4237   20.7148 C   0  0  0  0  0  0
  -27.2162  -28.6279   20.7058 C   0  0  0  0  0  0
  -26.0297  -26.9019   19.4841 C   0  0  0  0  0  0
  -24.8638  -27.6883   19.4882 C   0  0  0  0  0  0
  -23.6322  -29.8234   20.1607 C   0  0  0  0  0  0
  -25.4113  -36.3087   24.0333 C   0  0  1  0  0  0
  -20.5888  -28.3688   23.1287 C   0  0  2  0  0  0
  -20.6781  -26.9413   22.5411 C   0  0  0  0  0  0
  -19.5755  -26.6388   21.5214 C   0  0  0  0  0  0
  -18.1932  -26.7931   22.1624 C   0  0  0  0  0  0
  -19.1540  -28.8853   23.2885 C   0  0  0  0  0  0
  -18.9463  -30.1457   23.8899 C   0  0  0  0  0  0
  -17.6463  -30.6589   24.0567 C   0  0  0  0  0  0
  -25.9050  -34.9456   23.5111 C   0  0  0  0  0  0
  -16.5353  -29.9089   23.6333 C   0  0  0  0  0  0
  -16.7275  -28.6506   23.0353 C   0  0  0  0  0  0
  -26.4497  -31.6587   25.0724 C   0  0  0  0  0  0
  -25.3736  -31.3719   26.1452 C   0  0  0  0  0  0
  -27.0339  -30.3017   24.6162 C   0  0  0  0  0  0
  -27.6060  -32.4316   25.7494 C   0  0  0  0  0  0
  -27.5579  -37.1801   24.8468 C   0  0  0  0  0  0
  -21.4187  -29.3043   22.3681 N   0  0  0  0  0  0
  -26.4292  -37.3780   23.9411 N   0  0  0  0  0  0
  -24.6865  -31.0633   22.0984 N   0  0  0  0  0  0
  -23.4202  -28.8165   23.3008 O   0  0  0  0  0  0
  -28.3480  -26.4879   20.1620 O   0  0  0  0  0  0
  -26.5613  -34.8922   22.4674 O   0  0  0  0  0  0
  -23.5421  -32.1401   23.7375 O   0  0  0  0  0  0
  -30.1467  -19.2230   19.4717 C   0  0  0  0  0  0
  -29.6858  -19.3549   21.8255 C   0  0  0  0  0  0
  -29.9327  -20.0422   20.6114 C   0  0  0  0  0  0
  -30.1374  -17.7937   19.5360 C   0  0  0  0  0  0
  -29.6800  -17.9306   21.9094 C   0  0  0  0  0  0
  -29.9362  -17.1092   20.7736 C   0  0  0  0  0  0
  -30.3171  -17.0201   18.2403 C   0  0  0  0  0  0
  -29.4065  -17.2862   23.2582 C   0  0  0  0  0  0
  -30.1468  -21.6016   20.5806 C   0  0  0  0  0  0
  -29.3020  -24.0311   20.3991 C   0  0  0  0  0  0
  -28.1295  -25.0300   20.0191 C   0  0  0  0  0  0
  -29.8232  -15.6564   20.9039 N   0  0  0  0  0  0
  -28.9946  -22.5383   20.3043 N   0  3  0  0  0  0
  -31.4803  -12.5067   19.1480 H   0  0  0  0  0  0
  -30.3709  -11.3836   19.8834 H   0  0  0  0  0  0
  -29.7688  -11.7628   17.4725 H   0  0  0  0  0  0
  -29.6528  -13.4823   17.7497 H   0  0  0  0  0  0
  -27.8631  -11.2961   18.8598 H   0  0  0  0  0  0
  -27.3758  -12.5873   17.7945 H   0  0  0  0  0  0
  -27.6793  -14.2529   19.5350 H   0  0  0  0  0  0
  -28.7074  -12.0298   21.3682 H   0  0  0  0  0  0
  -28.4470  -13.6784   21.8547 H   0  0  0  0  0  0
  -25.2759   -9.5687   22.4754 H   0  0  0  0  0  0
  -24.0000   -7.4636   22.7473 H   0  0  0  0  0  0
  -21.0838   -8.8767   19.8952 H   0  0  0  0  0  0
  -22.3688  -10.9669   19.6161 H   0  0  0  0  0  0
  -21.2002   -7.6146   23.9713 H   0  0  0  0  0  0
  -21.1483   -6.0523   25.9077 H   0  0  0  0  0  0
  -22.0598   -2.7608   23.2845 H   0  0  0  0  0  0
  -22.4109  -11.9881   22.4786 H   0  0  0  0  0  0
  -21.1115  -13.1252   22.2614 H   0  0  0  0  0  0
  -24.6629  -15.8441   20.5193 H   0  0  0  0  0  0
  -26.2825  -15.6289   20.0897 H   0  0  0  0  0  0
  -26.7173  -32.5457   23.1111 H   0  0  0  0  0  0
  -25.0091  -33.9732   25.0447 H   0  0  0  0  0  0
  -22.7118  -31.3063   21.4055 H   0  0  0  0  0  0
  -23.3753  -35.9617   23.3304 H   0  0  0  0  0  0
  -24.3580  -36.8904   22.2052 H   0  0  0  0  0  0
  -23.7238  -37.6494   23.6654 H   0  0  0  0  0  0
  -26.0908  -31.5597   20.6072 H   0  0  0  0  0  0
  -26.8402  -30.8419   22.0023 H   0  0  0  0  0  0
  -28.1129  -28.9919   21.1880 H   0  0  0  0  0  0
  -25.9605  -25.9465   18.9868 H   0  0  0  0  0  0
  -23.9678  -27.3162   19.0102 H   0  0  0  0  0  0
  -23.7511  -30.6015   19.4055 H   0  0  0  0  0  0
  -22.7522  -29.2530   19.8578 H   0  0  0  0  0  0
  -25.1294  -36.1939   25.0826 H   0  0  0  0  0  0
  -20.9983  -28.3259   24.1406 H   0  0  0  0  0  0
  -20.5690  -26.2294   23.3608 H   0  0  0  0  0  0
  -21.6648  -26.7450   22.1195 H   0  0  0  0  0  0
  -19.6917  -25.6300   21.1239 H   0  0  0  0  0  0
  -19.6693  -27.3205   20.6748 H   0  0  0  0  0  0
  -17.4206  -26.6682   21.4023 H   0  0  0  0  0  0
  -18.0331  -26.0074   22.9022 H   0  0  0  0  0  0
  -19.7939  -30.7277   24.2264 H   0  0  0  0  0  0
  -17.5017  -31.6269   24.5169 H   0  0  0  0  0  0
  -15.5354  -30.2991   23.7658 H   0  0  0  0  0  0
  -15.8674  -28.0829   22.7062 H   0  0  0  0  0  0
  -24.5918  -30.7058   25.7784 H   0  0  0  0  0  0
  -24.8917  -32.2882   26.4871 H   0  0  0  0  0  0
  -25.8067  -30.8906   27.0229 H   0  0  0  0  0  0
  -26.2908  -29.6765   24.1197 H   0  0  0  0  0  0
  -27.4067  -29.7269   25.4650 H   0  0  0  0  0  0
  -27.8765  -30.4317   23.9366 H   0  0  0  0  0  0
  -27.2679  -33.3623   26.2062 H   0  0  0  0  0  0
  -28.3876  -32.6861   25.0323 H   0  0  0  0  0  0
  -28.0718  -31.8442   26.5417 H   0  0  0  0  0  0
  -28.2599  -38.0096   24.7514 H   0  0  0  0  0  0
  -28.1074  -36.2629   24.6295 H   0  0  0  0  0  0
  -27.2296  -37.1450   25.8871 H   0  0  0  0  0  0
  -20.9358  -29.8766   21.6895 H   0  0  0  0  0  0
  -26.0174  -38.2855   24.1412 H   0  0  0  0  0  0
  -30.3475  -19.7022   18.5229 H   0  0  0  0  0  0
  -29.5323  -19.9344   22.7258 H   0  0  0  0  0  0
  -30.1542  -17.6565   17.3703 H   0  0  0  0  0  0
  -29.6069  -16.1955   18.1756 H   0  0  0  0  0  0
  -31.3268  -16.6157   18.1735 H   0  0  0  0  0  0
  -29.3262  -18.0294   24.0517 H   0  0  0  0  0  0
  -30.2122  -16.6019   23.5258 H   0  0  0  0  0  0
  -28.4726  -16.7246   23.2304 H   0  0  0  0  0  0
  -30.9284  -21.8111   19.8491 H   0  0  0  0  0  0
  -30.5762  -21.8847   21.5427 H   0  0  0  0  0  0
  -29.6226  -24.2473   21.4186 H   0  0  0  0  0  0
  -30.1579  -24.2486   19.7596 H   0  0  0  0  0  0
  -27.2643  -24.7569   20.6252 H   0  0  0  0  0  0
  -27.8600  -24.8314   18.9813 H   0  0  0  0  0  0
  -28.9709  -15.3428   21.3415 H   0  0  0  0  0  0
  -28.2572  -22.3122   20.9527 H   0  0  0  0  0  0
  -28.6533  -22.3263   19.3802 H   0  0  0  0  0  0
  1 25  1  0  0  0
  1 30  2  0  0  0
  1 82  1  0  0  0
  2  3  1  0  0  0
  2 25  1  0  0  0
  2 84  1  0  0  0
  2 85  1  0  0  0
  3  4  1  0  0  0
  3 86  1  0  0  0
  3 87  1  0  0  0
  4  5  1  0  0  0
  4 88  1  0  0  0
  4 89  1  0  0  0
  5  6  1  0  0  0
  5 26  1  0  0  0
  5 90  1  0  0  0
  6 25  1  0  0  0
  6 91  1  0  0  0
  6 92  1  0  0  0
  7  8  2  0  0  0
  7 26  1  0  0  0
  7 29  1  0  0  0
  8  9  1  0  0  0
  8 22  1  0  0  0
  9 10  1  0  0  0
  9 27  2  0  0  0
 10 11  2  0  0  0
 10 15  1  0  0  0
 11 12  1  0  0  0
 11 93  1  0  0  0
 12 13  2  0  0  0
 12 94  1  0  0  0
 13 14  1  0  0  0
 13 31  1  0  0  0
 14 15  2  0  0  0
 14 95  1  0  0  0
 15 96  1  0  0  0
 16 17  2  0  0  0
 16 21  1  0  0  0
 16 31  1  0  0  0
 17 18  1  0  0  0
 17 97  1  0  0  0
 18 19  2  0  0  0
 18 98  1  0  0  0
 19 20  1  0  0  0
 19 24  1  0  0  0
 20 21  2  0  0  0
 20 99  1  0  0  0
 21 23  1  0  0  0
 22 28  1  0  0  0
 22 32  2  0  0  0
 26 27  1  0  0  0
 28100  1  0  0  0
 28101  1  0  0  0
 29102  1  0  0  0
 29103  1  0  0  0
 33 34  1  0  0  0
 33 66  1  0  0  0
 33 70  2  0  0  0
 34 36  1  0  0  0
 34 59  1  0  0  0
 34104  1  0  0  0
 35 44  2  0  0  0
 35 45  1  0  0  0
 35 68  1  0  0  0
 36 56  1  0  0  0
 36105  1  0  0  0
 37 39  1  0  0  0
 37 47  1  0  0  0
 37 66  1  0  0  0
 37106  1  0  0  0
 38 43  2  0  0  0
 38 46  1  0  0  0
 38 47  1  0  0  0
 39 64  1  0  0  0
 39 67  2  0  0  0
 40 52  1  0  0  0
 40 53  2  0  0  0
 40 58  1  0  0  0
 41107  1  0  0  0
 41108  1  0  0  0
 41109  1  0  0  0
 41 48  1  0  0  0
 42 43  1  0  0  0
 42 66  1  0  0  0
 42110  1  0  0  0
 42111  1  0  0  0
 43 44  1  0  0  0
 44112  1  0  0  0
 45 46  2  0  0  0
 45113  1  0  0  0
 46114  1  0  0  0
 47115  1  0  0  0
 47116  1  0  0  0
 48 56  1  0  0  0
 48 65  1  0  0  0
 48117  1  0  0  0
 49 50  1  0  0  0
 49 53  1  0  0  0
 49 64  1  0  0  0
 49118  1  0  0  0
 50 51  1  0  0  0
 50119  1  0  0  0
 50120  1  0  0  0
 51 52  1  0  0  0
 51121  1  0  0  0
 51122  1  0  0  0
 52123  1  0  0  0
 52124  1  0  0  0
 53 54  1  0  0  0
 54 55  2  0  0  0
 54125  1  0  0  0
 55 57  1  0  0  0
 55126  1  0  0  0
 56 69  2  0  0  0
 57 58  2  0  0  0
 57127  1  0  0  0
 58128  1  0  0  0
 59 60  1  0  0  0
 59 61  1  0  0  0
 59 62  1  0  0  0
 60129  1  0  0  0
 60130  1  0  0  0
 60131  1  0  0  0
 61132  1  0  0  0
 61133  1  0  0  0
 61134  1  0  0  0
 62135  1  0  0  0
 62136  1  0  0  0
 62137  1  0  0  0
 63 65  1  0  0  0
 63138  1  0  0  0
 63139  1  0  0  0
 63140  1  0  0  0
 64141  1  0  0  0
 65142  1  0  0  0
 68 81  1  0  0  0
 71 73  2  0  0  0
 71 74  1  0  0  0
 71143  1  0  0  0
 72 73  1  0  0  0
 72 75  2  0  0  0
 72144  1  0  0  0
 73 79  1  0  0  0
 74 76  2  0  0  0
 74 77  1  0  0  0
 75 76  1  0  0  0
 75 78  1  0  0  0
 76 82  1  0  0  0
 77145  1  0  0  0
 77146  1  0  0  0
 77147  1  0  0  0
 78148  1  0  0  0
 78149  1  0  0  0
 78150  1  0  0  0
 79 83  1  0  0  0
 79151  1  0  0  0
 79152  1  0  0  0
 80 81  1  0  0  0
 80 83  1  0  0  0
 80153  1  0  0  0
 80154  1  0  0  0
 81155  1  0  0  0
 81156  1  0  0  0
 82157  1  0  0  0
 83158  1  0  0  0
 83159  1  0  0  0
M  CHG  1  83   1
M  ISO  4   1 100  68 101  81 101  82 100
M  END
> <chiral flag>
0

> <version>
0

> <s_m_source_file>
/data/baiqing/PycharmProjects/Reinvent-master-3.2/result/LINK_invent/BTK/process_docking_weight1_custom_product_contain_oxygen_bond_distance_aromatic_linkinvent_7_9_3/rearranged_h_0039.sdf

> <i_m_source_file_index>
82

> <r_mmod_Potential_Energy-OPLS-2005>
-166.31999206543

> <r_mmod_Stretch_Energy-OPLS-2005>
75.2281188964844

> <r_mmod_Bend_Energy-OPLS-2005>
128.927856445312

> <r_mmod_Torsional_Energy-OPLS-2005>
220.764434814453

> <r_mmod_Improper_Torsional_Energy-OPLS-2005>
4.67000961303711

> <r_mmod_Van_der_Waal_Energy-OPLS-2005>
143.268188476562

> <r_mmod_Electrostatic_Energy-OPLS-2005>
-322.354858398438

> <r_mmod_Solvation_Energy-OPLS-2005>
-460.311798095703

> <b_mmod_Minimization_Converged-OPLS-2005>
0

> <r_mmod_RMS_Derivative-OPLS-2005>
0.393289923667908

$$$$
83
                    3D
 Structure written by MMmdl.
170179  0  0  1  0            999 V2000
  -30.6404  -14.7122   20.4590 C   0  0  0  0  0  0
  -30.4217  -12.4313   19.4753 C   0  0  0  0  0  0
  -29.5054  -12.4992   18.2354 C   0  0  0  0  0  0
  -28.0311  -12.3314   18.6487 C   0  0  0  0  0  0
  -27.6404  -13.2327   19.8507 C   0  0  2  0  0  0
  -28.6846  -13.1672   20.9871 C   0  0  0  0  0  0
  -25.2493  -13.8192   20.5684 C   0  0  0  0  0  0
  -24.1795  -13.0440   20.9222 C   0  0  0  0  0  0
  -24.6389  -11.6921   20.8757 C   0  0  0  0  0  0
  -23.9069  -10.4293   21.0411 C   0  0  0  0  0  0
  -24.3621   -9.4205   21.9187 C   0  0  0  0  0  0
  -23.6293   -8.2243   22.0754 C   0  0  0  0  0  0
  -22.4276   -8.0282   21.3543 C   0  0  0  0  0  0
  -21.9915   -9.0255   20.4647 C   0  0  0  0  0  0
  -22.7243  -10.2133   20.3057 C   0  0  0  0  0  0
  -21.6854   -6.0735   22.5278 C   0  0  0  0  0  0
  -21.4016   -6.5640   23.8211 C   0  0  0  0  0  0
  -21.3658   -5.6792   24.9176 C   0  0  0  0  0  0
  -21.6044   -4.3053   24.7225 C   0  0  0  0  0  0
  -21.8821   -3.8145   23.4345 C   0  0  0  0  0  0
  -21.9193   -4.6964   22.3401 C   0  0  0  0  0  0
  -22.7817  -13.5220   21.1875 C   0  0  0  0  0  0
  -22.1662   -4.2147   21.0978 F   0  0  0  0  0  0
  -21.5629   -3.4538   25.7737 F   0  0  0  0  0  0
  -29.9894  -13.5016   20.4041 N   0  0  0  0  0  0
  -26.2925  -12.9409   20.3281 N   0  0  0  0  0  0
  -25.9318  -11.6551   20.5768 N   0  0  0  0  0  0
  -22.0461  -12.8207   22.0426 N   0  0  0  0  0  0
  -25.4159  -15.1911   20.4042 N   0  0  0  0  0  0
  -31.8276  -14.7594   20.1301 O   0  0  0  0  0  0
  -21.6642   -6.8876   21.4240 O   0  0  0  0  0  0
  -22.3505  -14.5525   20.6719 O   0  0  0  0  0  0
  -24.6273  -31.8565   23.1989 C   0  0  0  0  0  0
  -25.9106  -32.4758   23.8333 C   0  0  1  0  0  0
  -27.2174  -27.2864   20.1376 C   0  0  0  0  0  0
  -25.5914  -33.8561   24.2258 N   0  0  0  0  0  0
  -23.4234  -30.4784   21.5404 C   0  0  2  0  0  0
  -24.8716  -28.9260   20.1072 C   0  0  0  0  0  0
  -22.7486  -29.4610   22.4915 C   0  0  0  0  0  0
  -18.0290  -28.1379   22.8491 C   0  0  0  0  0  0
  -24.1486  -36.7287   23.2643 C   0  0  0  0  0  0
  -25.9656  -30.7780   21.3739 C   0  0  0  0  0  0
  -26.0394  -29.4016   20.7188 C   0  0  0  0  0  0
  -27.2176  -28.5940   20.7217 C   0  0  0  0  0  0
  -26.0385  -26.8750   19.4832 C   0  0  0  0  0  0
  -24.8749  -27.6703   19.4775 C   0  0  0  0  0  0
  -23.6398  -29.8097   20.1564 C   0  0  0  0  0  0
  -25.4112  -36.3075   24.0332 C   0  0  1  0  0  0
  -20.5892  -28.3687   23.1279 C   0  0  2  0  0  0
  -20.6782  -26.9406   22.5415 C   0  0  0  0  0  0
  -19.5758  -26.6376   21.5217 C   0  0  0  0  0  0
  -18.1934  -26.7927   22.1618 C   0  0  0  0  0  0
  -19.1544  -28.8849   23.2882 C   0  0  0  0  0  0
  -18.9465  -30.1453   23.8895 C   0  0  0  0  0  0
  -17.6466  -30.6585   24.0561 C   0  0  0  0  0  0
  -25.9050  -34.9444   23.5097 C   0  0  0  0  0  0
  -16.5358  -29.9086   23.6328 C   0  0  0  0  0  0
  -16.7276  -28.6500   23.0357 C   0  0  0  0  0  0
  -26.4488  -31.6580   25.0713 C   0  0  0  0  0  0
  -25.3715  -31.3726   26.1439 C   0  0  0  0  0  0
  -27.0339  -30.3003   24.6179 C   0  0  0  0  0  0
  -27.6049  -32.4317   25.7484 C   0  0  0  0  0  0
  -27.5577  -37.1802   24.8467 C   0  0  0  0  0  0
  -21.4195  -29.3041   22.3671 N   0  0  0  0  0  0
  -26.4290  -37.3775   23.9412 N   0  0  0  0  0  0
  -24.6908  -31.0556   22.0943 N   0  0  0  0  0  0
  -23.4205  -28.8152   23.3000 O   0  0  0  0  0  0
  -28.3113  -26.4006   20.1922 O   0  0  0  0  0  0
  -26.5630  -34.8923   22.4671 O   0  0  0  0  0  0
  -23.5429  -32.1374   23.7300 O   0  0  0  0  0  0
  -31.0963  -20.0544   20.1945 C   0  0  0  0  0  0
  -31.6273  -17.6885   20.5230 C   0  0  0  0  0  0
  -29.7106  -19.8139   20.2847 C   0  0  0  0  0  0
  -29.3045  -18.4183   20.4695 C   0  0  0  0  0  0
  -30.2613  -17.3133   20.5544 C   0  0  0  0  0  0
  -32.0355  -19.0208   20.3394 C   0  0  0  0  0  0
  -28.7323  -22.3448   22.1901 C   0  0  0  0  0  0
  -29.7045  -22.1744   23.1061 C   0  0  0  0  0  0
  -27.2624  -22.5190   22.5206 C   0  0  0  0  0  0
  -26.9931  -23.9629   22.9583 C   0  0  0  0  0  0
  -26.9651  -24.9824   21.8064 C   0  0  0  0  0  0
  -28.4149  -23.6918   20.0391 C   0  0  0  0  0  0
  -28.2247  -25.0626   20.8897 C   0  0  1  0  0  0
  -27.8185  -18.1040   20.5395 C   0  0  0  0  0  0
  -31.1930  -22.0534   22.8521 C   0  0  0  0  0  0
  -28.7538  -21.0698   20.0229 C   0  0  0  0  0  0
  -29.8963  -15.8692   20.6729 N   0  0  0  0  0  0
  -28.9895  -22.4234   20.7236 N   0  3  2  0  0  0
  -33.7194  -19.3921   20.2654 Cl  0  0  0  0  0  0
  -31.4654  -12.5318   19.1742 H   0  0  0  0  0  0
  -30.3465  -11.4560   19.9582 H   0  0  0  0  0  0
  -29.7826  -11.7264   17.5169 H   0  0  0  0  0  0
  -29.6406  -13.4551   17.7265 H   0  0  0  0  0  0
  -27.8841  -11.2829   18.9108 H   0  0  0  0  0  0
  -27.3749  -12.5259   17.7992 H   0  0  0  0  0  0
  -27.6360  -14.2540   19.4694 H   0  0  0  0  0  0
  -28.7113  -12.1725   21.4350 H   0  0  0  0  0  0
  -28.4257  -13.8578   21.7910 H   0  0  0  0  0  0
  -25.2764   -9.5684   22.4764 H   0  0  0  0  0  0
  -24.0001   -7.4635   22.7472 H   0  0  0  0  0  0
  -21.0847   -8.8774   19.8951 H   0  0  0  0  0  0
  -22.3700  -10.9675   19.6166 H   0  0  0  0  0  0
  -21.2008   -7.6148   23.9714 H   0  0  0  0  0  0
  -21.1480   -6.0522   25.9076 H   0  0  0  0  0  0
  -22.0599   -2.7607   23.2847 H   0  0  0  0  0  0
  -22.4083  -11.9869   22.4810 H   0  0  0  0  0  0
  -21.1078  -13.1226   22.2628 H   0  0  0  0  0  0
  -24.6374  -15.8347   20.4941 H   0  0  0  0  0  0
  -26.2373  -15.6176   19.9986 H   0  0  0  0  0  0
  -26.7172  -32.5417   23.1081 H   0  0  0  0  0  0
  -25.0071  -33.9701   25.0409 H   0  0  0  0  0  0
  -22.7182  -31.2996   21.3947 H   0  0  0  0  0  0
  -23.3751  -35.9615   23.3306 H   0  0  0  0  0  0
  -24.3586  -36.8903   22.2059 H   0  0  0  0  0  0
  -23.7234  -37.6488   23.6663 H   0  0  0  0  0  0
  -26.1007  -31.5380   20.6031 H   0  0  0  0  0  0
  -26.8455  -30.8283   22.0046 H   0  0  0  0  0  0
  -28.1105  -28.9529   21.2139 H   0  0  0  0  0  0
  -26.0054  -25.9082   19.0010 H   0  0  0  0  0  0
  -23.9812  -27.3033   18.9911 H   0  0  0  0  0  0
  -23.7599  -30.5850   19.3990 H   0  0  0  0  0  0
  -22.7591  -29.2401   19.8534 H   0  0  0  0  0  0
  -25.1295  -36.1928   25.0824 H   0  0  0  0  0  0
  -20.9990  -28.3256   24.1397 H   0  0  0  0  0  0
  -20.5673  -26.2297   23.3618 H   0  0  0  0  0  0
  -21.6653  -26.7428   22.1214 H   0  0  0  0  0  0
  -19.6920  -25.6285   21.1244 H   0  0  0  0  0  0
  -19.6697  -27.3194   20.6753 H   0  0  0  0  0  0
  -17.4211  -26.6684   21.4014 H   0  0  0  0  0  0
  -18.0322  -26.0068   22.9005 H   0  0  0  0  0  0
  -19.7943  -30.7273   24.2261 H   0  0  0  0  0  0
  -17.5020  -31.6268   24.5163 H   0  0  0  0  0  0
  -15.5357  -30.2989   23.7655 H   0  0  0  0  0  0
  -15.8676  -28.0817   22.7078 H   0  0  0  0  0  0
  -24.5910  -30.7044   25.7782 H   0  0  0  0  0  0
  -24.8884  -32.2891   26.4829 H   0  0  0  0  0  0
  -25.8043  -30.8945   27.0233 H   0  0  0  0  0  0
  -26.2921  -29.6750   24.1197 H   0  0  0  0  0  0
  -27.4038  -29.7261   25.4682 H   0  0  0  0  0  0
  -27.8785  -30.4302   23.9411 H   0  0  0  0  0  0
  -27.2664  -33.3632   26.2036 H   0  0  0  0  0  0
  -28.3874  -32.6845   25.0315 H   0  0  0  0  0  0
  -28.0696  -31.8449   26.5419 H   0  0  0  0  0  0
  -28.2602  -38.0093   24.7518 H   0  0  0  0  0  0
  -28.1066  -36.2629   24.6288 H   0  0  0  0  0  0
  -27.2301  -37.1445   25.8872 H   0  0  0  0  0  0
  -20.9367  -29.8759   21.6883 H   0  0  0  0  0  0
  -26.0167  -38.2847   24.1409 H   0  0  0  0  0  0
  -31.4681  -21.0495   20.0013 H   0  0  0  0  0  0
  -32.4163  -16.9623   20.6253 H   0  0  0  0  0  0
  -29.4154  -22.1094   24.1462 H   0  0  0  0  0  0
  -27.0190  -21.8394   23.3387 H   0  0  0  0  0  0
  -26.6115  -22.2334   21.6932 H   0  0  0  0  0  0
  -27.7265  -24.2694   23.7059 H   0  0  0  0  0  0
  -26.0294  -23.9992   23.4684 H   0  0  0  0  0  0
  -26.7974  -25.9499   22.2807 H   0  0  0  0  0  0
  -26.0831  -24.7867   21.1969 H   0  0  0  0  0  0
  -29.0752  -23.9078   19.1990 H   0  0  0  0  0  0
  -27.4557  -23.4391   19.5870 H   0  0  0  0  0  0
  -29.0859  -25.1156   21.5563 H   0  0  0  0  0  0
  -27.3213  -18.7571   21.2567 H   0  0  0  0  0  0
  -27.6223  -17.0833   20.8627 H   0  0  0  0  0  0
  -27.3533  -18.2428   19.5632 H   0  0  0  0  0  0
  -31.4772  -22.3831   21.8548 H   0  0  0  0  0  0
  -31.5189  -21.0219   22.9926 H   0  0  0  0  0  0
  -31.7344  -22.6744   23.5656 H   0  0  0  0  0  0
  -27.7188  -20.7790   20.1929 H   0  0  0  0  0  0
  -28.8123  -21.2575   18.9510 H   0  0  0  0  0  0
  -28.9226  -15.6881   20.8579 H   0  0  0  0  0  0
  -29.9841  -22.5633   20.6359 H   0  0  0  0  0  0
  1 25  1  0  0  0
  1 30  2  0  0  0
  1 87  1  0  0  0
  2  3  1  0  0  0
  2 25  1  0  0  0
  2 90  1  0  0  0
  2 91  1  0  0  0
  3  4  1  0  0  0
  3 92  1  0  0  0
  3 93  1  0  0  0
  4  5  1  0  0  0
  4 94  1  0  0  0
  4 95  1  0  0  0
  5  6  1  0  0  0
  5 26  1  0  0  0
  5 96  1  0  0  0
  6 25  1  0  0  0
  6 97  1  0  0  0
  6 98  1  0  0  0
  7  8  2  0  0  0
  7 26  1  0  0  0
  7 29  1  0  0  0
  8  9  1  0  0  0
  8 22  1  0  0  0
  9 10  1  0  0  0
  9 27  2  0  0  0
 10 11  2  0  0  0
 10 15  1  0  0  0
 11 12  1  0  0  0
 11 99  1  0  0  0
 12 13  2  0  0  0
 12100  1  0  0  0
 13 14  1  0  0  0
 13 31  1  0  0  0
 14 15  2  0  0  0
 14101  1  0  0  0
 15102  1  0  0  0
 16 17  2  0  0  0
 16 21  1  0  0  0
 16 31  1  0  0  0
 17 18  1  0  0  0
 17103  1  0  0  0
 18 19  2  0  0  0
 18104  1  0  0  0
 19 20  1  0  0  0
 19 24  1  0  0  0
 20 21  2  0  0  0
 20105  1  0  0  0
 21 23  1  0  0  0
 22 28  1  0  0  0
 22 32  2  0  0  0
 26 27  1  0  0  0
 28106  1  0  0  0
 28107  1  0  0  0
 29108  1  0  0  0
 29109  1  0  0  0
 33 34  1  0  0  0
 33 66  1  0  0  0
 33 70  2  0  0  0
 34 36  1  0  0  0
 34 59  1  0  0  0
 34110  1  0  0  0
 35 44  2  0  0  0
 35 45  1  0  0  0
 35 68  1  0  0  0
 36 56  1  0  0  0
 36111  1  0  0  0
 37 39  1  0  0  0
 37 47  1  0  0  0
 37 66  1  0  0  0
 37112  1  0  0  0
 38 43  2  0  0  0
 38 46  1  0  0  0
 38 47  1  0  0  0
 39 64  1  0  0  0
 39 67  2  0  0  0
 40 52  1  0  0  0
 40 53  2  0  0  0
 40 58  1  0  0  0
 41113  1  0  0  0
 41114  1  0  0  0
 41115  1  0  0  0
 41 48  1  0  0  0
 42 43  1  0  0  0
 42 66  1  0  0  0
 42116  1  0  0  0
 42117  1  0  0  0
 43 44  1  0  0  0
 44118  1  0  0  0
 45 46  2  0  0  0
 45119  1  0  0  0
 46120  1  0  0  0
 47121  1  0  0  0
 47122  1  0  0  0
 48 56  1  0  0  0
 48 65  1  0  0  0
 48123  1  0  0  0
 49 50  1  0  0  0
 49 53  1  0  0  0
 49 64  1  0  0  0
 49124  1  0  0  0
 50 51  1  0  0  0
 50125  1  0  0  0
 50126  1  0  0  0
 51 52  1  0  0  0
 51127  1  0  0  0
 51128  1  0  0  0
 52129  1  0  0  0
 52130  1  0  0  0
 53 54  1  0  0  0
 54 55  2  0  0  0
 54131  1  0  0  0
 55 57  1  0  0  0
 55132  1  0  0  0
 56 69  2  0  0  0
 57 58  2  0  0  0
 57133  1  0  0  0
 58134  1  0  0  0
 59 60  1  0  0  0
 59 61  1  0  0  0
 59 62  1  0  0  0
 60135  1  0  0  0
 60136  1  0  0  0
 60137  1  0  0  0
 61138  1  0  0  0
 61139  1  0  0  0
 61140  1  0  0  0
 62141  1  0  0  0
 62142  1  0  0  0
 62143  1  0  0  0
 63 65  1  0  0  0
 63144  1  0  0  0
 63145  1  0  0  0
 63146  1  0  0  0
 64147  1  0  0  0
 65148  1  0  0  0
 68 83  1  0  0  0
 71 73  2  0  0  0
 71 76  1  0  0  0
 71149  1  0  0  0
 72 75  1  0  0  0
 72 76  2  0  0  0
 72150  1  0  0  0
 73 74  1  0  0  0
 73 86  1  0  0  0
 74 75  2  0  0  0
 74 84  1  0  0  0
 75 87  1  0  0  0
 76 89  1  0  0  0
 77 78  2  0  0  0
 77 79  1  0  0  0
 77 88  1  0  0  0
 78 85  1  0  0  0
 78151  1  0  0  0
 79 80  1  0  0  0
 79152  1  0  0  0
 79153  1  0  0  0
 80 81  1  0  0  0
 80154  1  0  0  0
 80155  1  0  0  0
 81 83  1  0  0  0
 81156  1  0  0  0
 81157  1  0  0  0
 82 83  1  0  0  0
 82 88  1  0  0  0
 82158  1  0  0  0
 82159  1  0  0  0
 83160  1  0  0  0
 84161  1  0  0  0
 84162  1  0  0  0
 84163  1  0  0  0
 85164  1  0  0  0
 85165  1  0  0  0
 85166  1  0  0  0
 86167  1  0  0  0
 86168  1  0  0  0
 86 88  1  0  0  0
 87169  1  0  0  0
 88170  1  0  0  0
M  CHG  1  88   1
M  ISO  4   1 100  68 101  83 101  87 100
M  END
> <chiral flag>
0

> <version>
0

> <s_m_source_file>
/data/baiqing/PycharmProjects/Reinvent-master-3.2/result/LINK_invent/BTK/process_docking_weight1_custom_product_contain_oxygen_bond_distance_aromatic_linkinvent_7_9_3/rearranged_h_0039.sdf

> <i_m_source_file_index>
83

> <r_mmod_Potential_Energy-OPLS-2005>
97.4219970703125

> <r_mmod_Stretch_Energy-OPLS-2005>
130.55322265625

> <r_mmod_Bend_Energy-OPLS-2005>
178.277954101562

> <r_mmod_Torsional_Energy-OPLS-2005>
259.853149414062

> <r_mmod_Improper_Torsional_Energy-OPLS-2005>
5.6190824508667

> <r_mmod_Van_der_Waal_Energy-OPLS-2005>
138.230850219727

> <r_mmod_Electrostatic_Energy-OPLS-2005>
-264.17138671875

> <r_mmod_Solvation_Energy-OPLS-2005>
-423.848602294922

> <b_mmod_Minimization_Converged-OPLS-2005>
0

> <r_mmod_RMS_Derivative-OPLS-2005>
0.977145612239838

$$$$
84
                    3D
 Structure written by MMmdl.
160168  0  0  1  0            999 V2000
  -30.6552  -14.5422   20.5537 C   0  0  0  0  0  0
  -30.4313  -12.3502   19.4190 C   0  0  0  0  0  0
  -29.4930  -12.5003   18.2025 C   0  0  0  0  0  0
  -28.0150  -12.3528   18.6193 C   0  0  0  0  0  0
  -27.6532  -13.2076   19.8630 C   0  0  2  0  0  0
  -28.6976  -13.0134   20.9831 C   0  0  0  0  0  0
  -25.2561  -13.8158   20.5686 C   0  0  0  0  0  0
  -24.1823  -13.0428   20.9196 C   0  0  0  0  0  0
  -24.6379  -11.6899   20.8738 C   0  0  0  0  0  0
  -23.9055  -10.4288   21.0409 C   0  0  0  0  0  0
  -24.3614   -9.4208   21.9184 C   0  0  0  0  0  0
  -23.6294   -8.2240   22.0750 C   0  0  0  0  0  0
  -22.4274   -8.0279   21.3541 C   0  0  0  0  0  0
  -21.9910   -9.0253   20.4642 C   0  0  0  0  0  0
  -22.7234  -10.2134   20.3057 C   0  0  0  0  0  0
  -21.6849   -6.0744   22.5281 C   0  0  0  0  0  0
  -21.4007   -6.5646   23.8217 C   0  0  0  0  0  0
  -21.3655   -5.6795   24.9177 C   0  0  0  0  0  0
  -21.6044   -4.3058   24.7224 C   0  0  0  0  0  0
  -21.8821   -3.8154   23.4343 C   0  0  0  0  0  0
  -21.9194   -4.6973   22.3401 C   0  0  0  0  0  0
  -22.7851  -13.5229   21.1874 C   0  0  0  0  0  0
  -22.1666   -4.2163   21.0979 F   0  0  0  0  0  0
  -21.5629   -3.4539   25.7736 F   0  0  0  0  0  0
  -30.0167  -13.3453   20.4204 N   0  0  0  0  0  0
  -26.2977  -12.9321   20.3317 N   0  0  0  0  0  0
  -25.9298  -11.6483   20.5745 N   0  0  0  0  0  0
  -22.0501  -12.8209   22.0427 N   0  0  0  0  0  0
  -25.4264  -15.1881   20.4111 N   0  0  0  0  0  0
  -31.8140  -14.7238   20.1710 O   0  0  0  0  0  0
  -21.6634   -6.8883   21.4243 O   0  0  0  0  0  0
  -22.3537  -14.5541   20.6735 O   0  0  0  0  0  0
  -24.6196  -31.8642   23.2056 C   0  0  0  0  0  0
  -25.9073  -32.4796   23.8365 C   0  0  1  0  0  0
  -27.2349  -27.3809   20.1134 C   0  0  0  0  0  0
  -25.5928  -33.8589   24.2299 N   0  0  0  0  0  0
  -23.4099  -30.4866   21.5460 C   0  0  2  0  0  0
  -24.8577  -28.9370   20.1218 C   0  0  0  0  0  0
  -22.7421  -29.4665   22.4964 C   0  0  0  0  0  0
  -18.0276  -28.1379   22.8488 C   0  0  0  0  0  0
  -24.1474  -36.7293   23.2642 C   0  0  0  0  0  0
  -25.9440  -30.8112   21.3674 C   0  0  0  0  0  0
  -26.0218  -29.4399   20.7180 C   0  0  0  0  0  0
  -27.2158  -28.6732   20.7028 C   0  0  0  0  0  0
  -26.0521  -26.9003   19.5164 C   0  0  0  0  0  0
  -24.8699  -27.6677   19.5185 C   0  0  0  0  0  0
  -23.6223  -29.8115   20.1648 C   0  0  0  0  0  0
  -25.4101  -36.3088   24.0332 C   0  0  1  0  0  0
  -20.5867  -28.3698   23.1289 C   0  0  2  0  0  0
  -20.6772  -26.9429   22.5404 C   0  0  0  0  0  0
  -19.5752  -26.6395   21.5203 C   0  0  0  0  0  0
  -18.1929  -26.7928   22.1616 C   0  0  0  0  0  0
  -19.1525  -28.8853   23.2886 C   0  0  0  0  0  0
  -18.9452  -30.1453   23.8909 C   0  0  0  0  0  0
  -17.6458  -30.6592   24.0566 C   0  0  0  0  0  0
  -25.9049  -34.9458   23.5112 C   0  0  0  0  0  0
  -16.5346  -29.9095   23.6325 C   0  0  0  0  0  0
  -16.7266  -28.6502   23.0355 C   0  0  0  0  0  0
  -26.4488  -31.6604   25.0720 C   0  0  0  0  0  0
  -25.3738  -31.3729   26.1460 C   0  0  0  0  0  0
  -27.0359  -30.3039   24.6170 C   0  0  0  0  0  0
  -27.6048  -32.4357   25.7483 C   0  0  0  0  0  0
  -27.5572  -37.1789   24.8469 C   0  0  0  0  0  0
  -21.4142  -29.3059   22.3686 N   0  0  0  0  0  0
  -26.4284  -37.3783   23.9419 N   0  0  0  0  0  0
  -24.6759  -31.0708   22.0971 N   0  0  0  0  0  0
  -23.4159  -28.8208   23.3034 O   0  0  0  0  0  0
  -28.3906  -26.6168   20.0591 O   0  0  0  0  0  0
  -26.5612  -34.8925   22.4673 O   0  0  0  0  0  0
  -23.5380  -32.1425   23.7428 O   0  0  0  0  0  0
  -29.3288  -19.2230   20.7356 C   0  0  0  0  0  0
  -31.0436  -18.1473   19.3921 C   0  0  0  0  0  0
  -30.1792  -18.1015   20.4993 C   0  0  0  0  0  0
  -29.3559  -20.3880   19.9063 C   0  0  0  0  0  0
  -30.2818  -20.4152   18.8260 C   0  0  0  0  0  0
  -31.1017  -19.2860   18.5677 C   0  0  0  0  0  0
  -28.3358  -24.0571   20.0569 C   0  0  0  0  0  0
  -30.3853  -21.6267   17.9077 C   0  0  0  0  0  0
  -29.4425  -22.8099   21.8978 C   0  0  0  0  0  0
  -30.2754  -16.9059   21.4733 C   0  0  0  0  0  0
  -28.3056  -21.5229   20.1020 C   0  0  0  0  0  0
  -28.4453  -25.4000   20.8626 C   0  0  0  0  0  0
  -29.8818  -15.5581   21.0055 N   0  0  0  0  0  0
  -28.7202  -22.8631   20.6243 N   0  0  0  0  0  0
  -27.8480  -24.0992   18.9233 O   0  0  0  0  0  0
  -32.2014  -19.2577   17.2329 Cl  0  0  0  0  0  0
  -31.4705  -12.4796   19.1116 H   0  0  0  0  0  0
  -30.3639  -11.3448   19.8369 H   0  0  0  0  0  0
  -29.7398  -11.7579   17.4424 H   0  0  0  0  0  0
  -29.6451  -13.4753   17.7370 H   0  0  0  0  0  0
  -27.8347  -11.2982   18.8312 H   0  0  0  0  0  0
  -27.3604  -12.6083   17.7856 H   0  0  0  0  0  0
  -27.6857  -14.2504   19.5457 H   0  0  0  0  0  0
  -28.6942  -11.9797   21.3316 H   0  0  0  0  0  0
  -28.4516  -13.6173   21.8580 H   0  0  0  0  0  0
  -25.2761   -9.5686   22.4758 H   0  0  0  0  0  0
  -24.0010   -7.4629   22.7460 H   0  0  0  0  0  0
  -21.0847   -8.8767   19.8943 H   0  0  0  0  0  0
  -22.3692  -10.9675   19.6167 H   0  0  0  0  0  0
  -21.1992   -7.6152   23.9725 H   0  0  0  0  0  0
  -21.1475   -6.0522   25.9082 H   0  0  0  0  0  0
  -22.0603   -2.7618   23.2837 H   0  0  0  0  0  0
  -22.4115  -11.9858   22.4791 H   0  0  0  0  0  0
  -21.1124  -13.1236   22.2662 H   0  0  0  0  0  0
  -24.6549  -15.8378   20.5211 H   0  0  0  0  0  0
  -26.2712  -15.6323   20.0744 H   0  0  0  0  0  0
  -26.7131  -32.5490   23.1115 H   0  0  0  0  0  0
  -25.0082  -33.9735   25.0449 H   0  0  0  0  0  0
  -22.7012  -31.3042   21.3997 H   0  0  0  0  0  0
  -23.3741  -35.9623   23.3308 H   0  0  0  0  0  0
  -24.3555  -36.8919   22.2057 H   0  0  0  0  0  0
  -23.7219  -37.6490   23.6667 H   0  0  0  0  0  0
  -26.0666  -31.5710   20.5942 H   0  0  0  0  0  0
  -26.8266  -30.8624   21.9934 H   0  0  0  0  0  0
  -28.1181  -29.0641   21.1520 H   0  0  0  0  0  0
  -26.0431  -25.9322   19.0367 H   0  0  0  0  0  0
  -23.9773  -27.2729   19.0531 H   0  0  0  0  0  0
  -23.7346  -30.5823   19.4017 H   0  0  0  0  0  0
  -22.7433  -29.2350   19.8713 H   0  0  0  0  0  0
  -25.1270  -36.1943   25.0824 H   0  0  0  0  0  0
  -20.9955  -28.3289   24.1412 H   0  0  0  0  0  0
  -20.5697  -26.2310   23.3602 H   0  0  0  0  0  0
  -21.6641  -26.7484   22.1185 H   0  0  0  0  0  0
  -19.6925  -25.6307   21.1238 H   0  0  0  0  0  0
  -19.6689  -27.3199   20.6727 H   0  0  0  0  0  0
  -17.4196  -26.6681   21.4020 H   0  0  0  0  0  0
  -18.0331  -26.0059   22.9003 H   0  0  0  0  0  0
  -19.7934  -30.7249   24.2301 H   0  0  0  0  0  0
  -17.5021  -31.6273   24.5170 H   0  0  0  0  0  0
  -15.5352  -30.2999   23.7659 H   0  0  0  0  0  0
  -15.8659  -28.0829   22.7076 H   0  0  0  0  0  0
  -24.5880  -30.7124   25.7784 H   0  0  0  0  0  0
  -24.8962  -32.2894   26.4936 H   0  0  0  0  0  0
  -25.8059  -30.8857   27.0211 H   0  0  0  0  0  0
  -26.2933  -29.6737   24.1265 H   0  0  0  0  0  0
  -27.4150  -29.7352   25.4676 H   0  0  0  0  0  0
  -27.8754  -30.4338   23.9329 H   0  0  0  0  0  0
  -27.2660  -33.3667   26.2048 H   0  0  0  0  0  0
  -28.3861  -32.6923   25.0313 H   0  0  0  0  0  0
  -28.0722  -31.8502   26.5415 H   0  0  0  0  0  0
  -28.2592  -38.0087   24.7528 H   0  0  0  0  0  0
  -28.1066  -36.2618   24.6277 H   0  0  0  0  0  0
  -27.2291  -37.1423   25.8873 H   0  0  0  0  0  0
  -20.9319  -29.8756   21.6872 H   0  0  0  0  0  0
  -26.0167  -38.2863   24.1422 H   0  0  0  0  0  0
  -28.6433  -19.1886   21.5716 H   0  0  0  0  0  0
  -31.7014  -17.3147   19.1885 H   0  0  0  0  0  0
  -29.7334  -21.5073   17.0431 H   0  0  0  0  0  0
  -31.4045  -21.7695   17.5504 H   0  0  0  0  0  0
  -30.1241  -22.5537   18.4084 H   0  0  0  0  0  0
  -30.4532  -23.2006   21.7751 H   0  0  0  0  0  0
  -29.5334  -21.7909   22.2757 H   0  0  0  0  0  0
  -28.9372  -23.3869   22.6724 H   0  0  0  0  0  0
  -29.6675  -17.1293   22.3507 H   0  0  0  0  0  0
  -31.3014  -16.8592   21.8433 H   0  0  0  0  0  0
  -27.5317  -21.1528   20.7764 H   0  0  0  0  0  0
  -27.7890  -21.6305   19.1477 H   0  0  0  0  0  0
  -29.4054  -25.4252   21.3769 H   0  0  0  0  0  0
  -27.6787  -25.4099   21.6386 H   0  0  0  0  0  0
  -28.9277  -15.2999   21.2043 H   0  0  0  0  0  0
  1 25  1  0  0  0
  1 30  2  0  0  0
  1 83  1  0  0  0
  2  3  1  0  0  0
  2 25  1  0  0  0
  2 87  1  0  0  0
  2 88  1  0  0  0
  3  4  1  0  0  0
  3 89  1  0  0  0
  3 90  1  0  0  0
  4  5  1  0  0  0
  4 91  1  0  0  0
  4 92  1  0  0  0
  5  6  1  0  0  0
  5 26  1  0  0  0
  5 93  1  0  0  0
  6 25  1  0  0  0
  6 94  1  0  0  0
  6 95  1  0  0  0
  7  8  2  0  0  0
  7 26  1  0  0  0
  7 29  1  0  0  0
  8  9  1  0  0  0
  8 22  1  0  0  0
  9 10  1  0  0  0
  9 27  2  0  0  0
 10 11  2  0  0  0
 10 15  1  0  0  0
 11 12  1  0  0  0
 11 96  1  0  0  0
 12 13  2  0  0  0
 12 97  1  0  0  0
 13 14  1  0  0  0
 13 31  1  0  0  0
 14 15  2  0  0  0
 14 98  1  0  0  0
 15 99  1  0  0  0
 16 17  2  0  0  0
 16 21  1  0  0  0
 16 31  1  0  0  0
 17 18  1  0  0  0
 17100  1  0  0  0
 18 19  2  0  0  0
 18101  1  0  0  0
 19 20  1  0  0  0
 19 24  1  0  0  0
 20 21  2  0  0  0
 20102  1  0  0  0
 21 23  1  0  0  0
 22 28  1  0  0  0
 22 32  2  0  0  0
 26 27  1  0  0  0
 28103  1  0  0  0
 28104  1  0  0  0
 29105  1  0  0  0
 29106  1  0  0  0
 33 34  1  0  0  0
 33 66  1  0  0  0
 33 70  2  0  0  0
 34 36  1  0  0  0
 34 59  1  0  0  0
 34107  1  0  0  0
 35 44  2  0  0  0
 35 45  1  0  0  0
 35 68  1  0  0  0
 36 56  1  0  0  0
 36108  1  0  0  0
 37 39  1  0  0  0
 37 47  1  0  0  0
 37 66  1  0  0  0
 37109  1  0  0  0
 38 43  2  0  0  0
 38 46  1  0  0  0
 38 47  1  0  0  0
 39 64  1  0  0  0
 39 67  2  0  0  0
 40 52  1  0  0  0
 40 53  2  0  0  0
 40 58  1  0  0  0
 41110  1  0  0  0
 41111  1  0  0  0
 41112  1  0  0  0
 41 48  1  0  0  0
 42 43  1  0  0  0
 42 66  1  0  0  0
 42113  1  0  0  0
 42114  1  0  0  0
 43 44  1  0  0  0
 44115  1  0  0  0
 45 46  2  0  0  0
 45116  1  0  0  0
 46117  1  0  0  0
 47118  1  0  0  0
 47119  1  0  0  0
 48 56  1  0  0  0
 48 65  1  0  0  0
 48120  1  0  0  0
 49 50  1  0  0  0
 49 53  1  0  0  0
 49 64  1  0  0  0
 49121  1  0  0  0
 50 51  1  0  0  0
 50122  1  0  0  0
 50123  1  0  0  0
 51 52  1  0  0  0
 51124  1  0  0  0
 51125  1  0  0  0
 52126  1  0  0  0
 52127  1  0  0  0
 53 54  1  0  0  0
 54 55  2  0  0  0
 54128  1  0  0  0
 55 57  1  0  0  0
 55129  1  0  0  0
 56 69  2  0  0  0
 57 58  2  0  0  0
 57130  1  0  0  0
 58131  1  0  0  0
 59 60  1  0  0  0
 59 61  1  0  0  0
 59 62  1  0  0  0
 60132  1  0  0  0
 60133  1  0  0  0
 60134  1  0  0  0
 61135  1  0  0  0
 61136  1  0  0  0
 61137  1  0  0  0
 62138  1  0  0  0
 62139  1  0  0  0
 62140  1  0  0  0
 63 65  1  0  0  0
 63141  1  0  0  0
 63142  1  0  0  0
 63143  1  0  0  0
 64144  1  0  0  0
 65145  1  0  0  0
 68 82  1  0  0  0
 71 73  2  0  0  0
 71 74  1  0  0  0
 71146  1  0  0  0
 72 73  1  0  0  0
 72 76  2  0  0  0
 72147  1  0  0  0
 73 80  1  0  0  0
 74 75  2  0  0  0
 74 81  1  0  0  0
 75 76  1  0  0  0
 75 78  1  0  0  0
 76 86  1  0  0  0
 77 82  1  0  0  0
 77 84  1  0  0  0
 77 85  2  0  0  0
 78148  1  0  0  0
 78149  1  0  0  0
 78150  1  0  0  0
 79 84  1  0  0  0
 79151  1  0  0  0
 79152  1  0  0  0
 79153  1  0  0  0
 80 83  1  0  0  0
 80154  1  0  0  0
 80155  1  0  0  0
 81 84  1  0  0  0
 81156  1  0  0  0
 81157  1  0  0  0
 82158  1  0  0  0
 82159  1  0  0  0
 83160  1  0  0  0
M  ISO  4   1 100  68 101  82 101  83 100
M  END
> <chiral flag>
0

> <version>
0

> <s_m_source_file>
/data/baiqing/PycharmProjects/Reinvent-master-3.2/result/LINK_invent/BTK/process_docking_weight1_custom_product_contain_oxygen_bond_distance_aromatic_linkinvent_7_9_3/rearranged_h_0039.sdf

> <i_m_source_file_index>
84

> <r_mmod_Potential_Energy-OPLS-2005>
-36.210765838623

> <r_mmod_Stretch_Energy-OPLS-2005>
57.4252624511719

> <r_mmod_Bend_Energy-OPLS-2005>
115.34130859375

> <r_mmod_Torsional_Energy-OPLS-2005>
245.050247192383

> <r_mmod_Improper_Torsional_Energy-OPLS-2005>
4.57089138031006

> <r_mmod_Van_der_Waal_Energy-OPLS-2005>
147.259368896484

> <r_mmod_Electrostatic_Energy-OPLS-2005>
-397.273071289062

> <r_mmod_Solvation_Energy-OPLS-2005>
-231.719284057617

> <b_mmod_Minimization_Converged-OPLS-2005>
0

> <r_mmod_RMS_Derivative-OPLS-2005>
1.55515277385712

$$$$
85
                    3D
 Structure written by MMmdl.
186195  0  0  1  0            999 V2000
  -30.6679  -14.4786   20.5699 C   0  0  0  0  0  0
  -30.4354  -12.3177   19.4048 C   0  0  0  0  0  0
  -29.4918  -12.5184   18.1985 C   0  0  0  0  0  0
  -28.0082  -12.3824   18.6100 C   0  0  0  0  0  0
  -27.6676  -13.1900   19.8930 C   0  0  2  0  0  0
  -28.7178  -12.8752   20.9780 C   0  0  0  0  0  0
  -25.2635  -13.8101   20.5741 C   0  0  0  0  0  0
  -24.1844  -13.0411   20.9189 C   0  0  0  0  0  0
  -24.6382  -11.6859   20.8769 C   0  0  0  0  0  0
  -23.9029  -10.4274   21.0441 C   0  0  0  0  0  0
  -24.3575   -9.4203   21.9242 C   0  0  0  0  0  0
  -23.6275   -8.2224   22.0781 C   0  0  0  0  0  0
  -22.4279   -8.0251   21.3554 C   0  0  0  0  0  0
  -21.9906   -9.0219   20.4664 C   0  0  0  0  0  0
  -22.7209  -10.2106   20.3084 C   0  0  0  0  0  0
  -21.6838   -6.0735   22.5296 C   0  0  0  0  0  0
  -21.4006   -6.5644   23.8228 C   0  0  0  0  0  0
  -21.3663   -5.6791   24.9188 C   0  0  0  0  0  0
  -21.6037   -4.3050   24.7228 C   0  0  0  0  0  0
  -21.8813   -3.8144   23.4351 C   0  0  0  0  0  0
  -21.9193   -4.6960   22.3417 C   0  0  0  0  0  0
  -22.7874  -13.5209   21.1806 C   0  0  0  0  0  0
  -22.1668   -4.2154   21.0987 F   0  0  0  0  0  0
  -21.5622   -3.4541   25.7740 F   0  0  0  0  0  0
  -30.0263  -13.2787   20.4420 N   0  0  0  0  0  0
  -26.3070  -12.9246   20.3521 N   0  0  0  0  0  0
  -25.9304  -11.6405   20.5861 N   0  0  0  0  0  0
  -22.0515  -12.8222   22.0370 N   0  0  0  0  0  0
  -25.4359  -15.1822   20.4157 N   0  0  0  0  0  0
  -31.8067  -14.6606   20.1351 O   0  0  0  0  0  0
  -21.6626   -6.8860   21.4251 O   0  0  0  0  0  0
  -22.3595  -14.5563   20.6680 O   0  0  0  0  0  0
  -24.6142  -31.8683   23.2134 C   0  0  0  0  0  0
  -25.9056  -32.4828   23.8402 C   0  0  1  0  0  0
  -27.2294  -27.4390   20.0828 C   0  0  0  0  0  0
  -25.5927  -33.8624   24.2336 N   0  0  0  0  0  0
  -23.4024  -30.4960   21.5506 C   0  0  2  0  0  0
  -24.8475  -28.9623   20.1125 C   0  0  0  0  0  0
  -22.7409  -29.4669   22.4959 C   0  0  0  0  0  0
  -18.0293  -28.1377   22.8503 C   0  0  0  0  0  0
  -24.1465  -36.7287   23.2643 C   0  0  0  0  0  0
  -25.9309  -30.8322   21.3653 C   0  0  0  0  0  0
  -26.0087  -29.4697   20.7097 C   0  0  0  0  0  0
  -27.2039  -28.7136   20.6949 C   0  0  0  0  0  0
  -26.0544  -26.9565   19.4683 C   0  0  0  0  0  0
  -24.8648  -27.7054   19.4866 C   0  0  0  0  0  0
  -23.6129  -29.8313   20.1633 C   0  0  0  0  0  0
  -25.4098  -36.3110   24.0351 C   0  0  1  0  0  0
  -20.5893  -28.3668   23.1303 C   0  0  2  0  0  0
  -20.6757  -26.9398   22.5395 C   0  0  0  0  0  0
  -19.5727  -26.6394   21.5193 C   0  0  0  0  0  0
  -18.1929  -26.7934   22.1630 C   0  0  0  0  0  0
  -19.1550  -28.8841   23.2908 C   0  0  0  0  0  0
  -18.9462  -30.1450   23.8910 C   0  0  0  0  0  0
  -17.6470  -30.6585   24.0573 C   0  0  0  0  0  0
  -25.9027  -34.9477   23.5129 C   0  0  0  0  0  0
  -16.5358  -29.9073   23.6347 C   0  0  0  0  0  0
  -16.7291  -28.6491   23.0368 C   0  0  0  0  0  0
  -26.4488  -31.6601   25.0716 C   0  0  0  0  0  0
  -25.3769  -31.3705   26.1478 C   0  0  0  0  0  0
  -27.0315  -30.3046   24.6075 C   0  0  0  0  0  0
  -27.6057  -32.4306   25.7505 C   0  0  0  0  0  0
  -27.5571  -37.1809   24.8485 C   0  0  0  0  0  0
  -21.4145  -29.3041   22.3700 N   0  0  0  0  0  0
  -26.4266  -37.3803   23.9453 N   0  0  0  0  0  0
  -24.6677  -31.0795   22.1012 N   0  0  0  0  0  0
  -23.4185  -28.8240   23.3039 O   0  0  0  0  0  0
  -28.3625  -26.6505   20.1114 O   0  0  0  0  0  0
  -26.5555  -34.8918   22.4669 O   0  0  0  0  0  0
  -23.5344  -32.1433   23.7541 O   0  0  0  0  0  0
  -26.9757  -19.5417   22.7577 C   0  0  0  0  0  0
  -27.9887  -19.6248   21.7855 C   0  0  0  0  0  0
  -26.7845  -18.4095   23.5618 C   0  0  0  0  0  0
  -28.8356  -18.4835   21.5897 C   0  0  0  0  0  0
  -27.5993  -17.2718   23.3577 C   0  0  0  0  0  0
  -28.5951  -17.2733   22.3303 C   0  0  0  0  0  0
  -27.7258  -24.3930   20.4448 C   0  0  0  0  0  0
  -28.2667  -25.5409   20.9249 C   0  0  0  0  0  0
  -27.1767  -23.3136   21.2548 C   0  0  0  0  0  0
  -25.8895  -23.4469   21.6444 C   0  0  0  0  0  0
  -28.7322  -25.8583   22.3500 C   0  0  0  0  0  0
  -28.5823  -24.7808   23.4462 C   0  0  0  0  0  0
  -29.5066  -23.5383   23.3624 C   0  0  0  0  0  0
  -29.4271  -22.6231   22.1133 C   0  0  0  0  0  0
  -29.9867  -18.5634   20.5966 C   0  0  0  0  0  0
  -27.3815  -16.0302   24.2334 C   0  0  0  0  0  0
  -25.0731  -22.5701   22.5646 C   0  0  0  0  0  0
  -23.5354  -17.4025   25.2892 C   0  0  0  0  0  0
  -29.3452  -15.9289   22.1151 C   0  0  0  0  0  0
  -28.0260  -20.9325   20.9453 C   0  0  0  0  0  0
  -25.6735  -18.4541   24.6135 C   0  0  0  0  0  0
  -29.9077  -15.5685   20.8109 N   0  0  0  0  0  0
  -28.0482  -22.1880   21.7654 N   0  3  1  0  0  0
  -24.5082  -17.6491   24.2046 N   0  3  0  0  0  0
  -31.4742  -12.4406   19.0988 H   0  0  0  0  0  0
  -30.3713  -11.2924   19.7759 H   0  0  0  0  0  0
  -29.7359  -11.8027   17.4144 H   0  0  0  0  0  0
  -29.6592  -13.5039   17.7634 H   0  0  0  0  0  0
  -27.8092  -11.3221   18.7810 H   0  0  0  0  0  0
  -27.3548  -12.6870   17.7915 H   0  0  0  0  0  0
  -27.7312  -14.2487   19.6428 H   0  0  0  0  0  0
  -28.7187  -11.7988   21.1554 H   0  0  0  0  0  0
  -28.4834  -13.2616   21.9598 H   0  0  0  0  0  0
  -25.2705   -9.5687   22.4844 H   0  0  0  0  0  0
  -23.9997   -7.4573   22.7428 H   0  0  0  0  0  0
  -21.0890   -8.8669   19.8928 H   0  0  0  0  0  0
  -22.3657  -10.9614   19.6152 H   0  0  0  0  0  0
  -21.1997   -7.6145   23.9741 H   0  0  0  0  0  0
  -21.1503   -6.0519   25.9098 H   0  0  0  0  0  0
  -22.0597   -2.7619   23.2827 H   0  0  0  0  0  0
  -22.4107  -11.9849   22.4740 H   0  0  0  0  0  0
  -21.1085  -13.1134   22.2487 H   0  0  0  0  0  0
  -24.6541  -15.8250   20.4435 H   0  0  0  0  0  0
  -26.2941  -15.6173   20.1005 H   0  0  0  0  0  0
  -26.7131  -32.5554   23.1179 H   0  0  0  0  0  0
  -25.0167  -33.9789   25.0541 H   0  0  0  0  0  0
  -22.6883  -31.3113   21.4137 H   0  0  0  0  0  0
  -23.3729  -35.9615   23.3308 H   0  0  0  0  0  0
  -24.3543  -36.8875   22.2047 H   0  0  0  0  0  0
  -23.7197  -37.6493   23.6627 H   0  0  0  0  0  0
  -26.0434  -31.5950   20.5939 H   0  0  0  0  0  0
  -26.8169  -30.8814   21.9858 H   0  0  0  0  0  0
  -28.1006  -29.0920   21.1666 H   0  0  0  0  0  0
  -26.0483  -25.9962   18.9768 H   0  0  0  0  0  0
  -23.9731  -27.3133   19.0169 H   0  0  0  0  0  0
  -23.7287  -30.6055   19.4030 H   0  0  0  0  0  0
  -22.7332  -29.2604   19.8617 H   0  0  0  0  0  0
  -25.1267  -36.1959   25.0840 H   0  0  0  0  0  0
  -21.0016  -28.3224   24.1414 H   0  0  0  0  0  0
  -20.5639  -26.2281   23.3582 H   0  0  0  0  0  0
  -21.6628  -26.7407   22.1210 H   0  0  0  0  0  0
  -19.6852  -25.6304   21.1210 H   0  0  0  0  0  0
  -19.6664  -27.3191   20.6706 H   0  0  0  0  0  0
  -17.4195  -26.6727   21.4025 H   0  0  0  0  0  0
  -18.0335  -26.0036   22.8990 H   0  0  0  0  0  0
  -19.7934  -30.7280   24.2258 H   0  0  0  0  0  0
  -17.5022  -31.6271   24.5161 H   0  0  0  0  0  0
  -15.5352  -30.2995   23.7647 H   0  0  0  0  0  0
  -15.8694  -28.0822   22.7069 H   0  0  0  0  0  0
  -24.5955  -30.7026   25.7853 H   0  0  0  0  0  0
  -24.8940  -32.2830   26.4953 H   0  0  0  0  0  0
  -25.8138  -30.8886   27.0234 H   0  0  0  0  0  0
  -26.2823  -29.6806   24.1163 H   0  0  0  0  0  0
  -27.4125  -29.7314   25.4550 H   0  0  0  0  0  0
  -27.8664  -30.4378   23.9189 H   0  0  0  0  0  0
  -27.2665  -33.3602   26.2108 H   0  0  0  0  0  0
  -28.3869  -32.6868   25.0331 H   0  0  0  0  0  0
  -28.0706  -31.8393   26.5414 H   0  0  0  0  0  0
  -28.2617  -38.0083   24.7526 H   0  0  0  0  0  0
  -28.1029  -36.2618   24.6303 H   0  0  0  0  0  0
  -27.2290  -37.1452   25.8885 H   0  0  0  0  0  0
  -20.9275  -29.8767   21.6935 H   0  0  0  0  0  0
  -26.0148  -38.2877   24.1462 H   0  0  0  0  0  0
  -26.3072  -20.3656   22.8983 H   0  0  0  0  0  0
  -27.4821  -24.3633   19.3933 H   0  0  0  0  0  0
  -25.3321  -24.2854   21.2476 H   0  0  0  0  0  0
  -28.1858  -26.7462   22.6789 H   0  0  0  0  0  0
  -29.7794  -26.1631   22.2978 H   0  0  0  0  0  0
  -27.5405  -24.4909   23.5695 H   0  0  0  0  0  0
  -28.8156  -25.2783   24.3878 H   0  0  0  0  0  0
  -29.3193  -22.9220   24.2448 H   0  0  0  0  0  0
  -30.5399  -23.8752   23.4617 H   0  0  0  0  0  0
  -30.0362  -21.7413   22.3142 H   0  0  0  0  0  0
  -29.9005  -23.1033   21.2577 H   0  0  0  0  0  0
  -30.8268  -17.9406   20.9045 H   0  0  0  0  0  0
  -30.4069  -19.5655   20.5359 H   0  0  0  0  0  0
  -29.6609  -18.2631   19.5989 H   0  0  0  0  0  0
  -26.9421  -16.2405   25.2052 H   0  0  0  0  0  0
  -28.3218  -15.5318   24.4653 H   0  0  0  0  0  0
  -26.7419  -15.3127   23.7166 H   0  0  0  0  0  0
  -25.6281  -22.2933   23.4601 H   0  0  0  0  0  0
  -24.7205  -21.6814   22.0397 H   0  0  0  0  0  0
  -24.1948  -23.1249   22.8958 H   0  0  0  0  0  0
  -22.7319  -16.7509   24.9410 H   0  0  0  0  0  0
  -23.0963  -18.3357   25.6442 H   0  0  0  0  0  0
  -24.0127  -16.9126   26.1372 H   0  0  0  0  0  0
  -28.5705  -15.1955   22.2634 H   0  0  0  0  0  0
  -30.0912  -15.7923   22.9016 H   0  0  0  0  0  0
  -27.1098  -20.9266   20.3497 H   0  0  0  0  0  0
  -28.8318  -20.9559   20.2125 H   0  0  0  0  0  0
  -25.3392  -19.4811   24.7700 H   0  0  0  0  0  0
  -26.0608  -18.1413   25.5820 H   0  0  0  0  0  0
  -30.2963  -16.3822   20.3598 H   0  0  0  0  0  0
  -27.6511  -21.8844   22.6385 H   0  0  0  0  0  0
  -24.0386  -18.1306   23.4556 H   0  0  0  0  0  0
  -24.8276  -16.7626   23.8474 H   0  0  0  0  0  0
  1 25  1  0  0  0
  1 30  2  0  0  0
  1 92  1  0  0  0
  2  3  1  0  0  0
  2 25  1  0  0  0
  2 95  1  0  0  0
  2 96  1  0  0  0
  3  4  1  0  0  0
  3 97  1  0  0  0
  3 98  1  0  0  0
  4  5  1  0  0  0
  4 99  1  0  0  0
  4100  1  0  0  0
  5  6  1  0  0  0
  5 26  1  0  0  0
  5101  1  0  0  0
  6 25  1  0  0  0
  6102  1  0  0  0
  6103  1  0  0  0
  7  8  2  0  0  0
  7 26  1  0  0  0
  7 29  1  0  0  0
  8  9  1  0  0  0
  8 22  1  0  0  0
  9 10  1  0  0  0
  9 27  2  0  0  0
 10 11  2  0  0  0
 10 15  1  0  0  0
 11 12  1  0  0  0
 11104  1  0  0  0
 12 13  2  0  0  0
 12105  1  0  0  0
 13 14  1  0  0  0
 13 31  1  0  0  0
 14 15  2  0  0  0
 14106  1  0  0  0
 15107  1  0  0  0
 16 17  2  0  0  0
 16 21  1  0  0  0
 16 31  1  0  0  0
 17 18  1  0  0  0
 17108  1  0  0  0
 18 19  2  0  0  0
 18109  1  0  0  0
 19 20  1  0  0  0
 19 24  1  0  0  0
 20 21  2  0  0  0
 20110  1  0  0  0
 21 23  1  0  0  0
 22 28  1  0  0  0
 22 32  2  0  0  0
 26 27  1  0  0  0
 28111  1  0  0  0
 28112  1  0  0  0
 29113  1  0  0  0
 29114  1  0  0  0
 33 34  1  0  0  0
 33 66  1  0  0  0
 33 70  2  0  0  0
 34 36  1  0  0  0
 34 59  1  0  0  0
 34115  1  0  0  0
 35 44  2  0  0  0
 35 45  1  0  0  0
 35 68  1  0  0  0
 36 56  1  0  0  0
 36116  1  0  0  0
 37 39  1  0  0  0
 37 47  1  0  0  0
 37 66  1  0  0  0
 37117  1  0  0  0
 38 43  2  0  0  0
 38 46  1  0  0  0
 38 47  1  0  0  0
 39 64  1  0  0  0
 39 67  2  0  0  0
 40 52  1  0  0  0
 40 53  2  0  0  0
 40 58  1  0  0  0
 41118  1  0  0  0
 41119  1  0  0  0
 41120  1  0  0  0
 41 48  1  0  0  0
 42 43  1  0  0  0
 42 66  1  0  0  0
 42121  1  0  0  0
 42122  1  0  0  0
 43 44  1  0  0  0
 44123  1  0  0  0
 45 46  2  0  0  0
 45124  1  0  0  0
 46125  1  0  0  0
 47126  1  0  0  0
 47127  1  0  0  0
 48 56  1  0  0  0
 48 65  1  0  0  0
 48128  1  0  0  0
 49 50  1  0  0  0
 49 53  1  0  0  0
 49 64  1  0  0  0
 49129  1  0  0  0
 50 51  1  0  0  0
 50130  1  0  0  0
 50131  1  0  0  0
 51 52  1  0  0  0
 51132  1  0  0  0
 51133  1  0  0  0
 52134  1  0  0  0
 52135  1  0  0  0
 53 54  1  0  0  0
 54 55  2  0  0  0
 54136  1  0  0  0
 55 57  1  0  0  0
 55137  1  0  0  0
 56 69  2  0  0  0
 57 58  2  0  0  0
 57138  1  0  0  0
 58139  1  0  0  0
 59 60  1  0  0  0
 59 61  1  0  0  0
 59 62  1  0  0  0
 60140  1  0  0  0
 60141  1  0  0  0
 60142  1  0  0  0
 61143  1  0  0  0
 61144  1  0  0  0
 61145  1  0  0  0
 62146  1  0  0  0
 62147  1  0  0  0
 62148  1  0  0  0
 63 65  1  0  0  0
 63149  1  0  0  0
 63150  1  0  0  0
 63151  1  0  0  0
 64152  1  0  0  0
 65153  1  0  0  0
 68 78  1  0  0  0
 71 72  2  0  0  0
 71 73  1  0  0  0
 71154  1  0  0  0
 72 74  1  0  0  0
 72 90  1  0  0  0
 73 75  2  0  0  0
 73 91  1  0  0  0
 74 76  2  0  0  0
 74 85  1  0  0  0
 75 76  1  0  0  0
 75 86  1  0  0  0
 76 89  1  0  0  0
 77 78  2  0  0  0
 77 79  1  0  0  0
 77155  1  0  0  0
 78 81  1  0  0  0
 79 80  2  0  0  0
 79 93  1  0  0  0
 80 87  1  0  0  0
 80156  1  0  0  0
 81 82  1  0  0  0
 81157  1  0  0  0
 81158  1  0  0  0
 82 83  1  0  0  0
 82159  1  0  0  0
 82160  1  0  0  0
 83 84  1  0  0  0
 83161  1  0  0  0
 83162  1  0  0  0
 84 93  1  0  0  0
 84163  1  0  0  0
 84164  1  0  0  0
 85165  1  0  0  0
 85166  1  0  0  0
 85167  1  0  0  0
 86168  1  0  0  0
 86169  1  0  0  0
 86170  1  0  0  0
 87171  1  0  0  0
 87172  1  0  0  0
 87173  1  0  0  0
 88 94  1  0  0  0
 88174  1  0  0  0
 88175  1  0  0  0
 88176  1  0  0  0
 89 92  1  0  0  0
 89177  1  0  0  0
 89178  1  0  0  0
 90179  1  0  0  0
 90180  1  0  0  0
 90 93  1  0  0  0
 91 94  1  0  0  0
 91181  1  0  0  0
 91182  1  0  0  0
 92183  1  0  0  0
 93184  1  0  0  0
 94185  1  0  0  0
 94186  1  0  0  0
M  CHG  2  93   1  94   1
M  ISO  4   1 100  68 101  78 101  92 100
M  END
> <chiral flag>
0

> <version>
0

> <s_m_source_file>
/data/baiqing/PycharmProjects/Reinvent-master-3.2/result/LINK_invent/BTK/process_docking_weight1_custom_product_contain_oxygen_bond_distance_aromatic_linkinvent_7_9_3/rearranged_h_0039.sdf

> <i_m_source_file_index>
85

> <r_mmod_Potential_Energy-OPLS-2005>
-185.452392578125

> <r_mmod_Stretch_Energy-OPLS-2005>
53.6803131103516

> <r_mmod_Bend_Energy-OPLS-2005>
162.115676879883

> <r_mmod_Torsional_Energy-OPLS-2005>
330.203094482422

> <r_mmod_Improper_Torsional_Energy-OPLS-2005>
16.243480682373

> <r_mmod_Van_der_Waal_Energy-OPLS-2005>
165.466598510742

> <r_mmod_Electrostatic_Energy-OPLS-2005>
-59.1650085449219

> <r_mmod_Solvation_Energy-OPLS-2005>
-869.196655273438

> <b_mmod_Minimization_Converged-OPLS-2005>
0

> <r_mmod_RMS_Derivative-OPLS-2005>
4.04638957977295

$$$$
86
                    3D
 Structure written by MMmdl.
154162  0  0  1  0            999 V2000
  -30.6103  -14.7366   20.4417 C   0  0  0  0  0  0
  -30.4353  -12.4405   19.4829 C   0  0  0  0  0  0
  -29.5132  -12.4887   18.2437 C   0  0  0  0  0  0
  -28.0375  -12.3275   18.6538 C   0  0  0  0  0  0
  -27.6456  -13.2308   19.8536 C   0  0  2  0  0  0
  -28.6887  -13.1597   20.9910 C   0  0  0  0  0  0
  -25.2529  -13.8200   20.5696 C   0  0  0  0  0  0
  -24.1814  -13.0447   20.9205 C   0  0  0  0  0  0
  -24.6401  -11.6924   20.8749 C   0  0  0  0  0  0
  -23.9076  -10.4298   21.0408 C   0  0  0  0  0  0
  -24.3625   -9.4211   21.9184 C   0  0  0  0  0  0
  -23.6299   -8.2246   22.0754 C   0  0  0  0  0  0
  -22.4281   -8.0284   21.3545 C   0  0  0  0  0  0
  -21.9918   -9.0259   20.4647 C   0  0  0  0  0  0
  -22.7249  -10.2138   20.3056 C   0  0  0  0  0  0
  -21.6854   -6.0739   22.5279 C   0  0  0  0  0  0
  -21.4016   -6.5642   23.8213 C   0  0  0  0  0  0
  -21.3659   -5.6794   24.9175 C   0  0  0  0  0  0
  -21.6043   -4.3057   24.7225 C   0  0  0  0  0  0
  -21.8819   -3.8150   23.4345 C   0  0  0  0  0  0
  -21.9194   -4.6967   22.3403 C   0  0  0  0  0  0
  -22.7834  -13.5228   21.1864 C   0  0  0  0  0  0
  -22.1662   -4.2154   21.0980 F   0  0  0  0  0  0
  -21.5627   -3.4540   25.7736 F   0  0  0  0  0  0
  -29.9954  -13.5042   20.4156 N   0  0  0  0  0  0
  -26.2958  -12.9407   20.3294 N   0  0  0  0  0  0
  -25.9333  -11.6551   20.5765 N   0  0  0  0  0  0
  -22.0481  -12.8213   22.0417 N   0  0  0  0  0  0
  -25.4225  -15.1923   20.4111 N   0  0  0  0  0  0
  -31.7989  -14.8361   20.1241 O   0  0  0  0  0  0
  -21.6643   -6.8883   21.4241 O   0  0  0  0  0  0
  -22.3515  -14.5532   20.6713 O   0  0  0  0  0  0
  -24.6316  -31.8552   23.2001 C   0  0  0  0  0  0
  -25.9143  -32.4753   23.8340 C   0  0  1  0  0  0
  -27.2170  -27.2587   20.1265 C   0  0  0  0  0  0
  -25.5937  -33.8555   24.2256 N   0  0  0  0  0  0
  -23.4282  -30.4800   21.5426 C   0  0  2  0  0  0
  -24.8757  -28.9322   20.1068 C   0  0  0  0  0  0
  -22.7503  -29.4603   22.4900 C   0  0  0  0  0  0
  -18.0293  -28.1387   22.8485 C   0  0  0  0  0  0
  -24.1488  -36.7283   23.2640 C   0  0  0  0  0  0
  -25.9760  -30.7661   21.3834 C   0  0  0  0  0  0
  -26.0471  -29.3901   20.7232 C   0  0  0  0  0  0
  -27.2184  -28.5645   20.7262 C   0  0  0  0  0  0
  -26.0265  -26.8852   19.4579 C   0  0  0  0  0  0
  -24.8714  -27.6879   19.4629 C   0  0  0  0  0  0
  -23.6468  -29.8186   20.1571 C   0  0  0  0  0  0
  -25.4117  -36.3068   24.0326 C   0  0  1  0  0  0
  -20.5898  -28.3699   23.1259 C   0  0  2  0  0  0
  -20.6781  -26.9414   22.5403 C   0  0  0  0  0  0
  -19.5755  -26.6384   21.5208 C   0  0  0  0  0  0
  -18.1936  -26.7930   22.1623 C   0  0  0  0  0  0
  -19.1547  -28.8861   23.2867 C   0  0  0  0  0  0
  -18.9468  -30.1462   23.8885 C   0  0  0  0  0  0
  -17.6466  -30.6588   24.0562 C   0  0  0  0  0  0
  -25.9060  -34.9439   23.5094 C   0  0  0  0  0  0
  -16.5358  -29.9085   23.6333 C   0  0  0  0  0  0
  -16.7278  -28.6501   23.0355 C   0  0  0  0  0  0
  -26.4506  -31.6585   25.0736 C   0  0  0  0  0  0
  -25.3724  -31.3746   26.1452 C   0  0  0  0  0  0
  -27.0359  -30.2998   24.6244 C   0  0  0  0  0  0
  -27.6053  -32.4335   25.7510 C   0  0  0  0  0  0
  -27.5577  -37.1798   24.8465 C   0  0  0  0  0  0
  -21.4210  -29.3046   22.3644 N   0  0  0  0  0  0
  -26.4288  -37.3768   23.9409 N   0  0  0  0  0  0
  -24.6975  -31.0521   22.0977 N   0  0  0  0  0  0
  -23.4202  -28.8135   23.2993 O   0  0  0  0  0  0
  -28.2986  -26.3452   20.2155 O   0  0  0  0  0  0
  -26.5627  -34.8915   22.4661 O   0  0  0  0  0  0
  -23.5465  -32.1372   23.7299 O   0  0  0  0  0  0
  -29.8560  -19.8677   18.8684 C   0  0  0  0  0  0
  -30.1369  -18.7089   18.1245 C   0  0  0  0  0  0
  -29.5655  -19.7951   20.2414 C   0  0  0  0  0  0
  -29.6016  -18.4609   20.8475 C   0  0  0  0  0  0
  -29.9040  -17.2401   20.0969 C   0  0  0  0  0  0
  -30.1454  -17.4237   18.7027 C   0  0  0  0  0  0
  -28.9473  -23.7609   20.5990 C   0  0  0  0  0  0
  -29.3031  -18.3366   22.3336 C   0  0  0  0  0  0
  -29.2882  -21.1723   21.0005 C   0  0  0  0  0  0
  -28.0577  -24.8899   19.8935 C   0  0  0  0  0  0
  -29.8311  -15.8627   20.6707 N   0  0  0  0  0  0
  -28.7980  -22.4209   20.2678 N   0  0  0  0  0  0
  -29.7343  -24.0983   21.4861 O   0  0  0  0  0  0
  -30.3726  -16.1115   17.5984 Cl  0  0  0  0  0  0
  -31.4768  -12.5609   19.1800 H   0  0  0  0  0  0
  -30.3776  -11.4648   19.9681 H   0  0  0  0  0  0
  -29.7913  -11.7066   17.5364 H   0  0  0  0  0  0
  -29.6453  -13.4327   17.7168 H   0  0  0  0  0  0
  -27.8864  -11.2800   18.9174 H   0  0  0  0  0  0
  -27.3839  -12.5233   17.8029 H   0  0  0  0  0  0
  -27.6438  -14.2526   19.4731 H   0  0  0  0  0  0
  -28.7172  -12.1613   21.4299 H   0  0  0  0  0  0
  -28.4245  -13.8408   21.8013 H   0  0  0  0  0  0
  -25.2770   -9.5686   22.4760 H   0  0  0  0  0  0
  -24.0008   -7.4637   22.7472 H   0  0  0  0  0  0
  -21.0850   -8.8779   19.8950 H   0  0  0  0  0  0
  -22.3708  -10.9677   19.6165 H   0  0  0  0  0  0
  -21.2008   -7.6151   23.9718 H   0  0  0  0  0  0
  -21.1479   -6.0524   25.9078 H   0  0  0  0  0  0
  -22.0598   -2.7613   23.2844 H   0  0  0  0  0  0
  -22.4104  -11.9875   22.4802 H   0  0  0  0  0  0
  -21.1097  -13.1231   22.2625 H   0  0  0  0  0  0
  -24.6532  -15.8447   20.5159 H   0  0  0  0  0  0
  -26.2680  -15.6307   20.0696 H   0  0  0  0  0  0
  -26.7208  -32.5398   23.1078 H   0  0  0  0  0  0
  -25.0089  -33.9693   25.0405 H   0  0  0  0  0  0
  -22.7250  -31.3030   21.3987 H   0  0  0  0  0  0
  -23.3752  -35.9613   23.3301 H   0  0  0  0  0  0
  -24.3577  -36.8905   22.2054 H   0  0  0  0  0  0
  -23.7239  -37.6483   23.6667 H   0  0  0  0  0  0
  -26.1211  -31.5284   20.6165 H   0  0  0  0  0  0
  -26.8514  -30.8102   22.0197 H   0  0  0  0  0  0
  -28.1103  -28.9056   21.2333 H   0  0  0  0  0  0
  -25.9472  -25.9473   18.9300 H   0  0  0  0  0  0
  -23.9786  -27.3369   18.9635 H   0  0  0  0  0  0
  -23.7710  -30.5971   19.4032 H   0  0  0  0  0  0
  -22.7650  -29.2529   19.8506 H   0  0  0  0  0  0
  -25.1300  -36.1912   25.0818 H   0  0  0  0  0  0
  -20.9994  -28.3276   24.1378 H   0  0  0  0  0  0
  -20.5678  -26.2308   23.3610 H   0  0  0  0  0  0
  -21.6649  -26.7432   22.1198 H   0  0  0  0  0  0
  -19.6914  -25.6292   21.1244 H   0  0  0  0  0  0
  -19.6694  -27.3191   20.6734 H   0  0  0  0  0  0
  -17.4206  -26.6674   21.4027 H   0  0  0  0  0  0
  -18.0338  -26.0073   22.9021 H   0  0  0  0  0  0
  -19.7942  -30.7282   24.2249 H   0  0  0  0  0  0
  -17.5021  -31.6266   24.5166 H   0  0  0  0  0  0
  -15.5358  -30.2983   23.7668 H   0  0  0  0  0  0
  -15.8678  -28.0819   22.7076 H   0  0  0  0  0  0
  -24.5903  -30.7085   25.7789 H   0  0  0  0  0  0
  -24.8914  -32.2922   26.4849 H   0  0  0  0  0  0
  -25.8038  -30.8947   27.0245 H   0  0  0  0  0  0
  -26.2953  -29.6736   24.1253 H   0  0  0  0  0  0
  -27.4010  -29.7269   25.4779 H   0  0  0  0  0  0
  -27.8846  -30.4264   23.9518 H   0  0  0  0  0  0
  -27.2655  -33.3646   26.2054 H   0  0  0  0  0  0
  -28.3880  -32.6870   25.0349 H   0  0  0  0  0  0
  -28.0703  -31.8483   26.5452 H   0  0  0  0  0  0
  -28.2593  -38.0095   24.7512 H   0  0  0  0  0  0
  -28.1071  -36.2626   24.6292 H   0  0  0  0  0  0
  -27.2297  -37.1447   25.8867 H   0  0  0  0  0  0
  -20.9393  -29.8771   21.6853 H   0  0  0  0  0  0
  -26.0164  -38.2840   24.1410 H   0  0  0  0  0  0
  -29.8657  -20.8249   18.3661 H   0  0  0  0  0  0
  -30.3293  -18.8060   17.0658 H   0  0  0  0  0  0
  -29.7185  -19.1754   22.8918 H   0  0  0  0  0  0
  -29.7333  -17.4321   22.7631 H   0  0  0  0  0  0
  -28.2260  -18.3122   22.5007 H   0  0  0  0  0  0
  -30.2099  -21.4296   21.5248 H   0  0  0  0  0  0
  -28.5556  -20.9745   21.7835 H   0  0  0  0  0  0
  -27.0438  -24.6150   20.1827 H   0  0  0  0  0  0
  -28.1289  -24.7575   18.8134 H   0  0  0  0  0  0
  -28.9625  -15.6594   21.1397 H   0  0  0  0  0  0
  -28.1452  -22.2382   19.5175 H   0  0  0  0  0  0
  1 25  1  0  0  0
  1 30  2  0  0  0
  1 81  1  0  0  0
  2  3  1  0  0  0
  2 25  1  0  0  0
  2 85  1  0  0  0
  2 86  1  0  0  0
  3  4  1  0  0  0
  3 87  1  0  0  0
  3 88  1  0  0  0
  4  5  1  0  0  0
  4 89  1  0  0  0
  4 90  1  0  0  0
  5  6  1  0  0  0
  5 26  1  0  0  0
  5 91  1  0  0  0
  6 25  1  0  0  0
  6 92  1  0  0  0
  6 93  1  0  0  0
  7  8  2  0  0  0
  7 26  1  0  0  0
  7 29  1  0  0  0
  8  9  1  0  0  0
  8 22  1  0  0  0
  9 10  1  0  0  0
  9 27  2  0  0  0
 10 11  2  0  0  0
 10 15  1  0  0  0
 11 12  1  0  0  0
 11 94  1  0  0  0
 12 13  2  0  0  0
 12 95  1  0  0  0
 13 14  1  0  0  0
 13 31  1  0  0  0
 14 15  2  0  0  0
 14 96  1  0  0  0
 15 97  1  0  0  0
 16 17  2  0  0  0
 16 21  1  0  0  0
 16 31  1  0  0  0
 17 18  1  0  0  0
 17 98  1  0  0  0
 18 19  2  0  0  0
 18 99  1  0  0  0
 19 20  1  0  0  0
 19 24  1  0  0  0
 20 21  2  0  0  0
 20100  1  0  0  0
 21 23  1  0  0  0
 22 28  1  0  0  0
 22 32  2  0  0  0
 26 27  1  0  0  0
 28101  1  0  0  0
 28102  1  0  0  0
 29103  1  0  0  0
 29104  1  0  0  0
 33 34  1  0  0  0
 33 66  1  0  0  0
 33 70  2  0  0  0
 34 36  1  0  0  0
 34 59  1  0  0  0
 34105  1  0  0  0
 35 44  2  0  0  0
 35 45  1  0  0  0
 35 68  1  0  0  0
 36 56  1  0  0  0
 36106  1  0  0  0
 37 39  1  0  0  0
 37 47  1  0  0  0
 37 66  1  0  0  0
 37107  1  0  0  0
 38 43  2  0  0  0
 38 46  1  0  0  0
 38 47  1  0  0  0
 39 64  1  0  0  0
 39 67  2  0  0  0
 40 52  1  0  0  0
 40 53  2  0  0  0
 40 58  1  0  0  0
 41108  1  0  0  0
 41109  1  0  0  0
 41110  1  0  0  0
 41 48  1  0  0  0
 42 43  1  0  0  0
 42 66  1  0  0  0
 42111  1  0  0  0
 42112  1  0  0  0
 43 44  1  0  0  0
 44113  1  0  0  0
 45 46  2  0  0  0
 45114  1  0  0  0
 46115  1  0  0  0
 47116  1  0  0  0
 47117  1  0  0  0
 48 56  1  0  0  0
 48 65  1  0  0  0
 48118  1  0  0  0
 49 50  1  0  0  0
 49 53  1  0  0  0
 49 64  1  0  0  0
 49119  1  0  0  0
 50 51  1  0  0  0
 50120  1  0  0  0
 50121  1  0  0  0
 51 52  1  0  0  0
 51122  1  0  0  0
 51123  1  0  0  0
 52124  1  0  0  0
 52125  1  0  0  0
 53 54  1  0  0  0
 54 55  2  0  0  0
 54126  1  0  0  0
 55 57  1  0  0  0
 55127  1  0  0  0
 56 69  2  0  0  0
 57 58  2  0  0  0
 57128  1  0  0  0
 58129  1  0  0  0
 59 60  1  0  0  0
 59 61  1  0  0  0
 59 62  1  0  0  0
 60130  1  0  0  0
 60131  1  0  0  0
 60132  1  0  0  0
 61133  1  0  0  0
 61134  1  0  0  0
 61135  1  0  0  0
 62136  1  0  0  0
 62137  1  0  0  0
 62138  1  0  0  0
 63 65  1  0  0  0
 63139  1  0  0  0
 63140  1  0  0  0
 63141  1  0  0  0
 64142  1  0  0  0
 65143  1  0  0  0
 68 80  1  0  0  0
 71 72  2  0  0  0
 71 73  1  0  0  0
 71144  1  0  0  0
 72 76  1  0  0  0
 72145  1  0  0  0
 73 74  2  0  0  0
 73 79  1  0  0  0
 74 75  1  0  0  0
 74 78  1  0  0  0
 75 76  2  0  0  0
 75 81  1  0  0  0
 76 84  1  0  0  0
 77 80  1  0  0  0
 77 82  1  0  0  0
 77 83  2  0  0  0
 78146  1  0  0  0
 78147  1  0  0  0
 78148  1  0  0  0
 79 82  1  0  0  0
 79149  1  0  0  0
 79150  1  0  0  0
 80151  1  0  0  0
 80152  1  0  0  0
 81153  1  0  0  0
 82154  1  0  0  0
M  ISO  4   1 100  68 101  80 101  81 100
M  END
> <chiral flag>
0

> <version>
0

> <s_m_source_file>
/data/baiqing/PycharmProjects/Reinvent-master-3.2/result/LINK_invent/BTK/process_docking_weight1_custom_product_contain_oxygen_bond_distance_aromatic_linkinvent_7_9_3/rearranged_h_0039.sdf

> <i_m_source_file_index>
86

> <r_mmod_Potential_Energy-OPLS-2005>
63.9766387939453

> <r_mmod_Stretch_Energy-OPLS-2005>
126.839706420898

> <r_mmod_Bend_Energy-OPLS-2005>
154.522399902344

> <r_mmod_Torsional_Energy-OPLS-2005>
234.706420898438

> <r_mmod_Improper_Torsional_Energy-OPLS-2005>
5.40411186218262

> <r_mmod_Van_der_Waal_Energy-OPLS-2005>
143.898986816406

> <r_mmod_Electrostatic_Energy-OPLS-2005>
-434.752716064453

> <r_mmod_Solvation_Energy-OPLS-2005>
-253.908508300781

> <b_mmod_Minimization_Converged-OPLS-2005>
0

> <r_mmod_RMS_Derivative-OPLS-2005>
0.470935136079788

$$$$
87
                    3D
 Structure written by MMmdl.
156164  0  0  1  0            999 V2000
  -30.7147  -14.4861   20.6115 C   0  0  0  0  0  0
  -30.4201  -12.3405   19.4206 C   0  0  0  0  0  0
  -29.4906  -12.5103   18.2028 C   0  0  0  0  0  0
  -28.0134  -12.3462   18.6147 C   0  0  0  0  0  0
  -27.6556  -13.1880   19.8672 C   0  0  2  0  0  0
  -28.6965  -12.9721   20.9911 C   0  0  0  0  0  0
  -25.2567  -13.8113   20.5651 C   0  0  0  0  0  0
  -24.1818  -13.0410   20.9194 C   0  0  0  0  0  0
  -24.6348  -11.6872   20.8780 C   0  0  0  0  0  0
  -23.9025  -10.4271   21.0450 C   0  0  0  0  0  0
  -24.3579   -9.4171   21.9212 C   0  0  0  0  0  0
  -23.6254   -8.2203   22.0761 C   0  0  0  0  0  0
  -22.4242   -8.0253   21.3543 C   0  0  0  0  0  0
  -21.9882   -9.0240   20.4657 C   0  0  0  0  0  0
  -22.7211  -10.2121   20.3091 C   0  0  0  0  0  0
  -21.6826   -6.0715   22.5292 C   0  0  0  0  0  0
  -21.3992   -6.5623   23.8227 C   0  0  0  0  0  0
  -21.3669   -5.6777   24.9193 C   0  0  0  0  0  0
  -21.6044   -4.3039   24.7238 C   0  0  0  0  0  0
  -21.8811   -3.8130   23.4362 C   0  0  0  0  0  0
  -21.9174   -4.6945   22.3419 C   0  0  0  0  0  0
  -22.7860  -13.5264   21.1855 C   0  0  0  0  0  0
  -22.1651   -4.2132   21.0995 F   0  0  0  0  0  0
  -21.5635   -3.4518   25.7748 F   0  0  0  0  0  0
  -30.0161  -13.3221   20.4486 N   0  0  0  0  0  0
  -26.2968  -12.9234   20.3314 N   0  0  0  0  0  0
  -25.9257  -11.6425   20.5775 N   0  0  0  0  0  0
  -22.0432  -12.8314   22.0407 N   0  0  0  0  0  0
  -25.4294  -15.1826   20.4008 N   0  0  0  0  0  0
  -31.8129  -14.6565   20.0801 O   0  0  0  0  0  0
  -21.6602   -6.8853   21.4248 O   0  0  0  0  0  0
  -22.3605  -14.5585   20.6687 O   0  0  0  0  0  0
  -24.6159  -31.8674   23.2074 C   0  0  0  0  0  0
  -25.9062  -32.4811   23.8371 C   0  0  1  0  0  0
  -27.2231  -27.4070   20.1150 C   0  0  0  0  0  0
  -25.5932  -33.8609   24.2303 N   0  0  0  0  0  0
  -23.4039  -30.4895   21.5484 C   0  0  2  0  0  0
  -24.8493  -28.9476   20.1177 C   0  0  0  0  0  0
  -22.7413  -29.4652   22.4983 C   0  0  0  0  0  0
  -18.0283  -28.1358   22.8483 C   0  0  0  0  0  0
  -24.1485  -36.7307   23.2632 C   0  0  0  0  0  0
  -25.9322  -30.8248   21.3634 C   0  0  0  0  0  0
  -26.0094  -29.4553   20.7165 C   0  0  0  0  0  0
  -27.2020  -28.6928   20.7084 C   0  0  0  0  0  0
  -26.0508  -26.9231   19.5014 C   0  0  0  0  0  0
  -24.8655  -27.6820   19.5061 C   0  0  0  0  0  0
  -23.6136  -29.8190   20.1630 C   0  0  0  0  0  0
  -25.4110  -36.3103   24.0324 C   0  0  1  0  0  0
  -20.5869  -28.3649   23.1320 C   0  0  2  0  0  0
  -20.6772  -26.9377   22.5405 C   0  0  0  0  0  0
  -19.5748  -26.6341   21.5210 C   0  0  0  0  0  0
  -18.1923  -26.7904   22.1608 C   0  0  0  0  0  0
  -19.1523  -28.8823   23.2908 C   0  0  0  0  0  0
  -18.9448  -30.1433   23.8906 C   0  0  0  0  0  0
  -17.6438  -30.6559   24.0568 C   0  0  0  0  0  0
  -25.9047  -34.9469   23.5109 C   0  0  0  0  0  0
  -16.5340  -29.9055   23.6302 C   0  0  0  0  0  0
  -16.7271  -28.6481   23.0316 C   0  0  0  0  0  0
  -26.4472  -31.6597   25.0704 C   0  0  0  0  0  0
  -25.3746  -31.3725   26.1465 C   0  0  0  0  0  0
  -27.0281  -30.3037   24.6075 C   0  0  0  0  0  0
  -27.6033  -32.4319   25.7476 C   0  0  0  0  0  0
  -27.5580  -37.1809   24.8464 C   0  0  0  0  0  0
  -21.4139  -29.3047   22.3746 N   0  0  0  0  0  0
  -26.4294  -37.3791   23.9402 N   0  0  0  0  0  0
  -24.6685  -31.0753   22.0983 N   0  0  0  0  0  0
  -23.4184  -28.8195   23.3018 O   0  0  0  0  0  0
  -28.3808  -26.6562   20.0917 O   0  0  0  0  0  0
  -26.5588  -34.8926   22.4658 O   0  0  0  0  0  0
  -23.5363  -32.1440   23.7483 O   0  0  0  0  0  0
  -29.5899  -18.1533   20.2847 C   0  0  0  0  0  0
  -27.5759  -19.6917   21.4846 C   0  0  0  0  0  0
  -28.8014  -17.5605   21.2970 C   0  0  0  0  0  0
  -28.3352  -20.2712   20.4429 C   0  0  0  0  0  0
  -27.7987  -18.3610   21.9082 C   0  0  0  0  0  0
  -29.3693  -19.4881   19.8643 C   0  0  0  0  0  0
  -28.9568  -16.0712   21.6712 C   0  0  0  0  0  0
  -27.9271  -21.6514   19.8822 C   0  0  0  0  0  0
  -27.9260  -24.1513   20.0578 C   0  0  0  0  0  0
  -28.3797  -25.4193   20.8439 C   0  0  0  0  0  0
  -30.2786  -15.4564   21.4450 N   0  0  0  0  0  0
  -28.3822  -22.8480   20.6470 N   0  3  0  0  0  0
  -26.7929  -17.7241   23.1607 Cl  0  0  0  0  0  0
  -30.3640  -20.1179   18.5997 Cl  0  0  0  0  0  0
  -31.4601  -12.4533   19.1100 H   0  0  0  0  0  0
  -30.3467  -11.3283   19.8181 H   0  0  0  0  0  0
  -29.7441  -11.7819   17.4322 H   0  0  0  0  0  0
  -29.6444  -13.4953   17.7593 H   0  0  0  0  0  0
  -27.8374  -11.2885   18.8124 H   0  0  0  0  0  0
  -27.3585  -12.6104   17.7826 H   0  0  0  0  0  0
  -27.6948  -14.2256   19.5393 H   0  0  0  0  0  0
  -28.6920  -11.9246   21.2987 H   0  0  0  0  0  0
  -28.4510  -13.5221   21.8959 H   0  0  0  0  0  0
  -25.2725   -9.5626   22.4784 H   0  0  0  0  0  0
  -23.9935   -7.4584   22.7484 H   0  0  0  0  0  0
  -21.0806   -8.8798   19.8966 H   0  0  0  0  0  0
  -22.3699  -10.9668   19.6208 H   0  0  0  0  0  0
  -21.1978   -7.6128   23.9733 H   0  0  0  0  0  0
  -21.1513   -6.0503   25.9098 H   0  0  0  0  0  0
  -22.0578   -2.7582   23.2879 H   0  0  0  0  0  0
  -22.3955  -11.9972   22.4882 H   0  0  0  0  0  0
  -21.1076  -13.1457   22.2575 H   0  0  0  0  0  0
  -24.6576  -15.8309   20.5018 H   0  0  0  0  0  0
  -26.2654  -15.6162   20.0337 H   0  0  0  0  0  0
  -26.7124  -32.5490   23.1123 H   0  0  0  0  0  0
  -25.0131  -33.9772   25.0490 H   0  0  0  0  0  0
  -22.6954  -31.3086   21.4064 H   0  0  0  0  0  0
  -23.3738  -35.9644   23.3304 H   0  0  0  0  0  0
  -24.3596  -36.8915   22.2044 H   0  0  0  0  0  0
  -23.7239  -37.6518   23.6642 H   0  0  0  0  0  0
  -26.0466  -31.5871   20.5914 H   0  0  0  0  0  0
  -26.8201  -30.8807   21.9803 H   0  0  0  0  0  0
  -28.1003  -29.0790   21.1694 H   0  0  0  0  0  0
  -26.0484  -25.9675   19.0004 H   0  0  0  0  0  0
  -23.9764  -27.2874   19.0335 H   0  0  0  0  0  0
  -23.7296  -30.5909   19.4017 H   0  0  0  0  0  0
  -22.7359  -29.2414   19.8664 H   0  0  0  0  0  0
  -25.1289  -36.1961   25.0815 H   0  0  0  0  0  0
  -20.9978  -28.3205   24.1437 H   0  0  0  0  0  0
  -20.5705  -26.2252   23.3593 H   0  0  0  0  0  0
  -21.6640  -26.7417   22.1184 H   0  0  0  0  0  0
  -19.6913  -25.6246   21.1266 H   0  0  0  0  0  0
  -19.6686  -27.3104   20.6703 H   0  0  0  0  0  0
  -17.4207  -26.6678   21.3989 H   0  0  0  0  0  0
  -18.0299  -26.0018   22.8979 H   0  0  0  0  0  0
  -19.7929  -30.7239   24.2276 H   0  0  0  0  0  0
  -17.4988  -31.6226   24.5185 H   0  0  0  0  0  0
  -15.5341  -30.2947   23.7611 H   0  0  0  0  0  0
  -15.8679  -28.0810   22.6986 H   0  0  0  0  0  0
  -24.5916  -30.7071   25.7833 H   0  0  0  0  0  0
  -24.8954  -32.2893   26.4909 H   0  0  0  0  0  0
  -25.8135  -30.8919   27.0221 H   0  0  0  0  0  0
  -26.2822  -29.6825   24.1112 H   0  0  0  0  0  0
  -27.4032  -29.7252   25.4524 H   0  0  0  0  0  0
  -27.8662  -30.4351   23.9227 H   0  0  0  0  0  0
  -27.2638  -33.3602   26.2082 H   0  0  0  0  0  0
  -28.3838  -32.6914   25.0316 H   0  0  0  0  0  0
  -28.0692  -31.8425   26.5384 H   0  0  0  0  0  0
  -28.2598  -38.0105   24.7508 H   0  0  0  0  0  0
  -28.1076  -36.2635   24.6289 H   0  0  0  0  0  0
  -27.2304  -37.1456   25.8872 H   0  0  0  0  0  0
  -20.9291  -29.8824   21.7017 H   0  0  0  0  0  0
  -26.0173  -38.2864   24.1424 H   0  0  0  0  0  0
  -30.3567  -17.5743   19.7905 H   0  0  0  0  0  0
  -26.7744  -20.2567   21.9410 H   0  0  0  0  0  0
  -28.1659  -15.5593   21.1383 H   0  0  0  0  0  0
  -28.7424  -15.9370   22.7307 H   0  0  0  0  0  0
  -26.8367  -21.6742   19.8245 H   0  0  0  0  0  0
  -28.2589  -21.7438   18.8476 H   0  0  0  0  0  0
  -28.2983  -24.2124   19.0349 H   0  0  0  0  0  0
  -26.8382  -24.1379   19.9953 H   0  0  0  0  0  0
  -29.4097  -25.2755   21.1721 H   0  0  0  0  0  0
  -27.7928  -25.5285   21.7570 H   0  0  0  0  0  0
  -31.0287  -16.0949   21.6601 H   0  0  0  0  0  0
  -29.3900  -22.8337   20.6896 H   0  0  0  0  0  0
  -28.0386  -22.7675   21.5919 H   0  0  0  0  0  0
  1 25  1  0  0  0
  1 30  2  0  0  0
  1 81  1  0  0  0
  2  3  1  0  0  0
  2 25  1  0  0  0
  2 85  1  0  0  0
  2 86  1  0  0  0
  3  4  1  0  0  0
  3 87  1  0  0  0
  3 88  1  0  0  0
  4  5  1  0  0  0
  4 89  1  0  0  0
  4 90  1  0  0  0
  5  6  1  0  0  0
  5 26  1  0  0  0
  5 91  1  0  0  0
  6 25  1  0  0  0
  6 92  1  0  0  0
  6 93  1  0  0  0
  7  8  2  0  0  0
  7 26  1  0  0  0
  7 29  1  0  0  0
  8  9  1  0  0  0
  8 22  1  0  0  0
  9 10  1  0  0  0
  9 27  2  0  0  0
 10 11  2  0  0  0
 10 15  1  0  0  0
 11 12  1  0  0  0
 11 94  1  0  0  0
 12 13  2  0  0  0
 12 95  1  0  0  0
 13 14  1  0  0  0
 13 31  1  0  0  0
 14 15  2  0  0  0
 14 96  1  0  0  0
 15 97  1  0  0  0
 16 17  2  0  0  0
 16 21  1  0  0  0
 16 31  1  0  0  0
 17 18  1  0  0  0
 17 98  1  0  0  0
 18 19  2  0  0  0
 18 99  1  0  0  0
 19 20  1  0  0  0
 19 24  1  0  0  0
 20 21  2  0  0  0
 20100  1  0  0  0
 21 23  1  0  0  0
 22 28  1  0  0  0
 22 32  2  0  0  0
 26 27  1  0  0  0
 28101  1  0  0  0
 28102  1  0  0  0
 29103  1  0  0  0
 29104  1  0  0  0
 33 34  1  0  0  0
 33 66  1  0  0  0
 33 70  2  0  0  0
 34 36  1  0  0  0
 34 59  1  0  0  0
 34105  1  0  0  0
 35 44  2  0  0  0
 35 45  1  0  0  0
 35 68  1  0  0  0
 36 56  1  0  0  0
 36106  1  0  0  0
 37 39  1  0  0  0
 37 47  1  0  0  0
 37 66  1  0  0  0
 37107  1  0  0  0
 38 43  2  0  0  0
 38 46  1  0  0  0
 38 47  1  0  0  0
 39 64  1  0  0  0
 39 67  2  0  0  0
 40 52  1  0  0  0
 40 53  2  0  0  0
 40 58  1  0  0  0
 41108  1  0  0  0
 41109  1  0  0  0
 41110  1  0  0  0
 41 48  1  0  0  0
 42 43  1  0  0  0
 42 66  1  0  0  0
 42111  1  0  0  0
 42112  1  0  0  0
 43 44  1  0  0  0
 44113  1  0  0  0
 45 46  2  0  0  0
 45114  1  0  0  0
 46115  1  0  0  0
 47116  1  0  0  0
 47117  1  0  0  0
 48 56  1  0  0  0
 48 65  1  0  0  0
 48118  1  0  0  0
 49 50  1  0  0  0
 49 53  1  0  0  0
 49 64  1  0  0  0
 49119  1  0  0  0
 50 51  1  0  0  0
 50120  1  0  0  0
 50121  1  0  0  0
 51 52  1  0  0  0
 51122  1  0  0  0
 51123  1  0  0  0
 52124  1  0  0  0
 52125  1  0  0  0
 53 54  1  0  0  0
 54 55  2  0  0  0
 54126  1  0  0  0
 55 57  1  0  0  0
 55127  1  0  0  0
 56 69  2  0  0  0
 57 58  2  0  0  0
 57128  1  0  0  0
 58129  1  0  0  0
 59 60  1  0  0  0
 59 61  1  0  0  0
 59 62  1  0  0  0
 60130  1  0  0  0
 60131  1  0  0  0
 60132  1  0  0  0
 61133  1  0  0  0
 61134  1  0  0  0
 61135  1  0  0  0
 62136  1  0  0  0
 62137  1  0  0  0
 62138  1  0  0  0
 63 65  1  0  0  0
 63139  1  0  0  0
 63140  1  0  0  0
 63141  1  0  0  0
 64142  1  0  0  0
 65143  1  0  0  0
 68 80  1  0  0  0
 71 73  2  0  0  0
 71 76  1  0  0  0
 71144  1  0  0  0
 72 74  1  0  0  0
 72 75  2  0  0  0
 72145  1  0  0  0
 73 75  1  0  0  0
 73 77  1  0  0  0
 74 76  2  0  0  0
 74 78  1  0  0  0
 75 83  1  0  0  0
 76 84  1  0  0  0
 77 81  1  0  0  0
 77146  1  0  0  0
 77147  1  0  0  0
 78 82  1  0  0  0
 78148  1  0  0  0
 78149  1  0  0  0
 79 80  1  0  0  0
 79 82  1  0  0  0
 79150  1  0  0  0
 79151  1  0  0  0
 80152  1  0  0  0
 80153  1  0  0  0
 81154  1  0  0  0
 82155  1  0  0  0
 82156  1  0  0  0
M  CHG  1  82   1
M  ISO  4   1 100  68 101  80 101  81 100
M  END
> <chiral flag>
0

> <version>
0

> <s_m_source_file>
/data/baiqing/PycharmProjects/Reinvent-master-3.2/result/LINK_invent/BTK/process_docking_weight1_custom_product_contain_oxygen_bond_distance_aromatic_linkinvent_7_9_3/rearranged_h_0039.sdf

> <i_m_source_file_index>
87

> <r_mmod_Potential_Energy-OPLS-2005>
-220.431732177734

> <r_mmod_Stretch_Energy-OPLS-2005>
43.6197319030762

> <r_mmod_Bend_Energy-OPLS-2005>
126.763580322266

> <r_mmod_Torsional_Energy-OPLS-2005>
249.385482788086

> <r_mmod_Improper_Torsional_Energy-OPLS-2005>
4.98998880386353

> <r_mmod_Van_der_Waal_Energy-OPLS-2005>
141.418334960938

> <r_mmod_Electrostatic_Energy-OPLS-2005>
-333.249328613281

> <r_mmod_Solvation_Energy-OPLS-2005>
-467.997222900391

> <b_mmod_Minimization_Converged-OPLS-2005>
0

> <r_mmod_RMS_Derivative-OPLS-2005>
2.94629812240601

$$$$
88
                    3D
 Structure written by MMmdl.
180189  0  0  1  0            999 V2000
  -30.7186  -14.5478   20.5500 C   0  0  0  0  0  0
  -30.4136  -12.3535   19.4399 C   0  0  0  0  0  0
  -29.4913  -12.5018   18.2139 C   0  0  0  0  0  0
  -28.0165  -12.3536   18.6309 C   0  0  0  0  0  0
  -27.6515  -13.2233   19.8644 C   0  0  2  0  0  0
  -28.6976  -13.0813   20.9932 C   0  0  0  0  0  0
  -25.2541  -13.8192   20.5701 C   0  0  0  0  0  0
  -24.1818  -13.0446   20.9200 C   0  0  0  0  0  0
  -24.6399  -11.6920   20.8755 C   0  0  0  0  0  0
  -23.9074  -10.4294   21.0415 C   0  0  0  0  0  0
  -24.3626   -9.4210   21.9192 C   0  0  0  0  0  0
  -23.6300   -8.2245   22.0757 C   0  0  0  0  0  0
  -22.4281   -8.0285   21.3546 C   0  0  0  0  0  0
  -21.9923   -9.0259   20.4646 C   0  0  0  0  0  0
  -22.7251  -10.2138   20.3058 C   0  0  0  0  0  0
  -21.6853   -6.0743   22.5281 C   0  0  0  0  0  0
  -21.4013   -6.5646   23.8215 C   0  0  0  0  0  0
  -21.3660   -5.6798   24.9179 C   0  0  0  0  0  0
  -21.6042   -4.3058   24.7225 C   0  0  0  0  0  0
  -21.8821   -3.8151   23.4349 C   0  0  0  0  0  0
  -21.9193   -4.6969   22.3406 C   0  0  0  0  0  0
  -22.7836  -13.5229   21.1858 C   0  0  0  0  0  0
  -22.1663   -4.2153   21.0980 F   0  0  0  0  0  0
  -21.5630   -3.4540   25.7739 F   0  0  0  0  0  0
  -30.0166  -13.3828   20.4195 N   0  0  0  0  0  0
  -26.2982  -12.9395   20.3347 N   0  0  0  0  0  0
  -25.9332  -11.6539   20.5784 N   0  0  0  0  0  0
  -22.0482  -12.8205   22.0404 N   0  0  0  0  0  0
  -25.4237  -15.1908   20.4103 N   0  0  0  0  0  0
  -31.8637  -14.6540   20.1048 O   0  0  0  0  0  0
  -21.6641   -6.8885   21.4241 O   0  0  0  0  0  0
  -22.3520  -14.5538   20.6710 O   0  0  0  0  0  0
  -24.6210  -31.8654   23.2080 C   0  0  0  0  0  0
  -25.9082  -32.4808   23.8394 C   0  0  1  0  0  0
  -27.2203  -27.3704   20.1103 C   0  0  0  0  0  0
  -25.5917  -33.8604   24.2324 N   0  0  0  0  0  0
  -23.4116  -30.4900   21.5513 C   0  0  2  0  0  0
  -24.8569  -28.9533   20.1128 C   0  0  0  0  0  0
  -22.7449  -29.4651   22.4979 C   0  0  0  0  0  0
  -18.0278  -28.1384   22.8491 C   0  0  0  0  0  0
  -24.1486  -36.7308   23.2640 C   0  0  0  0  0  0
  -25.9488  -30.8117   21.3717 C   0  0  0  0  0  0
  -26.0237  -29.4431   20.7147 C   0  0  0  0  0  0
  -27.2115  -28.6613   20.7067 C   0  0  0  0  0  0
  -26.0402  -26.9298   19.4701 C   0  0  0  0  0  0
  -24.8634  -27.6989   19.4847 C   0  0  0  0  0  0
  -23.6219  -29.8267   20.1651 C   0  0  0  0  0  0
  -25.4110  -36.3102   24.0333 C   0  0  1  0  0  0
  -20.5878  -28.3680   23.1304 C   0  0  2  0  0  0
  -20.6767  -26.9412   22.5412 C   0  0  0  0  0  0
  -19.5748  -26.6389   21.5211 C   0  0  0  0  0  0
  -18.1925  -26.7926   22.1622 C   0  0  0  0  0  0
  -19.1531  -28.8844   23.2892 C   0  0  0  0  0  0
  -18.9455  -30.1443   23.8914 C   0  0  0  0  0  0
  -17.6458  -30.6586   24.0558 C   0  0  0  0  0  0
  -25.9046  -34.9466   23.5133 C   0  0  0  0  0  0
  -16.5348  -29.9085   23.6331 C   0  0  0  0  0  0
  -16.7265  -28.6497   23.0363 C   0  0  0  0  0  0
  -26.4484  -31.6591   25.0736 C   0  0  0  0  0  0
  -25.3731  -31.3690   26.1470 C   0  0  0  0  0  0
  -27.0327  -30.3028   24.6147 C   0  0  0  0  0  0
  -27.6067  -32.4307   25.7495 C   0  0  0  0  0  0
  -27.5585  -37.1807   24.8468 C   0  0  0  0  0  0
  -21.4170  -29.3038   22.3706 N   0  0  0  0  0  0
  -26.4296  -37.3790   23.9410 N   0  0  0  0  0  0
  -24.6794  -31.0703   22.1016 N   0  0  0  0  0  0
  -23.4196  -28.8202   23.3042 O   0  0  0  0  0  0
  -28.3371  -26.5389   20.1440 O   0  0  0  0  0  0
  -26.5617  -34.8929   22.4704 O   0  0  0  0  0  0
  -23.5388  -32.1439   23.7437 O   0  0  0  0  0  0
  -32.4291  -17.9834   22.7027 C   0  0  0  0  0  0
  -31.8639  -16.8408   22.1396 C   0  0  0  0  0  0
  -31.7873  -19.2310   22.6270 C   0  0  0  0  0  0
  -30.5655  -19.3897   21.8983 C   0  0  0  0  0  0
  -29.9895  -18.1875   21.3243 C   0  0  0  0  0  0
  -30.6336  -16.9013   21.4583 C   0  0  0  0  0  0
  -29.9173  -23.3306   21.1424 C   0  0  0  0  0  0
  -31.8772  -24.2829   24.1333 C   0  0  0  0  0  0
  -30.5147  -24.0494   22.1201 C   0  0  0  0  0  0
  -31.5757  -23.6286   23.0014 C   0  0  0  0  0  0
  -30.5759  -23.2178   18.1698 C   0  0  0  0  0  0
  -31.7525  -22.6980   19.0278 C   0  0  0  0  0  0
  -29.7650  -24.3633   18.8237 C   0  0  0  0  0  0
  -31.4037  -21.5812   20.0432 C   0  0  0  0  0  0
  -28.9806  -23.9821   20.0997 C   0  0  2  0  0  0
  -32.4694  -20.3352   23.4165 C   0  0  0  0  0  0
  -27.4593  -18.0158   21.5099 C   0  0  0  0  0  0
  -28.6590  -18.2499   20.5813 C   0  0  0  0  0  0
  -29.8443  -20.8012   21.8829 C   0  0  0  0  0  0
  -28.0899  -25.1782   20.6331 C   0  0  0  0  0  0
  -30.0531  -15.6454   21.0131 N   0  0  0  0  0  0
  -30.1688  -21.8416   20.8264 N   0  3  1  0  0  0
  -31.4587  -12.4362   19.1368 H   0  0  0  0  0  0
  -30.3115  -11.3605   19.8797 H   0  0  0  0  0  0
  -29.7418  -11.7558   17.4581 H   0  0  0  0  0  0
  -29.6466  -13.4762   17.7481 H   0  0  0  0  0  0
  -27.8426  -11.3005   18.8557 H   0  0  0  0  0  0
  -27.3606  -12.5962   17.7933 H   0  0  0  0  0  0
  -27.6713  -14.2597   19.5257 H   0  0  0  0  0  0
  -28.6925  -12.0687   21.3983 H   0  0  0  0  0  0
  -28.4573  -13.7399   21.8290 H   0  0  0  0  0  0
  -25.2776   -9.5681   22.4766 H   0  0  0  0  0  0
  -24.0007   -7.4636   22.7478 H   0  0  0  0  0  0
  -21.0855   -8.8784   19.8948 H   0  0  0  0  0  0
  -22.3720  -10.9681   19.6163 H   0  0  0  0  0  0
  -21.2008   -7.6153   23.9719 H   0  0  0  0  0  0
  -21.1477   -6.0529   25.9083 H   0  0  0  0  0  0
  -22.0600   -2.7614   23.2847 H   0  0  0  0  0  0
  -22.4105  -11.9852   22.4763 H   0  0  0  0  0  0
  -21.1104  -13.1219   22.2620 H   0  0  0  0  0  0
  -24.6557  -15.8434   20.5233 H   0  0  0  0  0  0
  -26.2724  -15.6318   20.0832 H   0  0  0  0  0  0
  -26.7156  -32.5496   23.1150 H   0  0  0  0  0  0
  -25.0012  -33.9752   25.0433 H   0  0  0  0  0  0
  -22.7015  -31.3081   21.4123 H   0  0  0  0  0  0
  -23.3757  -35.9631   23.3291 H   0  0  0  0  0  0
  -24.3578  -36.8943   22.2061 H   0  0  0  0  0  0
  -23.7223  -37.6497   23.6672 H   0  0  0  0  0  0
  -26.0703  -31.5753   20.6028 H   0  0  0  0  0  0
  -26.8331  -30.8627   21.9947 H   0  0  0  0  0  0
  -28.1085  -29.0279   21.1857 H   0  0  0  0  0  0
  -26.0134  -25.9781   18.9589 H   0  0  0  0  0  0
  -23.9692  -27.3211   19.0081 H   0  0  0  0  0  0
  -23.7335  -30.6043   19.4086 H   0  0  0  0  0  0
  -22.7427  -29.2511   19.8683 H   0  0  0  0  0  0
  -25.1287  -36.1970   25.0820 H   0  0  0  0  0  0
  -20.9958  -28.3251   24.1429 H   0  0  0  0  0  0
  -20.5677  -26.2288   23.3602 H   0  0  0  0  0  0
  -21.6641  -26.7450   22.1211 H   0  0  0  0  0  0
  -19.6914  -25.6303   21.1233 H   0  0  0  0  0  0
  -19.6693  -27.3199   20.6740 H   0  0  0  0  0  0
  -17.4201  -26.6681   21.4016 H   0  0  0  0  0  0
  -18.0322  -26.0053   22.9003 H   0  0  0  0  0  0
  -19.7932  -30.7243   24.2309 H   0  0  0  0  0  0
  -17.5020  -31.6273   24.5154 H   0  0  0  0  0  0
  -15.5355  -30.3002   23.7637 H   0  0  0  0  0  0
  -15.8660  -28.0811   22.7099 H   0  0  0  0  0  0
  -24.5919  -30.7031   25.7786 H   0  0  0  0  0  0
  -24.8897  -32.2831   26.4926 H   0  0  0  0  0  0
  -25.8068  -30.8847   27.0228 H   0  0  0  0  0  0
  -26.2882  -29.6774   24.1202 H   0  0  0  0  0  0
  -27.4085  -29.7283   25.4623 H   0  0  0  0  0  0
  -27.8730  -30.4346   23.9321 H   0  0  0  0  0  0
  -27.2729  -33.3642   26.2038 H   0  0  0  0  0  0
  -28.3892  -32.6798   25.0314 H   0  0  0  0  0  0
  -28.0716  -31.8437   26.5426 H   0  0  0  0  0  0
  -28.2596  -38.0112   24.7523 H   0  0  0  0  0  0
  -28.1079  -36.2637   24.6281 H   0  0  0  0  0  0
  -27.2296  -37.1449   25.8868 H   0  0  0  0  0  0
  -20.9345  -29.8753   21.6913 H   0  0  0  0  0  0
  -26.0186  -38.2865   24.1404 H   0  0  0  0  0  0
  -33.3594  -17.8791   23.2440 H   0  0  0  0  0  0
  -32.3845  -15.9035   22.2804 H   0  0  0  0  0  0
  -32.6943  -23.9610   24.7639 H   0  0  0  0  0  0
  -31.3165  -25.1505   24.4535 H   0  0  0  0  0  0
  -30.2708  -25.1005   22.1716 H   0  0  0  0  0  0
  -32.1819  -22.7904   22.7195 H   0  0  0  0  0  0
  -29.9242  -22.3977   17.8643 H   0  0  0  0  0  0
  -30.9940  -23.6107   17.2410 H   0  0  0  0  0  0
  -32.2314  -23.5345   19.5397 H   0  0  0  0  0  0
  -32.5212  -22.3017   18.3627 H   0  0  0  0  0  0
  -29.0611  -24.7504   18.0855 H   0  0  0  0  0  0
  -30.4371  -25.1935   19.0465 H   0  0  0  0  0  0
  -32.2503  -21.4498   20.7150 H   0  0  0  0  0  0
  -31.2822  -20.6359   19.5118 H   0  0  0  0  0  0
  -28.2755  -23.1997   19.8135 H   0  0  0  0  0  0
  -33.0842  -19.9108   24.2117 H   0  0  0  0  0  0
  -31.7709  -20.9914   23.9280 H   0  0  0  0  0  0
  -33.1458  -20.9024   22.7790 H   0  0  0  0  0  0
  -26.5225  -18.0625   20.9543 H   0  0  0  0  0  0
  -27.4091  -18.7632   22.3013 H   0  0  0  0  0  0
  -27.5113  -17.0367   21.9870 H   0  0  0  0  0  0
  -28.6535  -17.5063   19.7838 H   0  0  0  0  0  0
  -28.5557  -19.2022   20.0642 H   0  0  0  0  0  0
  -29.9677  -21.2632   22.8585 H   0  0  0  0  0  0
  -28.7678  -20.6492   21.8415 H   0  0  0  0  0  0
  -28.1228  -25.2228   21.7218 H   0  0  0  0  0  0
  -27.0624  -24.8695   20.4508 H   0  0  0  0  0  0
  -29.0568  -15.5435   21.1254 H   0  0  0  0  0  0
  -29.4684  -21.6143   20.1381 H   0  0  0  0  0  0
  1 25  1  0  0  0
  1 30  2  0  0  0
  1 91  1  0  0  0
  2  3  1  0  0  0
  2 25  1  0  0  0
  2 93  1  0  0  0
  2 94  1  0  0  0
  3  4  1  0  0  0
  3 95  1  0  0  0
  3 96  1  0  0  0
  4  5  1  0  0  0
  4 97  1  0  0  0
  4 98  1  0  0  0
  5  6  1  0  0  0
  5 26  1  0  0  0
  5 99  1  0  0  0
  6 25  1  0  0  0
  6100  1  0  0  0
  6101  1  0  0  0
  7  8  2  0  0  0
  7 26  1  0  0  0
  7 29  1  0  0  0
  8  9  1  0  0  0
  8 22  1  0  0  0
  9 10  1  0  0  0
  9 27  2  0  0  0
 10 11  2  0  0  0
 10 15  1  0  0  0
 11 12  1  0  0  0
 11102  1  0  0  0
 12 13  2  0  0  0
 12103  1  0  0  0
 13 14  1  0  0  0
 13 31  1  0  0  0
 14 15  2  0  0  0
 14104  1  0  0  0
 15105  1  0  0  0
 16 17  2  0  0  0
 16 21  1  0  0  0
 16 31  1  0  0  0
 17 18  1  0  0  0
 17106  1  0  0  0
 18 19  2  0  0  0
 18107  1  0  0  0
 19 20  1  0  0  0
 19 24  1  0  0  0
 20 21  2  0  0  0
 20108  1  0  0  0
 21 23  1  0  0  0
 22 28  1  0  0  0
 22 32  2  0  0  0
 26 27  1  0  0  0
 28109  1  0  0  0
 28110  1  0  0  0
 29111  1  0  0  0
 29112  1  0  0  0
 33 34  1  0  0  0
 33 66  1  0  0  0
 33 70  2  0  0  0
 34 36  1  0  0  0
 34 59  1  0  0  0
 34113  1  0  0  0
 35 44  2  0  0  0
 35 45  1  0  0  0
 35 68  1  0  0  0
 36 56  1  0  0  0
 36114  1  0  0  0
 37 39  1  0  0  0
 37 47  1  0  0  0
 37 66  1  0  0  0
 37115  1  0  0  0
 38 43  2  0  0  0
 38 46  1  0  0  0
 38 47  1  0  0  0
 39 64  1  0  0  0
 39 67  2  0  0  0
 40 52  1  0  0  0
 40 53  2  0  0  0
 40 58  1  0  0  0
 41116  1  0  0  0
 41117  1  0  0  0
 41118  1  0  0  0
 41 48  1  0  0  0
 42 43  1  0  0  0
 42 66  1  0  0  0
 42119  1  0  0  0
 42120  1  0  0  0
 43 44  1  0  0  0
 44121  1  0  0  0
 45 46  2  0  0  0
 45122  1  0  0  0
 46123  1  0  0  0
 47124  1  0  0  0
 47125  1  0  0  0
 48 56  1  0  0  0
 48 65  1  0  0  0
 48126  1  0  0  0
 49 50  1  0  0  0
 49 53  1  0  0  0
 49 64  1  0  0  0
 49127  1  0  0  0
 50 51  1  0  0  0
 50128  1  0  0  0
 50129  1  0  0  0
 51 52  1  0  0  0
 51130  1  0  0  0
 51131  1  0  0  0
 52132  1  0  0  0
 52133  1  0  0  0
 53 54  1  0  0  0
 54 55  2  0  0  0
 54134  1  0  0  0
 55 57  1  0  0  0
 55135  1  0  0  0
 56 69  2  0  0  0
 57 58  2  0  0  0
 57136  1  0  0  0
 58137  1  0  0  0
 59 60  1  0  0  0
 59 61  1  0  0  0
 59 62  1  0  0  0
 60138  1  0  0  0
 60139  1  0  0  0
 60140  1  0  0  0
 61141  1  0  0  0
 61142  1  0  0  0
 61143  1  0  0  0
 62144  1  0  0  0
 62145  1  0  0  0
 62146  1  0  0  0
 63 65  1  0  0  0
 63147  1  0  0  0
 63148  1  0  0  0
 63149  1  0  0  0
 64150  1  0  0  0
 65151  1  0  0  0
 68 90  1  0  0  0
 71 72  2  0  0  0
 71 73  1  0  0  0
 71152  1  0  0  0
 72 76  1  0  0  0
 72153  1  0  0  0
 73 74  2  0  0  0
 73 86  1  0  0  0
 74 75  1  0  0  0
 74 89  1  0  0  0
 75 76  2  0  0  0
 75 88  1  0  0  0
 76 91  1  0  0  0
 77 79  2  0  0  0
 77 85  1  0  0  0
 77 92  1  0  0  0
 78 80  2  0  0  0
 78154  1  0  0  0
 78155  1  0  0  0
 79 80  1  0  0  0
 79156  1  0  0  0
 80157  1  0  0  0
 81 82  1  0  0  0
 81 83  1  0  0  0
 81158  1  0  0  0
 81159  1  0  0  0
 82 84  1  0  0  0
 82160  1  0  0  0
 82161  1  0  0  0
 83 85  1  0  0  0
 83162  1  0  0  0
 83163  1  0  0  0
 84 92  1  0  0  0
 84164  1  0  0  0
 84165  1  0  0  0
 85 90  1  0  0  0
 85166  1  0  0  0
 86167  1  0  0  0
 86168  1  0  0  0
 86169  1  0  0  0
 87 88  1  0  0  0
 87170  1  0  0  0
 87171  1  0  0  0
 87172  1  0  0  0
 88173  1  0  0  0
 88174  1  0  0  0
 89175  1  0  0  0
 89176  1  0  0  0
 89 92  1  0  0  0
 90177  1  0  0  0
 90178  1  0  0  0
 91179  1  0  0  0
 92180  1  0  0  0
M  CHG  1  92   1
M  ISO  4   1 100  68 101  90 101  91 100
M  END
> <chiral flag>
0

> <version>
0

> <s_m_source_file>
/data/baiqing/PycharmProjects/Reinvent-master-3.2/result/LINK_invent/BTK/process_docking_weight1_custom_product_contain_oxygen_bond_distance_aromatic_linkinvent_7_9_3/rearranged_h_0039.sdf

> <i_m_source_file_index>
88

> <r_mmod_Potential_Energy-OPLS-2005>
16.4612216949463

> <r_mmod_Stretch_Energy-OPLS-2005>
78.5904541015625

> <r_mmod_Bend_Energy-OPLS-2005>
155.448394775391

> <r_mmod_Torsional_Energy-OPLS-2005>
276.636047363281

> <r_mmod_Improper_Torsional_Energy-OPLS-2005>
5.23460912704468

> <r_mmod_Van_der_Waal_Energy-OPLS-2005>
158.240356445312

> <r_mmod_Electrostatic_Energy-OPLS-2005>
-269.671112060547

> <r_mmod_Solvation_Energy-OPLS-2005>
-417.3935546875

> <b_mmod_Minimization_Converged-OPLS-2005>
0

> <r_mmod_RMS_Derivative-OPLS-2005>
1.32297194004059

$$$$
89
                    3D
 Structure written by MMmdl.
173182  0  0  1  0            999 V2000
  -30.5801  -14.6237   20.5958 C   0  0  0  0  0  0
  -30.4627  -12.4130   19.4251 C   0  0  0  0  0  0
  -29.5115  -12.5519   18.2128 C   0  0  0  0  0  0
  -28.0315  -12.3797   18.6197 C   0  0  0  0  0  0
  -27.6670  -13.2049   19.8817 C   0  0  2  0  0  0
  -28.7157  -12.9562   20.9877 C   0  0  0  0  0  0
  -25.2597  -13.8137   20.5645 C   0  0  0  0  0  0
  -24.1849  -13.0421   20.9164 C   0  0  0  0  0  0
  -24.6406  -11.6889   20.8731 C   0  0  0  0  0  0
  -23.9058  -10.4283   21.0405 C   0  0  0  0  0  0
  -24.3607   -9.4199   21.9189 C   0  0  0  0  0  0
  -23.6283   -8.2237   22.0757 C   0  0  0  0  0  0
  -22.4267   -8.0275   21.3544 C   0  0  0  0  0  0
  -21.9899   -9.0248   20.4649 C   0  0  0  0  0  0
  -22.7227  -10.2128   20.3058 C   0  0  0  0  0  0
  -21.6846   -6.0730   22.5281 C   0  0  0  0  0  0
  -21.4014   -6.5637   23.8214 C   0  0  0  0  0  0
  -21.3661   -5.6790   24.9178 C   0  0  0  0  0  0
  -21.6045   -4.3050   24.7225 C   0  0  0  0  0  0
  -21.8821   -3.8141   23.4347 C   0  0  0  0  0  0
  -21.9189   -4.6960   22.3401 C   0  0  0  0  0  0
  -22.7875  -13.5229   21.1831 C   0  0  0  0  0  0
  -22.1663   -4.2144   21.0979 F   0  0  0  0  0  0
  -21.5628   -3.4532   25.7739 F   0  0  0  0  0  0
  -30.0306  -13.3709   20.4624 N   0  0  0  0  0  0
  -26.3059  -12.9302   20.3390 N   0  0  0  0  0  0
  -25.9337  -11.6462   20.5756 N   0  0  0  0  0  0
  -22.0505  -12.8240   22.0397 N   0  0  0  0  0  0
  -25.4272  -15.1848   20.3976 N   0  0  0  0  0  0
  -31.6581  -14.9205   20.0692 O   0  0  0  0  0  0
  -21.6630   -6.8876   21.4241 O   0  0  0  0  0  0
  -22.3560  -14.5529   20.6666 O   0  0  0  0  0  0
  -24.6249  -31.8593   23.2019 C   0  0  0  0  0  0
  -25.9100  -32.4773   23.8351 C   0  0  1  0  0  0
  -27.2366  -27.3229   20.1195 C   0  0  0  0  0  0
  -25.5920  -33.8574   24.2279 N   0  0  0  0  0  0
  -23.4192  -30.4802   21.5442 C   0  0  2  0  0  0
  -24.8673  -28.9284   20.1177 C   0  0  0  0  0  0
  -22.7467  -29.4617   22.4946 C   0  0  0  0  0  0
  -18.0283  -28.1379   22.8485 C   0  0  0  0  0  0
  -24.1489  -36.7295   23.2639 C   0  0  0  0  0  0
  -25.9581  -30.7905   21.3719 C   0  0  0  0  0  0
  -26.0341  -29.4155   20.7192 C   0  0  0  0  0  0
  -27.2196  -28.6248   20.7083 C   0  0  0  0  0  0
  -26.0462  -26.8829   19.4981 C   0  0  0  0  0  0
  -24.8751  -27.6672   19.4995 C   0  0  0  0  0  0
  -23.6348  -29.8090   20.1620 C   0  0  0  0  0  0
  -25.4113  -36.3082   24.0329 C   0  0  1  0  0  0
  -20.5882  -28.3681   23.1291 C   0  0  2  0  0  0
  -20.6774  -26.9403   22.5417 C   0  0  0  0  0  0
  -19.5754  -26.6375   21.5216 C   0  0  0  0  0  0
  -18.1931  -26.7924   22.1621 C   0  0  0  0  0  0
  -19.1535  -28.8847   23.2883 C   0  0  0  0  0  0
  -18.9459  -30.1449   23.8898 C   0  0  0  0  0  0
  -17.6460  -30.6582   24.0560 C   0  0  0  0  0  0
  -25.9048  -34.9449   23.5104 C   0  0  0  0  0  0
  -16.5350  -29.9079   23.6328 C   0  0  0  0  0  0
  -16.7272  -28.6496   23.0350 C   0  0  0  0  0  0
  -26.4491  -31.6583   25.0719 C   0  0  0  0  0  0
  -25.3731  -31.3715   26.1451 C   0  0  0  0  0  0
  -27.0333  -30.3009   24.6167 C   0  0  0  0  0  0
  -27.6059  -32.4313   25.7488 C   0  0  0  0  0  0
  -27.5581  -37.1801   24.8462 C   0  0  0  0  0  0
  -21.4184  -29.3033   22.3685 N   0  0  0  0  0  0
  -26.4291  -37.3777   23.9409 N   0  0  0  0  0  0
  -24.6861  -31.0603   22.0968 N   0  0  0  0  0  0
  -23.4192  -28.8164   23.3031 O   0  0  0  0  0  0
  -28.3932  -26.5291   20.1208 O   0  0  0  0  0  0
  -26.5620  -34.8916   22.4672 O   0  0  0  0  0  0
  -23.5415  -32.1387   23.7350 O   0  0  0  0  0  0
  -29.9440  -18.0531   20.8100 C   0  0  0  0  0  0
  -29.3814  -19.3706   21.0625 C   0  0  0  0  0  0
  -28.2422  -19.4641   21.9125 C   0  0  0  0  0  0
  -27.6606  -18.2916   22.4544 C   0  0  0  0  0  0
  -29.4018  -16.8629   21.4195 C   0  0  0  0  0  0
  -28.2629  -17.0295   22.2488 C   0  0  0  0  0  0
  -29.9082  -23.0441   19.2644 C   0  0  0  0  0  0
  -29.5009  -24.3406   19.5109 C   0  0  0  0  0  0
  -30.9585  -22.7655   18.2027 C   0  0  0  0  0  0
  -30.2945  -22.5059   16.8282 C   0  0  0  0  0  0
  -29.1915  -21.4116   16.7736 C   0  0  0  0  0  0
  -27.9106  -21.7249   17.5964 C   0  0  0  0  0  0
  -28.0042  -21.3513   19.0950 C   0  0  0  0  0  0
  -27.6439  -20.8175   22.3148 C   0  0  0  0  0  0
  -26.3985  -18.3780   23.3158 C   0  0  0  0  0  0
  -30.0558  -20.7100   20.5741 C   0  0  0  0  0  0
  -28.3288  -25.0505   20.2395 C   0  0  0  0  0  0
  -29.8512  -15.4660   21.3843 N   0  0  0  0  0  0
  -29.3638  -21.6457   19.5866 N   0  3  2  0  0  0
  -27.6126  -15.6562   23.0922 Cl  0  0  0  0  0  0
  -31.4948  -12.5897   19.1180 H   0  0  0  0  0  0
  -30.4406  -11.3943   19.8154 H   0  0  0  0  0  0
  -29.7755  -11.8261   17.4426 H   0  0  0  0  0  0
  -29.6477  -13.5360   17.7611 H   0  0  0  0  0  0
  -27.8547  -11.3199   18.8073 H   0  0  0  0  0  0
  -27.3789  -12.6541   17.7900 H   0  0  0  0  0  0
  -27.7123  -14.2577   19.6021 H   0  0  0  0  0  0
  -28.7372  -11.8959   21.2453 H   0  0  0  0  0  0
  -28.4475  -13.4483   21.9172 H   0  0  0  0  0  0
  -25.2753   -9.5668   22.4762 H   0  0  0  0  0  0
  -23.9980   -7.4624   22.7479 H   0  0  0  0  0  0
  -21.0828   -8.8769   19.8958 H   0  0  0  0  0  0
  -22.3687  -10.9665   19.6166 H   0  0  0  0  0  0
  -21.2013   -7.6147   23.9713 H   0  0  0  0  0  0
  -21.1484   -6.0524   25.9081 H   0  0  0  0  0  0
  -22.0599   -2.7602   23.2845 H   0  0  0  0  0  0
  -22.4099  -11.9888   22.4779 H   0  0  0  0  0  0
  -21.1125  -13.1280   22.2595 H   0  0  0  0  0  0
  -24.6690  -15.8420   20.5386 H   0  0  0  0  0  0
  -26.2916  -15.6278   20.1172 H   0  0  0  0  0  0
  -26.7168  -32.5452   23.1103 H   0  0  0  0  0  0
  -25.0068  -33.9721   25.0425 H   0  0  0  0  0  0
  -22.7126  -31.3001   21.3993 H   0  0  0  0  0  0
  -23.3750  -35.9629   23.3298 H   0  0  0  0  0  0
  -24.3584  -36.8917   22.2054 H   0  0  0  0  0  0
  -23.7240  -37.6495   23.6663 H   0  0  0  0  0  0
  -26.0855  -31.5518   20.6011 H   0  0  0  0  0  0
  -26.8396  -30.8436   21.9993 H   0  0  0  0  0  0
  -28.1187  -29.0007   21.1764 H   0  0  0  0  0  0
  -26.0028  -25.9323   18.9887 H   0  0  0  0  0  0
  -23.9825  -27.2917   19.0180 H   0  0  0  0  0  0
  -23.7536  -30.5823   19.4019 H   0  0  0  0  0  0
  -22.7556  -29.2359   19.8623 H   0  0  0  0  0  0
  -25.1293  -36.1934   25.0821 H   0  0  0  0  0  0
  -20.9974  -28.3255   24.1413 H   0  0  0  0  0  0
  -20.5672  -26.2291   23.3616 H   0  0  0  0  0  0
  -21.6644  -26.7434   22.1215 H   0  0  0  0  0  0
  -19.6914  -25.6287   21.1244 H   0  0  0  0  0  0
  -19.6695  -27.3184   20.6747 H   0  0  0  0  0  0
  -17.4206  -26.6676   21.4016 H   0  0  0  0  0  0
  -18.0324  -26.0063   22.9013 H   0  0  0  0  0  0
  -19.7935  -30.7262   24.2271 H   0  0  0  0  0  0
  -17.5014  -31.6265   24.5157 H   0  0  0  0  0  0
  -15.5349  -30.2979   23.7652 H   0  0  0  0  0  0
  -15.8674  -28.0815   22.7064 H   0  0  0  0  0  0
  -24.5915  -30.7051   25.7781 H   0  0  0  0  0  0
  -24.8910  -32.2876   26.4874 H   0  0  0  0  0  0
  -25.8063  -30.8901   27.0227 H   0  0  0  0  0  0
  -26.2902  -29.6758   24.1202 H   0  0  0  0  0  0
  -27.4044  -29.7264   25.4664 H   0  0  0  0  0  0
  -27.8766  -30.4293   23.9376 H   0  0  0  0  0  0
  -27.2679  -33.3611   26.2073 H   0  0  0  0  0  0
  -28.3868  -32.6870   25.0315 H   0  0  0  0  0  0
  -28.0732  -31.8432   26.5396 H   0  0  0  0  0  0
  -28.2593  -38.0104   24.7517 H   0  0  0  0  0  0
  -28.1080  -36.2635   24.6276 H   0  0  0  0  0  0
  -27.2305  -37.1437   25.8867 H   0  0  0  0  0  0
  -20.9360  -29.8755   21.6897 H   0  0  0  0  0  0
  -26.0171  -38.2850   24.1414 H   0  0  0  0  0  0
  -30.8312  -17.9628   20.1993 H   0  0  0  0  0  0
  -30.1013  -25.0822   19.0047 H   0  0  0  0  0  0
  -31.5991  -21.9283   18.4819 H   0  0  0  0  0  0
  -31.6331  -23.6200   18.1253 H   0  0  0  0  0  0
  -31.0775  -22.2482   16.1128 H   0  0  0  0  0  0
  -29.8735  -23.4435   16.4612 H   0  0  0  0  0  0
  -29.5964  -20.4335   17.0400 H   0  0  0  0  0  0
  -28.8932  -21.3135   15.7283 H   0  0  0  0  0  0
  -27.0625  -21.1895   17.1669 H   0  0  0  0  0  0
  -27.6636  -22.7825   17.4894 H   0  0  0  0  0  0
  -27.7831  -20.2896   19.1995 H   0  0  0  0  0  0
  -27.2567  -21.8934   19.6734 H   0  0  0  0  0  0
  -28.2736  -21.6816   22.1214 H   0  0  0  0  0  0
  -27.4563  -20.8412   23.3888 H   0  0  0  0  0  0
  -26.6919  -20.9804   21.8081 H   0  0  0  0  0  0
  -26.6640  -18.4485   24.3707 H   0  0  0  0  0  0
  -25.7576  -17.5065   23.1830 H   0  0  0  0  0  0
  -25.7703  -19.2307   23.0638 H   0  0  0  0  0  0
  -31.0110  -20.4348   20.1284 H   0  0  0  0  0  0
  -30.3377  -21.2903   21.4526 H   0  0  0  0  0  0
  -28.3683  -24.7871   21.2970 H   0  0  0  0  0  0
  -27.4031  -24.6276   19.8555 H   0  0  0  0  0  0
  -29.2075  -14.9049   21.9249 H   0  0  0  0  0  0
  -29.7707  -21.1565   18.8027 H   0  0  0  0  0  0
  1 25  1  0  0  0
  1 30  2  0  0  0
  1 88  1  0  0  0
  2  3  1  0  0  0
  2 25  1  0  0  0
  2 91  1  0  0  0
  2 92  1  0  0  0
  3  4  1  0  0  0
  3 93  1  0  0  0
  3 94  1  0  0  0
  4  5  1  0  0  0
  4 95  1  0  0  0
  4 96  1  0  0  0
  5  6  1  0  0  0
  5 26  1  0  0  0
  5 97  1  0  0  0
  6 25  1  0  0  0
  6 98  1  0  0  0
  6 99  1  0  0  0
  7  8  2  0  0  0
  7 26  1  0  0  0
  7 29  1  0  0  0
  8  9  1  0  0  0
  8 22  1  0  0  0
  9 10  1  0  0  0
  9 27  2  0  0  0
 10 11  2  0  0  0
 10 15  1  0  0  0
 11 12  1  0  0  0
 11100  1  0  0  0
 12 13  2  0  0  0
 12101  1  0  0  0
 13 14  1  0  0  0
 13 31  1  0  0  0
 14 15  2  0  0  0
 14102  1  0  0  0
 15103  1  0  0  0
 16 17  2  0  0  0
 16 21  1  0  0  0
 16 31  1  0  0  0
 17 18  1  0  0  0
 17104  1  0  0  0
 18 19  2  0  0  0
 18105  1  0  0  0
 19 20  1  0  0  0
 19 24  1  0  0  0
 20 21  2  0  0  0
 20106  1  0  0  0
 21 23  1  0  0  0
 22 28  1  0  0  0
 22 32  2  0  0  0
 26 27  1  0  0  0
 28107  1  0  0  0
 28108  1  0  0  0
 29109  1  0  0  0
 29110  1  0  0  0
 33 34  1  0  0  0
 33 66  1  0  0  0
 33 70  2  0  0  0
 34 36  1  0  0  0
 34 59  1  0  0  0
 34111  1  0  0  0
 35 44  2  0  0  0
 35 45  1  0  0  0
 35 68  1  0  0  0
 36 56  1  0  0  0
 36112  1  0  0  0
 37 39  1  0  0  0
 37 47  1  0  0  0
 37 66  1  0  0  0
 37113  1  0  0  0
 38 43  2  0  0  0
 38 46  1  0  0  0
 38 47  1  0  0  0
 39 64  1  0  0  0
 39 67  2  0  0  0
 40 52  1  0  0  0
 40 53  2  0  0  0
 40 58  1  0  0  0
 41114  1  0  0  0
 41115  1  0  0  0
 41116  1  0  0  0
 41 48  1  0  0  0
 42 43  1  0  0  0
 42 66  1  0  0  0
 42117  1  0  0  0
 42118  1  0  0  0
 43 44  1  0  0  0
 44119  1  0  0  0
 45 46  2  0  0  0
 45120  1  0  0  0
 46121  1  0  0  0
 47122  1  0  0  0
 47123  1  0  0  0
 48 56  1  0  0  0
 48 65  1  0  0  0
 48124  1  0  0  0
 49 50  1  0  0  0
 49 53  1  0  0  0
 49 64  1  0  0  0
 49125  1  0  0  0
 50 51  1  0  0  0
 50126  1  0  0  0
 50127  1  0  0  0
 51 52  1  0  0  0
 51128  1  0  0  0
 51129  1  0  0  0
 52130  1  0  0  0
 52131  1  0  0  0
 53 54  1  0  0  0
 54 55  2  0  0  0
 54132  1  0  0  0
 55 57  1  0  0  0
 55133  1  0  0  0
 56 69  2  0  0  0
 57 58  2  0  0  0
 57134  1  0  0  0
 58135  1  0  0  0
 59 60  1  0  0  0
 59 61  1  0  0  0
 59 62  1  0  0  0
 60136  1  0  0  0
 60137  1  0  0  0
 60138  1  0  0  0
 61139  1  0  0  0
 61140  1  0  0  0
 61141  1  0  0  0
 62142  1  0  0  0
 62143  1  0  0  0
 62144  1  0  0  0
 63 65  1  0  0  0
 63145  1  0  0  0
 63146  1  0  0  0
 63147  1  0  0  0
 64148  1  0  0  0
 65149  1  0  0  0
 68 87  1  0  0  0
 71 72  2  0  0  0
 71 75  1  0  0  0
 71150  1  0  0  0
 72 73  1  0  0  0
 72 86  1  0  0  0
 73 74  2  0  0  0
 73 84  1  0  0  0
 74 76  1  0  0  0
 74 85  1  0  0  0
 75 76  2  0  0  0
 75 88  1  0  0  0
 76 90  1  0  0  0
 77 78  2  0  0  0
 77 79  1  0  0  0
 77 89  1  0  0  0
 78 87  1  0  0  0
 78151  1  0  0  0
 79 80  1  0  0  0
 79152  1  0  0  0
 79153  1  0  0  0
 80 81  1  0  0  0
 80154  1  0  0  0
 80155  1  0  0  0
 81 82  1  0  0  0
 81156  1  0  0  0
 81157  1  0  0  0
 82 83  1  0  0  0
 82158  1  0  0  0
 82159  1  0  0  0
 83 89  1  0  0  0
 83160  1  0  0  0
 83161  1  0  0  0
 84162  1  0  0  0
 84163  1  0  0  0
 84164  1  0  0  0
 85165  1  0  0  0
 85166  1  0  0  0
 85167  1  0  0  0
 86168  1  0  0  0
 86169  1  0  0  0
 86 89  1  0  0  0
 87170  1  0  0  0
 87171  1  0  0  0
 88172  1  0  0  0
 89173  1  0  0  0
M  CHG  1  89   1
M  ISO  4   1 100  68 101  87 101  88 100
M  END
> <chiral flag>
0

> <version>
0

> <s_m_source_file>
/data/baiqing/PycharmProjects/Reinvent-master-3.2/result/LINK_invent/BTK/process_docking_weight1_custom_product_contain_oxygen_bond_distance_aromatic_linkinvent_7_9_3/rearranged_h_0039.sdf

> <i_m_source_file_index>
89

> <r_mmod_Potential_Energy-OPLS-2005>
119.557861328125

> <r_mmod_Stretch_Energy-OPLS-2005>
91.1224746704102

> <r_mmod_Bend_Energy-OPLS-2005>
275.845123291016

> <r_mmod_Torsional_Energy-OPLS-2005>
262.303802490234

> <r_mmod_Improper_Torsional_Energy-OPLS-2005>
5.13940525054932

> <r_mmod_Van_der_Waal_Energy-OPLS-2005>
156.357208251953

> <r_mmod_Electrostatic_Energy-OPLS-2005>
-291.191955566406

> <r_mmod_Solvation_Energy-OPLS-2005>
-425.06005859375

> <b_mmod_Minimization_Converged-OPLS-2005>
0

> <r_mmod_RMS_Derivative-OPLS-2005>
0.983121454715729

$$$$
90
                    3D
 Structure written by MMmdl.
162170  0  0  1  0            999 V2000
  -30.6944  -14.4757   20.4984 C   0  0  0  0  0  0
  -30.4247  -12.2866   19.4199 C   0  0  0  0  0  0
  -29.4959  -12.4733   18.2016 C   0  0  0  0  0  0
  -28.0155  -12.3503   18.6162 C   0  0  0  0  0  0
  -27.6623  -13.2037   19.8674 C   0  0  2  0  0  0
  -28.7114  -13.0109   20.9878 C   0  0  0  0  0  0
  -25.2668  -13.8184   20.5721 C   0  0  0  0  0  0
  -24.1890  -13.0455   20.9160 C   0  0  0  0  0  0
  -24.6421  -11.6922   20.8725 C   0  0  0  0  0  0
  -23.9078  -10.4309   21.0386 C   0  0  0  0  0  0
  -24.3625   -9.4237   21.9163 C   0  0  0  0  0  0
  -23.6300   -8.2272   22.0744 C   0  0  0  0  0  0
  -22.4288   -8.0292   21.3537 C   0  0  0  0  0  0
  -21.9921   -9.0275   20.4652 C   0  0  0  0  0  0
  -22.7250  -10.2152   20.3048 C   0  0  0  0  0  0
  -21.6873   -6.0748   22.5272 C   0  0  0  0  0  0
  -21.4035   -6.5656   23.8203 C   0  0  0  0  0  0
  -21.3647   -5.6799   24.9155 C   0  0  0  0  0  0
  -21.6036   -4.3064   24.7208 C   0  0  0  0  0  0
  -21.8831   -3.8161   23.4333 C   0  0  0  0  0  0
  -21.9210   -4.6979   22.3391 C   0  0  0  0  0  0
  -22.7915  -13.5259   21.1778 C   0  0  0  0  0  0
  -22.1690   -4.2164   21.0970 F   0  0  0  0  0  0
  -21.5596   -3.4546   25.7721 F   0  0  0  0  0  0
  -30.0317  -13.2939   20.4145 N   0  0  0  0  0  0
  -26.3065  -12.9322   20.3378 N   0  0  0  0  0  0
  -25.9348  -11.6487   20.5780 N   0  0  0  0  0  0
  -22.0557  -12.8271   22.0361 N   0  0  0  0  0  0
  -25.4424  -15.1873   20.4160 N   0  0  0  0  0  0
  -31.8741  -14.6148   20.1763 O   0  0  0  0  0  0
  -21.6660   -6.8891   21.4234 O   0  0  0  0  0  0
  -22.3601  -14.5542   20.6608 O   0  0  0  0  0  0
  -24.6079  -31.8735   23.2186 C   0  0  0  0  0  0
  -25.8997  -32.4831   23.8459 C   0  0  1  0  0  0
  -27.2271  -27.4402   20.0802 C   0  0  0  0  0  0
  -25.5912  -33.8633   24.2385 N   0  0  0  0  0  0
  -23.3943  -30.4934   21.5635 C   0  0  2  0  0  0
  -24.8368  -28.9628   20.1251 C   0  0  0  0  0  0
  -22.7381  -29.4619   22.5086 C   0  0  0  0  0  0
  -18.0268  -28.1397   22.8521 C   0  0  0  0  0  0
  -24.1470  -36.7312   23.2652 C   0  0  0  0  0  0
  -25.9201  -30.8346   21.3713 C   0  0  0  0  0  0
  -25.9980  -29.4657   20.7249 C   0  0  0  0  0  0
  -27.1952  -28.7111   20.7056 C   0  0  0  0  0  0
  -26.0503  -26.9609   19.4689 C   0  0  0  0  0  0
  -24.8593  -27.7081   19.4930 C   0  0  0  0  0  0
  -23.5981  -29.8315   20.1742 C   0  0  0  0  0  0
  -25.4095  -36.3138   24.0376 C   0  0  1  0  0  0
  -20.5845  -28.3589   23.1323 C   0  0  2  0  0  0
  -20.6729  -26.9307   22.5507 C   0  0  0  0  0  0
  -19.5704  -26.6210   21.5370 C   0  0  0  0  0  0
  -18.1880  -26.7910   22.1759 C   0  0  0  0  0  0
  -19.1539  -28.8826   23.2882 C   0  0  0  0  0  0
  -18.9543  -30.1470   23.8814 C   0  0  0  0  0  0
  -17.6558  -30.6640   24.0500 C   0  0  0  0  0  0
  -25.9023  -34.9486   23.5159 C   0  0  0  0  0  0
  -16.5408  -29.9158   23.6358 C   0  0  0  0  0  0
  -16.7276  -28.6557   23.0413 C   0  0  0  0  0  0
  -26.4456  -31.6590   25.0743 C   0  0  0  0  0  0
  -25.3725  -31.3691   26.1494 C   0  0  0  0  0  0
  -27.0286  -30.3045   24.6065 C   0  0  0  0  0  0
  -27.6041  -32.4294   25.7487 C   0  0  0  0  0  0
  -27.5584  -37.1821   24.8485 C   0  0  0  0  0  0
  -21.4131  -29.2931   22.3727 N   0  0  0  0  0  0
  -26.4293  -37.3818   23.9421 N   0  0  0  0  0  0
  -24.6590  -31.0818   22.1089 N   0  0  0  0  0  0
  -23.4123  -28.8227   23.3200 O   0  0  0  0  0  0
  -28.4097  -26.7356   19.9992 O   0  0  0  0  0  0
  -26.5576  -34.8927   22.4710 O   0  0  0  0  0  0
  -23.5279  -32.1536   23.7568 O   0  0  0  0  0  0
  -29.2130  -18.2335   19.6176 C   0  0  0  0  0  0
  -29.0833  -17.8654   20.9775 C   0  0  0  0  0  0
  -28.5366  -18.8198   21.8818 C   0  0  0  0  0  0
  -28.1068  -20.0996   21.4126 C   0  0  0  0  0  0
  -28.2466  -20.4474   20.0372 C   0  0  0  0  0  0
  -28.8097  -19.4963   19.1522 C   0  0  0  0  0  0
  -28.4128  -18.4829   23.3686 C   0  0  0  0  0  0
  -27.4563  -21.1016   22.3718 C   0  0  0  0  0  0
  -29.5246  -16.4619   21.4514 C   0  0  0  0  0  0
  -27.7314  -21.7978   19.4987 C   0  0  0  0  0  0
  -28.0530  -24.2854   19.4594 C   0  0  0  0  0  0
  -28.4226  -25.3855   20.4885 C   0  0  0  0  0  0
  -29.9008  -15.5492   20.3733 N   0  0  0  0  0  0
  -28.6061  -22.9495   19.8277 N   0  3  0  0  0  0
  -29.0092  -19.8316   17.4670 Cl  0  0  0  0  0  0
  -31.4692  -12.3790   19.1141 H   0  0  0  0  0  0
  -30.3238  -11.2823   19.8360 H   0  0  0  0  0  0
  -29.7292  -11.7335   17.4339 H   0  0  0  0  0  0
  -29.6712  -13.4494   17.7469 H   0  0  0  0  0  0
  -27.8132  -11.2984   18.8167 H   0  0  0  0  0  0
  -27.3707  -12.6283   17.7821 H   0  0  0  0  0  0
  -27.6951  -14.2436   19.5434 H   0  0  0  0  0  0
  -28.6849  -11.9900   21.3731 H   0  0  0  0  0  0
  -28.5001  -13.6579   21.8399 H   0  0  0  0  0  0
  -25.2755   -9.5753   22.4749 H   0  0  0  0  0  0
  -24.0007   -7.4696   22.7494 H   0  0  0  0  0  0
  -21.0836   -8.8831   19.8978 H   0  0  0  0  0  0
  -22.3696  -10.9707   19.6179 H   0  0  0  0  0  0
  -21.2066   -7.6168   23.9714 H   0  0  0  0  0  0
  -21.1432   -6.0522   25.9051 H   0  0  0  0  0  0
  -22.0617   -2.7627   23.2829 H   0  0  0  0  0  0
  -22.4145  -11.9915   22.4756 H   0  0  0  0  0  0
  -21.1182  -13.1332   22.2519 H   0  0  0  0  0  0
  -24.6806  -15.8472   20.5298 H   0  0  0  0  0  0
  -26.3027  -15.6252   20.1089 H   0  0  0  0  0  0
  -26.7017  -32.5544   23.1190 H   0  0  0  0  0  0
  -25.0035  -33.9794   25.0504 H   0  0  0  0  0  0
  -22.6810  -31.3082   21.4325 H   0  0  0  0  0  0
  -23.3739  -35.9636   23.3323 H   0  0  0  0  0  0
  -24.3570  -36.8891   22.2067 H   0  0  0  0  0  0
  -23.7213  -37.6526   23.6612 H   0  0  0  0  0  0
  -26.0238  -31.5935   20.5948 H   0  0  0  0  0  0
  -26.8085  -30.8997   21.9858 H   0  0  0  0  0  0
  -28.0906  -29.1012   21.1680 H   0  0  0  0  0  0
  -26.0350  -26.0333   18.9224 H   0  0  0  0  0  0
  -23.9824  -27.3216   18.9914 H   0  0  0  0  0  0
  -23.6955  -30.6087   19.4153 H   0  0  0  0  0  0
  -22.7200  -29.2529   19.8841 H   0  0  0  0  0  0
  -25.1256  -36.2044   25.0880 H   0  0  0  0  0  0
  -20.9933  -28.3175   24.1457 H   0  0  0  0  0  0
  -20.5698  -26.2200   23.3725 H   0  0  0  0  0  0
  -21.6546  -26.7309   22.1206 H   0  0  0  0  0  0
  -19.6747  -27.2875   20.6818 H   0  0  0  0  0  0
  -19.6862  -25.6048   21.1553 H   0  0  0  0  0  0
  -17.4124  -26.6559   21.4212 H   0  0  0  0  0  0
  -18.0219  -26.0182   22.9263 H   0  0  0  0  0  0
  -19.8072  -30.7304   24.1988 H   0  0  0  0  0  0
  -17.5211  -31.6330   24.5111 H   0  0  0  0  0  0
  -15.5430  -30.3089   23.7747 H   0  0  0  0  0  0
  -15.8650  -28.0838   22.7264 H   0  0  0  0  0  0
  -24.5902  -30.7025   25.7850 H   0  0  0  0  0  0
  -24.8882  -32.2826   26.4940 H   0  0  0  0  0  0
  -25.8084  -30.8884   27.0259 H   0  0  0  0  0  0
  -26.2831  -29.6824   24.1096 H   0  0  0  0  0  0
  -27.4085  -29.7260   25.4505 H   0  0  0  0  0  0
  -27.8647  -30.4390   23.9196 H   0  0  0  0  0  0
  -27.2683  -33.3596   26.2077 H   0  0  0  0  0  0
  -28.3839  -32.6854   25.0297 H   0  0  0  0  0  0
  -28.0703  -31.8402   26.5391 H   0  0  0  0  0  0
  -28.2640  -38.0090   24.7519 H   0  0  0  0  0  0
  -28.1046  -36.2626   24.6308 H   0  0  0  0  0  0
  -27.2296  -37.1489   25.8891 H   0  0  0  0  0  0
  -20.9313  -29.8589   21.6856 H   0  0  0  0  0  0
  -26.0202  -38.2908   24.1388 H   0  0  0  0  0  0
  -29.6212  -17.5534   18.8856 H   0  0  0  0  0  0
  -28.5837  -17.4369   23.6115 H   0  0  0  0  0  0
  -29.1488  -19.0543   23.9363 H   0  0  0  0  0  0
  -27.4181  -18.7213   23.7455 H   0  0  0  0  0  0
  -27.7051  -20.9382   23.4205 H   0  0  0  0  0  0
  -26.3718  -21.0711   22.2618 H   0  0  0  0  0  0
  -27.7711  -22.1227   22.1678 H   0  0  0  0  0  0
  -28.7022  -16.0013   21.9966 H   0  0  0  0  0  0
  -30.3569  -16.5747   22.1510 H   0  0  0  0  0  0
  -26.7468  -21.9670   19.9299 H   0  0  0  0  0  0
  -27.5644  -21.7772   18.4219 H   0  0  0  0  0  0
  -28.4043  -24.5555   18.4633 H   0  0  0  0  0  0
  -26.9699  -24.2123   19.3880 H   0  0  0  0  0  0
  -29.4452  -25.2180   20.8267 H   0  0  0  0  0  0
  -27.7952  -25.2915   21.3759 H   0  0  0  0  0  0
  -30.2044  -16.0916   19.5811 H   0  0  0  0  0  0
  -29.5010  -22.8201   19.3802 H   0  0  0  0  0  0
  -28.7651  -22.9241   20.8215 H   0  0  0  0  0  0
  1 25  1  0  0  0
  1 30  2  0  0  0
  1 83  1  0  0  0
  2  3  1  0  0  0
  2 25  1  0  0  0
  2 86  1  0  0  0
  2 87  1  0  0  0
  3  4  1  0  0  0
  3 88  1  0  0  0
  3 89  1  0  0  0
  4  5  1  0  0  0
  4 90  1  0  0  0
  4 91  1  0  0  0
  5  6  1  0  0  0
  5 26  1  0  0  0
  5 92  1  0  0  0
  6 25  1  0  0  0
  6 93  1  0  0  0
  6 94  1  0  0  0
  7  8  2  0  0  0
  7 26  1  0  0  0
  7 29  1  0  0  0
  8  9  1  0  0  0
  8 22  1  0  0  0
  9 10  1  0  0  0
  9 27  2  0  0  0
 10 11  2  0  0  0
 10 15  1  0  0  0
 11 12  1  0  0  0
 11 95  1  0  0  0
 12 13  2  0  0  0
 12 96  1  0  0  0
 13 14  1  0  0  0
 13 31  1  0  0  0
 14 15  2  0  0  0
 14 97  1  0  0  0
 15 98  1  0  0  0
 16 17  2  0  0  0
 16 21  1  0  0  0
 16 31  1  0  0  0
 17 18  1  0  0  0
 17 99  1  0  0  0
 18 19  2  0  0  0
 18100  1  0  0  0
 19 20  1  0  0  0
 19 24  1  0  0  0
 20 21  2  0  0  0
 20101  1  0  0  0
 21 23  1  0  0  0
 22 28  1  0  0  0
 22 32  2  0  0  0
 26 27  1  0  0  0
 28102  1  0  0  0
 28103  1  0  0  0
 29104  1  0  0  0
 29105  1  0  0  0
 33 34  1  0  0  0
 33 66  1  0  0  0
 33 70  2  0  0  0
 34 36  1  0  0  0
 34 59  1  0  0  0
 34106  1  0  0  0
 35 44  2  0  0  0
 35 45  1  0  0  0
 35 68  1  0  0  0
 36 56  1  0  0  0
 36107  1  0  0  0
 37 39  1  0  0  0
 37 47  1  0  0  0
 37 66  1  0  0  0
 37108  1  0  0  0
 38 43  2  0  0  0
 38 46  1  0  0  0
 38 47  1  0  0  0
 39 64  1  0  0  0
 39 67  2  0  0  0
 40 52  1  0  0  0
 40 53  2  0  0  0
 40 58  1  0  0  0
 41109  1  0  0  0
 41110  1  0  0  0
 41111  1  0  0  0
 41 48  1  0  0  0
 42 43  1  0  0  0
 42 66  1  0  0  0
 42112  1  0  0  0
 42113  1  0  0  0
 43 44  1  0  0  0
 44114  1  0  0  0
 45 46  2  0  0  0
 45115  1  0  0  0
 46116  1  0  0  0
 47117  1  0  0  0
 47118  1  0  0  0
 48 56  1  0  0  0
 48 65  1  0  0  0
 48119  1  0  0  0
 49 50  1  0  0  0
 49 53  1  0  0  0
 49 64  1  0  0  0
 49120  1  0  0  0
 50 51  1  0  0  0
 50121  1  0  0  0
 50122  1  0  0  0
 51 52  1  0  0  0
 51123  1  0  0  0
 51124  1  0  0  0
 52125  1  0  0  0
 52126  1  0  0  0
 53 54  1  0  0  0
 54 55  2  0  0  0
 54127  1  0  0  0
 55 57  1  0  0  0
 55128  1  0  0  0
 56 69  2  0  0  0
 57 58  2  0  0  0
 57129  1  0  0  0
 58130  1  0  0  0
 59 60  1  0  0  0
 59 61  1  0  0  0
 59 62  1  0  0  0
 60131  1  0  0  0
 60132  1  0  0  0
 60133  1  0  0  0
 61134  1  0  0  0
 61135  1  0  0  0
 61136  1  0  0  0
 62137  1  0  0  0
 62138  1  0  0  0
 62139  1  0  0  0
 63 65  1  0  0  0
 63140  1  0  0  0
 63141  1  0  0  0
 63142  1  0  0  0
 64143  1  0  0  0
 65144  1  0  0  0
 68 82  1  0  0  0
 71 72  2  0  0  0
 71 76  1  0  0  0
 71145  1  0  0  0
 72 73  1  0  0  0
 72 79  1  0  0  0
 73 74  2  0  0  0
 73 77  1  0  0  0
 74 75  1  0  0  0
 74 78  1  0  0  0
 75 76  2  0  0  0
 75 80  1  0  0  0
 76 85  1  0  0  0
 77146  1  0  0  0
 77147  1  0  0  0
 77148  1  0  0  0
 78149  1  0  0  0
 78150  1  0  0  0
 78151  1  0  0  0
 79 83  1  0  0  0
 79152  1  0  0  0
 79153  1  0  0  0
 80 84  1  0  0  0
 80154  1  0  0  0
 80155  1  0  0  0
 81 82  1  0  0  0
 81 84  1  0  0  0
 81156  1  0  0  0
 81157  1  0  0  0
 82158  1  0  0  0
 82159  1  0  0  0
 83160  1  0  0  0
 84161  1  0  0  0
 84162  1  0  0  0
M  CHG  1  84   1
M  ISO  4   1 100  68 101  82 101  83 100
M  END
> <chiral flag>
0

> <version>
0

> <s_m_source_file>
/data/baiqing/PycharmProjects/Reinvent-master-3.2/result/LINK_invent/BTK/process_docking_weight1_custom_product_contain_oxygen_bond_distance_aromatic_linkinvent_7_9_3/rearranged_h_0039.sdf

> <i_m_source_file_index>
90

> <r_mmod_Potential_Energy-OPLS-2005>
-168.397247314453

> <r_mmod_Stretch_Energy-OPLS-2005>
40.2410507202148

> <r_mmod_Bend_Energy-OPLS-2005>
107.783218383789

> <r_mmod_Torsional_Energy-OPLS-2005>
278.361968994141

> <r_mmod_Improper_Torsional_Energy-OPLS-2005>
24.126766204834

> <r_mmod_Van_der_Waal_Energy-OPLS-2005>
159.786239624023

> <r_mmod_Electrostatic_Energy-OPLS-2005>
-349.881927490234

> <r_mmod_Solvation_Energy-OPLS-2005>
-445.716613769531

> <b_mmod_Minimization_Converged-OPLS-2005>
0

> <r_mmod_RMS_Derivative-OPLS-2005>
5.00219058990479

$$$$
91
                    3D
 Structure written by MMmdl.
169178  0  0  1  0            999 V2000
  -30.6861  -14.5858   20.5539 C   0  0  0  0  0  0
  -30.4193  -12.3601   19.4757 C   0  0  0  0  0  0
  -29.4942  -12.4934   18.2471 C   0  0  0  0  0  0
  -28.0339  -12.2903   18.6854 C   0  0  0  0  0  0
  -27.6563  -13.1882   19.8885 C   0  0  2  0  0  0
  -28.7064  -13.0667   21.0208 C   0  0  0  0  0  0
  -25.2565  -13.8085   20.5709 C   0  0  0  0  0  0
  -24.1821  -13.0430   20.9218 C   0  0  0  0  0  0
  -24.6340  -11.6877   20.8869 C   0  0  0  0  0  0
  -23.9002  -10.4297   21.0491 C   0  0  0  0  0  0
  -24.3579   -9.4206   21.9240 C   0  0  0  0  0  0
  -23.6277   -8.2232   22.0787 C   0  0  0  0  0  0
  -22.4263   -8.0266   21.3572 C   0  0  0  0  0  0
  -21.9877   -9.0240   20.4683 C   0  0  0  0  0  0
  -22.7178  -10.2139   20.3108 C   0  0  0  0  0  0
  -21.6850   -6.0702   22.5293 C   0  0  0  0  0  0
  -21.3992   -6.5631   23.8213 C   0  0  0  0  0  0
  -21.3657   -5.6801   24.9190 C   0  0  0  0  0  0
  -21.6057   -4.3055   24.7249 C   0  0  0  0  0  0
  -21.8818   -3.8135   23.4369 C   0  0  0  0  0  0
  -21.9192   -4.6938   22.3426 C   0  0  0  0  0  0
  -22.7831  -13.5255   21.1875 C   0  0  0  0  0  0
  -22.1673   -4.2128   21.0993 F   0  0  0  0  0  0
  -21.5631   -3.4538   25.7760 F   0  0  0  0  0  0
  -30.0181  -13.3982   20.4446 N   0  0  0  0  0  0
  -26.3003  -12.9216   20.3526 N   0  0  0  0  0  0
  -25.9282  -11.6406   20.5991 N   0  0  0  0  0  0
  -22.0483  -12.8324   22.0479 N   0  0  0  0  0  0
  -25.4285  -15.1791   20.3927 N   0  0  0  0  0  0
  -31.8384  -14.7126   20.1315 O   0  0  0  0  0  0
  -21.6643   -6.8844   21.4261 O   0  0  0  0  0  0
  -22.3580  -14.5599   20.6737 O   0  0  0  0  0  0
  -24.6174  -31.8646   23.2075 C   0  0  0  0  0  0
  -25.9065  -32.4785   23.8283 C   0  0  1  0  0  0
  -27.2048  -27.3680   20.1347 C   0  0  0  0  0  0
  -25.5874  -33.8568   24.2191 N   0  0  0  0  0  0
  -23.3984  -30.4977   21.5490 C   0  0  2  0  0  0
  -24.8412  -28.9499   20.1257 C   0  0  0  0  0  0
  -22.7416  -29.4639   22.4946 C   0  0  0  0  0  0
  -18.0265  -28.1309   22.8397 C   0  0  0  0  0  0
  -24.1477  -36.7314   23.2637 C   0  0  0  0  0  0
  -25.9335  -30.8196   21.3629 C   0  0  0  0  0  0
  -26.0087  -29.4389   20.7298 C   0  0  0  0  0  0
  -27.2020  -28.6586   20.7343 C   0  0  0  0  0  0
  -26.0208  -26.9132   19.5222 C   0  0  0  0  0  0
  -24.8432  -27.6857   19.5173 C   0  0  0  0  0  0
  -23.6105  -29.8372   20.1609 C   0  0  0  0  0  0
  -25.4077  -36.3038   24.0302 C   0  0  1  0  0  0
  -20.5855  -28.3590   23.1254 C   0  0  2  0  0  0
  -20.6735  -26.9341   22.5343 C   0  0  0  0  0  0
  -19.5758  -26.6293   21.5107 C   0  0  0  0  0  0
  -18.1943  -26.7811   22.1548 C   0  0  0  0  0  0
  -19.1520  -28.8760   23.2816 C   0  0  0  0  0  0
  -18.9471  -30.1381   23.8779 C   0  0  0  0  0  0
  -17.6473  -30.6494   24.0521 C   0  0  0  0  0  0
  -25.9023  -34.9437   23.5040 C   0  0  0  0  0  0
  -16.5355  -29.9022   23.6275 C   0  0  0  0  0  0
  -16.7274  -28.6480   23.0201 C   0  0  0  0  0  0
  -26.4460  -31.6602   25.0624 C   0  0  0  0  0  0
  -25.3685  -31.3810   26.1358 C   0  0  0  0  0  0
  -27.0300  -30.2972   24.6138 C   0  0  0  0  0  0
  -27.5914  -32.4443   25.7453 C   0  0  0  0  0  0
  -27.5558  -37.1768   24.8456 C   0  0  0  0  0  0
  -21.4145  -29.2985   22.3695 N   0  0  0  0  0  0
  -26.4225  -37.3746   23.9465 N   0  0  0  0  0  0
  -24.6674  -31.0735   22.0981 N   0  0  0  0  0  0
  -23.4229  -28.8187   23.2984 O   0  0  0  0  0  0
  -28.3106  -26.5438   19.9731 O   0  0  0  0  0  0
  -26.5653  -34.8930   22.4649 O   0  0  0  0  0  0
  -23.5361  -32.1448   23.7448 O   0  0  0  0  0  0
  -29.5898  -19.5312   21.3703 C   0  0  0  0  0  0
  -27.9019  -19.3531   19.1579 C   0  0  0  0  0  0
  -29.5168  -18.2786   20.6641 C   0  0  0  0  0  0
  -28.8281  -20.6906   20.9938 C   0  0  0  0  0  0
  -28.6549  -18.2208   19.5343 C   0  0  0  0  0  0
  -27.9613  -20.5605   19.8799 C   0  0  0  0  0  0
  -30.5075  -25.9827   20.5643 C   0  0  0  0  0  0
  -30.6868  -24.7618   19.6533 C   0  0  0  0  0  0
  -28.6417  -24.5918   21.6684 C   0  0  0  0  0  0
  -29.0656  -26.0160   21.0868 C   0  0  2  0  0  0
  -30.5607  -23.4660   20.4729 C   0  0  2  0  0  0
  -28.5015  -16.9703   18.6894 C   0  0  0  0  0  0
  -31.0188  -22.2742   19.6049 C   0  0  0  0  0  0
  -30.4578  -17.0893   21.0693 C   0  0  0  0  0  0
  -28.9053  -22.0469   21.7764 C   0  0  0  0  0  0
  -29.9790  -15.6688   20.9923 N   0  0  0  0  0  0
  -29.1608  -23.3263   20.9873 N   0  3  1  0  0  0
  -26.9923  -21.8904   19.3439 Cl  0  0  0  0  0  0
  -31.4742  -12.4163   19.2025 H   0  0  0  0  0  0
  -30.2880  -11.3749   19.9286 H   0  0  0  0  0  0
  -29.7645  -11.7606   17.4871 H   0  0  0  0  0  0
  -29.6101  -13.4771   17.7883 H   0  0  0  0  0  0
  -27.9320  -11.2456   18.9811 H   0  0  0  0  0  0
  -27.3413  -12.4360   17.8583 H   0  0  0  0  0  0
  -27.6719  -14.2060   19.5180 H   0  0  0  0  0  0
  -28.7301  -12.0454   21.4051 H   0  0  0  0  0  0
  -28.4662  -13.6984   21.8770 H   0  0  0  0  0  0
  -25.2685   -9.5713   22.4842 H   0  0  0  0  0  0
  -23.9987   -7.4623   22.7496 H   0  0  0  0  0  0
  -21.0798   -8.8762   19.8984 H   0  0  0  0  0  0
  -22.3610  -10.9712   19.6256 H   0  0  0  0  0  0
  -21.1980   -7.6141   23.9717 H   0  0  0  0  0  0
  -21.1478   -6.0525   25.9092 H   0  0  0  0  0  0
  -22.0597   -2.7597   23.2892 H   0  0  0  0  0  0
  -22.4052  -11.9954   22.4846 H   0  0  0  0  0  0
  -21.1162  -13.1482   22.2852 H   0  0  0  0  0  0
  -24.6349  -15.8070   20.3944 H   0  0  0  0  0  0
  -26.2705  -15.6038   20.0316 H   0  0  0  0  0  0
  -26.7125  -32.5473   23.1046 H   0  0  0  0  0  0
  -24.9857  -33.9689   25.0213 H   0  0  0  0  0  0
  -22.6823  -31.3135   21.4222 H   0  0  0  0  0  0
  -23.3662  -35.9719   23.3265 H   0  0  0  0  0  0
  -24.3579  -36.9006   22.2058 H   0  0  0  0  0  0
  -23.7321  -37.6513   23.6743 H   0  0  0  0  0  0
  -26.0470  -31.5769   20.5842 H   0  0  0  0  0  0
  -26.8207  -30.8813   21.9817 H   0  0  0  0  0  0
  -28.1069  -29.0645   21.1649 H   0  0  0  0  0  0
  -26.0095  -25.9492   19.0323 H   0  0  0  0  0  0
  -23.9449  -27.3150   19.0400 H   0  0  0  0  0  0
  -23.7311  -30.6230   19.4144 H   0  0  0  0  0  0
  -22.7240  -29.2812   19.8494 H   0  0  0  0  0  0
  -25.1266  -36.1774   25.0769 H   0  0  0  0  0  0
  -20.9919  -28.3133   24.1375 H   0  0  0  0  0  0
  -20.5482  -26.2264   23.3566 H   0  0  0  0  0  0
  -21.6635  -26.7272   22.1252 H   0  0  0  0  0  0
  -19.6926  -25.6180   21.1190 H   0  0  0  0  0  0
  -19.6614  -27.3035   20.6588 H   0  0  0  0  0  0
  -17.4147  -26.6407   21.4004 H   0  0  0  0  0  0
  -18.0443  -25.9945   22.8963 H   0  0  0  0  0  0
  -19.7987  -30.7214   24.2023 H   0  0  0  0  0  0
  -17.5071  -31.6154   24.5180 H   0  0  0  0  0  0
  -15.5374  -30.2917   23.7627 H   0  0  0  0  0  0
  -15.8689  -28.0888   22.6770 H   0  0  0  0  0  0
  -24.5787  -30.7215   25.7757 H   0  0  0  0  0  0
  -24.8936  -32.3039   26.4696 H   0  0  0  0  0  0
  -25.7955  -30.9027   27.0193 H   0  0  0  0  0  0
  -26.2872  -29.6699   24.1176 H   0  0  0  0  0  0
  -27.3970  -29.7249   25.4670 H   0  0  0  0  0  0
  -27.8795  -30.4168   23.9401 H   0  0  0  0  0  0
  -27.2342  -33.3747   26.1883 H   0  0  0  0  0  0
  -28.3782  -32.7040   25.0351 H   0  0  0  0  0  0
  -28.0530  -31.8699   26.5489 H   0  0  0  0  0  0
  -28.2485  -38.0147   24.7509 H   0  0  0  0  0  0
  -28.1104  -36.2640   24.6210 H   0  0  0  0  0  0
  -27.2298  -37.1375   25.8864 H   0  0  0  0  0  0
  -20.9279  -29.8902   21.7088 H   0  0  0  0  0  0
  -26.0034  -38.2781   24.1508 H   0  0  0  0  0  0
  -30.2646  -19.6081   22.2155 H   0  0  0  0  0  0
  -27.2611  -19.3085   18.2869 H   0  0  0  0  0  0
  -30.7299  -26.9008   20.0168 H   0  0  0  0  0  0
  -31.2167  -25.9449   21.3964 H   0  0  0  0  0  0
  -31.6570  -24.8157   19.1612 H   0  0  0  0  0  0
  -29.9400  -24.7655   18.8545 H   0  0  0  0  0  0
  -27.5508  -24.5467   21.7255 H   0  0  0  0  0  0
  -28.9873  -24.5465   22.7061 H   0  0  0  0  0  0
  -28.9990  -26.7585   21.8886 H   0  0  0  0  0  0
  -31.2346  -23.5346   21.3311 H   0  0  0  0  0  0
  -27.9608  -17.1571   17.7598 H   0  0  0  0  0  0
  -27.9131  -16.2660   19.2686 H   0  0  0  0  0  0
  -29.4674  -16.5285   18.4432 H   0  0  0  0  0  0
  -30.2241  -21.9320   18.9424 H   0  0  0  0  0  0
  -31.3319  -21.4301   20.2216 H   0  0  0  0  0  0
  -31.8724  -22.5175   18.9715 H   0  0  0  0  0  0
  -30.8083  -17.2622   22.0870 H   0  0  0  0  0  0
  -31.3501  -17.1963   20.4484 H   0  0  0  0  0  0
  -29.6466  -21.9653   22.5746 H   0  0  0  0  0  0
  -27.9513  -22.1400   22.2982 H   0  0  0  0  0  0
  -29.0298  -15.4980   21.2922 H   0  0  0  0  0  0
  -28.5736  -23.2322   20.1723 H   0  0  0  0  0  0
  1 25  1  0  0  0
  1 30  2  0  0  0
  1 86  1  0  0  0
  2  3  1  0  0  0
  2 25  1  0  0  0
  2 89  1  0  0  0
  2 90  1  0  0  0
  3  4  1  0  0  0
  3 91  1  0  0  0
  3 92  1  0  0  0
  4  5  1  0  0  0
  4 93  1  0  0  0
  4 94  1  0  0  0
  5  6  1  0  0  0
  5 26  1  0  0  0
  5 95  1  0  0  0
  6 25  1  0  0  0
  6 96  1  0  0  0
  6 97  1  0  0  0
  7  8  2  0  0  0
  7 26  1  0  0  0
  7 29  1  0  0  0
  8  9  1  0  0  0
  8 22  1  0  0  0
  9 10  1  0  0  0
  9 27  2  0  0  0
 10 11  2  0  0  0
 10 15  1  0  0  0
 11 12  1  0  0  0
 11 98  1  0  0  0
 12 13  2  0  0  0
 12 99  1  0  0  0
 13 14  1  0  0  0
 13 31  1  0  0  0
 14 15  2  0  0  0
 14100  1  0  0  0
 15101  1  0  0  0
 16 17  2  0  0  0
 16 21  1  0  0  0
 16 31  1  0  0  0
 17 18  1  0  0  0
 17102  1  0  0  0
 18 19  2  0  0  0
 18103  1  0  0  0
 19 20  1  0  0  0
 19 24  1  0  0  0
 20 21  2  0  0  0
 20104  1  0  0  0
 21 23  1  0  0  0
 22 28  1  0  0  0
 22 32  2  0  0  0
 26 27  1  0  0  0
 28105  1  0  0  0
 28106  1  0  0  0
 29107  1  0  0  0
 29108  1  0  0  0
 33 34  1  0  0  0
 33 66  1  0  0  0
 33 70  2  0  0  0
 34 36  1  0  0  0
 34 59  1  0  0  0
 34109  1  0  0  0
 35 44  2  0  0  0
 35 45  1  0  0  0
 35 68  1  0  0  0
 36 56  1  0  0  0
 36110  1  0  0  0
 37 39  1  0  0  0
 37 47  1  0  0  0
 37 66  1  0  0  0
 37111  1  0  0  0
 38 43  2  0  0  0
 38 46  1  0  0  0
 38 47  1  0  0  0
 39 64  1  0  0  0
 39 67  2  0  0  0
 40 52  1  0  0  0
 40 53  2  0  0  0
 40 58  1  0  0  0
 41112  1  0  0  0
 41113  1  0  0  0
 41114  1  0  0  0
 41 48  1  0  0  0
 42 43  1  0  0  0
 42 66  1  0  0  0
 42115  1  0  0  0
 42116  1  0  0  0
 43 44  1  0  0  0
 44117  1  0  0  0
 45 46  2  0  0  0
 45118  1  0  0  0
 46119  1  0  0  0
 47120  1  0  0  0
 47121  1  0  0  0
 48 56  1  0  0  0
 48 65  1  0  0  0
 48122  1  0  0  0
 49 50  1  0  0  0
 49 53  1  0  0  0
 49 64  1  0  0  0
 49123  1  0  0  0
 50 51  1  0  0  0
 50124  1  0  0  0
 50125  1  0  0  0
 51 52  1  0  0  0
 51126  1  0  0  0
 51127  1  0  0  0
 52128  1  0  0  0
 52129  1  0  0  0
 53 54  1  0  0  0
 54 55  2  0  0  0
 54130  1  0  0  0
 55 57  1  0  0  0
 55131  1  0  0  0
 56 69  2  0  0  0
 57 58  2  0  0  0
 57132  1  0  0  0
 58133  1  0  0  0
 59 60  1  0  0  0
 59 61  1  0  0  0
 59 62  1  0  0  0
 60134  1  0  0  0
 60135  1  0  0  0
 60136  1  0  0  0
 61137  1  0  0  0
 61138  1  0  0  0
 61139  1  0  0  0
 62140  1  0  0  0
 62141  1  0  0  0
 62142  1  0  0  0
 63 65  1  0  0  0
 63143  1  0  0  0
 63144  1  0  0  0
 63145  1  0  0  0
 64146  1  0  0  0
 65147  1  0  0  0
 68 80  1  0  0  0
 71 73  2  0  0  0
 71 74  1  0  0  0
 71148  1  0  0  0
 72 75  2  0  0  0
 72 76  1  0  0  0
 72149  1  0  0  0
 73 75  1  0  0  0
 73 84  1  0  0  0
 74 76  2  0  0  0
 74 85  1  0  0  0
 75 82  1  0  0  0
 76 88  1  0  0  0
 77 78  1  0  0  0
 77 80  1  0  0  0
 77150  1  0  0  0
 77151  1  0  0  0
 78 81  1  0  0  0
 78152  1  0  0  0
 78153  1  0  0  0
 79 80  1  0  0  0
 79 87  1  0  0  0
 79154  1  0  0  0
 79155  1  0  0  0
 80156  1  0  0  0
 81 83  1  0  0  0
 81 87  1  0  0  0
 81157  1  0  0  0
 82158  1  0  0  0
 82159  1  0  0  0
 82160  1  0  0  0
 83161  1  0  0  0
 83162  1  0  0  0
 83163  1  0  0  0
 84 86  1  0  0  0
 84164  1  0  0  0
 84165  1  0  0  0
 85166  1  0  0  0
 85167  1  0  0  0
 85 87  1  0  0  0
 86168  1  0  0  0
 87169  1  0  0  0
M  CHG  1  87   1
M  ISO  4   1 100  68 101  80 101  86 100
M  END
> <chiral flag>
0

> <version>
0

> <s_m_source_file>
/data/baiqing/PycharmProjects/Reinvent-master-3.2/result/LINK_invent/BTK/process_docking_weight1_custom_product_contain_oxygen_bond_distance_aromatic_linkinvent_7_9_3/rearranged_h_0039.sdf

> <i_m_source_file_index>
91

> <r_mmod_Potential_Energy-OPLS-2005>
-67.9292755126953

> <r_mmod_Stretch_Energy-OPLS-2005>
72.8209381103516

> <r_mmod_Bend_Energy-OPLS-2005>
149.412872314453

> <r_mmod_Torsional_Energy-OPLS-2005>
256.931640625

> <r_mmod_Improper_Torsional_Energy-OPLS-2005>
4.83819150924683

> <r_mmod_Van_der_Waal_Energy-OPLS-2005>
145.835800170898

> <r_mmod_Electrostatic_Energy-OPLS-2005>
-334.463653564453

> <r_mmod_Solvation_Energy-OPLS-2005>
-396.935546875

> <b_mmod_Minimization_Converged-OPLS-2005>
0

> <r_mmod_RMS_Derivative-OPLS-2005>
7.81892204284668

$$$$
92
                    3D
 Structure written by MMmdl.
173182  0  0  1  0            999 V2000
  -29.9167  -15.6428   20.5377 C   0  0  0  0  0  0
  -30.3731  -13.1355   19.6236 C   0  0  0  0  0  0
  -29.5517  -12.7022   18.3690 C   0  0  0  0  0  0
  -28.1288  -12.2769   18.7640 C   0  0  0  0  0  0
  -27.5661  -13.2408   19.8302 C   0  0  2  0  0  0
  -28.5146  -13.4763   21.0118 C   0  0  0  0  0  0
  -25.2198  -13.7784   20.5616 C   0  0  0  0  0  0
  -24.1566  -13.0141   20.9283 C   0  0  0  0  0  0
  -24.6197  -11.6655   20.8774 C   0  0  0  0  0  0
  -23.8944  -10.4082   21.0462 C   0  0  0  0  0  0
  -24.3545   -9.3995   21.9208 C   0  0  0  0  0  0
  -23.6190   -8.2054   22.0772 C   0  0  0  0  0  0
  -22.4168   -8.0143   21.3555 C   0  0  0  0  0  0
  -21.9817   -9.0100   20.4648 C   0  0  0  0  0  0
  -22.7167  -10.1949   20.3049 C   0  0  0  0  0  0
  -21.6777   -6.0655   22.5292 C   0  0  0  0  0  0
  -21.3962   -6.5585   23.8223 C   0  0  0  0  0  0
  -21.3654   -5.6759   24.9199 C   0  0  0  0  0  0
  -21.6056   -4.3023   24.7257 C   0  0  0  0  0  0
  -21.8813   -3.8096   23.4381 C   0  0  0  0  0  0
  -21.9158   -4.6896   22.3427 C   0  0  0  0  0  0
  -22.7657  -13.5028   21.1949 C   0  0  0  0  0  0
  -22.1639   -4.2095   21.1003 F   0  0  0  0  0  0
  -21.5645   -3.4513   25.7774 F   0  0  0  0  0  0
  -29.6288  -14.2154   20.4369 N   0  0  0  0  0  0
  -26.2485  -12.9033   20.3009 N   0  0  0  0  0  0
  -25.9091  -11.6214   20.5616 N   0  0  0  0  0  0
  -22.0296  -12.8069   22.0528 N   0  0  0  0  0  0
  -25.3975  -15.1337   20.3754 N   0  0  0  0  0  0
  -31.1319  -15.7634   20.2664 O   0  0  0  0  0  0
  -21.6529   -6.8764   21.4239 O   0  0  0  0  0  0
  -22.3436  -14.5366   20.6788 O   0  0  0  0  0  0
  -24.5609  -31.6725   23.2237 C   0  0  0  0  0  0
  -25.8538  -32.3883   23.8243 C   0  0  1  0  0  0
  -27.9098  -27.6541   19.1445 C   0  0  0  0  0  0
  -25.5116  -33.7982   24.1491 N   0  0  0  0  0  0
  -23.1693  -29.8696   21.6323 C   0  0  2  0  0  0
  -25.6584  -28.1321   20.0027 C   0  0  0  0  0  0
  -22.3636  -29.4242   22.7557 C   0  0  0  0  0  0
  -17.9204  -28.0827   22.8541 C   0  0  0  0  0  0
  -24.1471  -36.7046   23.2642 C   0  0  0  0  0  0
  -26.1981  -30.2445   21.8602 C   0  0  0  0  0  0
  -26.6405  -29.0712   20.6817 C   0  0  0  0  0  0
  -27.7649  -28.9878   19.8223 C   0  0  0  0  0  0
  -27.5513  -26.6147   19.8942 C   0  0  0  0  0  0
  -26.5397  -27.1297   20.5538 C   0  0  0  0  0  0
  -23.4256  -28.3838   20.1497 C   0  0  0  0  0  0
  -25.4121  -36.2710   24.0228 C   0  0  1  0  0  0
  -20.4048  -28.2623   23.2406 C   0  0  2  0  0  0
  -20.5556  -26.8484   22.6647 C   0  0  0  0  0  0
  -19.5169  -26.5433   21.5911 C   0  0  0  0  0  0
  -18.1070  -26.7341   22.1648 C   0  0  0  0  0  0
  -19.0234  -28.8128   23.3461 C   0  0  0  0  0  0
  -18.8572  -30.0903   23.9190 C   0  0  0  0  0  0
  -17.5734  -30.6480   24.0170 C   0  0  0  0  0  0
  -25.8960  -34.9016   23.4858 C   0  0  0  0  0  0
  -16.4630  -29.9094   23.5785 C   0  0  0  0  0  0
  -16.6387  -28.6278   23.0229 C   0  0  0  0  0  0
  -26.4651  -31.7113   25.1326 C   0  0  0  0  0  0
  -25.3754  -31.4015   26.1805 C   0  0  0  0  0  0
  -27.2884  -30.4251   24.9081 C   0  0  0  0  0  0
  -27.5235  -32.6402   25.7822 C   0  0  0  0  0  0
  -27.5518  -37.1613   24.8452 C   0  0  0  0  0  0
  -21.1366  -29.1688   22.4346 N   0  0  0  0  0  0
  -26.4263  -37.3473   23.9328 N   0  0  0  0  0  0
  -24.6163  -30.6258   22.3149 N   0  0  0  0  0  0
  -22.8769  -29.1381   23.8310 O   0  0  0  0  0  0
  -27.0876  -26.9302   18.2309 O   0  0  0  0  0  0
  -26.6044  -34.8576   22.4773 O   0  0  0  0  0  0
  -23.4796  -32.1069   23.6313 O   0  0  0  0  0  0
  -24.7839  -21.8454   20.7708 C   0  0  0  0  0  0
  -27.0775  -21.5791   21.3150 C   0  0  0  0  0  0
  -25.8463  -22.6465   21.2541 C   0  0  0  0  0  0
  -24.8205  -20.4297   20.5216 C   0  0  0  0  0  0
  -27.2486  -19.9736   21.0494 C   0  0  0  0  0  0
  -25.9200  -19.5321   20.7984 C   0  0  0  0  0  0
  -24.6626  -28.0081   21.9861 C   0  0  0  0  0  0
  -25.0638  -27.8790   23.2729 C   0  0  0  0  0  0
  -24.7065  -30.1651   19.9542 C   0  0  0  0  0  0
  -24.8743  -29.6962   18.2560 C   0  0  0  0  0  0
  -24.8006  -28.1054   17.5830 C   0  0  0  0  0  0
  -24.5249  -25.8020   19.4842 C   0  0  0  0  0  0
  -25.4742  -26.6437   18.1462 C   0  0  2  0  0  0
  -23.6201  -19.8904   19.7600 C   0  0  0  0  0  0
  -25.6701  -18.0326   20.8152 C   0  0  0  0  0  0
  -28.6158  -18.6393   20.9279 C   0  0  0  0  0  0
  -25.3656  -24.4375   21.7433 C   0  0  0  0  0  0
  -28.8940  -16.8425   20.8033 N   0  0  0  0  0  0
  -24.6048  -25.9819   21.1704 N   0  3  2  0  0  0
  -31.3415  -13.5076   19.2929 H   0  0  0  0  0  0
  -30.6070  -12.2686   20.2438 H   0  0  0  0  0  0
  -30.0589  -11.8987   17.8372 H   0  0  0  0  0  0
  -29.4996  -13.5404   17.6734 H   0  0  0  0  0  0
  -28.1713  -11.2621   19.1701 H   0  0  0  0  0  0
  -27.4814  -12.2303   17.8903 H   0  0  0  0  0  0
  -27.4601  -14.1866   19.2991 H   0  0  0  0  0  0
  -28.8118  -12.5405   21.4863 H   0  0  0  0  0  0
  -28.0375  -14.0710   21.7922 H   0  0  0  0  0  0
  -25.2668   -9.5429   22.4826 H   0  0  0  0  0  0
  -23.9853   -7.4413   22.7476 H   0  0  0  0  0  0
  -21.0756   -8.8597   19.8958 H   0  0  0  0  0  0
  -22.3630  -10.9489   19.6166 H   0  0  0  0  0  0
  -21.1943   -7.6091   23.9719 H   0  0  0  0  0  0
  -21.1505   -6.0495   25.9113 H   0  0  0  0  0  0
  -22.0614   -2.7555   23.2897 H   0  0  0  0  0  0
  -22.3846  -11.9641   22.4790 H   0  0  0  0  0  0
  -21.0985  -13.1212   22.2830 H   0  0  0  0  0  0
  -24.5961  -15.7516   20.3463 H   0  0  0  0  0  0
  -26.1627  -15.4499   19.7952 H   0  0  0  0  0  0
  -26.6484  -32.4477   23.0912 H   0  0  0  0  0  0
  -24.8667  -33.9195   24.9156 H   0  0  0  0  0  0
  -22.5448  -30.6787   21.2348 H   0  0  0  0  0  0
  -23.3713  -35.9393   23.3268 H   0  0  0  0  0  0
  -24.3486  -36.8764   22.2048 H   0  0  0  0  0  0
  -23.7255  -37.6214   23.6768 H   0  0  0  0  0  0
  -26.7438  -31.1343   21.5496 H   0  0  0  0  0  0
  -26.7324  -29.8606   22.6997 H   0  0  0  0  0  0
  -28.5515  -29.7277   19.8261 H   0  0  0  0  0  0
  -28.2526  -25.8234   20.1480 H   0  0  0  0  0  0
  -26.7171  -27.0051   21.6173 H   0  0  0  0  0  0
  -22.9070  -28.6686   19.2404 H   0  0  0  0  0  0
  -22.8377  -27.5175   20.4313 H   0  0  0  0  0  0
  -25.1359  -36.1473   25.0733 H   0  0  0  0  0  0
  -20.7570  -28.2268   24.2839 H   0  0  0  0  0  0
  -20.3975  -26.1419   23.4745 H   0  0  0  0  0  0
  -21.5624  -26.6419   22.3136 H   0  0  0  0  0  0
  -19.6312  -25.5139   21.2582 H   0  0  0  0  0  0
  -19.6774  -27.1698   20.7155 H   0  0  0  0  0  0
  -17.3659  -26.6341   21.3734 H   0  0  0  0  0  0
  -17.8809  -25.9478   22.8949 H   0  0  0  0  0  0
  -19.7083  -30.6479   24.2858 H   0  0  0  0  0  0
  -17.4274  -31.6406   24.4283 H   0  0  0  0  0  0
  -15.4625  -30.3103   23.6623 H   0  0  0  0  0  0
  -15.7709  -28.0598   22.7155 H   0  0  0  0  0  0
  -24.6617  -30.6567   25.8268 H   0  0  0  0  0  0
  -24.8141  -32.2984   26.4454 H   0  0  0  0  0  0
  -25.8083  -31.0155   27.1037 H   0  0  0  0  0  0
  -26.7255  -29.5224   24.7923 H   0  0  0  0  0  0
  -27.8529  -30.1891   25.8118 H   0  0  0  0  0  0
  -28.0493  -30.5352   24.1332 H   0  0  0  0  0  0
  -27.0942  -33.5819   26.1262 H   0  0  0  0  0  0
  -28.3221  -32.8915   25.0812 H   0  0  0  0  0  0
  -27.9870  -32.2026   26.6686 H   0  0  0  0  0  0
  -28.2571  -37.9880   24.7442 H   0  0  0  0  0  0
  -28.0980  -36.2389   24.6397 H   0  0  0  0  0  0
  -27.2183  -37.1378   25.8847 H   0  0  0  0  0  0
  -20.7538  -29.4552   21.5427 H   0  0  0  0  0  0
  -26.0094  -38.2542   24.1261 H   0  0  0  0  0  0
  -23.8543  -22.3531   20.5664 H   0  0  0  0  0  0
  -27.9915  -22.0737   21.5922 H   0  0  0  0  0  0
  -25.2668  -28.7201   23.8899 H   0  0  0  0  0  0
  -25.1108  -26.9028   23.7358 H   0  0  0  0  0  0
  -25.3902  -31.0222   19.9450 H   0  0  0  0  0  0
  -23.8407  -30.8048   19.7431 H   0  0  0  0  0  0
  -25.8440  -30.0848   17.9382 H   0  0  0  0  0  0
  -24.1678  -30.2953   17.6864 H   0  0  0  0  0  0
  -25.2088  -28.2264   16.5804 H   0  0  0  0  0  0
  -23.7536  -27.8812   17.3787 H   0  0  0  0  0  0
  -24.7593  -24.7502   19.3227 H   0  0  0  0  0  0
  -23.4752  -25.8421   19.1868 H   0  0  0  0  0  0
  -25.3706  -25.9644   17.3053 H   0  0  0  0  0  0
  -22.6854  -19.9501   20.3236 H   0  0  0  0  0  0
  -23.7639  -18.8848   19.3681 H   0  0  0  0  0  0
  -23.5229  -20.5157   18.8770 H   0  0  0  0  0  0
  -25.4351  -17.6579   19.8149 H   0  0  0  0  0  0
  -24.8640  -17.7436   21.4934 H   0  0  0  0  0  0
  -26.5220  -17.4740   21.1965 H   0  0  0  0  0  0
  -29.3297  -18.9608   21.6891 H   0  0  0  0  0  0
  -29.0824  -18.9698   20.0019 H   0  0  0  0  0  0
  -26.2291  -24.7770   22.3243 H   0  0  0  0  0  0
  -24.6286  -24.2042   22.5120 H   0  0  0  0  0  0
  -28.0130  -16.4050   21.0434 H   0  0  0  0  0  0
  -25.5827  -26.1191   20.9226 H   0  0  0  0  0  0
  1 25  1  0  0  0
  1 30  2  0  0  0
  1 88  1  0  0  0
  2  3  1  0  0  0
  2 25  1  0  0  0
  2 90  1  0  0  0
  2 91  1  0  0  0
  3  4  1  0  0  0
  3 92  1  0  0  0
  3 93  1  0  0  0
  4  5  1  0  0  0
  4 94  1  0  0  0
  4 95  1  0  0  0
  5  6  1  0  0  0
  5 26  1  0  0  0
  5 96  1  0  0  0
  6 25  1  0  0  0
  6 97  1  0  0  0
  6 98  1  0  0  0
  7  8  2  0  0  0
  7 26  1  0  0  0
  7 29  1  0  0  0
  8  9  1  0  0  0
  8 22  1  0  0  0
  9 10  1  0  0  0
  9 27  2  0  0  0
 10 11  2  0  0  0
 10 15  1  0  0  0
 11 12  1  0  0  0
 11 99  1  0  0  0
 12 13  2  0  0  0
 12100  1  0  0  0
 13 14  1  0  0  0
 13 31  1  0  0  0
 14 15  2  0  0  0
 14101  1  0  0  0
 15102  1  0  0  0
 16 17  2  0  0  0
 16 21  1  0  0  0
 16 31  1  0  0  0
 17 18  1  0  0  0
 17103  1  0  0  0
 18 19  2  0  0  0
 18104  1  0  0  0
 19 20  1  0  0  0
 19 24  1  0  0  0
 20 21  2  0  0  0
 20105  1  0  0  0
 21 23  1  0  0  0
 22 28  1  0  0  0
 22 32  2  0  0  0
 26 27  1  0  0  0
 28106  1  0  0  0
 28107  1  0  0  0
 29108  1  0  0  0
 29109  1  0  0  0
 33 34  1  0  0  0
 33 66  1  0  0  0
 33 70  2  0  0  0
 34 36  1  0  0  0
 34 59  1  0  0  0
 34110  1  0  0  0
 35 44  2  0  0  0
 35 45  1  0  0  0
 35 68  1  0  0  0
 36 56  1  0  0  0
 36111  1  0  0  0
 37 39  1  0  0  0
 37 47  1  0  0  0
 37 66  1  0  0  0
 37112  1  0  0  0
 38 43  2  0  0  0
 38 46  1  0  0  0
 38 47  1  0  0  0
 39 64  1  0  0  0
 39 67  2  0  0  0
 40 52  1  0  0  0
 40 53  2  0  0  0
 40 58  1  0  0  0
 41113  1  0  0  0
 41114  1  0  0  0
 41115  1  0  0  0
 41 48  1  0  0  0
 42 43  1  0  0  0
 42 66  1  0  0  0
 42116  1  0  0  0
 42117  1  0  0  0
 43 44  1  0  0  0
 44118  1  0  0  0
 45 46  2  0  0  0
 45119  1  0  0  0
 46120  1  0  0  0
 47121  1  0  0  0
 47122  1  0  0  0
 48 56  1  0  0  0
 48 65  1  0  0  0
 48123  1  0  0  0
 49 50  1  0  0  0
 49 53  1  0  0  0
 49 64  1  0  0  0
 49124  1  0  0  0
 50 51  1  0  0  0
 50125  1  0  0  0
 50126  1  0  0  0
 51 52  1  0  0  0
 51127  1  0  0  0
 51128  1  0  0  0
 52129  1  0  0  0
 52130  1  0  0  0
 53 54  1  0  0  0
 54 55  2  0  0  0
 54131  1  0  0  0
 55 57  1  0  0  0
 55132  1  0  0  0
 56 69  2  0  0  0
 57 58  2  0  0  0
 57133  1  0  0  0
 58134  1  0  0  0
 59 60  1  0  0  0
 59 61  1  0  0  0
 59 62  1  0  0  0
 60135  1  0  0  0
 60136  1  0  0  0
 60137  1  0  0  0
 61138  1  0  0  0
 61139  1  0  0  0
 61140  1  0  0  0
 62141  1  0  0  0
 62142  1  0  0  0
 62143  1  0  0  0
 63 65  1  0  0  0
 63144  1  0  0  0
 63145  1  0  0  0
 63146  1  0  0  0
 64147  1  0  0  0
 65148  1  0  0  0
 68 83  1  0  0  0
 71 73  2  0  0  0
 71 74  1  0  0  0
 71149  1  0  0  0
 72 73  1  0  0  0
 72 75  2  0  0  0
 72150  1  0  0  0
 73 87  1  0  0  0
 74 76  2  0  0  0
 74 84  1  0  0  0
 75 76  1  0  0  0
 75 86  1  0  0  0
 76 85  1  0  0  0
 77 78  2  0  0  0
 77 79  1  0  0  0
 77 89  1  0  0  0
 78151  1  0  0  0
 78152  1  0  0  0
 79 80  1  0  0  0
 79153  1  0  0  0
 79154  1  0  0  0
 80 81  1  0  0  0
 80155  1  0  0  0
 80156  1  0  0  0
 81 83  1  0  0  0
 81157  1  0  0  0
 81158  1  0  0  0
 82 83  1  0  0  0
 82 89  1  0  0  0
 82159  1  0  0  0
 82160  1  0  0  0
 83161  1  0  0  0
 84162  1  0  0  0
 84163  1  0  0  0
 84164  1  0  0  0
 85165  1  0  0  0
 85166  1  0  0  0
 85167  1  0  0  0
 86 88  1  0  0  0
 86168  1  0  0  0
 86169  1  0  0  0
 87170  1  0  0  0
 87171  1  0  0  0
 87 89  1  0  0  0
 88172  1  0  0  0
 89173  1  0  0  0
M  CHG  1  89   1
M  ISO  4   1 100  68 101  83 101  88 100
M  END
> <chiral flag>
0

> <version>
0

> <s_m_source_file>
/data/baiqing/PycharmProjects/Reinvent-master-3.2/result/LINK_invent/BTK/process_docking_weight1_custom_product_contain_oxygen_bond_distance_aromatic_linkinvent_7_9_3/rearranged_h_0039.sdf

> <i_m_source_file_index>
92

> <r_mmod_Potential_Energy-OPLS-2005>
13619.54296875

> <r_mmod_Stretch_Energy-OPLS-2005>
6556.279296875

> <r_mmod_Bend_Energy-OPLS-2005>
1488.49743652344

> <r_mmod_Torsional_Energy-OPLS-2005>
676.508117675781

> <r_mmod_Improper_Torsional_Energy-OPLS-2005>
75.9638824462891

> <r_mmod_Van_der_Waal_Energy-OPLS-2005>
2842.71020507812

> <r_mmod_Electrostatic_Energy-OPLS-2005>
-350.472442626953

> <r_mmod_Solvation_Energy-OPLS-2005>
-414.548370361328

> <b_mmod_Minimization_Converged-OPLS-2005>
0

> <r_mmod_RMS_Derivative-OPLS-2005>
23.4966526031494

$$$$
93
                    3D
 Structure written by MMmdl.
168176  0  0  1  0            999 V2000
  -30.7087  -14.4648   20.6302 C   0  0  0  0  0  0
  -30.4204  -12.3282   19.4070 C   0  0  0  0  0  0
  -29.4885  -12.5230   18.1953 C   0  0  0  0  0  0
  -28.0091  -12.3766   18.6065 C   0  0  0  0  0  0
  -27.6555  -13.2059   19.8719 C   0  0  2  0  0  0
  -28.6982  -12.9748   20.9876 C   0  0  0  0  0  0
  -25.2521  -13.8166   20.5661 C   0  0  0  0  0  0
  -24.1788  -13.0439   20.9191 C   0  0  0  0  0  0
  -24.6369  -11.6911   20.8753 C   0  0  0  0  0  0
  -23.9046  -10.4295   21.0412 C   0  0  0  0  0  0
  -24.3605   -9.4206   21.9185 C   0  0  0  0  0  0
  -23.6288   -8.2237   22.0760 C   0  0  0  0  0  0
  -22.4262   -8.0277   21.3554 C   0  0  0  0  0  0
  -21.9898   -9.0239   20.4650 C   0  0  0  0  0  0
  -22.7225  -10.2122   20.3057 C   0  0  0  0  0  0
  -21.6840   -6.0733   22.5285 C   0  0  0  0  0  0
  -21.4011   -6.5640   23.8220 C   0  0  0  0  0  0
  -21.3666   -5.6796   24.9183 C   0  0  0  0  0  0
  -21.6045   -4.3060   24.7230 C   0  0  0  0  0  0
  -21.8814   -3.8149   23.4353 C   0  0  0  0  0  0
  -21.9183   -4.6965   22.3408 C   0  0  0  0  0  0
  -22.7807  -13.5228   21.1864 C   0  0  0  0  0  0
  -22.1643   -4.2154   21.0987 F   0  0  0  0  0  0
  -21.5635   -3.4549   25.7747 F   0  0  0  0  0  0
  -30.0239  -13.3034   20.4338 N   0  0  0  0  0  0
  -26.2967  -12.9342   20.3348 N   0  0  0  0  0  0
  -25.9293  -11.6501   20.5759 N   0  0  0  0  0  0
  -22.0439  -12.8223   22.0423 N   0  0  0  0  0  0
  -25.4232  -15.1897   20.4077 N   0  0  0  0  0  0
  -31.8295  -14.6719   20.1578 O   0  0  0  0  0  0
  -21.6630   -6.8868   21.4249 O   0  0  0  0  0  0
  -22.3497  -14.5535   20.6725 O   0  0  0  0  0  0
  -24.6154  -31.8656   23.2106 C   0  0  0  0  0  0
  -25.9048  -32.4810   23.8395 C   0  0  1  0  0  0
  -27.2270  -27.4205   20.1005 C   0  0  0  0  0  0
  -25.5929  -33.8620   24.2329 N   0  0  0  0  0  0
  -23.4022  -30.4889   21.5521 C   0  0  2  0  0  0
  -24.8485  -28.9515   20.1176 C   0  0  0  0  0  0
  -22.7407  -29.4633   22.5000 C   0  0  0  0  0  0
  -18.0268  -28.1373   22.8470 C   0  0  0  0  0  0
  -24.1490  -36.7309   23.2629 C   0  0  0  0  0  0
  -25.9340  -30.8220   21.3692 C   0  0  0  0  0  0
  -26.0086  -29.4525   20.7245 C   0  0  0  0  0  0
  -27.2022  -28.6906   20.7225 C   0  0  0  0  0  0
  -26.0565  -26.9414   19.4778 C   0  0  0  0  0  0
  -24.8668  -27.6926   19.4948 C   0  0  0  0  0  0
  -23.6109  -29.8204   20.1665 C   0  0  0  0  0  0
  -25.4116  -36.3123   24.0326 C   0  0  1  0  0  0
  -20.5851  -28.3641   23.1332 C   0  0  2  0  0  0
  -20.6788  -26.9377   22.5420 C   0  0  0  0  0  0
  -19.5768  -26.6361   21.5215 C   0  0  0  0  0  0
  -18.1934  -26.7922   22.1602 C   0  0  0  0  0  0
  -19.1506  -28.8828   23.2893 C   0  0  0  0  0  0
  -18.9442  -30.1445   23.8880 C   0  0  0  0  0  0
  -17.6441  -30.6576   24.0558 C   0  0  0  0  0  0
  -25.9044  -34.9482   23.5126 C   0  0  0  0  0  0
  -16.5334  -29.9072   23.6331 C   0  0  0  0  0  0
  -16.7250  -28.6501   23.0323 C   0  0  0  0  0  0
  -26.4484  -31.6580   25.0704 C   0  0  0  0  0  0
  -25.3770  -31.3664   26.1454 C   0  0  0  0  0  0
  -27.0303  -30.3023   24.6072 C   0  0  0  0  0  0
  -27.6077  -32.4279   25.7464 C   0  0  0  0  0  0
  -27.5588  -37.1807   24.8455 C   0  0  0  0  0  0
  -21.4125  -29.3005   22.3738 N   0  0  0  0  0  0
  -26.4299  -37.3815   23.9404 N   0  0  0  0  0  0
  -24.6688  -31.0732   22.1021 N   0  0  0  0  0  0
  -23.4171  -28.8159   23.3031 O   0  0  0  0  0  0
  -28.3676  -26.6495   20.0314 O   0  0  0  0  0  0
  -26.5582  -34.8941   22.4676 O   0  0  0  0  0  0
  -23.5353  -32.1424   23.7475 O   0  0  0  0  0  0
  -32.2162  -18.2056   21.1245 C   0  0  0  0  0  0
  -29.8577  -18.7806   21.1593 C   0  0  0  0  0  0
  -30.8903  -17.8437   21.4165 C   0  0  0  0  0  0
  -32.5266  -19.4725   20.5937 C   0  0  0  0  0  0
  -30.1424  -20.0678   20.6176 C   0  0  0  0  0  0
  -31.4942  -20.4093   20.3239 C   0  0  0  0  0  0
  -33.9912  -19.8012   20.3432 C   0  0  0  0  0  0
  -31.8501  -21.7741   19.7340 C   0  0  0  0  0  0
  -27.7330  -24.2265   22.9163 C   0  0  0  0  0  0
  -30.6417  -16.5002   22.1164 C   0  0  0  0  0  0
  -28.9841  -21.0403   20.2994 C   0  0  0  0  0  0
  -28.0759  -23.3702   20.5046 C   0  0  0  0  0  0
  -28.6878  -25.8694   21.1943 C   0  0  0  0  0  0
  -27.8009  -24.6050   21.4260 C   0  0  2  0  0  0
  -30.0528  -15.3995   21.3443 N   0  0  0  0  0  0
  -29.0141  -22.3340   21.0410 N   0  3  0  0  0  0
  -31.4636  -12.4407   19.1071 H   0  0  0  0  0  0
  -30.3283  -11.3137   19.7973 H   0  0  0  0  0  0
  -29.7359  -11.8056   17.4119 H   0  0  0  0  0  0
  -29.6496  -13.5119   17.7628 H   0  0  0  0  0  0
  -27.8174  -11.3187   18.7866 H   0  0  0  0  0  0
  -27.3612  -12.6635   17.7769 H   0  0  0  0  0  0
  -27.7023  -14.2576   19.5882 H   0  0  0  0  0  0
  -28.6849  -11.9319   21.3105 H   0  0  0  0  0  0
  -28.4473  -13.5509   21.8798 H   0  0  0  0  0  0
  -25.2755   -9.5692   22.4756 H   0  0  0  0  0  0
  -24.0009   -7.4625   22.7477 H   0  0  0  0  0  0
  -21.0835   -8.8733   19.8948 H   0  0  0  0  0  0
  -22.3669  -10.9648   19.6163 H   0  0  0  0  0  0
  -21.1995   -7.6143   23.9735 H   0  0  0  0  0  0
  -21.1503   -6.0522   25.9092 H   0  0  0  0  0  0
  -22.0589   -2.7616   23.2847 H   0  0  0  0  0  0
  -22.4030  -11.9888   22.4823 H   0  0  0  0  0  0
  -21.1058  -13.1252   22.2611 H   0  0  0  0  0  0
  -24.6620  -15.8475   20.5333 H   0  0  0  0  0  0
  -26.2774  -15.6335   20.0949 H   0  0  0  0  0  0
  -26.7101  -32.5508   23.1148 H   0  0  0  0  0  0
  -25.0166  -33.9800   25.0532 H   0  0  0  0  0  0
  -22.6897  -31.3060   21.4140 H   0  0  0  0  0  0
  -23.3772  -35.9620   23.3289 H   0  0  0  0  0  0
  -24.3596  -36.8931   22.2046 H   0  0  0  0  0  0
  -23.7209  -37.6502   23.6640 H   0  0  0  0  0  0
  -26.0496  -31.5814   20.5945 H   0  0  0  0  0  0
  -26.8255  -30.8788   21.9839 H   0  0  0  0  0  0
  -28.0998  -29.0737   21.1888 H   0  0  0  0  0  0
  -26.0659  -25.9835   18.9789 H   0  0  0  0  0  0
  -23.9792  -27.3004   19.0154 H   0  0  0  0  0  0
  -23.7168  -30.5959   19.4072 H   0  0  0  0  0  0
  -22.7365  -29.2381   19.8706 H   0  0  0  0  0  0
  -25.1300  -36.1997   25.0819 H   0  0  0  0  0  0
  -20.9936  -28.3209   24.1451 H   0  0  0  0  0  0
  -20.5745  -26.2214   23.3572 H   0  0  0  0  0  0
  -21.6657  -26.7481   22.1163 H   0  0  0  0  0  0
  -19.6920  -25.6267   21.1243 H   0  0  0  0  0  0
  -19.6752  -27.3175   20.6743 H   0  0  0  0  0  0
  -17.4226  -26.6664   21.3980 H   0  0  0  0  0  0
  -18.0335  -26.0066   22.9000 H   0  0  0  0  0  0
  -19.7909  -30.7282   24.2221 H   0  0  0  0  0  0
  -17.4980  -31.6245   24.5167 H   0  0  0  0  0  0
  -15.5326  -30.2968   23.7662 H   0  0  0  0  0  0
  -15.8648  -28.0833   22.7020 H   0  0  0  0  0  0
  -24.5970  -30.6980   25.7789 H   0  0  0  0  0  0
  -24.8933  -32.2810   26.4892 H   0  0  0  0  0  0
  -25.8149  -30.8843   27.0207 H   0  0  0  0  0  0
  -26.2834  -29.6772   24.1165 H   0  0  0  0  0  0
  -27.4124  -29.7249   25.4499 H   0  0  0  0  0  0
  -27.8657  -30.4324   23.9192 H   0  0  0  0  0  0
  -27.2728  -33.3588   26.2049 H   0  0  0  0  0  0
  -28.3900  -32.6807   25.0297 H   0  0  0  0  0  0
  -28.0736  -31.8382   26.5370 H   0  0  0  0  0  0
  -28.2600  -38.0115   24.7579 H   0  0  0  0  0  0
  -28.1101  -36.2661   24.6219 H   0  0  0  0  0  0
  -27.2312  -37.1389   25.8859 H   0  0  0  0  0  0
  -20.9255  -29.8683   21.6943 H   0  0  0  0  0  0
  -26.0186  -38.2882   24.1467 H   0  0  0  0  0  0
  -33.0099  -17.5024   21.3383 H   0  0  0  0  0  0
  -28.8377  -18.5037   21.3910 H   0  0  0  0  0  0
  -34.6506  -19.0483   20.7761 H   0  0  0  0  0  0
  -34.2581  -20.7585   20.7918 H   0  0  0  0  0  0
  -34.2008  -19.8426   19.2746 H   0  0  0  0  0  0
  -32.7775  -21.7554   19.1635 H   0  0  0  0  0  0
  -31.9757  -22.5085   20.5295 H   0  0  0  0  0  0
  -31.0961  -22.1423   19.0399 H   0  0  0  0  0  0
  -27.0540  -23.3878   23.0792 H   0  0  0  0  0  0
  -27.3540  -25.0621   23.5075 H   0  0  0  0  0  0
  -28.7119  -23.9626   23.3175 H   0  0  0  0  0  0
  -29.9909  -16.6821   22.9724 H   0  0  0  0  0  0
  -31.5789  -16.1451   22.5505 H   0  0  0  0  0  0
  -28.0316  -20.5515   20.5026 H   0  0  0  0  0  0
  -28.9925  -21.2318   19.2262 H   0  0  0  0  0  0
  -28.4063  -23.7052   19.5210 H   0  0  0  0  0  0
  -27.1154  -22.8779   20.3374 H   0  0  0  0  0  0
  -29.7334  -25.5650   21.1228 H   0  0  0  0  0  0
  -28.6347  -26.5285   22.0634 H   0  0  0  0  0  0
  -26.7854  -24.9148   21.1848 H   0  0  0  0  0  0
  -29.1074  -15.1548   21.5942 H   0  0  0  0  0  0
  -29.9522  -22.6956   21.0206 H   0  0  0  0  0  0
  -28.7794  -22.1342   21.9991 H   0  0  0  0  0  0
  1 25  1  0  0  0
  1 30  2  0  0  0
  1 85  1  0  0  0
  2  3  1  0  0  0
  2 25  1  0  0  0
  2 87  1  0  0  0
  2 88  1  0  0  0
  3  4  1  0  0  0
  3 89  1  0  0  0
  3 90  1  0  0  0
  4  5  1  0  0  0
  4 91  1  0  0  0
  4 92  1  0  0  0
  5  6  1  0  0  0
  5 26  1  0  0  0
  5 93  1  0  0  0
  6 25  1  0  0  0
  6 94  1  0  0  0
  6 95  1  0  0  0
  7  8  2  0  0  0
  7 26  1  0  0  0
  7 29  1  0  0  0
  8  9  1  0  0  0
  8 22  1  0  0  0
  9 10  1  0  0  0
  9 27  2  0  0  0
 10 11  2  0  0  0
 10 15  1  0  0  0
 11 12  1  0  0  0
 11 96  1  0  0  0
 12 13  2  0  0  0
 12 97  1  0  0  0
 13 14  1  0  0  0
 13 31  1  0  0  0
 14 15  2  0  0  0
 14 98  1  0  0  0
 15 99  1  0  0  0
 16 17  2  0  0  0
 16 21  1  0  0  0
 16 31  1  0  0  0
 17 18  1  0  0  0
 17100  1  0  0  0
 18 19  2  0  0  0
 18101  1  0  0  0
 19 20  1  0  0  0
 19 24  1  0  0  0
 20 21  2  0  0  0
 20102  1  0  0  0
 21 23  1  0  0  0
 22 28  1  0  0  0
 22 32  2  0  0  0
 26 27  1  0  0  0
 28103  1  0  0  0
 28104  1  0  0  0
 29105  1  0  0  0
 29106  1  0  0  0
 33 34  1  0  0  0
 33 66  1  0  0  0
 33 70  2  0  0  0
 34 36  1  0  0  0
 34 59  1  0  0  0
 34107  1  0  0  0
 35 44  2  0  0  0
 35 45  1  0  0  0
 35 68  1  0  0  0
 36 56  1  0  0  0
 36108  1  0  0  0
 37 39  1  0  0  0
 37 47  1  0  0  0
 37 66  1  0  0  0
 37109  1  0  0  0
 38 43  2  0  0  0
 38 46  1  0  0  0
 38 47  1  0  0  0
 39 64  1  0  0  0
 39 67  2  0  0  0
 40 52  1  0  0  0
 40 53  2  0  0  0
 40 58  1  0  0  0
 41110  1  0  0  0
 41111  1  0  0  0
 41112  1  0  0  0
 41 48  1  0  0  0
 42 43  1  0  0  0
 42 66  1  0  0  0
 42113  1  0  0  0
 42114  1  0  0  0
 43 44  1  0  0  0
 44115  1  0  0  0
 45 46  2  0  0  0
 45116  1  0  0  0
 46117  1  0  0  0
 47118  1  0  0  0
 47119  1  0  0  0
 48 56  1  0  0  0
 48 65  1  0  0  0
 48120  1  0  0  0
 49 50  1  0  0  0
 49 53  1  0  0  0
 49 64  1  0  0  0
 49121  1  0  0  0
 50 51  1  0  0  0
 50122  1  0  0  0
 50123  1  0  0  0
 51 52  1  0  0  0
 51124  1  0  0  0
 51125  1  0  0  0
 52126  1  0  0  0
 52127  1  0  0  0
 53 54  1  0  0  0
 54 55  2  0  0  0
 54128  1  0  0  0
 55 57  1  0  0  0
 55129  1  0  0  0
 56 69  2  0  0  0
 57 58  2  0  0  0
 57130  1  0  0  0
 58131  1  0  0  0
 59 60  1  0  0  0
 59 61  1  0  0  0
 59 62  1  0  0  0
 60132  1  0  0  0
 60133  1  0  0  0
 60134  1  0  0  0
 61135  1  0  0  0
 61136  1  0  0  0
 61137  1  0  0  0
 62138  1  0  0  0
 62139  1  0  0  0
 62140  1  0  0  0
 63 65  1  0  0  0
 63141  1  0  0  0
 63142  1  0  0  0
 63143  1  0  0  0
 64144  1  0  0  0
 65145  1  0  0  0
 68 83  1  0  0  0
 71 73  2  0  0  0
 71 74  1  0  0  0
 71146  1  0  0  0
 72 73  1  0  0  0
 72 75  2  0  0  0
 72147  1  0  0  0
 73 80  1  0  0  0
 74 76  2  0  0  0
 74 77  1  0  0  0
 75 76  1  0  0  0
 75 81  1  0  0  0
 76 78  1  0  0  0
 77148  1  0  0  0
 77149  1  0  0  0
 77150  1  0  0  0
 78151  1  0  0  0
 78152  1  0  0  0
 78153  1  0  0  0
 79154  1  0  0  0
 79155  1  0  0  0
 79156  1  0  0  0
 79 84  1  0  0  0
 80 85  1  0  0  0
 80157  1  0  0  0
 80158  1  0  0  0
 81 86  1  0  0  0
 81159  1  0  0  0
 81160  1  0  0  0
 82 84  1  0  0  0
 82 86  1  0  0  0
 82161  1  0  0  0
 82162  1  0  0  0
 83 84  1  0  0  0
 83163  1  0  0  0
 83164  1  0  0  0
 84165  1  0  0  0
 85166  1  0  0  0
 86167  1  0  0  0
 86168  1  0  0  0
M  CHG  1  86   1
M  ISO  4   1 100  68 101  83 101  85 100
M  END
> <chiral flag>
0

> <version>
0

> <s_m_source_file>
/data/baiqing/PycharmProjects/Reinvent-master-3.2/result/LINK_invent/BTK/process_docking_weight1_custom_product_contain_oxygen_bond_distance_aromatic_linkinvent_7_9_3/rearranged_h_0039.sdf

> <i_m_source_file_index>
93

> <r_mmod_Potential_Energy-OPLS-2005>
-268.121856689453

> <r_mmod_Stretch_Energy-OPLS-2005>
43.3747825622559

> <r_mmod_Bend_Energy-OPLS-2005>
109.298439025879

> <r_mmod_Torsional_Energy-OPLS-2005>
241.301330566406

> <r_mmod_Improper_Torsional_Energy-OPLS-2005>
3.11076378822327

> <r_mmod_Van_der_Waal_Energy-OPLS-2005>
145.824691772461

> <r_mmod_Electrostatic_Energy-OPLS-2005>
-369.415924072266

> <r_mmod_Solvation_Energy-OPLS-2005>
-454.908660888672

> <b_mmod_Minimization_Converged-OPLS-2005>
0

> <r_mmod_RMS_Derivative-OPLS-2005>
2.80724000930786

$$$$
94
                    3D
 Structure written by MMmdl.
172181  0  0  1  0            999 V2000
  -29.1816  -15.8335   20.7645 C   0  0  0  0  0  0
  -30.2083  -13.4142   19.7051 C   0  0  0  0  0  0
  -29.5209  -12.7759   18.4361 C   0  0  0  0  0  0
  -28.1089  -12.2532   18.7664 C   0  0  0  0  0  0
  -27.4689  -13.2129   19.7855 C   0  0  2  0  0  0
  -28.3219  -13.4211   21.0235 C   0  0  0  0  0  0
  -25.1743  -13.7947   20.5400 C   0  0  0  0  0  0
  -24.1256  -13.0227   20.9299 C   0  0  0  0  0  0
  -24.5876  -11.6713   20.8756 C   0  0  0  0  0  0
  -23.8730  -10.4145   21.0479 C   0  0  0  0  0  0
  -24.3444   -9.4112   21.9201 C   0  0  0  0  0  0
  -23.6199   -8.2117   22.0751 C   0  0  0  0  0  0
  -22.4175   -8.0148   21.3539 C   0  0  0  0  0  0
  -21.9735   -9.0077   20.4638 C   0  0  0  0  0  0
  -22.6978  -10.1977   20.3066 C   0  0  0  0  0  0
  -21.6806   -6.0668   22.5306 C   0  0  0  0  0  0
  -21.3977   -6.5598   23.8232 C   0  0  0  0  0  0
  -21.3645   -5.6760   24.9197 C   0  0  0  0  0  0
  -21.6049   -4.3025   24.7250 C   0  0  0  0  0  0
  -21.8825   -3.8109   23.4373 C   0  0  0  0  0  0
  -21.9182   -4.6914   22.3427 C   0  0  0  0  0  0
  -22.7395  -13.5094   21.2054 C   0  0  0  0  0  0
  -22.1657   -4.2113   21.0998 F   0  0  0  0  0  0
  -21.5639   -3.4513   25.7763 F   0  0  0  0  0  0
  -29.2553  -14.3693   20.5151 N   0  0  0  0  0  0
  -26.1680  -12.8928   20.2343 N   0  0  0  0  0  0
  -25.8600  -11.6173   20.5282 N   0  0  0  0  0  0
  -22.0092  -12.8105   22.0652 N   0  0  0  0  0  0
  -25.3571  -15.1685   20.3796 N   0  0  0  0  0  0
  -30.4232  -16.0910   20.5939 O   0  0  0  0  0  0
  -21.6558   -6.8753   21.4247 O   0  0  0  0  0  0
  -22.3185  -14.5429   20.6878 O   0  0  0  0  0  0
  -24.6428  -31.9480   23.2511 C   0  0  0  0  0  0
  -25.9461  -32.5099   23.8640 C   0  0  1  0  0  0
  -26.1303  -27.2181   20.2266 C   0  0  0  0  0  0
  -25.6399  -33.8866   24.2601 N   0  0  0  0  0  0
  -23.3990  -30.5743   21.6828 C   0  0  2  0  0  0
  -24.7831  -29.3590   19.8307 C   0  0  0  0  0  0
  -23.0396  -29.4984   22.7706 C   0  0  0  0  0  0
  -18.8203  -27.5046   22.3456 C   0  0  0  0  0  0
  -24.1524  -36.7353   23.2597 C   0  0  0  0  0  0
  -25.9458  -30.8137   21.4578 C   0  0  0  0  0  0
  -25.8613  -29.5148   20.6966 C   0  0  0  0  0  0
  -26.7019  -28.3931   20.8256 C   0  0  0  0  0  0
  -25.8905  -27.3829   18.8993 C   0  0  0  0  0  0
  -24.9218  -28.4012   18.7813 C   0  0  0  0  0  0
  -23.5230  -30.1284   20.1687 C   0  0  0  0  0  0
  -25.4153  -36.3228   24.0334 C   0  0  1  0  0  0
  -21.3930  -27.7624   23.6025 C   0  0  2  0  0  0
  -22.5859  -26.2304   22.8669 C   0  0  0  0  0  0
  -21.7963  -25.1576   20.9448 C   0  0  0  0  0  0
  -19.3699  -26.3015   21.0758 C   0  0  0  0  0  0
  -19.7444  -28.1696   23.3118 C   0  0  0  0  0  0
  -19.2599  -29.4182   23.9576 C   0  0  0  0  0  0
  -17.9606  -29.9921   23.9027 C   0  0  0  0  0  0
  -25.9170  -34.9627   23.5162 C   0  0  0  0  0  0
  -17.0082  -29.2493   23.2015 C   0  0  0  0  0  0
  -17.4393  -28.0765   22.4627 C   0  0  0  0  0  0
  -26.4600  -31.6700   25.0958 C   0  0  0  0  0  0
  -25.3711  -31.3836   26.1563 C   0  0  0  0  0  0
  -27.0431  -30.3097   24.6483 C   0  0  0  0  0  0
  -27.6162  -32.4338   25.7795 C   0  0  0  0  0  0
  -27.5615  -37.1899   24.8463 C   0  0  0  0  0  0
  -21.7975  -29.1624   23.1023 N   0  0  0  0  0  0
  -26.4314  -37.3929   23.9428 N   0  0  0  0  0  0
  -24.6775  -31.1841   22.1330 N   0  0  0  0  0  0
  -23.9184  -28.8589   23.3190 O   0  0  0  0  0  0
  -24.7905  -26.8145   20.6561 O   0  0  0  0  0  0
  -26.5538  -34.9006   22.4609 O   0  0  0  0  0  0
  -23.5706  -32.2300   23.8075 O   0  0  0  0  0  0
  -26.0241  -21.0857   20.9320 C   0  0  0  0  0  0
  -24.3257  -22.9964   21.4713 C   0  0  0  0  0  0
  -25.5238  -19.9972   21.7036 C   0  0  0  0  0  0
  -23.3751  -22.3477   22.3103 C   0  0  0  0  0  0
  -24.1223  -20.7853   22.3504 C   0  0  0  0  0  0
  -25.4865  -22.4252   20.8308 C   0  0  0  0  0  0
  -20.6078  -25.3994   18.7574 C   0  0  0  0  0  0
  -21.9664  -26.6079   18.8481 C   0  0  0  0  0  0
  -19.8536  -24.1323   19.8427 C   0  0  0  0  0  0
  -21.3924  -27.2396   21.2907 C   0  0  0  0  0  0
  -23.0180  -27.0866   20.1903 C   0  0  2  0  0  0
  -19.7476  -23.9973   21.6847 C   0  0  2  0  0  0
  -23.2831  -19.8062   23.1548 C   0  0  0  0  0  0
  -18.3590  -23.6053   22.2351 C   0  0  0  0  0  0
  -26.7891  -18.3475   21.7935 C   0  0  0  0  0  0
  -21.8714  -23.5766   23.0611 C   0  0  0  0  0  0
  -27.8362  -16.8318   21.0575 N   0  0  0  0  0  0
  -20.5936  -25.1227   22.7008 N   0  3  2  0  0  0
  -26.1851  -23.2789   20.0433 F   0  0  0  0  0  0
  -31.0931  -13.9654   19.3849 H   0  0  0  0  0  0
  -30.6004  -12.6275   20.3530 H   0  0  0  0  0  0
  -30.1423  -11.9908   18.0001 H   0  0  0  0  0  0
  -29.4309  -13.5505   17.6732 H   0  0  0  0  0  0
  -28.1885  -11.2524   19.1974 H   0  0  0  0  0  0
  -27.4987  -12.1551   17.8657 H   0  0  0  0  0  0
  -27.3446  -14.1389   19.2194 H   0  0  0  0  0  0
  -28.7426  -12.4876   21.4009 H   0  0  0  0  0  0
  -27.7653  -13.8672   21.8473 H   0  0  0  0  0  0
  -25.2616   -9.5639   22.4708 H   0  0  0  0  0  0
  -23.9959   -7.4509   22.7436 H   0  0  0  0  0  0
  -21.0681   -8.8533   19.8945 H   0  0  0  0  0  0
  -22.3434  -10.9492   19.6159 H   0  0  0  0  0  0
  -21.1945   -7.6102   23.9725 H   0  0  0  0  0  0
  -21.1465   -6.0486   25.9098 H   0  0  0  0  0  0
  -22.0618   -2.7572   23.2878 H   0  0  0  0  0  0
  -22.3720  -11.9759   22.5015 H   0  0  0  0  0  0
  -21.0725  -13.1136   22.2915 H   0  0  0  0  0  0
  -24.4760  -15.6686   20.4453 H   0  0  0  0  0  0
  -25.8400  -15.4323   19.5289 H   0  0  0  0  0  0
  -26.7471  -32.5521   23.1272 H   0  0  0  0  0  0
  -25.0704  -34.0047   25.0852 H   0  0  0  0  0  0
  -22.6028  -31.3210   21.7124 H   0  0  0  0  0  0
  -23.3836  -35.9633   23.3259 H   0  0  0  0  0  0
  -24.3629  -36.8962   22.2007 H   0  0  0  0  0  0
  -23.7197  -37.6540   23.6579 H   0  0  0  0  0  0
  -26.2038  -31.6033   20.7521 H   0  0  0  0  0  0
  -26.7950  -30.7053   22.1190 H   0  0  0  0  0  0
  -27.5004  -28.3522   21.5530 H   0  0  0  0  0  0
  -25.8105  -26.5437   18.2208 H   0  0  0  0  0  0
  -24.2108  -28.3724   17.9685 H   0  0  0  0  0  0
  -23.5498  -31.0365   19.5665 H   0  0  0  0  0  0
  -22.6234  -29.6178   19.8339 H   0  0  0  0  0  0
  -25.1294  -36.2116   25.0825 H   0  0  0  0  0  0
  -21.5058  -27.7683   24.6870 H   0  0  0  0  0  0
  -22.8484  -25.6410   23.7327 H   0  0  0  0  0  0
  -23.5961  -26.5798   22.6815 H   0  0  0  0  0  0
  -21.9134  -24.0789   20.9406 H   0  0  0  0  0  0
  -22.3780  -24.7637   20.1108 H   0  0  0  0  0  0
  -18.4526  -25.7555   20.8600 H   0  0  0  0  0  0
  -19.2452  -26.9154   20.1810 H   0  0  0  0  0  0
  -19.9506  -29.9495   24.5986 H   0  0  0  0  0  0
  -17.7061  -30.9028   24.4253 H   0  0  0  0  0  0
  -15.9822  -29.5842   23.1540 H   0  0  0  0  0  0
  -16.6797  -27.6091   21.8511 H   0  0  0  0  0  0
  -24.5913  -30.7207   25.7796 H   0  0  0  0  0  0
  -24.8871  -32.3005   26.4932 H   0  0  0  0  0  0
  -25.7893  -30.8996   27.0388 H   0  0  0  0  0  0
  -26.3046  -29.6879   24.1433 H   0  0  0  0  0  0
  -27.3954  -29.7349   25.5054 H   0  0  0  0  0  0
  -27.9014  -30.4354   23.9885 H   0  0  0  0  0  0
  -27.2805  -33.3623   26.2417 H   0  0  0  0  0  0
  -28.3985  -32.6905   25.0646 H   0  0  0  0  0  0
  -28.0777  -31.8398   26.5683 H   0  0  0  0  0  0
  -28.2606  -38.0233   24.7603 H   0  0  0  0  0  0
  -28.1153  -36.2776   24.6191 H   0  0  0  0  0  0
  -27.2340  -37.1425   25.8867 H   0  0  0  0  0  0
  -21.0447  -29.7501   22.7708 H   0  0  0  0  0  0
  -26.0202  -38.2993   24.1509 H   0  0  0  0  0  0
  -26.9418  -20.9130   20.3902 H   0  0  0  0  0  0
  -24.1874  -24.0493   21.2946 H   0  0  0  0  0  0
  -20.8710  -24.8185   17.8733 H   0  0  0  0  0  0
  -19.7768  -25.9636   18.3344 H   0  0  0  0  0  0
  -21.4903  -27.5433   18.5534 H   0  0  0  0  0  0
  -22.6015  -26.4326   17.9767 H   0  0  0  0  0  0
  -20.3324  -23.2010   19.5354 H   0  0  0  0  0  0
  -18.8478  -23.9682   19.4589 H   0  0  0  0  0  0
  -20.7659  -28.0601   20.9217 H   0  0  0  0  0  0
  -22.2253  -27.8566   21.4159 H   0  0  0  0  0  0
  -23.5001  -26.1962   19.8142 H   0  0  0  0  0  0
  -20.1694  -23.0003   21.7271 H   0  0  0  0  0  0
  -23.5525  -18.7791   22.9062 H   0  0  0  0  0  0
  -22.2216  -19.9101   22.9187 H   0  0  0  0  0  0
  -23.4095  -19.9493   24.2288 H   0  0  0  0  0  0
  -17.6715  -24.4416   22.3372 H   0  0  0  0  0  0
  -18.4360  -23.1387   23.2183 H   0  0  0  0  0  0
  -17.9034  -22.8760   21.5599 H   0  0  0  0  0  0
  -26.1754  -17.7559   22.4718 H   0  0  0  0  0  0
  -27.5498  -18.7741   22.4480 H   0  0  0  0  0  0
  -22.2740  -23.7702   24.0539 H   0  0  0  0  0  0
  -21.2101  -22.7779   23.4019 H   0  0  0  0  0  0
  -27.0862  -16.1635   20.8966 H   0  0  0  0  0  0
  -20.0600  -25.3468   23.5271 H   0  0  0  0  0  0
  1 25  1  0  0  0
  1 30  2  0  0  0
  1 87  1  0  0  0
  2  3  1  0  0  0
  2 25  1  0  0  0
  2 90  1  0  0  0
  2 91  1  0  0  0
  3  4  1  0  0  0
  3 92  1  0  0  0
  3 93  1  0  0  0
  4  5  1  0  0  0
  4 94  1  0  0  0
  4 95  1  0  0  0
  5  6  1  0  0  0
  5 26  1  0  0  0
  5 96  1  0  0  0
  6 25  1  0  0  0
  6 97  1  0  0  0
  6 98  1  0  0  0
  7  8  2  0  0  0
  7 26  1  0  0  0
  7 29  1  0  0  0
  8  9  1  0  0  0
  8 22  1  0  0  0
  9 10  1  0  0  0
  9 27  2  0  0  0
 10 11  2  0  0  0
 10 15  1  0  0  0
 11 12  1  0  0  0
 11 99  1  0  0  0
 12 13  2  0  0  0
 12100  1  0  0  0
 13 14  1  0  0  0
 13 31  1  0  0  0
 14 15  2  0  0  0
 14101  1  0  0  0
 15102  1  0  0  0
 16 17  2  0  0  0
 16 21  1  0  0  0
 16 31  1  0  0  0
 17 18  1  0  0  0
 17103  1  0  0  0
 18 19  2  0  0  0
 18104  1  0  0  0
 19 20  1  0  0  0
 19 24  1  0  0  0
 20 21  2  0  0  0
 20105  1  0  0  0
 21 23  1  0  0  0
 22 28  1  0  0  0
 22 32  2  0  0  0
 26 27  1  0  0  0
 28106  1  0  0  0
 28107  1  0  0  0
 29108  1  0  0  0
 29109  1  0  0  0
 33 34  1  0  0  0
 33 66  1  0  0  0
 33 70  2  0  0  0
 34 36  1  0  0  0
 34 59  1  0  0  0
 34110  1  0  0  0
 35 44  2  0  0  0
 35 45  1  0  0  0
 35 68  1  0  0  0
 36 56  1  0  0  0
 36111  1  0  0  0
 37 39  1  0  0  0
 37 47  1  0  0  0
 37 66  1  0  0  0
 37112  1  0  0  0
 38 43  2  0  0  0
 38 46  1  0  0  0
 38 47  1  0  0  0
 39 64  1  0  0  0
 39 67  2  0  0  0
 40 52  1  0  0  0
 40 53  2  0  0  0
 40 58  1  0  0  0
 41113  1  0  0  0
 41114  1  0  0  0
 41115  1  0  0  0
 41 48  1  0  0  0
 42 43  1  0  0  0
 42 66  1  0  0  0
 42116  1  0  0  0
 42117  1  0  0  0
 43 44  1  0  0  0
 44118  1  0  0  0
 45 46  2  0  0  0
 45119  1  0  0  0
 46120  1  0  0  0
 47121  1  0  0  0
 47122  1  0  0  0
 48 56  1  0  0  0
 48 65  1  0  0  0
 48123  1  0  0  0
 49 50  1  0  0  0
 49 53  1  0  0  0
 49 64  1  0  0  0
 49124  1  0  0  0
 50 51  1  0  0  0
 50125  1  0  0  0
 50126  1  0  0  0
 51 52  1  0  0  0
 51127  1  0  0  0
 51128  1  0  0  0
 52129  1  0  0  0
 52130  1  0  0  0
 53 54  1  0  0  0
 54 55  2  0  0  0
 54131  1  0  0  0
 55 57  1  0  0  0
 55132  1  0  0  0
 56 69  2  0  0  0
 57 58  2  0  0  0
 57133  1  0  0  0
 58134  1  0  0  0
 59 60  1  0  0  0
 59 61  1  0  0  0
 59 62  1  0  0  0
 60135  1  0  0  0
 60136  1  0  0  0
 60137  1  0  0  0
 61138  1  0  0  0
 61139  1  0  0  0
 61140  1  0  0  0
 62141  1  0  0  0
 62142  1  0  0  0
 62143  1  0  0  0
 63 65  1  0  0  0
 63144  1  0  0  0
 63145  1  0  0  0
 63146  1  0  0  0
 64147  1  0  0  0
 65148  1  0  0  0
 68 81  1  0  0  0
 71 73  2  0  0  0
 71 76  1  0  0  0
 71149  1  0  0  0
 72 74  1  0  0  0
 72 76  2  0  0  0
 72150  1  0  0  0
 73 75  1  0  0  0
 73 85  1  0  0  0
 74 75  2  0  0  0
 74 86  1  0  0  0
 75 83  1  0  0  0
 76 89  1  0  0  0
 77 78  1  0  0  0
 77 79  1  0  0  0
 77151  1  0  0  0
 77152  1  0  0  0
 78 81  1  0  0  0
 78153  1  0  0  0
 78154  1  0  0  0
 79 82  1  0  0  0
 79155  1  0  0  0
 79156  1  0  0  0
 80 81  1  0  0  0
 80 88  1  0  0  0
 80157  1  0  0  0
 80158  1  0  0  0
 81159  1  0  0  0
 82 84  1  0  0  0
 82 88  1  0  0  0
 82160  1  0  0  0
 83161  1  0  0  0
 83162  1  0  0  0
 83163  1  0  0  0
 84164  1  0  0  0
 84165  1  0  0  0
 84166  1  0  0  0
 85 87  1  0  0  0
 85167  1  0  0  0
 85168  1  0  0  0
 86169  1  0  0  0
 86170  1  0  0  0
 86 88  1  0  0  0
 87171  1  0  0  0
 88172  1  0  0  0
M  CHG  1  88   1
M  ISO  4   1 100  68 101  81 101  87 100
M  END
> <chiral flag>
0

> <version>
0

> <s_m_source_file>
/data/baiqing/PycharmProjects/Reinvent-master-3.2/result/LINK_invent/BTK/process_docking_weight1_custom_product_contain_oxygen_bond_distance_aromatic_linkinvent_7_9_3/rearranged_h_0039.sdf

> <i_m_source_file_index>
94

> <r_mmod_Potential_Energy-OPLS-2005>
18730.0546875

> <r_mmod_Stretch_Energy-OPLS-2005>
8613.6123046875

> <r_mmod_Bend_Energy-OPLS-2005>
2190.36596679688

> <r_mmod_Torsional_Energy-OPLS-2005>
623.471923828125

> <r_mmod_Improper_Torsional_Energy-OPLS-2005>
45.7617378234863

> <r_mmod_Van_der_Waal_Energy-OPLS-2005>
2715.302734375

> <r_mmod_Electrostatic_Energy-OPLS-2005>
-345.604644775391

> <r_mmod_Solvation_Energy-OPLS-2005>
-390.129455566406

> <b_mmod_Minimization_Converged-OPLS-2005>
0

> <r_mmod_RMS_Derivative-OPLS-2005>
8.33459091186523

$$$$
